data_image0
_cell_length_a       5.08108
_cell_length_b       10.6084
_cell_length_c       10.2281
_cell_angle_alpha    96.3499
_cell_angle_beta     89.1378
_cell_angle_gamma    89.648

_symmetry_space_group_name_H-M    "P 1"
_symmetry_int_tables_number       1

loop_
  _symmetry_equiv_pos_as_xyz
  'x, y, z'

loop_
  _atom_site_label
  _atom_site_occupancy
  _atom_site_fract_x
  _atom_site_fract_y
  _atom_site_fract_z
  _atom_site_thermal_displace_type
  _atom_site_B_iso_or_equiv
  _atom_site_type_symbol
  Hf1      1.0000 0.24320  0.96415  0.11746  Biso   1.000  Hf
  Hf2      1.0000 0.24053  0.24295  0.41162  Biso   1.000  Hf
  Hf3      1.0000 0.74895  0.28646  0.13506  Biso   1.000  Hf
  Hf4      1.0000 0.75499  0.01325  0.36994  Biso   1.000  Hf
  Hf5      1.0000 0.87677  0.13669  0.00318  Biso   1.000  Hf
  Hf6      1.0000 0.09716  0.07209  0.28822  Biso   1.000  Hf
  Hf7      1.0000 0.00190  0.33627  0.29041  Biso   1.000  Hf
  Hf8      1.0000 0.01449  0.39150  0.02873  Biso   1.000  Hf
  Hf9      1.0000 0.60013  0.17963  0.28468  Biso   1.000  Hf
  Hf10     1.0000 0.38847  0.05903  0.96003  Biso   1.000  Hf
  Hf11     1.0000 0.51008  0.35626  0.98556  Biso   1.000  Hf
  Hf12     1.0000 0.55521  0.44114  0.23727  Biso   1.000  Hf
  Hf13     1.0000 0.24953  0.01619  0.61254  Biso   1.000  Hf
  Hf14     1.0000 0.19460  0.21725  0.89119  Biso   1.000  Hf
  Hf15     1.0000 0.70926  0.27075  0.63208  Biso   1.000  Hf
  Hf16     1.0000 0.73790  0.97952  0.87722  Biso   1.000  Hf
  Hf17     1.0000 0.99107  0.15295  0.52632  Biso   1.000  Hf
  Hf18     1.0000 0.00585  0.06620  0.76734  Biso   1.000  Hf
  Hf19     1.0000 0.94928  0.31339  0.78432  Biso   1.000  Hf
  Hf20     1.0000 0.01908  0.39818  0.53132  Biso   1.000  Hf
  Hf21     1.0000 0.44291  0.18390  0.73651  Biso   1.000  Hf
  Hf22     1.0000 0.49675  0.11715  0.50240  Biso   1.000  Hf
  Hf23     1.0000 0.51553  0.37075  0.49139  Biso   1.000  Hf
  Hf24     1.0000 0.55339  0.44066  0.73014  Biso   1.000  Hf
  Hf25     1.0000 0.30128  0.51884  0.11516  Biso   1.000  Hf
  Hf26     1.0000 0.21187  0.74204  0.37538  Biso   1.000  Hf
  Hf27     1.0000 0.72740  0.75577  0.10552  Biso   1.000  Hf
  Hf28     1.0000 0.80693  0.49340  0.39537  Biso   1.000  Hf
  Hf29     1.0000 0.01360  0.63343  0.01411  Biso   1.000  Hf
  Hf30     1.0000 0.03601  0.58053  0.26948  Biso   1.000  Hf
  Hf31     1.0000 0.02522  0.83306  0.23675  Biso   1.000  Hf
  Hf32     1.0000 0.97161  0.87690  0.99512  Biso   1.000  Hf
  Hf33     1.0000 0.47000  0.68379  0.22395  Biso   1.000  Hf
  Hf34     1.0000 0.51959  0.60186  0.98035  Biso   1.000  Hf
  Hf35     1.0000 0.47829  0.83465  0.97805  Biso   1.000  Hf
  Hf36     1.0000 0.57481  0.92920  0.20888  Biso   1.000  Hf
  Hf37     1.0000 0.30249  0.52430  0.61496  Biso   1.000  Hf
  Hf38     1.0000 0.19547  0.72959  0.86768  Biso   1.000  Hf
  Hf39     1.0000 0.70345  0.77741  0.59843  Biso   1.000  Hf
  Hf40     1.0000 0.79529  0.47760  0.88927  Biso   1.000  Hf
  Hf41     1.0000 0.00167  0.64792  0.51579  Biso   1.000  Hf
  Hf42     1.0000 0.05058  0.56247  0.77173  Biso   1.000  Hf
  Hf43     1.0000 0.94368  0.81681  0.75651  Biso   1.000  Hf
  Hf44     1.0000 0.98043  0.89894  0.49932  Biso   1.000  Hf
  Hf45     1.0000 0.45365  0.68901  0.71624  Biso   1.000  Hf
  Hf46     1.0000 0.50796  0.62016  0.47363  Biso   1.000  Hf
  Hf47     1.0000 0.48335  0.87061  0.46364  Biso   1.000  Hf
  Hf48     1.0000 0.51867  0.93143  0.71293  Biso   1.000  Hf
  Ag1      1.0000 0.26800  0.21290  0.14889  Biso   1.000  Ag
