data_image0
_cell_length_a       10.0207
_cell_length_b       10.3811
_cell_length_c       10.0646
_cell_angle_alpha    89.589
_cell_angle_beta     89.8898
_cell_angle_gamma    90.3065

_symmetry_space_group_name_H-M    "P 1"
_symmetry_int_tables_number       1

loop_
  _symmetry_equiv_pos_as_xyz
  'x, y, z'

loop_
  _atom_site_label
  _atom_site_occupancy
  _atom_site_fract_x
  _atom_site_fract_y
  _atom_site_fract_z
  _atom_site_thermal_displace_type
  _atom_site_B_iso_or_equiv
  _atom_site_type_symbol
  Hf1      1.0000 0.14365  0.00192  0.11221  Biso   1.000  Hf
  Hf2      1.0000 0.13149  0.23156  0.39463  Biso   1.000  Hf
  Hf3      1.0000 0.36785  0.26731  0.12217  Biso   1.000  Hf
  Hf4      1.0000 0.36834  0.48526  0.37582  Biso   1.000  Hf
  Hf5      1.0000 0.96515  0.17994  0.27496  Biso   1.000  Hf
  Hf6      1.0000 0.04040  0.06264  0.46389  Biso   1.000  Hf
  Hf7      1.0000 0.46271  0.43492  0.19382  Biso   1.000  Hf
  Hf8      1.0000 0.46468  0.31847  0.44576  Biso   1.000  Hf
  Hf9      1.0000 0.25390  0.11354  0.25141  Biso   1.000  Hf
  Hf10     1.0000 0.27533  0.13206  0.50259  Biso   1.000  Hf
  Hf11     1.0000 0.23503  0.38413  0.50215  Biso   1.000  Hf
  Hf12     1.0000 0.22931  0.36734  0.25471  Biso   1.000  Hf
  Hf13     1.0000 0.13873  0.01286  0.63201  Biso   1.000  Hf
  Hf14     1.0000 0.13715  0.23033  0.86764  Biso   1.000  Hf
  Hf15     1.0000 0.37055  0.26747  0.62687  Biso   1.000  Hf
  Hf16     1.0000 0.36971  0.48599  0.87226  Biso   1.000  Hf
  Hf17     1.0000 0.03839  0.18265  0.69361  Biso   1.000  Hf
  Hf18     1.0000 0.04539  0.05593  0.93151  Biso   1.000  Hf
  Hf19     1.0000 0.46869  0.43380  0.69498  Biso   1.000  Hf
  Hf20     1.0000 0.46546  0.31546  0.94192  Biso   1.000  Hf
  Hf21     1.0000 0.27519  0.11725  0.74896  Biso   1.000  Hf
  Hf22     1.0000 0.28518  0.12448  0.99430  Biso   1.000  Hf
  Hf23     1.0000 0.23596  0.39098  0.99722  Biso   1.000  Hf
  Hf24     1.0000 0.23352  0.36682  0.74813  Biso   1.000  Hf
  Hf25     1.0000 0.13448  0.52443  0.12514  Biso   1.000  Hf
  Hf26     1.0000 0.13431  0.73595  0.37672  Biso   1.000  Hf
  Hf27     1.0000 0.36918  0.76266  0.12468  Biso   1.000  Hf
  Hf28     1.0000 0.36466  0.98496  0.37463  Biso   1.000  Hf
  Hf29     1.0000 0.03698  0.68625  0.19473  Biso   1.000  Hf
  Hf30     1.0000 0.03531  0.57081  0.44340  Biso   1.000  Hf
  Hf31     1.0000 0.45983  0.93366  0.19437  Biso   1.000  Hf
  Hf32     1.0000 0.46667  0.81747  0.44262  Biso   1.000  Hf
  Hf33     1.0000 0.27186  0.61768  0.24821  Biso   1.000  Hf
  Hf34     1.0000 0.27113  0.63307  0.49738  Biso   1.000  Hf
  Hf35     1.0000 0.23240  0.88288  0.49877  Biso   1.000  Hf
  Hf36     1.0000 0.23195  0.86328  0.24649  Biso   1.000  Hf
  Hf37     1.0000 0.13223  0.51404  0.62332  Biso   1.000  Hf
  Hf38     1.0000 0.13307  0.73124  0.87012  Biso   1.000  Hf
  Hf39     1.0000 0.37017  0.76435  0.62180  Biso   1.000  Hf
  Hf40     1.0000 0.37303  0.98036  0.87096  Biso   1.000  Hf
  Hf41     1.0000 0.03775  0.68445  0.68972  Biso   1.000  Hf
  Hf42     1.0000 0.03556  0.56654  0.94642  Biso   1.000  Hf
  Hf43     1.0000 0.46965  0.93207  0.69188  Biso   1.000  Hf
  Hf44     1.0000 0.47240  0.81725  0.94830  Biso   1.000  Hf
  Hf45     1.0000 0.26925  0.61443  0.74636  Biso   1.000  Hf
  Hf46     1.0000 0.27010  0.63485  0.99682  Biso   1.000  Hf
  Hf47     1.0000 0.23661  0.87625  0.99372  Biso   1.000  Hf
  Hf48     1.0000 0.23680  0.86355  0.74764  Biso   1.000  Hf
  Hf49     1.0000 0.62759  0.00856  0.11973  Biso   1.000  Hf
  Hf50     1.0000 0.62881  0.23127  0.37854  Biso   1.000  Hf
  Hf51     1.0000 0.83723  0.26319  0.12945  Biso   1.000  Hf
  Hf52     1.0000 0.86754  0.48410  0.37636  Biso   1.000  Hf
  Hf53     1.0000 0.52617  0.18096  0.19522  Biso   1.000  Hf
  Hf54     1.0000 0.53311  0.06618  0.44725  Biso   1.000  Hf
  Hf55     1.0000 0.96028  0.43316  0.19198  Biso   1.000  Hf
  Hf56     1.0000 0.97629  0.33287  0.46752  Biso   1.000  Hf
  Hf57     1.0000 0.74370  0.11124  0.24689  Biso   1.000  Hf
  Hf58     1.0000 0.77292  0.13904  0.49654  Biso   1.000  Hf
  Hf59     1.0000 0.73259  0.38407  0.50070  Biso   1.000  Hf
  Hf60     1.0000 0.72126  0.37017  0.25438  Biso   1.000  Hf
  Hf61     1.0000 0.63938  0.01554  0.62215  Biso   1.000  Hf
  Hf62     1.0000 0.63348  0.23273  0.87177  Biso   1.000  Hf
  Hf63     1.0000 0.86763  0.26956  0.62989  Biso   1.000  Hf
  Hf64     1.0000 0.86613  0.48211  0.87859  Biso   1.000  Hf
  Hf65     1.0000 0.54034  0.18409  0.69172  Biso   1.000  Hf
  Hf66     1.0000 0.54090  0.06404  0.93828  Biso   1.000  Hf
  Hf67     1.0000 0.96626  0.43610  0.70343  Biso   1.000  Hf
  Hf68     1.0000 0.95571  0.31116  0.93571  Biso   1.000  Hf
  Hf69     1.0000 0.77317  0.11647  0.74816  Biso   1.000  Hf
  Hf70     1.0000 0.76934  0.12964  0.99831  Biso   1.000  Hf
  Hf71     1.0000 0.72234  0.38208  0.00198  Biso   1.000  Hf
  Hf72     1.0000 0.73006  0.36926  0.75047  Biso   1.000  Hf
  Hf73     1.0000 0.63225  0.52004  0.12779  Biso   1.000  Hf
  Hf74     1.0000 0.63857  0.73805  0.37565  Biso   1.000  Hf
  Hf75     1.0000 0.86673  0.76671  0.12477  Biso   1.000  Hf
  Hf76     1.0000 0.87772  0.00052  0.36320  Biso   1.000  Hf
  Hf77     1.0000 0.53785  0.68555  0.19694  Biso   1.000  Hf
  Hf78     1.0000 0.53732  0.56861  0.44542  Biso   1.000  Hf
  Hf79     1.0000 0.96695  0.94018  0.18449  Biso   1.000  Hf
  Hf80     1.0000 0.96614  0.82260  0.43797  Biso   1.000  Hf
  Hf81     1.0000 0.77166  0.61811  0.25006  Biso   1.000  Hf
  Hf82     1.0000 0.77220  0.63463  0.49817  Biso   1.000  Hf
  Hf83     1.0000 0.73479  0.88826  0.49472  Biso   1.000  Hf
  Hf84     1.0000 0.73313  0.86709  0.24516  Biso   1.000  Hf
  Hf85     1.0000 0.63742  0.51774  0.62483  Biso   1.000  Hf
  Hf86     1.0000 0.63842  0.73295  0.87379  Biso   1.000  Hf
  Hf87     1.0000 0.86937  0.76992  0.61955  Biso   1.000  Hf
  Hf88     1.0000 0.86925  0.98196  0.87295  Biso   1.000  Hf
  Hf89     1.0000 0.53666  0.68265  0.69630  Biso   1.000  Hf
  Hf90     1.0000 0.53566  0.56860  0.94769  Biso   1.000  Hf
  Hf91     1.0000 0.96873  0.92985  0.69754  Biso   1.000  Hf
  Hf92     1.0000 0.96740  0.81396  0.94521  Biso   1.000  Hf
  Hf93     1.0000 0.77256  0.61786  0.74894  Biso   1.000  Hf
  Hf94     1.0000 0.77063  0.63227  0.00070  Biso   1.000  Hf
  Hf95     1.0000 0.73332  0.88053  0.99641  Biso   1.000  Hf
  Hf96     1.0000 0.73348  0.86689  0.74600  Biso   1.000  Hf
  Ag1      1.0000 0.08902  0.25349  0.12047  Biso   1.000  Ag
