data_image0
_cell_length_a       5.02771
_cell_length_b       10.5197
_cell_length_c       10.1535
_cell_angle_alpha    90.127
_cell_angle_beta     88.8702
_cell_angle_gamma    90.356

_symmetry_space_group_name_H-M    "P 1"
_symmetry_int_tables_number       1

loop_
  _symmetry_equiv_pos_as_xyz
  'x, y, z'

loop_
  _atom_site_label
  _atom_site_occupancy
  _atom_site_fract_x
  _atom_site_fract_y
  _atom_site_fract_z
  _atom_site_thermal_displace_type
  _atom_site_B_iso_or_equiv
  _atom_site_type_symbol
  Zr1      1.0000 0.27014  0.02313  0.11630  Biso   1.000  Zr
  Zr2      1.0000 0.27096  0.22438  0.40060  Biso   1.000  Zr
  Zr3      1.0000 0.69856  0.25192  0.11265  Biso   1.000  Zr
  Zr4      1.0000 0.74129  0.48001  0.37514  Biso   1.000  Zr
  Zr5      1.0000 0.02172  0.17786  0.23799  Biso   1.000  Zr
  Zr6      1.0000 0.08014  0.05937  0.45787  Biso   1.000  Zr
  Zr7      1.0000 0.94850  0.42109  0.17835  Biso   1.000  Zr
  Zr8      1.0000 0.94049  0.32266  0.45483  Biso   1.000  Zr
  Zr9      1.0000 0.51678  0.11402  0.25568  Biso   1.000  Zr
  Zr10     1.0000 0.55998  0.13093  0.50519  Biso   1.000  Zr
  Zr11     1.0000 0.47243  0.38148  0.50204  Biso   1.000  Zr
  Zr12     1.0000 0.43186  0.36488  0.25179  Biso   1.000  Zr
  Zr13     1.0000 0.28124  0.01253  0.63057  Biso   1.000  Zr
  Zr14     1.0000 0.26035  0.22767  0.87494  Biso   1.000  Zr
  Zr15     1.0000 0.73801  0.26848  0.63437  Biso   1.000  Zr
  Zr16     1.0000 0.72835  0.48390  0.87381  Biso   1.000  Zr
  Zr17     1.0000 0.07753  0.18247  0.68927  Biso   1.000  Zr
  Zr18     1.0000 0.08927  0.05594  0.93173  Biso   1.000  Zr
  Zr19     1.0000 0.92736  0.43859  0.69472  Biso   1.000  Zr
  Zr20     1.0000 0.89190  0.31320  0.92247  Biso   1.000  Zr
  Zr21     1.0000 0.54375  0.11685  0.74993  Biso   1.000  Zr
  Zr22     1.0000 0.57746  0.11408  0.98981  Biso   1.000  Zr
  Zr23     1.0000 0.42211  0.38389  0.00668  Biso   1.000  Zr
  Zr24     1.0000 0.45162  0.37044  0.75176  Biso   1.000  Zr
  Zr25     1.0000 0.27011  0.54440  0.12302  Biso   1.000  Zr
  Zr26     1.0000 0.28033  0.73775  0.37842  Biso   1.000  Zr
  Zr27     1.0000 0.73240  0.77269  0.12387  Biso   1.000  Zr
  Zr28     1.0000 0.74587  0.98900  0.37091  Biso   1.000  Zr
  Zr29     1.0000 0.07105  0.69143  0.19809  Biso   1.000  Zr
  Zr30     1.0000 0.07332  0.56605  0.43877  Biso   1.000  Zr
  Zr31     1.0000 0.93000  0.93750  0.18878  Biso   1.000  Zr
  Zr32     1.0000 0.93701  0.81671  0.43979  Biso   1.000  Zr
  Zr33     1.0000 0.55607  0.61858  0.24677  Biso   1.000  Zr
  Zr34     1.0000 0.54490  0.62953  0.49577  Biso   1.000  Zr
  Zr35     1.0000 0.47379  0.88314  0.49823  Biso   1.000  Zr
  Zr36     1.0000 0.46651  0.86723  0.24939  Biso   1.000  Zr
  Zr37     1.0000 0.27195  0.51465  0.62477  Biso   1.000  Zr
  Zr38     1.0000 0.26972  0.73546  0.87023  Biso   1.000  Zr
  Zr39     1.0000 0.74259  0.76343  0.61949  Biso   1.000  Zr
  Zr40     1.0000 0.73976  0.97598  0.87003  Biso   1.000  Zr
  Zr41     1.0000 0.07863  0.68384  0.68889  Biso   1.000  Zr
  Zr42     1.0000 0.06575  0.57169  0.94476  Biso   1.000  Zr
  Zr43     1.0000 0.94053  0.92698  0.69210  Biso   1.000  Zr
  Zr44     1.0000 0.93215  0.81441  0.94383  Biso   1.000  Zr
  Zr45     1.0000 0.54049  0.61675  0.74616  Biso   1.000  Zr
  Zr46     1.0000 0.53922  0.63638  0.99560  Biso   1.000  Zr
  Zr47     1.0000 0.45905  0.87767  0.99850  Biso   1.000  Zr
  Zr48     1.0000 0.47178  0.86425  0.74616  Biso   1.000  Zr
  Al1      1.0000 0.19312  0.29379  0.13696  Biso   1.000  Al
