data_image0
_cell_length_a       10.0632
_cell_length_b       5.03312
_cell_length_c       10.1973
_cell_angle_alpha    89.8264
_cell_angle_beta     90.1025
_cell_angle_gamma    90.8583

_symmetry_space_group_name_H-M    "P 1"
_symmetry_int_tables_number       1

loop_
  _symmetry_equiv_pos_as_xyz
  'x, y, z'

loop_
  _atom_site_label
  _atom_site_occupancy
  _atom_site_fract_x
  _atom_site_fract_y
  _atom_site_fract_z
  _atom_site_thermal_displace_type
  _atom_site_B_iso_or_equiv
  _atom_site_type_symbol
  As1      1.0000 0.12479  0.99703  0.13562  Biso   1.000  As
  Zr1      1.0000 0.12502  0.00121  0.62377  Biso   1.000  Zr
  Zr2      1.0000 0.62544  0.00127  0.12516  Biso   1.000  Zr
  Zr3      1.0000 0.62444  0.00042  0.62676  Biso   1.000  Zr
  Zr4      1.0000 0.12312  0.50104  0.37472  Biso   1.000  Zr
  Zr5      1.0000 0.12432  0.49838  0.87027  Biso   1.000  Zr
  Zr6      1.0000 0.62448  0.50186  0.37402  Biso   1.000  Zr
  Zr7      1.0000 0.62562  0.50097  0.87797  Biso   1.000  Zr
  Zr8      1.0000 0.37442  0.48855  0.12437  Biso   1.000  Zr
  Zr9      1.0000 0.37687  0.49747  0.62592  Biso   1.000  Zr
  Zr10     1.0000 0.87692  0.50977  0.12626  Biso   1.000  Zr
  Zr11     1.0000 0.87265  0.50409  0.62629  Biso   1.000  Zr
  Zr12     1.0000 0.37621  0.00504  0.37461  Biso   1.000  Zr
  Zr13     1.0000 0.37351  0.98460  0.87478  Biso   1.000  Zr
  Zr14     1.0000 0.87320  0.00163  0.37579  Biso   1.000  Zr
  Zr15     1.0000 0.87725  0.01481  0.87483  Biso   1.000  Zr
  Zr16     1.0000 0.97874  0.30866  0.97387  Biso   1.000  Zr
  Zr17     1.0000 0.99715  0.25300  0.47962  Biso   1.000  Zr
  Zr18     1.0000 0.48651  0.25433  0.98129  Biso   1.000  Zr
  Zr19     1.0000 0.49661  0.25654  0.48225  Biso   1.000  Zr
  Zr20     1.0000 0.00622  0.24949  0.22820  Biso   1.000  Zr
  Zr21     1.0000 0.00328  0.25080  0.72755  Biso   1.000  Zr
  Zr22     1.0000 0.50722  0.23844  0.23253  Biso   1.000  Zr
  Zr23     1.0000 0.50338  0.24795  0.73196  Biso   1.000  Zr
  Zr24     1.0000 0.98894  0.73578  0.27319  Biso   1.000  Zr
  Zr25     1.0000 0.99595  0.75062  0.77285  Biso   1.000  Zr
  Zr26     1.0000 0.48700  0.73064  0.26965  Biso   1.000  Zr
  Zr27     1.0000 0.49712  0.74354  0.76928  Biso   1.000  Zr
  Zr28     1.0000 0.02296  0.79389  0.02376  Biso   1.000  Zr
  Zr29     1.0000 0.00120  0.75118  0.52120  Biso   1.000  Zr
  Zr30     1.0000 0.51341  0.74554  0.01945  Biso   1.000  Zr
  Zr31     1.0000 0.50166  0.75445  0.51876  Biso   1.000  Zr
  Zr32     1.0000 0.26250  0.28135  0.27494  Biso   1.000  Zr
  Zr33     1.0000 0.25341  0.24651  0.77281  Biso   1.000  Zr
  Zr34     1.0000 0.75946  0.26822  0.26962  Biso   1.000  Zr
  Zr35     1.0000 0.75333  0.25687  0.76992  Biso   1.000  Zr
  Zr36     1.0000 0.23420  0.18739  0.02560  Biso   1.000  Zr
  Zr37     1.0000 0.24725  0.25314  0.52129  Biso   1.000  Zr
  Zr38     1.0000 0.73898  0.25505  0.01957  Biso   1.000  Zr
  Zr39     1.0000 0.74709  0.24873  0.51921  Biso   1.000  Zr
  Zr40     1.0000 0.27615  0.67615  0.96831  Biso   1.000  Zr
  Zr41     1.0000 0.25111  0.75302  0.47534  Biso   1.000  Zr
  Zr42     1.0000 0.76596  0.74596  0.98158  Biso   1.000  Zr
  Zr43     1.0000 0.75203  0.74649  0.48240  Biso   1.000  Zr
  Zr44     1.0000 0.24154  0.76674  0.21887  Biso   1.000  Zr
  Zr45     1.0000 0.24633  0.74798  0.72531  Biso   1.000  Zr
  Zr46     1.0000 0.74235  0.75974  0.23299  Biso   1.000  Zr
  Zr47     1.0000 0.74633  0.75304  0.73203  Biso   1.000  Zr
