data_image0
_cell_length_a       10.013
_cell_length_b       5.21454
_cell_length_c       10.061
_cell_angle_alpha    90.2368
_cell_angle_beta     89.3679
_cell_angle_gamma    89.9395

_symmetry_space_group_name_H-M    "P 1"
_symmetry_int_tables_number       1

loop_
  _symmetry_equiv_pos_as_xyz
  'x, y, z'

loop_
  _atom_site_label
  _atom_site_occupancy
  _atom_site_fract_x
  _atom_site_fract_y
  _atom_site_fract_z
  _atom_site_thermal_displace_type
  _atom_site_B_iso_or_equiv
  _atom_site_type_symbol
  As1      1.0000 0.11355  0.05376  0.11048  Biso   1.000  As
  Zr1      1.0000 0.13505  0.03422  0.62771  Biso   1.000  Zr
  Zr2      1.0000 0.63412  0.03331  0.12715  Biso   1.000  Zr
  Zr3      1.0000 0.63045  0.02920  0.62105  Biso   1.000  Zr
  Zr4      1.0000 0.14094  0.46390  0.37594  Biso   1.000  Zr
  Zr5      1.0000 0.13392  0.47738  0.87754  Biso   1.000  Zr
  Zr6      1.0000 0.63508  0.47107  0.37403  Biso   1.000  Zr
  Zr7      1.0000 0.62933  0.46753  0.87402  Biso   1.000  Zr
  Zr8      1.0000 0.36358  0.52725  0.12927  Biso   1.000  Zr
  Zr9      1.0000 0.36651  0.53577  0.62837  Biso   1.000  Zr
  Zr10     1.0000 0.86585  0.52814  0.11927  Biso   1.000  Zr
  Zr11     1.0000 0.86750  0.52874  0.62189  Biso   1.000  Zr
  Zr12     1.0000 0.36415  0.96621  0.37404  Biso   1.000  Zr
  Zr13     1.0000 0.36267  0.97196  0.88127  Biso   1.000  Zr
  Zr14     1.0000 0.87087  0.97126  0.37463  Biso   1.000  Zr
  Zr15     1.0000 0.85974  0.96523  0.87018  Biso   1.000  Zr
  Zr16     1.0000 0.03922  0.35723  0.18750  Biso   1.000  Zr
  Zr17     1.0000 0.03296  0.36507  0.69976  Biso   1.000  Zr
  Zr18     1.0000 0.53907  0.37073  0.19462  Biso   1.000  Zr
  Zr19     1.0000 0.53445  0.36676  0.69473  Biso   1.000  Zr
  Zr20     1.0000 0.03686  0.13144  0.44758  Biso   1.000  Zr
  Zr21     1.0000 0.03045  0.13039  0.95290  Biso   1.000  Zr
  Zr22     1.0000 0.53719  0.13427  0.44170  Biso   1.000  Zr
  Zr23     1.0000 0.53200  0.13526  0.94823  Biso   1.000  Zr
  Zr24     1.0000 0.47018  0.86161  0.19705  Biso   1.000  Zr
  Zr25     1.0000 0.46340  0.87082  0.69890  Biso   1.000  Zr
  Zr26     1.0000 0.97463  0.86940  0.18507  Biso   1.000  Zr
  Zr27     1.0000 0.96444  0.86559  0.69345  Biso   1.000  Zr
  Zr28     1.0000 0.47001  0.63739  0.45189  Biso   1.000  Zr
  Zr29     1.0000 0.45880  0.63282  0.94300  Biso   1.000  Zr
  Zr30     1.0000 0.96671  0.63056  0.43971  Biso   1.000  Zr
  Zr31     1.0000 0.95986  0.63231  0.93953  Biso   1.000  Zr
  Zr32     1.0000 0.27422  0.23248  0.25224  Biso   1.000  Zr
  Zr33     1.0000 0.26851  0.23856  0.75300  Biso   1.000  Zr
  Zr34     1.0000 0.77426  0.23273  0.24611  Biso   1.000  Zr
  Zr35     1.0000 0.76622  0.22924  0.74542  Biso   1.000  Zr
  Zr36     1.0000 0.27148  0.26530  0.50303  Biso   1.000  Zr
  Zr37     1.0000 0.26192  0.26966  0.00173  Biso   1.000  Zr
  Zr38     1.0000 0.77042  0.26726  0.49594  Biso   1.000  Zr
  Zr39     1.0000 0.76793  0.26634  0.99543  Biso   1.000  Zr
  Zr40     1.0000 0.23078  0.76377  0.50389  Biso   1.000  Zr
  Zr41     1.0000 0.22321  0.76992  0.00626  Biso   1.000  Zr
  Zr42     1.0000 0.73440  0.76887  0.49657  Biso   1.000  Zr
  Zr43     1.0000 0.72712  0.76482  0.99674  Biso   1.000  Zr
  Zr44     1.0000 0.24184  0.71623  0.25878  Biso   1.000  Zr
  Zr45     1.0000 0.22863  0.73996  0.75352  Biso   1.000  Zr
  Zr46     1.0000 0.73969  0.73479  0.24630  Biso   1.000  Zr
  Zr47     1.0000 0.72947  0.72957  0.74632  Biso   1.000  Zr
