data_image0
_cell_length_a       5.07877
_cell_length_b       10.4445
_cell_length_c       10.1457
_cell_angle_alpha    91.5408
_cell_angle_beta     88.185
_cell_angle_gamma    87.6968

_symmetry_space_group_name_H-M    "P 1"
_symmetry_int_tables_number       1

loop_
  _symmetry_equiv_pos_as_xyz
  'x, y, z'

loop_
  _atom_site_label
  _atom_site_occupancy
  _atom_site_fract_x
  _atom_site_fract_y
  _atom_site_fract_z
  _atom_site_thermal_displace_type
  _atom_site_B_iso_or_equiv
  _atom_site_type_symbol
  Hf1      1.0000 0.21861  0.94236  0.12194  Biso   1.000  Hf
  Hf2      1.0000 0.30271  0.27384  0.39605  Biso   1.000  Hf
  Hf3      1.0000 0.75390  0.28910  0.13028  Biso   1.000  Hf
  Hf4      1.0000 0.75736  0.99507  0.36498  Biso   1.000  Hf
  Hf5      1.0000 0.84077  0.15782  0.97679  Biso   1.000  Hf
  Hf6      1.0000 0.11179  0.04868  0.29874  Biso   1.000  Hf
  Hf7      1.0000 0.00344  0.35567  0.27428  Biso   1.000  Hf
  Hf8      1.0000 0.98089  0.39942  0.00319  Biso   1.000  Hf
  Hf9      1.0000 0.63653  0.16231  0.27354  Biso   1.000  Hf
  Hf10     1.0000 0.34908  0.05292  0.96128  Biso   1.000  Hf
  Hf11     1.0000 0.45717  0.34557  0.00262  Biso   1.000  Hf
  Hf12     1.0000 0.50278  0.41338  0.25606  Biso   1.000  Hf
  Hf13     1.0000 0.26623  0.02467  0.61052  Biso   1.000  Hf
  Hf14     1.0000 0.18840  0.23068  0.89139  Biso   1.000  Hf
  Hf15     1.0000 0.75843  0.24846  0.64613  Biso   1.000  Hf
  Hf16     1.0000 0.70963  0.00096  0.86942  Biso   1.000  Hf
  Hf17     1.0000 0.06935  0.18374  0.52442  Biso   1.000  Hf
  Hf18     1.0000 0.97676  0.09972  0.74818  Biso   1.000  Hf
  Hf19     1.0000 0.04415  0.35678  0.75163  Biso   1.000  Hf
  Hf20     1.0000 0.08615  0.43088  0.49351  Biso   1.000  Hf
  Hf21     1.0000 0.47703  0.15482  0.75184  Biso   1.000  Hf
  Hf22     1.0000 0.55832  0.11508  0.50916  Biso   1.000  Hf
  Hf23     1.0000 0.57663  0.36580  0.50491  Biso   1.000  Hf
  Hf24     1.0000 0.55957  0.40462  0.74909  Biso   1.000  Hf
  Hf25     1.0000 0.26250  0.50579  0.11730  Biso   1.000  Hf
  Hf26     1.0000 0.25833  0.76249  0.38415  Biso   1.000  Hf
  Hf27     1.0000 0.73132  0.73213  0.11902  Biso   1.000  Hf
  Hf28     1.0000 0.78799  0.50575  0.38188  Biso   1.000  Hf
  Hf29     1.0000 0.03415  0.64375  0.98190  Biso   1.000  Hf
  Hf30     1.0000 0.92744  0.58353  0.21698  Biso   1.000  Hf
  Hf31     1.0000 0.99794  0.82632  0.24735  Biso   1.000  Hf
  Hf32     1.0000 0.91437  0.89275  0.00876  Biso   1.000  Hf
  Hf33     1.0000 0.42729  0.65507  0.23670  Biso   1.000  Hf
  Hf34     1.0000 0.55470  0.58042  0.00733  Biso   1.000  Hf
  Hf35     1.0000 0.44260  0.81755  0.99968  Biso   1.000  Hf
  Hf36     1.0000 0.52671  0.88944  0.23925  Biso   1.000  Hf
  Hf37     1.0000 0.31331  0.50116  0.63389  Biso   1.000  Hf
  Hf38     1.0000 0.22183  0.75700  0.85066  Biso   1.000  Hf
  Hf39     1.0000 0.73529  0.76373  0.61660  Biso   1.000  Hf
  Hf40     1.0000 0.79979  0.51001  0.86192  Biso   1.000  Hf
  Hf41     1.0000 0.95753  0.67033  0.46891  Biso   1.000  Hf
  Hf42     1.0000 0.02174  0.61273  0.72751  Biso   1.000  Hf
  Hf43     1.0000 0.93065  0.85249  0.76153  Biso   1.000  Hf
  Hf44     1.0000 0.99960  0.91114  0.51271  Biso   1.000  Hf
  Hf45     1.0000 0.52041  0.65081  0.75201  Biso   1.000  Hf
  Hf46     1.0000 0.48387  0.62073  0.50046  Biso   1.000  Hf
  Hf47     1.0000 0.50580  0.87215  0.49147  Biso   1.000  Hf
  Hf48     1.0000 0.44701  0.89958  0.74038  Biso   1.000  Hf
  Au1      1.0000 0.26740  0.18495  0.15049  Biso   1.000  Au
