data_image0
_cell_length_a       5.04733
_cell_length_b       10.2356
_cell_length_c       10.0887
_cell_angle_alpha    90.0036
_cell_angle_beta     88.4129
_cell_angle_gamma    90.0004

_symmetry_space_group_name_H-M    "P 1"
_symmetry_int_tables_number       1

loop_
  _symmetry_equiv_pos_as_xyz
  'x, y, z'

loop_
  _atom_site_label
  _atom_site_occupancy
  _atom_site_fract_x
  _atom_site_fract_y
  _atom_site_fract_z
  _atom_site_thermal_displace_type
  _atom_site_B_iso_or_equiv
  _atom_site_type_symbol
  Au1      1.0000 0.25053  0.97756  0.12528  Biso   1.000  Au
  Zr1      1.0000 0.26402  0.25212  0.37047  Biso   1.000  Zr
  Zr2      1.0000 0.75048  0.25502  0.12527  Biso   1.000  Zr
  Zr3      1.0000 0.77188  0.00688  0.37514  Biso   1.000  Zr
  Zr4      1.0000 0.93955  0.15572  0.97813  Biso   1.000  Zr
  Zr5      1.0000 0.04556  0.10384  0.23804  Biso   1.000  Zr
  Zr6      1.0000 0.00629  0.35475  0.25186  Biso   1.000  Zr
  Zr7      1.0000 0.99736  0.39955  0.00307  Biso   1.000  Zr
  Zr8      1.0000 0.56152  0.15574  0.27245  Biso   1.000  Zr
  Zr9      1.0000 0.45553  0.10383  0.01253  Biso   1.000  Zr
  Zr10     1.0000 0.49472  0.35474  0.99868  Biso   1.000  Zr
  Zr11     1.0000 0.50364  0.39957  0.24749  Biso   1.000  Zr
  Zr12     1.0000 0.25051  0.99977  0.62526  Biso   1.000  Zr
  Zr13     1.0000 0.23698  0.25210  0.88008  Biso   1.000  Zr
  Zr14     1.0000 0.75052  0.24861  0.62528  Biso   1.000  Zr
  Zr15     1.0000 0.72922  0.00687  0.87537  Biso   1.000  Zr
  Zr16     1.0000 0.01386  0.14798  0.49355  Biso   1.000  Zr
  Zr17     1.0000 0.97978  0.10213  0.73918  Biso   1.000  Zr
  Zr18     1.0000 0.00216  0.35389  0.75056  Biso   1.000  Zr
  Zr19     1.0000 0.99635  0.39687  0.50286  Biso   1.000  Zr
  Zr20     1.0000 0.48726  0.14799  0.75702  Biso   1.000  Zr
  Zr21     1.0000 0.52134  0.10211  0.51140  Biso   1.000  Zr
  Zr22     1.0000 0.49894  0.35387  0.49998  Biso   1.000  Zr
  Zr23     1.0000 0.50476  0.39688  0.74767  Biso   1.000  Zr
  Zr24     1.0000 0.25051  0.50539  0.12528  Biso   1.000  Zr
  Zr25     1.0000 0.26757  0.75183  0.38254  Biso   1.000  Zr
  Zr26     1.0000 0.75049  0.74504  0.12528  Biso   1.000  Zr
  Zr27     1.0000 0.75240  0.49637  0.37620  Biso   1.000  Zr
  Zr28     1.0000 0.01976  0.64383  0.00244  Biso   1.000  Zr
  Zr29     1.0000 0.97987  0.60672  0.24812  Biso   1.000  Zr
  Zr30     1.0000 0.04197  0.85212  0.24008  Biso   1.000  Zr
  Zr31     1.0000 0.94861  0.88846  0.99147  Biso   1.000  Zr
  Zr32     1.0000 0.48126  0.64384  0.24813  Biso   1.000  Zr
  Zr33     1.0000 0.52117  0.60670  0.00246  Biso   1.000  Zr
  Zr34     1.0000 0.45902  0.85209  0.01050  Biso   1.000  Zr
  Zr35     1.0000 0.55237  0.88846  0.25911  Biso   1.000  Zr
  Zr36     1.0000 0.25053  0.49783  0.62529  Biso   1.000  Zr
  Zr37     1.0000 0.23336  0.75185  0.86801  Biso   1.000  Zr
  Zr38     1.0000 0.75046  0.74849  0.62527  Biso   1.000  Zr
  Zr39     1.0000 0.74866  0.49638  0.87436  Biso   1.000  Zr
  Zr40     1.0000 0.00615  0.64498  0.50103  Biso   1.000  Zr
  Zr41     1.0000 0.99684  0.60523  0.75086  Biso   1.000  Zr
  Zr42     1.0000 0.99322  0.85446  0.74498  Biso   1.000  Zr
  Zr43     1.0000 0.01340  0.89599  0.49547  Biso   1.000  Zr
  Zr44     1.0000 0.49483  0.64499  0.74954  Biso   1.000  Zr
  Zr45     1.0000 0.50417  0.60522  0.49970  Biso   1.000  Zr
  Zr46     1.0000 0.50766  0.85443  0.50561  Biso   1.000  Zr
  Zr47     1.0000 0.48750  0.89600  0.75511  Biso   1.000  Zr
