data_image0
_cell_length_a       10.0261
_cell_length_b       10.3965
_cell_length_c       5.0258
_cell_angle_alpha    89.4492
_cell_angle_beta     88.6736
_cell_angle_gamma    89.7962

_symmetry_space_group_name_H-M    "P 1"
_symmetry_int_tables_number       1

loop_
  _symmetry_equiv_pos_as_xyz
  'x, y, z'

loop_
  _atom_site_label
  _atom_site_occupancy
  _atom_site_fract_x
  _atom_site_fract_y
  _atom_site_fract_z
  _atom_site_thermal_displace_type
  _atom_site_B_iso_or_equiv
  _atom_site_type_symbol
  B1       1.0000 0.08163  0.95860  0.11746  Biso   1.000  B 
  Zr1      1.0000 0.13212  0.51281  0.25411  Biso   1.000  Zr
  Zr2      1.0000 0.63104  0.01178  0.22637  Biso   1.000  Zr
  Zr3      1.0000 0.63348  0.51762  0.25031  Biso   1.000  Zr
  Zr4      1.0000 0.13765  0.23136  0.76050  Biso   1.000  Zr
  Zr5      1.0000 0.13136  0.73075  0.74832  Biso   1.000  Zr
  Zr6      1.0000 0.63196  0.23311  0.74170  Biso   1.000  Zr
  Zr7      1.0000 0.63485  0.74380  0.74516  Biso   1.000  Zr
  Zr8      1.0000 0.36464  0.26600  0.25477  Biso   1.000  Zr
  Zr9      1.0000 0.36374  0.76695  0.26492  Biso   1.000  Zr
  Zr10     1.0000 0.86619  0.26086  0.25281  Biso   1.000  Zr
  Zr11     1.0000 0.86930  0.76413  0.22568  Biso   1.000  Zr
  Zr12     1.0000 0.36880  0.48835  0.75392  Biso   1.000  Zr
  Zr13     1.0000 0.35720  0.98771  0.75614  Biso   1.000  Zr
  Zr14     1.0000 0.86509  0.48403  0.74988  Biso   1.000  Zr
  Zr15     1.0000 0.88635  0.00383  0.69499  Biso   1.000  Zr
  Zr16     1.0000 0.99226  0.16695  0.50864  Biso   1.000  Zr
  Zr17     1.0000 0.03032  0.67947  0.39788  Biso   1.000  Zr
  Zr18     1.0000 0.53617  0.18731  0.37559  Biso   1.000  Zr
  Zr19     1.0000 0.53133  0.68541  0.40337  Biso   1.000  Zr
  Zr20     1.0000 0.04139  0.05902  0.95264  Biso   1.000  Zr
  Zr21     1.0000 0.02567  0.57067  0.91026  Biso   1.000  Zr
  Zr22     1.0000 0.53310  0.06905  0.88158  Biso   1.000  Zr
  Zr23     1.0000 0.53311  0.57519  0.89813  Biso   1.000  Zr
  Zr24     1.0000 0.46467  0.43578  0.39223  Biso   1.000  Zr
  Zr25     1.0000 0.47221  0.93271  0.40873  Biso   1.000  Zr
  Zr26     1.0000 0.96871  0.42459  0.41123  Biso   1.000  Zr
  Zr27     1.0000 0.99763  0.92858  0.33251  Biso   1.000  Zr
  Zr28     1.0000 0.46858  0.32260  0.88788  Biso   1.000  Zr
  Zr29     1.0000 0.46260  0.82580  0.91437  Biso   1.000  Zr
  Zr30     1.0000 0.97606  0.32340  0.92943  Biso   1.000  Zr
  Zr31     1.0000 0.96445  0.82738  0.86014  Biso   1.000  Zr
  Zr32     1.0000 0.27490  0.12599  0.50827  Biso   1.000  Zr
  Zr33     1.0000 0.26467  0.61091  0.49667  Biso   1.000  Zr
  Zr34     1.0000 0.75595  0.11109  0.47067  Biso   1.000  Zr
  Zr35     1.0000 0.76717  0.61639  0.49206  Biso   1.000  Zr
  Zr36     1.0000 0.27905  0.13922  0.99230  Biso   1.000  Zr
  Zr37     1.0000 0.26726  0.63892  0.99963  Biso   1.000  Zr
  Zr38     1.0000 0.77796  0.13641  0.96743  Biso   1.000  Zr
  Zr39     1.0000 0.76610  0.63781  0.98928  Biso   1.000  Zr
  Zr40     1.0000 0.23385  0.38722  0.00130  Biso   1.000  Zr
  Zr41     1.0000 0.20019  0.89287  0.04469  Biso   1.000  Zr
  Zr42     1.0000 0.73082  0.38475  0.99663  Biso   1.000  Zr
  Zr43     1.0000 0.73228  0.88683  0.97503  Biso   1.000  Zr
  Zr44     1.0000 0.22650  0.36602  0.50365  Biso   1.000  Zr
  Zr45     1.0000 0.24908  0.85447  0.54634  Biso   1.000  Zr
  Zr46     1.0000 0.73197  0.36629  0.49528  Biso   1.000  Zr
  Zr47     1.0000 0.74986  0.86837  0.47910  Biso   1.000  Zr
