data_image0
_cell_length_a       5.03234
_cell_length_b       10.4082
_cell_length_c       10.046
_cell_angle_alpha    89.9479
_cell_angle_beta     89.63
_cell_angle_gamma    90.5087

_symmetry_space_group_name_H-M    "P 1"
_symmetry_int_tables_number       1

loop_
  _symmetry_equiv_pos_as_xyz
  'x, y, z'

loop_
  _atom_site_label
  _atom_site_occupancy
  _atom_site_fract_x
  _atom_site_fract_y
  _atom_site_fract_z
  _atom_site_thermal_displace_type
  _atom_site_B_iso_or_equiv
  _atom_site_type_symbol
  B1       1.0000 0.04625  0.05556  0.11332  Biso   1.000  B 
  Zr1      1.0000 0.26341  0.01148  0.62441  Biso   1.000  Zr
  Zr2      1.0000 0.26762  0.51718  0.12760  Biso   1.000  Zr
  Zr3      1.0000 0.27106  0.51476  0.62418  Biso   1.000  Zr
  Zr4      1.0000 0.27687  0.22861  0.37299  Biso   1.000  Zr
  Zr5      1.0000 0.27128  0.23088  0.88020  Biso   1.000  Zr
  Zr6      1.0000 0.28385  0.73649  0.37329  Biso   1.000  Zr
  Zr7      1.0000 0.27690  0.73370  0.87694  Biso   1.000  Zr
  Zr8      1.0000 0.71359  0.26973  0.12555  Biso   1.000  Zr
  Zr9      1.0000 0.73579  0.26254  0.62688  Biso   1.000  Zr
  Zr10     1.0000 0.74070  0.76491  0.12053  Biso   1.000  Zr
  Zr11     1.0000 0.74220  0.76609  0.62413  Biso   1.000  Zr
  Zr12     1.0000 0.73581  0.48282  0.37669  Biso   1.000  Zr
  Zr13     1.0000 0.73490  0.48360  0.87435  Biso   1.000  Zr
  Zr14     1.0000 0.72684  0.98751  0.36981  Biso   1.000  Zr
  Zr15     1.0000 0.71793  0.98232  0.87906  Biso   1.000  Zr
  Zr16     1.0000 0.07782  0.17165  0.18118  Biso   1.000  Zr
  Zr17     1.0000 0.05691  0.17595  0.70853  Biso   1.000  Zr
  Zr18     1.0000 0.08066  0.68759  0.19449  Biso   1.000  Zr
  Zr19     1.0000 0.07430  0.68133  0.69343  Biso   1.000  Zr
  Zr20     1.0000 0.06650  0.06818  0.44708  Biso   1.000  Zr
  Zr21     1.0000 0.05995  0.06391  0.97519  Biso   1.000  Zr
  Zr22     1.0000 0.07573  0.56631  0.44399  Biso   1.000  Zr
  Zr23     1.0000 0.07080  0.56652  0.94672  Biso   1.000  Zr
  Zr24     1.0000 0.93037  0.42875  0.19715  Biso   1.000  Zr
  Zr25     1.0000 0.93260  0.43113  0.69368  Biso   1.000  Zr
  Zr26     1.0000 0.94764  0.95114  0.17914  Biso   1.000  Zr
  Zr27     1.0000 0.93064  0.93197  0.70047  Biso   1.000  Zr
  Zr28     1.0000 0.93710  0.31476  0.44626  Biso   1.000  Zr
  Zr29     1.0000 0.93465  0.31876  0.94570  Biso   1.000  Zr
  Zr30     1.0000 0.94819  0.82151  0.44596  Biso   1.000  Zr
  Zr31     1.0000 0.93892  0.81727  0.94061  Biso   1.000  Zr
  Zr32     1.0000 0.57279  0.13297  0.25755  Biso   1.000  Zr
  Zr33     1.0000 0.52665  0.11248  0.74828  Biso   1.000  Zr
  Zr34     1.0000 0.54586  0.61202  0.24769  Biso   1.000  Zr
  Zr35     1.0000 0.54242  0.61516  0.74796  Biso   1.000  Zr
  Zr36     1.0000 0.53462  0.13187  0.50157  Biso   1.000  Zr
  Zr37     1.0000 0.55865  0.13875  0.99047  Biso   1.000  Zr
  Zr38     1.0000 0.54690  0.63287  0.49797  Biso   1.000  Zr
  Zr39     1.0000 0.54571  0.62875  0.99914  Biso   1.000  Zr
  Zr40     1.0000 0.46521  0.38018  0.49923  Biso   1.000  Zr
  Zr41     1.0000 0.45992  0.38311  0.99972  Biso   1.000  Zr
  Zr42     1.0000 0.46949  0.88402  0.49933  Biso   1.000  Zr
  Zr43     1.0000 0.47685  0.87234  0.99409  Biso   1.000  Zr
  Zr44     1.0000 0.44702  0.37063  0.24910  Biso   1.000  Zr
  Zr45     1.0000 0.46310  0.36297  0.75034  Biso   1.000  Zr
  Zr46     1.0000 0.51418  0.85534  0.25645  Biso   1.000  Zr
  Zr47     1.0000 0.46118  0.86523  0.74600  Biso   1.000  Zr
