data_image0
_cell_length_a       10.1324
_cell_length_b       10.2598
_cell_length_c       10.1172
_cell_angle_alpha    89.511
_cell_angle_beta     88.154
_cell_angle_gamma    89.8764

_symmetry_space_group_name_H-M    "P 1"
_symmetry_int_tables_number       1

loop_
  _symmetry_equiv_pos_as_xyz
  'x, y, z'

loop_
  _atom_site_label
  _atom_site_occupancy
  _atom_site_fract_x
  _atom_site_fract_y
  _atom_site_fract_z
  _atom_site_thermal_displace_type
  _atom_site_B_iso_or_equiv
  _atom_site_type_symbol
  Zr1      1.0000 0.12512  0.99051  0.12161  Biso   1.000  Zr
  Zr2      1.0000 0.13531  0.26668  0.38833  Biso   1.000  Zr
  Zr3      1.0000 0.40163  0.26379  0.13861  Biso   1.000  Zr
  Zr4      1.0000 0.38669  0.98692  0.38071  Biso   1.000  Zr
  Zr5      1.0000 0.93627  0.16137  0.95742  Biso   1.000  Zr
  Zr6      1.0000 0.98319  0.09633  0.22893  Biso   1.000  Zr
  Zr7      1.0000 0.00120  0.36476  0.27160  Biso   1.000  Zr
  Zr8      1.0000 0.99687  0.41043  0.00367  Biso   1.000  Zr
  Zr9      1.0000 0.22130  0.16935  0.20048  Biso   1.000  Zr
  Zr10     1.0000 0.20514  0.07077  0.94971  Biso   1.000  Zr
  Zr11     1.0000 0.23711  0.32212  0.02259  Biso   1.000  Zr
  Zr12     1.0000 0.26501  0.40070  0.26197  Biso   1.000  Zr
  Zr13     1.0000 0.13088  0.00508  0.61661  Biso   1.000  Zr
  Zr14     1.0000 0.10993  0.23715  0.87251  Biso   1.000  Zr
  Zr15     1.0000 0.38628  0.24954  0.62671  Biso   1.000  Zr
  Zr16     1.0000 0.37696  0.99202  0.88024  Biso   1.000  Zr
  Zr17     1.0000 0.99663  0.15073  0.48483  Biso   1.000  Zr
  Zr18     1.0000 0.99129  0.10115  0.73182  Biso   1.000  Zr
  Zr19     1.0000 0.99051  0.35477  0.75142  Biso   1.000  Zr
  Zr20     1.0000 0.01014  0.39967  0.50977  Biso   1.000  Zr
  Zr21     1.0000 0.23258  0.15614  0.71516  Biso   1.000  Zr
  Zr22     1.0000 0.24441  0.10537  0.46343  Biso   1.000  Zr
  Zr23     1.0000 0.25648  0.35944  0.51305  Biso   1.000  Zr
  Zr24     1.0000 0.24071  0.39909  0.77517  Biso   1.000  Zr
  Zr25     1.0000 0.12598  0.49881  0.13395  Biso   1.000  Zr
  Zr26     1.0000 0.12434  0.75293  0.38039  Biso   1.000  Zr
  Zr27     1.0000 0.38155  0.74425  0.12838  Biso   1.000  Zr
  Zr28     1.0000 0.38072  0.50861  0.38672  Biso   1.000  Zr
  Zr29     1.0000 0.03091  0.65577  0.01955  Biso   1.000  Zr
  Zr30     1.0000 0.00964  0.60904  0.26259  Biso   1.000  Zr
  Zr31     1.0000 0.00861  0.85248  0.24870  Biso   1.000  Zr
  Zr32     1.0000 0.99304  0.90078  0.99645  Biso   1.000  Zr
  Zr33     1.0000 0.26270  0.65361  0.27195  Biso   1.000  Zr
  Zr34     1.0000 0.28202  0.57974  0.03155  Biso   1.000  Zr
  Zr35     1.0000 0.25265  0.83675  0.00074  Biso   1.000  Zr
  Zr36     1.0000 0.25934  0.90774  0.24553  Biso   1.000  Zr
  Zr37     1.0000 0.12726  0.49936  0.64160  Biso   1.000  Zr
  Zr38     1.0000 0.11785  0.76126  0.87093  Biso   1.000  Zr
  Zr39     1.0000 0.37358  0.75085  0.63243  Biso   1.000  Zr
  Zr40     1.0000 0.38010  0.50101  0.87522  Biso   1.000  Zr
  Zr41     1.0000 0.00366  0.64793  0.51028  Biso   1.000  Zr
  Zr42     1.0000 0.00324  0.60774  0.76410  Biso   1.000  Zr
  Zr43     1.0000 0.99607  0.85787  0.74626  Biso   1.000  Zr
  Zr44     1.0000 0.00423  0.89941  0.49546  Biso   1.000  Zr
  Zr45     1.0000 0.25649  0.64761  0.77077  Biso   1.000  Zr
  Zr46     1.0000 0.25594  0.60605  0.52105  Biso   1.000  Zr
  Zr47     1.0000 0.25648  0.85444  0.49887  Biso   1.000  Zr
  Zr48     1.0000 0.24931  0.89850  0.74283  Biso   1.000  Zr
  Zr49     1.0000 0.62872  0.99197  0.13358  Biso   1.000  Zr
  Zr50     1.0000 0.64141  0.25121  0.37558  Biso   1.000  Zr
  Zr51     1.0000 0.89994  0.26068  0.12857  Biso   1.000  Zr
  Zr52     1.0000 0.88081  0.99817  0.37215  Biso   1.000  Zr
  Zr53     1.0000 0.46069  0.15459  0.98266  Biso   1.000  Zr
  Zr54     1.0000 0.48458  0.10506  0.23988  Biso   1.000  Zr
  Zr55     1.0000 0.51820  0.36016  0.25909  Biso   1.000  Zr
  Zr56     1.0000 0.50058  0.39793  0.00882  Biso   1.000  Zr
  Zr57     1.0000 0.73957  0.14681  0.23219  Biso   1.000  Zr
  Zr58     1.0000 0.70085  0.08310  0.97184  Biso   1.000  Zr
  Zr59     1.0000 0.74548  0.34767  0.00246  Biso   1.000  Zr
  Zr60     1.0000 0.76350  0.39753  0.25202  Biso   1.000  Zr
  Zr61     1.0000 0.62674  0.00285  0.62406  Biso   1.000  Zr
  Zr62     1.0000 0.62265  0.24642  0.87915  Biso   1.000  Zr
  Zr63     1.0000 0.87950  0.24802  0.62400  Biso   1.000  Zr
  Zr64     1.0000 0.86453  0.00064  0.87050  Biso   1.000  Zr
  Zr65     1.0000 0.50128  0.14335  0.49259  Biso   1.000  Zr
  Zr66     1.0000 0.48985  0.10069  0.74099  Biso   1.000  Zr
  Zr67     1.0000 0.49369  0.35426  0.75583  Biso   1.000  Zr
  Zr68     1.0000 0.50634  0.39568  0.50611  Biso   1.000  Zr
  Zr69     1.0000 0.74055  0.14682  0.73698  Biso   1.000  Zr
  Zr70     1.0000 0.74954  0.10314  0.49011  Biso   1.000  Zr
  Zr71     1.0000 0.75721  0.35470  0.49984  Biso   1.000  Zr
  Zr72     1.0000 0.74235  0.39265  0.75224  Biso   1.000  Zr
  Zr73     1.0000 0.63696  0.49982  0.12900  Biso   1.000  Zr
  Zr74     1.0000 0.63246  0.74651  0.37950  Biso   1.000  Zr
  Zr75     1.0000 0.88328  0.74865  0.12460  Biso   1.000  Zr
  Zr76     1.0000 0.88083  0.50241  0.38096  Biso   1.000  Zr
  Zr77     1.0000 0.51992  0.64584  0.00721  Biso   1.000  Zr
  Zr78     1.0000 0.50933  0.60432  0.25543  Biso   1.000  Zr
  Zr79     1.0000 0.50744  0.85131  0.25867  Biso   1.000  Zr
  Zr80     1.0000 0.49599  0.89585  0.01046  Biso   1.000  Zr
  Zr81     1.0000 0.75964  0.64394  0.25827  Biso   1.000  Zr
  Zr82     1.0000 0.77358  0.60110  0.01223  Biso   1.000  Zr
  Zr83     1.0000 0.75105  0.84813  0.00305  Biso   1.000  Zr
  Zr84     1.0000 0.75680  0.89320  0.25041  Biso   1.000  Zr
  Zr85     1.0000 0.62485  0.49875  0.62744  Biso   1.000  Zr
  Zr86     1.0000 0.62708  0.75436  0.87681  Biso   1.000  Zr
  Zr87     1.0000 0.87307  0.75151  0.62782  Biso   1.000  Zr
  Zr88     1.0000 0.86755  0.49064  0.87134  Biso   1.000  Zr
  Zr89     1.0000 0.50267  0.64566  0.50479  Biso   1.000  Zr
  Zr90     1.0000 0.50325  0.60582  0.75320  Biso   1.000  Zr
  Zr91     1.0000 0.49610  0.85214  0.76060  Biso   1.000  Zr
  Zr92     1.0000 0.50404  0.89157  0.50905  Biso   1.000  Zr
  Zr93     1.0000 0.75343  0.64296  0.75849  Biso   1.000  Zr
  Zr94     1.0000 0.75216  0.60567  0.50892  Biso   1.000  Zr
  Zr95     1.0000 0.75510  0.85333  0.49950  Biso   1.000  Zr
  Zr96     1.0000 0.74398  0.89378  0.74602  Biso   1.000  Zr
  B1       1.0000 0.15139  0.24374  0.10527  Biso   1.000  B 
