data_image0
_cell_length_a       5.06439
_cell_length_b       10.4914
_cell_length_c       10.1914
_cell_angle_alpha    90.0592
_cell_angle_beta     89.9015
_cell_angle_gamma    89.953

_symmetry_space_group_name_H-M    "P 1"
_symmetry_int_tables_number       1

loop_
  _symmetry_equiv_pos_as_xyz
  'x, y, z'

loop_
  _atom_site_label
  _atom_site_occupancy
  _atom_site_fract_x
  _atom_site_fract_y
  _atom_site_fract_z
  _atom_site_thermal_displace_type
  _atom_site_B_iso_or_equiv
  _atom_site_type_symbol
  Ba1      1.0000 0.23547  0.99069  0.12592  Biso   1.000  Ba
  Zr1      1.0000 0.26287  0.01897  0.62859  Biso   1.000  Zr
  Zr2      1.0000 0.26311  0.51041  0.12954  Biso   1.000  Zr
  Zr3      1.0000 0.26994  0.51454  0.62642  Biso   1.000  Zr
  Zr4      1.0000 0.26659  0.23583  0.37594  Biso   1.000  Zr
  Zr5      1.0000 0.27313  0.23309  0.87460  Biso   1.000  Zr
  Zr6      1.0000 0.26446  0.72726  0.38182  Biso   1.000  Zr
  Zr7      1.0000 0.27595  0.73287  0.86844  Biso   1.000  Zr
  Zr8      1.0000 0.72328  0.26297  0.13017  Biso   1.000  Zr
  Zr9      1.0000 0.73729  0.26891  0.62489  Biso   1.000  Zr
  Zr10     1.0000 0.76661  0.73142  0.08956  Biso   1.000  Zr
  Zr11     1.0000 0.73595  0.76688  0.62080  Biso   1.000  Zr
  Zr12     1.0000 0.72728  0.48419  0.37559  Biso   1.000  Zr
  Zr13     1.0000 0.72829  0.47630  0.87728  Biso   1.000  Zr
  Zr14     1.0000 0.72582  0.99437  0.39118  Biso   1.000  Zr
  Zr15     1.0000 0.72885  0.98609  0.86857  Biso   1.000  Zr
  Zr16     1.0000 0.05494  0.19978  0.20644  Biso   1.000  Zr
  Zr17     1.0000 0.08004  0.19082  0.68195  Biso   1.000  Zr
  Zr18     1.0000 0.09239  0.70053  0.20095  Biso   1.000  Zr
  Zr19     1.0000 0.06732  0.68286  0.69510  Biso   1.000  Zr
  Zr20     1.0000 0.07360  0.06621  0.44291  Biso   1.000  Zr
  Zr21     1.0000 0.06906  0.07353  0.90665  Biso   1.000  Zr
  Zr22     1.0000 0.06929  0.57041  0.44821  Biso   1.000  Zr
  Zr23     1.0000 0.01234  0.59065  0.96947  Biso   1.000  Zr
  Zr24     1.0000 0.91968  0.44344  0.19795  Biso   1.000  Zr
  Zr25     1.0000 0.93888  0.43491  0.70266  Biso   1.000  Zr
  Zr26     1.0000 0.78903  0.91903  0.19450  Biso   1.000  Zr
  Zr27     1.0000 0.91744  0.93563  0.68540  Biso   1.000  Zr
  Zr28     1.0000 0.92858  0.32255  0.44896  Biso   1.000  Zr
  Zr29     1.0000 0.94059  0.32470  0.95010  Biso   1.000  Zr
  Zr30     1.0000 0.93824  0.82035  0.44760  Biso   1.000  Zr
  Zr31     1.0000 0.97861  0.83357  0.94832  Biso   1.000  Zr
  Zr32     1.0000 0.55404  0.12724  0.26541  Biso   1.000  Zr
  Zr33     1.0000 0.54146  0.11997  0.74716  Biso   1.000  Zr
  Zr34     1.0000 0.52926  0.60850  0.24720  Biso   1.000  Zr
  Zr35     1.0000 0.54067  0.61600  0.74638  Biso   1.000  Zr
  Zr36     1.0000 0.53449  0.13400  0.50711  Biso   1.000  Zr
  Zr37     1.0000 0.55849  0.13452  0.99352  Biso   1.000  Zr
  Zr38     1.0000 0.54233  0.63225  0.49847  Biso   1.000  Zr
  Zr39     1.0000 0.50595  0.61535  0.99180  Biso   1.000  Zr
  Zr40     1.0000 0.46025  0.38507  0.50039  Biso   1.000  Zr
  Zr41     1.0000 0.45413  0.38015  0.00145  Biso   1.000  Zr
  Zr42     1.0000 0.45228  0.88393  0.49452  Biso   1.000  Zr
  Zr43     1.0000 0.50989  0.85421  0.98194  Biso   1.000  Zr
  Zr44     1.0000 0.45628  0.36854  0.25174  Biso   1.000  Zr
  Zr45     1.0000 0.46588  0.36857  0.74956  Biso   1.000  Zr
  Zr46     1.0000 0.57487  0.84423  0.24727  Biso   1.000  Zr
  Zr47     1.0000 0.45610  0.86864  0.74106  Biso   1.000  Zr
