data_image0
_cell_length_a       10.1789
_cell_length_b       5.33356
_cell_length_c       10.2297
_cell_angle_alpha    85.2888
_cell_angle_beta     89.8839
_cell_angle_gamma    90.5337

_symmetry_space_group_name_H-M    "P 1"
_symmetry_int_tables_number       1

loop_
  _symmetry_equiv_pos_as_xyz
  'x, y, z'

loop_
  _atom_site_label
  _atom_site_occupancy
  _atom_site_fract_x
  _atom_site_fract_y
  _atom_site_fract_z
  _atom_site_thermal_displace_type
  _atom_site_B_iso_or_equiv
  _atom_site_type_symbol
  Zr1      1.0000 0.13349  0.11243  0.16136  Biso   1.000  Zr
  Zr2      1.0000 0.13264  0.47106  0.39405  Biso   1.000  Zr
  Zr3      1.0000 0.37382  0.56703  0.13837  Biso   1.000  Zr
  Zr4      1.0000 0.36957  0.96079  0.38120  Biso   1.000  Zr
  Zr5      1.0000 0.02723  0.41136  0.20658  Biso   1.000  Zr
  Zr6      1.0000 0.05897  0.10378  0.41181  Biso   1.000  Zr
  Zr7      1.0000 0.47599  0.87497  0.21666  Biso   1.000  Zr
  Zr8      1.0000 0.46249  0.61567  0.46027  Biso   1.000  Zr
  Zr9      1.0000 0.27737  0.27208  0.26729  Biso   1.000  Zr
  Zr10     1.0000 0.27589  0.23131  0.50817  Biso   1.000  Zr
  Zr11     1.0000 0.23435  0.73582  0.50807  Biso   1.000  Zr
  Zr12     1.0000 0.22779  0.75599  0.25838  Biso   1.000  Zr
  Zr13     1.0000 0.13177  0.99246  0.61628  Biso   1.000  Zr
  Zr14     1.0000 0.11503  0.33787  0.82999  Biso   1.000  Zr
  Zr15     1.0000 0.35911  0.49010  0.63374  Biso   1.000  Zr
  Zr16     1.0000 0.40201  0.93747  0.85807  Biso   1.000  Zr
  Zr17     1.0000 0.06043  0.36559  0.62371  Biso   1.000  Zr
  Zr18     1.0000 0.01173  0.15570  0.97443  Biso   1.000  Zr
  Zr19     1.0000 0.49129  0.75098  0.71012  Biso   1.000  Zr
  Zr20     1.0000 0.47999  0.61244  0.96286  Biso   1.000  Zr
  Zr21     1.0000 0.27105  0.16977  0.74972  Biso   1.000  Zr
  Zr22     1.0000 0.23759  0.36882  0.02354  Biso   1.000  Zr
  Zr23     1.0000 0.28870  0.89469  0.01990  Biso   1.000  Zr
  Zr24     1.0000 0.23878  0.67459  0.76199  Biso   1.000  Zr
  Zr25     1.0000 0.64386  0.05883  0.13393  Biso   1.000  Zr
  Zr26     1.0000 0.62394  0.45822  0.38814  Biso   1.000  Zr
  Zr27     1.0000 0.84073  0.55927  0.15765  Biso   1.000  Zr
  Zr28     1.0000 0.87466  0.96227  0.38976  Biso   1.000  Zr
  Zr29     1.0000 0.53486  0.37031  0.21251  Biso   1.000  Zr
  Zr30     1.0000 0.53117  0.11631  0.46271  Biso   1.000  Zr
  Zr31     1.0000 0.96342  0.88737  0.20735  Biso   1.000  Zr
  Zr32     1.0000 0.95009  0.60432  0.43008  Biso   1.000  Zr
  Zr33     1.0000 0.76772  0.24022  0.26739  Biso   1.000  Zr
  Zr34     1.0000 0.76434  0.25640  0.50915  Biso   1.000  Zr
  Zr35     1.0000 0.72238  0.73827  0.50749  Biso   1.000  Zr
  Zr36     1.0000 0.72221  0.75101  0.26594  Biso   1.000  Zr
  Zr37     1.0000 0.64292  0.00043  0.62633  Biso   1.000  Zr
  Zr38     1.0000 0.61677  0.44463  0.86270  Biso   1.000  Zr
  Zr39     1.0000 0.87014  0.52469  0.62383  Biso   1.000  Zr
  Zr40     1.0000 0.87600  0.94577  0.83995  Biso   1.000  Zr
  Zr41     1.0000 0.51311  0.25272  0.71955  Biso   1.000  Zr
  Zr42     1.0000 0.54239  0.10782  0.95985  Biso   1.000  Zr
  Zr43     1.0000 0.93304  0.90392  0.61740  Biso   1.000  Zr
  Zr44     1.0000 0.95821  0.58670  0.81302  Biso   1.000  Zr
  Zr45     1.0000 0.76505  0.22062  0.75410  Biso   1.000  Zr
  Zr46     1.0000 0.73903  0.36912  0.02057  Biso   1.000  Zr
  Zr47     1.0000 0.78284  0.85022  0.01776  Biso   1.000  Zr
  Zr48     1.0000 0.73108  0.71882  0.75727  Biso   1.000  Zr
  Ba1      1.0000 0.08401  0.70551  0.00494  Biso   1.000  Ba
