data_image0
_cell_length_a       10.1647
_cell_length_b       5.15485
_cell_length_c       10.1647
_cell_angle_alpha    90.0015
_cell_angle_beta     90.0008
_cell_angle_gamma    90.0017

_symmetry_space_group_name_H-M    "P 1"
_symmetry_int_tables_number       1

loop_
  _symmetry_equiv_pos_as_xyz
  'x, y, z'

loop_
  _atom_site_label
  _atom_site_occupancy
  _atom_site_fract_x
  _atom_site_fract_y
  _atom_site_fract_z
  _atom_site_thermal_displace_type
  _atom_site_B_iso_or_equiv
  _atom_site_type_symbol
  Ba1      1.0000 0.12565  0.99865  0.12564  Biso   1.000  Ba
  Zr1      1.0000 0.12566  0.99865  0.62565  Biso   1.000  Zr
  Zr2      1.0000 0.62565  0.99865  0.12565  Biso   1.000  Zr
  Zr3      1.0000 0.62565  0.99866  0.62565  Biso   1.000  Zr
  Zr4      1.0000 0.12565  0.49865  0.38113  Biso   1.000  Zr
  Zr5      1.0000 0.12565  0.49865  0.87016  Biso   1.000  Zr
  Zr6      1.0000 0.62565  0.49866  0.37559  Biso   1.000  Zr
  Zr7      1.0000 0.62565  0.49865  0.87569  Biso   1.000  Zr
  Zr8      1.0000 0.38113  0.49865  0.12564  Biso   1.000  Zr
  Zr9      1.0000 0.37560  0.49866  0.62564  Biso   1.000  Zr
  Zr10     1.0000 0.87016  0.49866  0.12565  Biso   1.000  Zr
  Zr11     1.0000 0.87570  0.49866  0.62564  Biso   1.000  Zr
  Zr12     1.0000 0.37875  0.00400  0.37875  Biso   1.000  Zr
  Zr13     1.0000 0.37876  0.99332  0.87256  Biso   1.000  Zr
  Zr14     1.0000 0.87256  0.99332  0.37876  Biso   1.000  Zr
  Zr15     1.0000 0.87254  0.00400  0.87254  Biso   1.000  Zr
  Zr16     1.0000 0.99490  0.30076  0.99490  Biso   1.000  Zr
  Zr17     1.0000 0.00651  0.29259  0.51220  Biso   1.000  Zr
  Zr18     1.0000 0.51220  0.29259  0.00650  Biso   1.000  Zr
  Zr19     1.0000 0.50354  0.29470  0.50354  Biso   1.000  Zr
  Zr20     1.0000 0.98397  0.23798  0.26732  Biso   1.000  Zr
  Zr21     1.0000 0.99892  0.20339  0.75398  Biso   1.000  Zr
  Zr22     1.0000 0.49730  0.20340  0.25237  Biso   1.000  Zr
  Zr23     1.0000 0.49982  0.20415  0.75145  Biso   1.000  Zr
  Zr24     1.0000 0.99491  0.69655  0.25639  Biso   1.000  Zr
  Zr25     1.0000 0.00652  0.70467  0.73908  Biso   1.000  Zr
  Zr26     1.0000 0.51221  0.70468  0.24477  Biso   1.000  Zr
  Zr27     1.0000 0.50355  0.70261  0.74775  Biso   1.000  Zr
  Zr28     1.0000 0.98397  0.75932  0.98396  Biso   1.000  Zr
  Zr29     1.0000 0.99892  0.79387  0.49731  Biso   1.000  Zr
  Zr30     1.0000 0.49731  0.79387  0.99891  Biso   1.000  Zr
  Zr31     1.0000 0.49983  0.79315  0.49982  Biso   1.000  Zr
  Zr32     1.0000 0.25639  0.30074  0.25639  Biso   1.000  Zr
  Zr33     1.0000 0.24477  0.29265  0.73908  Biso   1.000  Zr
  Zr34     1.0000 0.73908  0.29264  0.24477  Biso   1.000  Zr
  Zr35     1.0000 0.74775  0.29467  0.74774  Biso   1.000  Zr
  Zr36     1.0000 0.26732  0.23799  0.98397  Biso   1.000  Zr
  Zr37     1.0000 0.25237  0.20340  0.49730  Biso   1.000  Zr
  Zr38     1.0000 0.75399  0.20339  0.99892  Biso   1.000  Zr
  Zr39     1.0000 0.75145  0.20415  0.49982  Biso   1.000  Zr
  Zr40     1.0000 0.25639  0.69655  0.99491  Biso   1.000  Zr
  Zr41     1.0000 0.24477  0.70468  0.51221  Biso   1.000  Zr
  Zr42     1.0000 0.73908  0.70468  0.00652  Biso   1.000  Zr
  Zr43     1.0000 0.74775  0.70262  0.50354  Biso   1.000  Zr
  Zr44     1.0000 0.26733  0.75931  0.26733  Biso   1.000  Zr
  Zr45     1.0000 0.25238  0.79392  0.75400  Biso   1.000  Zr
  Zr46     1.0000 0.75400  0.79393  0.25237  Biso   1.000  Zr
  Zr47     1.0000 0.75146  0.79314  0.75146  Biso   1.000  Zr
