data_image0
_cell_length_a       5.17926
_cell_length_b       10.4348
_cell_length_c       10.3111
_cell_angle_alpha    89.0267
_cell_angle_beta     89.8559
_cell_angle_gamma    96.2452

_symmetry_space_group_name_H-M    "P 1"
_symmetry_int_tables_number       1

loop_
  _symmetry_equiv_pos_as_xyz
  'x, y, z'

loop_
  _atom_site_label
  _atom_site_occupancy
  _atom_site_fract_x
  _atom_site_fract_y
  _atom_site_fract_z
  _atom_site_thermal_displace_type
  _atom_site_B_iso_or_equiv
  _atom_site_type_symbol
  Zr1      1.0000 0.31783  0.96334  0.15334  Biso   1.000  Zr
  Zr2      1.0000 0.18420  0.25616  0.40300  Biso   1.000  Zr
  Zr3      1.0000 0.63265  0.27780  0.10417  Biso   1.000  Zr
  Zr4      1.0000 0.73396  0.01579  0.39599  Biso   1.000  Zr
  Zr5      1.0000 0.86203  0.22054  0.92986  Biso   1.000  Zr
  Zr6      1.0000 0.09074  0.06469  0.30854  Biso   1.000  Zr
  Zr7      1.0000 0.86122  0.31496  0.28494  Biso   1.000  Zr
  Zr8      1.0000 0.88757  0.44366  0.05054  Biso   1.000  Zr
  Zr9      1.0000 0.59209  0.10606  0.22379  Biso   1.000  Zr
  Zr10     1.0000 0.42637  0.11483  0.98758  Biso   1.000  Zr
  Zr11     1.0000 0.38793  0.38222  0.98252  Biso   1.000  Zr
  Zr12     1.0000 0.40557  0.38074  0.23902  Biso   1.000  Zr
  Zr13     1.0000 0.27138  0.98300  0.63741  Biso   1.000  Zr
  Zr14     1.0000 0.25116  0.23854  0.83435  Biso   1.000  Zr
  Zr15     1.0000 0.71117  0.27098  0.60791  Biso   1.000  Zr
  Zr16     1.0000 0.72043  0.02794  0.88964  Biso   1.000  Zr
  Zr17     1.0000 0.94447  0.15102  0.52452  Biso   1.000  Zr
  Zr18     1.0000 0.04755  0.06765  0.77191  Biso   1.000  Zr
  Zr19     1.0000 0.04522  0.33649  0.71143  Biso   1.000  Zr
  Zr20     1.0000 0.98037  0.40896  0.49355  Biso   1.000  Zr
  Zr21     1.0000 0.52425  0.13611  0.73550  Biso   1.000  Zr
  Zr22     1.0000 0.45763  0.12320  0.49078  Biso   1.000  Zr
  Zr23     1.0000 0.47027  0.37316  0.49666  Biso   1.000  Zr
  Zr24     1.0000 0.53365  0.39136  0.74267  Biso   1.000  Zr
  Zr25     1.0000 0.25243  0.52939  0.11023  Biso   1.000  Zr
  Zr26     1.0000 0.31468  0.72336  0.37041  Biso   1.000  Zr
  Zr27     1.0000 0.77983  0.77235  0.11101  Biso   1.000  Zr
  Zr28     1.0000 0.72576  0.48081  0.34985  Biso   1.000  Zr
  Zr29     1.0000 0.05917  0.68230  0.01371  Biso   1.000  Zr
  Zr30     1.0000 0.06813  0.57223  0.27994  Biso   1.000  Zr
  Zr31     1.0000 0.08651  0.81390  0.24040  Biso   1.000  Zr
  Zr32     1.0000 0.96206  0.95317  0.03855  Biso   1.000  Zr
  Zr33     1.0000 0.55464  0.62926  0.23447  Biso   1.000  Zr
  Zr34     1.0000 0.54037  0.63010  0.98826  Biso   1.000  Zr
  Zr35     1.0000 0.49333  0.86781  0.00323  Biso   1.000  Zr
  Zr36     1.0000 0.58339  0.86726  0.26523  Biso   1.000  Zr
  Zr37     1.0000 0.25747  0.50457  0.62337  Biso   1.000  Zr
  Zr38     1.0000 0.30861  0.74082  0.85505  Biso   1.000  Zr
  Zr39     1.0000 0.77753  0.75863  0.60441  Biso   1.000  Zr
  Zr40     1.0000 0.73283  0.50621  0.87988  Biso   1.000  Zr
  Zr41     1.0000 0.08263  0.65842  0.53313  Biso   1.000  Zr
  Zr42     1.0000 0.07085  0.56900  0.78794  Biso   1.000  Zr
  Zr43     1.0000 0.05455  0.82105  0.74062  Biso   1.000  Zr
  Zr44     1.0000 0.98316  0.90954  0.51104  Biso   1.000  Zr
  Zr45     1.0000 0.54762  0.63950  0.73978  Biso   1.000  Zr
  Zr46     1.0000 0.56079  0.61242  0.48603  Biso   1.000  Zr
  Zr47     1.0000 0.49187  0.86299  0.50719  Biso   1.000  Zr
  Zr48     1.0000 0.54635  0.89269  0.75343  Biso   1.000  Zr
  Ba1      1.0000 0.10115  0.20214  0.12393  Biso   1.000  Ba
