data_image0
_cell_length_a       10.0595
_cell_length_b       10.1561
_cell_length_c       10.0463
_cell_angle_alpha    88.5843
_cell_angle_beta     90.0725
_cell_angle_gamma    90.4592

_symmetry_space_group_name_H-M    "P 1"
_symmetry_int_tables_number       1

loop_
  _symmetry_equiv_pos_as_xyz
  'x, y, z'

loop_
  _atom_site_label
  _atom_site_occupancy
  _atom_site_fract_x
  _atom_site_fract_y
  _atom_site_fract_z
  _atom_site_thermal_displace_type
  _atom_site_B_iso_or_equiv
  _atom_site_type_symbol
  Be1      1.0000 0.13509  0.96274  0.07327  Biso   1.000  Be
  Hf1      1.0000 0.11170  0.00800  0.64129  Biso   1.000  Hf
  Hf2      1.0000 0.13295  0.50935  0.12111  Biso   1.000  Hf
  Hf3      1.0000 0.12741  0.49177  0.60667  Biso   1.000  Hf
  Hf4      1.0000 0.59675  0.98694  0.11337  Biso   1.000  Hf
  Hf5      1.0000 0.62138  0.97942  0.63763  Biso   1.000  Hf
  Hf6      1.0000 0.65005  0.50326  0.11998  Biso   1.000  Hf
  Hf7      1.0000 0.63014  0.49586  0.63272  Biso   1.000  Hf
  Hf8      1.0000 0.12478  0.23947  0.38411  Biso   1.000  Hf
  Hf9      1.0000 0.12035  0.25042  0.88381  Biso   1.000  Hf
  Hf10     1.0000 0.10954  0.75730  0.36891  Biso   1.000  Hf
  Hf11     1.0000 0.15461  0.73197  0.85709  Biso   1.000  Hf
  Hf12     1.0000 0.64309  0.24532  0.37797  Biso   1.000  Hf
  Hf13     1.0000 0.62564  0.25202  0.89503  Biso   1.000  Hf
  Hf14     1.0000 0.62782  0.74752  0.38647  Biso   1.000  Hf
  Hf15     1.0000 0.63132  0.73886  0.87404  Biso   1.000  Hf
  Hf16     1.0000 0.39728  0.27939  0.14264  Biso   1.000  Hf
  Hf17     1.0000 0.37673  0.23284  0.62081  Biso   1.000  Hf
  Hf18     1.0000 0.37763  0.74401  0.11263  Biso   1.000  Hf
  Hf19     1.0000 0.36864  0.76137  0.59803  Biso   1.000  Hf
  Hf20     1.0000 0.88331  0.26052  0.12912  Biso   1.000  Hf
  Hf21     1.0000 0.85571  0.23070  0.64106  Biso   1.000  Hf
  Hf22     1.0000 0.88790  0.74444  0.11498  Biso   1.000  Hf
  Hf23     1.0000 0.89250  0.75917  0.64161  Biso   1.000  Hf
  Hf24     1.0000 0.36787  0.01643  0.36902  Biso   1.000  Hf
  Hf25     1.0000 0.34560  0.01035  0.88609  Biso   1.000  Hf
  Hf26     1.0000 0.39360  0.49881  0.39212  Biso   1.000  Hf
  Hf27     1.0000 0.37324  0.47477  0.86194  Biso   1.000  Hf
  Hf28     1.0000 0.86671  0.98823  0.38554  Biso   1.000  Hf
  Hf29     1.0000 0.86496  0.00174  0.90580  Biso   1.000  Hf
  Hf30     1.0000 0.86931  0.50955  0.38510  Biso   1.000  Hf
  Hf31     1.0000 0.88361  0.49420  0.85803  Biso   1.000  Hf
  Hf32     1.0000 0.95885  0.16975  0.97614  Biso   1.000  Hf
  Hf33     1.0000 0.98726  0.14497  0.50701  Biso   1.000  Hf
  Hf34     1.0000 0.02765  0.66067  0.99925  Biso   1.000  Hf
  Hf35     1.0000 0.98991  0.64280  0.50277  Biso   1.000  Hf
  Hf36     1.0000 0.46814  0.14067  0.98995  Biso   1.000  Hf
  Hf37     1.0000 0.48818  0.14399  0.47721  Biso   1.000  Hf
  Hf38     1.0000 0.53517  0.65008  0.03759  Biso   1.000  Hf
  Hf39     1.0000 0.49796  0.62719  0.52895  Biso   1.000  Hf
  Hf40     1.0000 0.05278  0.05502  0.28502  Biso   1.000  Hf
  Hf41     1.0000 0.97690  0.09659  0.75211  Biso   1.000  Hf
  Hf42     1.0000 0.98953  0.58624  0.23986  Biso   1.000  Hf
  Hf43     1.0000 0.02423  0.60355  0.74749  Biso   1.000  Hf
  Hf44     1.0000 0.54219  0.14488  0.23023  Biso   1.000  Hf
  Hf45     1.0000 0.46778  0.06909  0.72516  Biso   1.000  Hf
  Hf46     1.0000 0.46974  0.66057  0.28436  Biso   1.000  Hf
  Hf47     1.0000 0.53779  0.57015  0.79458  Biso   1.000  Hf
  Hf48     1.0000 0.04858  0.32630  0.21621  Biso   1.000  Hf
  Hf49     1.0000 0.99248  0.35381  0.73030  Biso   1.000  Hf
  Hf50     1.0000 0.93422  0.82487  0.29034  Biso   1.000  Hf
  Hf51     1.0000 0.01017  0.85435  0.77371  Biso   1.000  Hf
  Hf52     1.0000 0.52712  0.39065  0.26480  Biso   1.000  Hf
  Hf53     1.0000 0.48775  0.32600  0.76237  Biso   1.000  Hf
  Hf54     1.0000 0.42158  0.91393  0.20654  Biso   1.000  Hf
  Hf55     1.0000 0.52418  0.81259  0.71741  Biso   1.000  Hf
  Hf56     1.0000 0.01799  0.41106  0.98232  Biso   1.000  Hf
  Hf57     1.0000 0.02025  0.39976  0.46504  Biso   1.000  Hf
  Hf58     1.0000 0.98579  0.91549  0.03943  Biso   1.000  Hf
  Hf59     1.0000 0.00982  0.89224  0.51597  Biso   1.000  Hf
  Hf60     1.0000 0.51367  0.39579  0.00642  Biso   1.000  Hf
  Hf61     1.0000 0.51183  0.38084  0.51500  Biso   1.000  Hf
  Hf62     1.0000 0.49399  0.88235  0.96497  Biso   1.000  Hf
  Hf63     1.0000 0.50379  0.89124  0.48002  Biso   1.000  Hf
  Hf64     1.0000 0.28659  0.17917  0.27329  Biso   1.000  Hf
  Hf65     1.0000 0.23556  0.14218  0.75437  Biso   1.000  Hf
  Hf66     1.0000 0.21045  0.69357  0.21336  Biso   1.000  Hf
  Hf67     1.0000 0.28034  0.63014  0.73448  Biso   1.000  Hf
  Hf68     1.0000 0.80860  0.15297  0.27983  Biso   1.000  Hf
  Hf69     1.0000 0.72235  0.13147  0.76263  Biso   1.000  Hf
  Hf70     1.0000 0.73668  0.64744  0.24295  Biso   1.000  Hf
  Hf71     1.0000 0.76873  0.63277  0.74085  Biso   1.000  Hf
  Hf72     1.0000 0.19593  0.08978  0.99414  Biso   1.000  Hf
  Hf73     1.0000 0.23954  0.10226  0.50997  Biso   1.000  Hf
  Hf74     1.0000 0.27538  0.60189  0.98612  Biso   1.000  Hf
  Hf75     1.0000 0.24194  0.61255  0.47899  Biso   1.000  Hf
  Hf76     1.0000 0.72698  0.11161  0.01877  Biso   1.000  Hf
  Hf77     1.0000 0.73578  0.10277  0.51200  Biso   1.000  Hf
  Hf78     1.0000 0.77766  0.60831  0.99068  Biso   1.000  Hf
  Hf79     1.0000 0.73442  0.60555  0.49221  Biso   1.000  Hf
  Hf80     1.0000 0.26356  0.34306  0.99513  Biso   1.000  Hf
  Hf81     1.0000 0.26109  0.35576  0.49142  Biso   1.000  Hf
  Hf82     1.0000 0.23836  0.85729  0.99652  Biso   1.000  Hf
  Hf83     1.0000 0.26040  0.86005  0.45767  Biso   1.000  Hf
  Hf84     1.0000 0.75771  0.36532  0.00522  Biso   1.000  Hf
  Hf85     1.0000 0.76533  0.36027  0.50729  Biso   1.000  Hf
  Hf86     1.0000 0.74117  0.85668  0.01831  Biso   1.000  Hf
  Hf87     1.0000 0.75852  0.85238  0.51677  Biso   1.000  Hf
  Hf88     1.0000 0.28970  0.44095  0.22912  Biso   1.000  Hf
  Hf89     1.0000 0.24109  0.38553  0.74170  Biso   1.000  Hf
  Hf90     1.0000 0.15060  0.95972  0.24366  Biso   1.000  Hf
  Hf91     1.0000 0.25763  0.88415  0.73300  Biso   1.000  Hf
  Hf92     1.0000 0.77467  0.39365  0.25072  Biso   1.000  Hf
  Hf93     1.0000 0.74500  0.37806  0.76109  Biso   1.000  Hf
  Hf94     1.0000 0.69097  0.91330  0.27728  Biso   1.000  Hf
  Hf95     1.0000 0.75763  0.88627  0.76687  Biso   1.000  Hf
