data_image0
_cell_length_a       10.0201
_cell_length_b       4.9952
_cell_length_c       10.0234
_cell_angle_alpha    90.0035
_cell_angle_beta     89.9996
_cell_angle_gamma    90.0003

_symmetry_space_group_name_H-M    "P 1"
_symmetry_int_tables_number       1

loop_
  _symmetry_equiv_pos_as_xyz
  'x, y, z'

loop_
  _atom_site_label
  _atom_site_occupancy
  _atom_site_fract_x
  _atom_site_fract_y
  _atom_site_fract_z
  _atom_site_thermal_displace_type
  _atom_site_B_iso_or_equiv
  _atom_site_type_symbol
  Be1      1.0000 0.12527  0.99920  0.12526  Biso   1.000  Be
  Hf1      1.0000 0.12528  0.99919  0.62525  Biso   1.000  Hf
  Hf2      1.0000 0.62528  0.99920  0.12523  Biso   1.000  Hf
  Hf3      1.0000 0.62526  0.99919  0.62528  Biso   1.000  Hf
  Hf4      1.0000 0.12525  0.49921  0.37126  Biso   1.000  Hf
  Hf5      1.0000 0.12525  0.49921  0.87926  Biso   1.000  Hf
  Hf6      1.0000 0.62525  0.49918  0.37643  Biso   1.000  Hf
  Hf7      1.0000 0.62524  0.49920  0.87408  Biso   1.000  Hf
  Hf8      1.0000 0.37112  0.49917  0.12525  Biso   1.000  Hf
  Hf9      1.0000 0.37654  0.49922  0.62526  Biso   1.000  Hf
  Hf10     1.0000 0.87941  0.49924  0.12524  Biso   1.000  Hf
  Hf11     1.0000 0.87398  0.49918  0.62525  Biso   1.000  Hf
  Hf12     1.0000 0.37238  0.00293  0.37234  Biso   1.000  Hf
  Hf13     1.0000 0.37234  0.99546  0.87818  Biso   1.000  Hf
  Hf14     1.0000 0.87812  0.99546  0.37236  Biso   1.000  Hf
  Hf15     1.0000 0.87814  0.00295  0.87815  Biso   1.000  Hf
  Hf16     1.0000 0.97484  0.30452  0.97467  Biso   1.000  Hf
  Hf17     1.0000 0.98819  0.26546  0.47900  Biso   1.000  Hf
  Hf18     1.0000 0.47921  0.26577  0.98784  Biso   1.000  Hf
  Hf19     1.0000 0.48774  0.25778  0.48740  Biso   1.000  Hf
  Hf20     1.0000 0.02780  0.19844  0.22245  Biso   1.000  Hf
  Hf21     1.0000 0.01028  0.24273  0.73272  Biso   1.000  Hf
  Hf22     1.0000 0.51751  0.24262  0.23987  Biso   1.000  Hf
  Hf23     1.0000 0.51156  0.24724  0.73861  Biso   1.000  Hf
  Hf24     1.0000 0.97483  0.69387  0.27585  Biso   1.000  Hf
  Hf25     1.0000 0.98818  0.73289  0.77151  Biso   1.000  Hf
  Hf26     1.0000 0.47919  0.73255  0.26267  Biso   1.000  Hf
  Hf27     1.0000 0.48775  0.74071  0.76312  Biso   1.000  Hf
  Hf28     1.0000 0.02779  0.79995  0.02807  Biso   1.000  Hf
  Hf29     1.0000 0.01029  0.75562  0.51781  Biso   1.000  Hf
  Hf30     1.0000 0.51750  0.75571  0.01065  Biso   1.000  Hf
  Hf31     1.0000 0.51155  0.75125  0.51189  Biso   1.000  Hf
  Hf32     1.0000 0.27570  0.30457  0.27586  Biso   1.000  Hf
  Hf33     1.0000 0.26233  0.26547  0.77151  Biso   1.000  Hf
  Hf34     1.0000 0.77134  0.26583  0.26266  Biso   1.000  Hf
  Hf35     1.0000 0.76277  0.25773  0.76310  Biso   1.000  Hf
  Hf36     1.0000 0.22275  0.19838  0.02807  Biso   1.000  Hf
  Hf37     1.0000 0.24021  0.24285  0.51781  Biso   1.000  Hf
  Hf38     1.0000 0.73302  0.24270  0.01063  Biso   1.000  Hf
  Hf39     1.0000 0.73895  0.24712  0.51188  Biso   1.000  Hf
  Hf40     1.0000 0.27569  0.69382  0.97468  Biso   1.000  Hf
  Hf41     1.0000 0.26232  0.73300  0.47903  Biso   1.000  Hf
  Hf42     1.0000 0.77132  0.73264  0.98786  Biso   1.000  Hf
  Hf43     1.0000 0.76277  0.74060  0.48741  Biso   1.000  Hf
  Hf44     1.0000 0.22274  0.80001  0.22246  Biso   1.000  Hf
  Hf45     1.0000 0.24021  0.75563  0.73274  Biso   1.000  Hf
  Hf46     1.0000 0.73301  0.75577  0.23989  Biso   1.000  Hf
  Hf47     1.0000 0.73895  0.75121  0.73862  Biso   1.000  Hf
