data_image0
_cell_length_a       10.0498
_cell_length_b       10.1003
_cell_length_c       5.02125
_cell_angle_alpha    90.0017
_cell_angle_beta     89.9994
_cell_angle_gamma    89.9996

_symmetry_space_group_name_H-M    "P 1"
_symmetry_int_tables_number       1

loop_
  _symmetry_equiv_pos_as_xyz
  'x, y, z'

loop_
  _atom_site_label
  _atom_site_occupancy
  _atom_site_fract_x
  _atom_site_fract_y
  _atom_site_fract_z
  _atom_site_thermal_displace_type
  _atom_site_B_iso_or_equiv
  _atom_site_type_symbol
  Be1      1.0000 0.12571  0.99932  0.25163  Biso   1.000  Be
  Zr1      1.0000 0.12571  0.49932  0.25160  Biso   1.000  Zr
  Zr2      1.0000 0.62571  0.99933  0.25161  Biso   1.000  Zr
  Zr3      1.0000 0.62570  0.49933  0.25161  Biso   1.000  Zr
  Zr4      1.0000 0.12570  0.24725  0.75160  Biso   1.000  Zr
  Zr5      1.0000 0.12570  0.75140  0.75163  Biso   1.000  Zr
  Zr6      1.0000 0.62571  0.24874  0.75160  Biso   1.000  Zr
  Zr7      1.0000 0.62571  0.74991  0.75161  Biso   1.000  Zr
  Zr8      1.0000 0.37404  0.24617  0.25599  Biso   1.000  Zr
  Zr9      1.0000 0.37404  0.75250  0.24723  Biso   1.000  Zr
  Zr10     1.0000 0.87737  0.24617  0.24720  Biso   1.000  Zr
  Zr11     1.0000 0.87738  0.75249  0.25599  Biso   1.000  Zr
  Zr12     1.0000 0.37014  0.99933  0.75161  Biso   1.000  Zr
  Zr13     1.0000 0.37850  0.49933  0.75161  Biso   1.000  Zr
  Zr14     1.0000 0.88128  0.99933  0.75159  Biso   1.000  Zr
  Zr15     1.0000 0.87292  0.49932  0.75160  Biso   1.000  Zr
  Zr16     1.0000 0.97771  0.15175  0.94581  Biso   1.000  Zr
  Zr17     1.0000 0.99418  0.64789  0.99359  Biso   1.000  Zr
  Zr18     1.0000 0.48300  0.13968  0.98327  Biso   1.000  Zr
  Zr19     1.0000 0.49377  0.63990  0.99436  Biso   1.000  Zr
  Zr20     1.0000 0.02423  0.09192  0.44888  Biso   1.000  Zr
  Zr21     1.0000 0.00587  0.60330  0.49859  Biso   1.000  Zr
  Zr22     1.0000 0.51379  0.11065  0.49385  Biso   1.000  Zr
  Zr23     1.0000 0.50678  0.60982  0.49879  Biso   1.000  Zr
  Zr24     1.0000 0.99418  0.35074  0.50961  Biso   1.000  Zr
  Zr25     1.0000 0.97771  0.84690  0.55741  Biso   1.000  Zr
  Zr26     1.0000 0.49377  0.35877  0.50886  Biso   1.000  Zr
  Zr27     1.0000 0.48302  0.85900  0.51990  Biso   1.000  Zr
  Zr28     1.0000 0.00587  0.39534  0.00462  Biso   1.000  Zr
  Zr29     1.0000 0.02423  0.90670  0.05437  Biso   1.000  Zr
  Zr30     1.0000 0.50678  0.38885  0.00444  Biso   1.000  Zr
  Zr31     1.0000 0.51380  0.88803  0.00933  Biso   1.000  Zr
  Zr32     1.0000 0.27372  0.15177  0.55742  Biso   1.000  Zr
  Zr33     1.0000 0.25723  0.64792  0.50962  Biso   1.000  Zr
  Zr34     1.0000 0.76842  0.13966  0.51989  Biso   1.000  Zr
  Zr35     1.0000 0.75765  0.63989  0.50886  Biso   1.000  Zr
  Zr36     1.0000 0.22722  0.09192  0.05436  Biso   1.000  Zr
  Zr37     1.0000 0.24554  0.60331  0.00463  Biso   1.000  Zr
  Zr38     1.0000 0.73762  0.11064  0.00932  Biso   1.000  Zr
  Zr39     1.0000 0.74463  0.60981  0.00444  Biso   1.000  Zr
  Zr40     1.0000 0.25722  0.35074  0.99362  Biso   1.000  Zr
  Zr41     1.0000 0.27373  0.84689  0.94577  Biso   1.000  Zr
  Zr42     1.0000 0.75764  0.35876  0.99435  Biso   1.000  Zr
  Zr43     1.0000 0.76843  0.85899  0.98328  Biso   1.000  Zr
  Zr44     1.0000 0.24554  0.39536  0.49861  Biso   1.000  Zr
  Zr45     1.0000 0.22722  0.90673  0.44884  Biso   1.000  Zr
  Zr46     1.0000 0.74463  0.38884  0.49877  Biso   1.000  Zr
  Zr47     1.0000 0.73763  0.88801  0.49385  Biso   1.000  Zr
