data_image0
_cell_length_a       10.0692
_cell_length_b       10.3643
_cell_length_c       5.03915
_cell_angle_alpha    89.7174
_cell_angle_beta     89.1849
_cell_angle_gamma    90.4136

_symmetry_space_group_name_H-M    "P 1"
_symmetry_int_tables_number       1

loop_
  _symmetry_equiv_pos_as_xyz
  'x, y, z'

loop_
  _atom_site_label
  _atom_site_occupancy
  _atom_site_fract_x
  _atom_site_fract_y
  _atom_site_fract_z
  _atom_site_thermal_displace_type
  _atom_site_B_iso_or_equiv
  _atom_site_type_symbol
  Be1      1.0000 0.07499  0.94350  0.10354  Biso   1.000  Be
  Zr1      1.0000 0.13392  0.51326  0.25567  Biso   1.000  Zr
  Zr2      1.0000 0.63239  0.01159  0.22556  Biso   1.000  Zr
  Zr3      1.0000 0.63377  0.51742  0.24967  Biso   1.000  Zr
  Zr4      1.0000 0.13550  0.22711  0.76763  Biso   1.000  Zr
  Zr5      1.0000 0.13950  0.73292  0.75530  Biso   1.000  Zr
  Zr6      1.0000 0.63079  0.23410  0.74008  Biso   1.000  Zr
  Zr7      1.0000 0.63701  0.74207  0.74666  Biso   1.000  Zr
  Zr8      1.0000 0.36195  0.26421  0.25927  Biso   1.000  Zr
  Zr9      1.0000 0.36530  0.76773  0.25845  Biso   1.000  Zr
  Zr10     1.0000 0.86425  0.26191  0.24757  Biso   1.000  Zr
  Zr11     1.0000 0.86728  0.76744  0.24066  Biso   1.000  Zr
  Zr12     1.0000 0.36672  0.48465  0.75455  Biso   1.000  Zr
  Zr13     1.0000 0.35671  0.98360  0.75716  Biso   1.000  Zr
  Zr14     1.0000 0.86620  0.48610  0.75009  Biso   1.000  Zr
  Zr15     1.0000 0.88732  0.00440  0.70111  Biso   1.000  Zr
  Zr16     1.0000 0.99421  0.17253  0.49459  Biso   1.000  Zr
  Zr17     1.0000 0.03107  0.68176  0.40528  Biso   1.000  Zr
  Zr18     1.0000 0.53380  0.18498  0.37825  Biso   1.000  Zr
  Zr19     1.0000 0.53407  0.68415  0.40003  Biso   1.000  Zr
  Zr20     1.0000 0.03376  0.06909  0.94671  Biso   1.000  Zr
  Zr21     1.0000 0.02920  0.57153  0.90826  Biso   1.000  Zr
  Zr22     1.0000 0.53256  0.06845  0.88230  Biso   1.000  Zr
  Zr23     1.0000 0.53350  0.57252  0.89636  Biso   1.000  Zr
  Zr24     1.0000 0.46611  0.43330  0.39642  Biso   1.000  Zr
  Zr25     1.0000 0.47275  0.93234  0.40552  Biso   1.000  Zr
  Zr26     1.0000 0.96781  0.42891  0.40470  Biso   1.000  Zr
  Zr27     1.0000 0.98728  0.92830  0.37327  Biso   1.000  Zr
  Zr28     1.0000 0.46700  0.32042  0.89242  Biso   1.000  Zr
  Zr29     1.0000 0.47062  0.82435  0.91104  Biso   1.000  Zr
  Zr30     1.0000 0.97316  0.32567  0.91970  Biso   1.000  Zr
  Zr31     1.0000 0.98083  0.83508  0.90392  Biso   1.000  Zr
  Zr32     1.0000 0.27478  0.12623  0.51660  Biso   1.000  Zr
  Zr33     1.0000 0.26750  0.61157  0.49762  Biso   1.000  Zr
  Zr34     1.0000 0.75617  0.11251  0.47428  Biso   1.000  Zr
  Zr35     1.0000 0.76877  0.61661  0.49303  Biso   1.000  Zr
  Zr36     1.0000 0.27940  0.13505  0.99642  Biso   1.000  Zr
  Zr37     1.0000 0.27134  0.63291  0.99968  Biso   1.000  Zr
  Zr38     1.0000 0.77164  0.14029  0.97185  Biso   1.000  Zr
  Zr39     1.0000 0.76883  0.63861  0.99029  Biso   1.000  Zr
  Zr40     1.0000 0.23167  0.38311  0.00459  Biso   1.000  Zr
  Zr41     1.0000 0.21994  0.88291  0.02329  Biso   1.000  Zr
  Zr42     1.0000 0.73024  0.38721  0.99277  Biso   1.000  Zr
  Zr43     1.0000 0.74003  0.88849  0.97768  Biso   1.000  Zr
  Zr44     1.0000 0.22563  0.36634  0.50505  Biso   1.000  Zr
  Zr45     1.0000 0.24835  0.85485  0.52913  Biso   1.000  Zr
  Zr46     1.0000 0.73200  0.36655  0.49210  Biso   1.000  Zr
  Zr47     1.0000 0.74166  0.86737  0.48367  Biso   1.000  Zr
