data_image0
_cell_length_a       5.05195
_cell_length_b       10.2687
_cell_length_c       10.1021
_cell_angle_alpha    90.0042
_cell_angle_beta     89.9996
_cell_angle_gamma    89.9986

_symmetry_space_group_name_H-M    "P 1"
_symmetry_int_tables_number       1

loop_
  _symmetry_equiv_pos_as_xyz
  'x, y, z'

loop_
  _atom_site_label
  _atom_site_occupancy
  _atom_site_fract_x
  _atom_site_fract_y
  _atom_site_fract_z
  _atom_site_thermal_displace_type
  _atom_site_B_iso_or_equiv
  _atom_site_type_symbol
  Bi1      1.0000 0.25323  0.00026  0.12544  Biso   1.000  Bi
  Zr1      1.0000 0.25323  0.00027  0.62544  Biso   1.000  Zr
  Zr2      1.0000 0.25323  0.50027  0.12544  Biso   1.000  Zr
  Zr3      1.0000 0.25323  0.50027  0.62544  Biso   1.000  Zr
  Zr4      1.0000 0.25240  0.25234  0.37686  Biso   1.000  Zr
  Zr5      1.0000 0.25399  0.25233  0.87402  Biso   1.000  Zr
  Zr6      1.0000 0.25400  0.74820  0.37686  Biso   1.000  Zr
  Zr7      1.0000 0.25239  0.74820  0.87403  Biso   1.000  Zr
  Zr8      1.0000 0.75320  0.25351  0.12544  Biso   1.000  Zr
  Zr9      1.0000 0.75319  0.24985  0.62544  Biso   1.000  Zr
  Zr10     1.0000 0.75321  0.74702  0.12544  Biso   1.000  Zr
  Zr11     1.0000 0.75319  0.75069  0.62545  Biso   1.000  Zr
  Zr12     1.0000 0.75324  0.00026  0.37818  Biso   1.000  Zr
  Zr13     1.0000 0.75323  0.00026  0.87269  Biso   1.000  Zr
  Zr14     1.0000 0.75323  0.50026  0.37553  Biso   1.000  Zr
  Zr15     1.0000 0.75323  0.50026  0.87535  Biso   1.000  Zr
  Zr16     1.0000 0.00186  0.14999  0.99860  Biso   1.000  Zr
  Zr17     1.0000 0.00953  0.14797  0.50407  Biso   1.000  Zr
  Zr18     1.0000 0.00944  0.64477  0.00166  Biso   1.000  Zr
  Zr19     1.0000 0.00291  0.64662  0.50193  Biso   1.000  Zr
  Zr20     1.0000 0.99107  0.11074  0.25656  Biso   1.000  Zr
  Zr21     1.0000 0.00013  0.10317  0.75033  Biso   1.000  Zr
  Zr22     1.0000 0.99879  0.60308  0.25065  Biso   1.000  Zr
  Zr23     1.0000 0.00408  0.60312  0.75157  Biso   1.000  Zr
  Zr24     1.0000 0.00946  0.35576  0.24920  Biso   1.000  Zr
  Zr25     1.0000 0.00293  0.35392  0.74893  Biso   1.000  Zr
  Zr26     1.0000 0.00185  0.85054  0.25228  Biso   1.000  Zr
  Zr27     1.0000 0.00949  0.85257  0.74682  Biso   1.000  Zr
  Zr28     1.0000 0.99881  0.39745  0.00021  Biso   1.000  Zr
  Zr29     1.0000 0.00413  0.39742  0.49930  Biso   1.000  Zr
  Zr30     1.0000 0.99104  0.88979  0.99433  Biso   1.000  Zr
  Zr31     1.0000 0.00012  0.89737  0.50056  Biso   1.000  Zr
  Zr32     1.0000 0.50461  0.15000  0.25228  Biso   1.000  Zr
  Zr33     1.0000 0.49693  0.14797  0.74682  Biso   1.000  Zr
  Zr34     1.0000 0.49696  0.64477  0.24920  Biso   1.000  Zr
  Zr35     1.0000 0.50349  0.64662  0.74893  Biso   1.000  Zr
  Zr36     1.0000 0.51539  0.11074  0.99433  Biso   1.000  Zr
  Zr37     1.0000 0.50632  0.10317  0.50056  Biso   1.000  Zr
  Zr38     1.0000 0.50761  0.60308  0.00021  Biso   1.000  Zr
  Zr39     1.0000 0.50232  0.60312  0.49930  Biso   1.000  Zr
  Zr40     1.0000 0.49699  0.35576  0.00166  Biso   1.000  Zr
  Zr41     1.0000 0.50354  0.35392  0.50193  Biso   1.000  Zr
  Zr42     1.0000 0.50459  0.85053  0.99860  Biso   1.000  Zr
  Zr43     1.0000 0.49692  0.85257  0.50406  Biso   1.000  Zr
  Zr44     1.0000 0.50763  0.39745  0.25066  Biso   1.000  Zr
  Zr45     1.0000 0.50233  0.39742  0.75156  Biso   1.000  Zr
  Zr46     1.0000 0.51539  0.88979  0.25656  Biso   1.000  Zr
  Zr47     1.0000 0.50629  0.89736  0.75032  Biso   1.000  Zr
