data_image0
_cell_length_a       10.0683
_cell_length_b       10.4604
_cell_length_c       10.2105
_cell_angle_alpha    89.3628
_cell_angle_beta     90.7621
_cell_angle_gamma    90.4161

_symmetry_space_group_name_H-M    "P 1"
_symmetry_int_tables_number       1

loop_
  _symmetry_equiv_pos_as_xyz
  'x, y, z'

loop_
  _atom_site_label
  _atom_site_occupancy
  _atom_site_fract_x
  _atom_site_fract_y
  _atom_site_fract_z
  _atom_site_thermal_displace_type
  _atom_site_B_iso_or_equiv
  _atom_site_type_symbol
  Zr1      1.0000 0.14821  0.00556  0.11048  Biso   1.000  Zr
  Zr2      1.0000 0.12328  0.24178  0.38553  Biso   1.000  Zr
  Zr3      1.0000 0.36641  0.26780  0.10935  Biso   1.000  Zr
  Zr4      1.0000 0.37029  0.48513  0.37124  Biso   1.000  Zr
  Zr5      1.0000 0.93147  0.18791  0.27992  Biso   1.000  Zr
  Zr6      1.0000 0.04602  0.06261  0.44584  Biso   1.000  Zr
  Zr7      1.0000 0.46194  0.43122  0.18479  Biso   1.000  Zr
  Zr8      1.0000 0.46513  0.31849  0.44088  Biso   1.000  Zr
  Zr9      1.0000 0.26334  0.11835  0.23889  Biso   1.000  Zr
  Zr10     1.0000 0.27048  0.13980  0.49156  Biso   1.000  Zr
  Zr11     1.0000 0.23642  0.38890  0.49265  Biso   1.000  Zr
  Zr12     1.0000 0.23275  0.36183  0.24565  Biso   1.000  Zr
  Zr13     1.0000 0.13766  0.01048  0.61899  Biso   1.000  Zr
  Zr14     1.0000 0.15797  0.22459  0.85094  Biso   1.000  Zr
  Zr15     1.0000 0.37318  0.26818  0.61866  Biso   1.000  Zr
  Zr16     1.0000 0.37271  0.48899  0.86523  Biso   1.000  Zr
  Zr17     1.0000 0.05514  0.17864  0.67760  Biso   1.000  Zr
  Zr18     1.0000 0.05091  0.05772  0.92732  Biso   1.000  Zr
  Zr19     1.0000 0.46504  0.43878  0.68389  Biso   1.000  Zr
  Zr20     1.0000 0.45507  0.31248  0.91211  Biso   1.000  Zr
  Zr21     1.0000 0.28583  0.11224  0.73704  Biso   1.000  Zr
  Zr22     1.0000 0.29052  0.12020  0.98624  Biso   1.000  Zr
  Zr23     1.0000 0.24248  0.38726  0.98982  Biso   1.000  Zr
  Zr24     1.0000 0.23372  0.36755  0.73662  Biso   1.000  Zr
  Zr25     1.0000 0.13997  0.51923  0.12648  Biso   1.000  Zr
  Zr26     1.0000 0.13335  0.73890  0.37501  Biso   1.000  Zr
  Zr27     1.0000 0.36643  0.76397  0.12897  Biso   1.000  Zr
  Zr28     1.0000 0.36458  0.98910  0.37580  Biso   1.000  Zr
  Zr29     1.0000 0.04381  0.68844  0.19364  Biso   1.000  Zr
  Zr30     1.0000 0.02909  0.58407  0.45218  Biso   1.000  Zr
  Zr31     1.0000 0.45959  0.94044  0.20035  Biso   1.000  Zr
  Zr32     1.0000 0.46749  0.81742  0.44107  Biso   1.000  Zr
  Zr33     1.0000 0.27457  0.61829  0.24888  Biso   1.000  Zr
  Zr34     1.0000 0.26910  0.63421  0.49424  Biso   1.000  Zr
  Zr35     1.0000 0.23664  0.88317  0.49582  Biso   1.000  Zr
  Zr36     1.0000 0.23277  0.86666  0.24612  Biso   1.000  Zr
  Zr37     1.0000 0.12949  0.51490  0.61766  Biso   1.000  Zr
  Zr38     1.0000 0.13544  0.72956  0.87143  Biso   1.000  Zr
  Zr39     1.0000 0.37090  0.76073  0.61847  Biso   1.000  Zr
  Zr40     1.0000 0.37233  0.97398  0.86461  Biso   1.000  Zr
  Zr41     1.0000 0.03898  0.68876  0.69461  Biso   1.000  Zr
  Zr42     1.0000 0.03597  0.56107  0.95087  Biso   1.000  Zr
  Zr43     1.0000 0.47119  0.92484  0.69041  Biso   1.000  Zr
  Zr44     1.0000 0.48642  0.82724  0.96894  Biso   1.000  Zr
  Zr45     1.0000 0.26691  0.61342  0.74351  Biso   1.000  Zr
  Zr46     1.0000 0.27511  0.63513  0.99641  Biso   1.000  Zr
  Zr47     1.0000 0.24008  0.87540  0.99397  Biso   1.000  Zr
  Zr48     1.0000 0.23924  0.86028  0.74563  Biso   1.000  Zr
  Zr49     1.0000 0.61865  0.98972  0.09991  Biso   1.000  Zr
  Zr50     1.0000 0.63742  0.23144  0.42288  Biso   1.000  Zr
  Zr51     1.0000 0.76450  0.24054  0.15894  Biso   1.000  Zr
  Zr52     1.0000 0.86849  0.48452  0.38894  Biso   1.000  Zr
  Zr53     1.0000 0.55601  0.19143  0.10810  Biso   1.000  Zr
  Zr54     1.0000 0.52728  0.06855  0.46101  Biso   1.000  Zr
  Zr55     1.0000 0.98382  0.44479  0.23511  Biso   1.000  Zr
  Zr56     1.0000 0.98283  0.33536  0.48294  Biso   1.000  Zr
  Zr57     1.0000 0.69943  0.09396  0.27630  Biso   1.000  Zr
  Zr58     1.0000 0.78594  0.13317  0.51707  Biso   1.000  Zr
  Zr59     1.0000 0.73927  0.38063  0.52065  Biso   1.000  Zr
  Zr60     1.0000 0.70254  0.37695  0.28010  Biso   1.000  Zr
  Zr61     1.0000 0.64280  0.01270  0.63457  Biso   1.000  Zr
  Zr62     1.0000 0.63145  0.23077  0.87974  Biso   1.000  Zr
  Zr63     1.0000 0.87954  0.27301  0.65341  Biso   1.000  Zr
  Zr64     1.0000 0.86390  0.48294  0.87951  Biso   1.000  Zr
  Zr65     1.0000 0.55237  0.19260  0.67522  Biso   1.000  Zr
  Zr66     1.0000 0.55084  0.05066  0.90509  Biso   1.000  Zr
  Zr67     1.0000 0.95514  0.45699  0.69238  Biso   1.000  Zr
  Zr68     1.0000 0.96793  0.30323  0.86533  Biso   1.000  Zr
  Zr69     1.0000 0.77633  0.11872  0.76066  Biso   1.000  Zr
  Zr70     1.0000 0.77308  0.11236  0.00722  Biso   1.000  Zr
  Zr71     1.0000 0.72362  0.37945  0.01094  Biso   1.000  Zr
  Zr72     1.0000 0.72503  0.37258  0.76327  Biso   1.000  Zr
  Zr73     1.0000 0.63341  0.52303  0.13319  Biso   1.000  Zr
  Zr74     1.0000 0.63956  0.74027  0.37722  Biso   1.000  Zr
  Zr75     1.0000 0.87298  0.76472  0.12797  Biso   1.000  Zr
  Zr76     1.0000 0.87108  0.99972  0.36425  Biso   1.000  Zr
  Zr77     1.0000 0.53719  0.68508  0.19957  Biso   1.000  Zr
  Zr78     1.0000 0.53724  0.56895  0.44745  Biso   1.000  Zr
  Zr79     1.0000 0.97034  0.94612  0.18539  Biso   1.000  Zr
  Zr80     1.0000 0.96700  0.82666  0.44103  Biso   1.000  Zr
  Zr81     1.0000 0.77501  0.61753  0.25497  Biso   1.000  Zr
  Zr82     1.0000 0.76820  0.63689  0.50470  Biso   1.000  Zr
  Zr83     1.0000 0.73253  0.88985  0.49659  Biso   1.000  Zr
  Zr84     1.0000 0.73786  0.86286  0.24229  Biso   1.000  Zr
  Zr85     1.0000 0.63804  0.51888  0.63046  Biso   1.000  Zr
  Zr86     1.0000 0.64145  0.73082  0.87761  Biso   1.000  Zr
  Zr87     1.0000 0.87271  0.77045  0.62090  Biso   1.000  Zr
  Zr88     1.0000 0.87408  0.98005  0.87591  Biso   1.000  Zr
  Zr89     1.0000 0.53405  0.68090  0.70516  Biso   1.000  Zr
  Zr90     1.0000 0.53726  0.56901  0.94934  Biso   1.000  Zr
  Zr91     1.0000 0.97021  0.93420  0.69529  Biso   1.000  Zr
  Zr92     1.0000 0.97441  0.81279  0.94835  Biso   1.000  Zr
  Zr93     1.0000 0.77246  0.61965  0.75645  Biso   1.000  Zr
  Zr94     1.0000 0.77293  0.62918  0.00592  Biso   1.000  Zr
  Zr95     1.0000 0.74176  0.87200  0.99430  Biso   1.000  Zr
  Zr96     1.0000 0.73869  0.86458  0.74851  Biso   1.000  Zr
  Bi1      1.0000 0.01259  0.26687  0.08121  Biso   1.000  Bi
