data_image0
_cell_length_a       10.0822
_cell_length_b       5.18587
_cell_length_c       10.0743
_cell_angle_alpha    89.5898
_cell_angle_beta     88.9488
_cell_angle_gamma    90.2844

_symmetry_space_group_name_H-M    "P 1"
_symmetry_int_tables_number       1

loop_
  _symmetry_equiv_pos_as_xyz
  'x, y, z'

loop_
  _atom_site_label
  _atom_site_occupancy
  _atom_site_fract_x
  _atom_site_fract_y
  _atom_site_fract_z
  _atom_site_thermal_displace_type
  _atom_site_B_iso_or_equiv
  _atom_site_type_symbol
  C1       1.0000 0.01800  0.11889  0.12329  Biso   1.000  C 
  Zr1      1.0000 0.13884  0.02974  0.63223  Biso   1.000  Zr
  Zr2      1.0000 0.63422  0.03943  0.11971  Biso   1.000  Zr
  Zr3      1.0000 0.62372  0.01654  0.61256  Biso   1.000  Zr
  Zr4      1.0000 0.14884  0.46804  0.37705  Biso   1.000  Zr
  Zr5      1.0000 0.14651  0.46998  0.89101  Biso   1.000  Zr
  Zr6      1.0000 0.63150  0.47768  0.36653  Biso   1.000  Zr
  Zr7      1.0000 0.62815  0.46766  0.86517  Biso   1.000  Zr
  Zr8      1.0000 0.36207  0.52714  0.12670  Biso   1.000  Zr
  Zr9      1.0000 0.36729  0.53246  0.62911  Biso   1.000  Zr
  Zr10     1.0000 0.85583  0.54577  0.10420  Biso   1.000  Zr
  Zr11     1.0000 0.87686  0.49444  0.61441  Biso   1.000  Zr
  Zr12     1.0000 0.36171  0.96869  0.36740  Biso   1.000  Zr
  Zr13     1.0000 0.36264  0.96626  0.88769  Biso   1.000  Zr
  Zr14     1.0000 0.86697  0.98114  0.37863  Biso   1.000  Zr
  Zr15     1.0000 0.87264  0.96451  0.84860  Biso   1.000  Zr
  Zr16     1.0000 0.03404  0.33377  0.18791  Biso   1.000  Zr
  Zr17     1.0000 0.01098  0.29195  0.74259  Biso   1.000  Zr
  Zr18     1.0000 0.54487  0.37499  0.18944  Biso   1.000  Zr
  Zr19     1.0000 0.53161  0.35701  0.69253  Biso   1.000  Zr
  Zr20     1.0000 0.01976  0.16832  0.47511  Biso   1.000  Zr
  Zr21     1.0000 0.02061  0.13748  0.99652  Biso   1.000  Zr
  Zr22     1.0000 0.53351  0.13977  0.43895  Biso   1.000  Zr
  Zr23     1.0000 0.53633  0.13502  0.94544  Biso   1.000  Zr
  Zr24     1.0000 0.47533  0.86091  0.20032  Biso   1.000  Zr
  Zr25     1.0000 0.46617  0.85822  0.70379  Biso   1.000  Zr
  Zr26     1.0000 0.98404  0.91427  0.18520  Biso   1.000  Zr
  Zr27     1.0000 0.97691  0.81212  0.68796  Biso   1.000  Zr
  Zr28     1.0000 0.47262  0.64318  0.45557  Biso   1.000  Zr
  Zr29     1.0000 0.47454  0.64188  0.94939  Biso   1.000  Zr
  Zr30     1.0000 0.97089  0.64623  0.42898  Biso   1.000  Zr
  Zr31     1.0000 0.97255  0.65024  0.94526  Biso   1.000  Zr
  Zr32     1.0000 0.28153  0.25242  0.25992  Biso   1.000  Zr
  Zr33     1.0000 0.26554  0.23540  0.75390  Biso   1.000  Zr
  Zr34     1.0000 0.77891  0.23951  0.23746  Biso   1.000  Zr
  Zr35     1.0000 0.76037  0.20349  0.73152  Biso   1.000  Zr
  Zr36     1.0000 0.26713  0.26090  0.50725  Biso   1.000  Zr
  Zr37     1.0000 0.27725  0.26430  0.99841  Biso   1.000  Zr
  Zr38     1.0000 0.76325  0.27003  0.48692  Biso   1.000  Zr
  Zr39     1.0000 0.77027  0.28317  0.98343  Biso   1.000  Zr
  Zr40     1.0000 0.23006  0.76114  0.50406  Biso   1.000  Zr
  Zr41     1.0000 0.23700  0.74800  0.00212  Biso   1.000  Zr
  Zr42     1.0000 0.73712  0.76470  0.49318  Biso   1.000  Zr
  Zr43     1.0000 0.73768  0.78387  0.98835  Biso   1.000  Zr
  Zr44     1.0000 0.24062  0.72314  0.25788  Biso   1.000  Zr
  Zr45     1.0000 0.22982  0.73149  0.75412  Biso   1.000  Zr
  Zr46     1.0000 0.74458  0.74843  0.24106  Biso   1.000  Zr
  Zr47     1.0000 0.74375  0.70706  0.73975  Biso   1.000  Zr
