data_image0
_cell_length_a       10.111
_cell_length_b       10.2824
_cell_length_c       10.1143
_cell_angle_alpha    89.1147
_cell_angle_beta     91.3182
_cell_angle_gamma    89.6018

_symmetry_space_group_name_H-M    "P 1"
_symmetry_int_tables_number       1

loop_
  _symmetry_equiv_pos_as_xyz
  'x, y, z'

loop_
  _atom_site_label
  _atom_site_occupancy
  _atom_site_fract_x
  _atom_site_fract_y
  _atom_site_fract_z
  _atom_site_thermal_displace_type
  _atom_site_B_iso_or_equiv
  _atom_site_type_symbol
  Zr1      1.0000 0.12940  0.98382  0.09712  Biso   1.000  Zr
  Zr2      1.0000 0.11318  0.27343  0.39022  Biso   1.000  Zr
  Zr3      1.0000 0.39759  0.24061  0.11878  Biso   1.000  Zr
  Zr4      1.0000 0.36692  0.01084  0.38029  Biso   1.000  Zr
  Zr5      1.0000 0.00356  0.13008  0.97082  Biso   1.000  Zr
  Zr6      1.0000 0.02434  0.07850  0.24787  Biso   1.000  Zr
  Zr7      1.0000 0.94446  0.34387  0.28448  Biso   1.000  Zr
  Zr8      1.0000 0.01249  0.39052  0.01579  Biso   1.000  Zr
  Zr9      1.0000 0.24415  0.17085  0.25815  Biso   1.000  Zr
  Zr10     1.0000 0.27282  0.10867  0.99817  Biso   1.000  Zr
  Zr11     1.0000 0.26211  0.36366  0.02353  Biso   1.000  Zr
  Zr12     1.0000 0.20749  0.42363  0.28524  Biso   1.000  Zr
  Zr13     1.0000 0.11410  0.99868  0.61254  Biso   1.000  Zr
  Zr14     1.0000 0.14392  0.25632  0.89704  Biso   1.000  Zr
  Zr15     1.0000 0.37625  0.24932  0.63532  Biso   1.000  Zr
  Zr16     1.0000 0.37031  0.99520  0.86314  Biso   1.000  Zr
  Zr17     1.0000 0.98441  0.14989  0.49197  Biso   1.000  Zr
  Zr18     1.0000 0.97795  0.08469  0.72422  Biso   1.000  Zr
  Zr19     1.0000 0.00155  0.34156  0.76814  Biso   1.000  Zr
  Zr20     1.0000 0.99665  0.39936  0.51853  Biso   1.000  Zr
  Zr21     1.0000 0.23818  0.14817  0.75154  Biso   1.000  Zr
  Zr22     1.0000 0.23887  0.10927  0.49830  Biso   1.000  Zr
  Zr23     1.0000 0.24865  0.36076  0.52086  Biso   1.000  Zr
  Zr24     1.0000 0.25185  0.39789  0.77111  Biso   1.000  Zr
  Zr25     1.0000 0.13680  0.51684  0.12396  Biso   1.000  Zr
  Zr26     1.0000 0.11554  0.74059  0.37607  Biso   1.000  Zr
  Zr27     1.0000 0.38355  0.75987  0.12363  Biso   1.000  Zr
  Zr28     1.0000 0.37159  0.50125  0.37911  Biso   1.000  Zr
  Zr29     1.0000 0.00932  0.64111  0.99816  Biso   1.000  Zr
  Zr30     1.0000 0.99473  0.59641  0.24982  Biso   1.000  Zr
  Zr31     1.0000 0.04180  0.83245  0.21373  Biso   1.000  Zr
  Zr32     1.0000 0.99732  0.88436  0.97420  Biso   1.000  Zr
  Zr33     1.0000 0.25451  0.66051  0.24844  Biso   1.000  Zr
  Zr34     1.0000 0.26239  0.61067  0.00049  Biso   1.000  Zr
  Zr35     1.0000 0.25124  0.85380  0.98181  Biso   1.000  Zr
  Zr36     1.0000 0.28818  0.91925  0.22144  Biso   1.000  Zr
  Zr37     1.0000 0.13167  0.49852  0.63371  Biso   1.000  Zr
  Zr38     1.0000 0.12218  0.74538  0.86476  Biso   1.000  Zr
  Zr39     1.0000 0.36690  0.75227  0.61766  Biso   1.000  Zr
  Zr40     1.0000 0.38612  0.50356  0.88197  Biso   1.000  Zr
  Zr41     1.0000 0.98873  0.64403  0.49817  Biso   1.000  Zr
  Zr42     1.0000 0.00452  0.59492  0.75466  Biso   1.000  Zr
  Zr43     1.0000 0.00721  0.84107  0.72547  Biso   1.000  Zr
  Zr44     1.0000 0.00182  0.89543  0.47508  Biso   1.000  Zr
  Zr45     1.0000 0.25542  0.64534  0.74864  Biso   1.000  Zr
  Zr46     1.0000 0.24079  0.60796  0.50252  Biso   1.000  Zr
  Zr47     1.0000 0.25106  0.85707  0.48093  Biso   1.000  Zr
  Zr48     1.0000 0.25068  0.89657  0.73219  Biso   1.000  Zr
  Zr49     1.0000 0.63186  0.99838  0.12097  Biso   1.000  Zr
  Zr50     1.0000 0.62188  0.25608  0.37963  Biso   1.000  Zr
  Zr51     1.0000 0.90409  0.23666  0.12173  Biso   1.000  Zr
  Zr52     1.0000 0.86146  0.01414  0.38207  Biso   1.000  Zr
  Zr53     1.0000 0.52202  0.14565  0.00049  Biso   1.000  Zr
  Zr54     1.0000 0.50341  0.10037  0.24931  Biso   1.000  Zr
  Zr55     1.0000 0.45990  0.34551  0.27288  Biso   1.000  Zr
  Zr56     1.0000 0.51175  0.39505  0.01303  Biso   1.000  Zr
  Zr57     1.0000 0.75645  0.15913  0.25419  Biso   1.000  Zr
  Zr58     1.0000 0.76545  0.10894  0.00429  Biso   1.000  Zr
  Zr59     1.0000 0.76519  0.36003  0.01969  Biso   1.000  Zr
  Zr60     1.0000 0.70254  0.41769  0.28178  Biso   1.000  Zr
  Zr61     1.0000 0.61354  0.00163  0.62249  Biso   1.000  Zr
  Zr62     1.0000 0.64423  0.25930  0.88998  Biso   1.000  Zr
  Zr63     1.0000 0.87778  0.24924  0.63549  Biso   1.000  Zr
  Zr64     1.0000 0.86656  0.00122  0.86855  Biso   1.000  Zr
  Zr65     1.0000 0.48757  0.14850  0.49946  Biso   1.000  Zr
  Zr66     1.0000 0.48999  0.09874  0.74318  Biso   1.000  Zr
  Zr67     1.0000 0.50237  0.34999  0.76331  Biso   1.000  Zr
  Zr68     1.0000 0.49697  0.39683  0.51245  Biso   1.000  Zr
  Zr69     1.0000 0.73990  0.14866  0.75384  Biso   1.000  Zr
  Zr70     1.0000 0.73478  0.10696  0.50185  Biso   1.000  Zr
  Zr71     1.0000 0.74575  0.35312  0.51545  Biso   1.000  Zr
  Zr72     1.0000 0.75342  0.39815  0.76485  Biso   1.000  Zr
  Zr73     1.0000 0.63356  0.51673  0.12485  Biso   1.000  Zr
  Zr74     1.0000 0.61791  0.74055  0.38036  Biso   1.000  Zr
  Zr75     1.0000 0.88112  0.75317  0.12168  Biso   1.000  Zr
  Zr76     1.0000 0.86627  0.50039  0.37934  Biso   1.000  Zr
  Zr77     1.0000 0.50987  0.64983  0.99962  Biso   1.000  Zr
  Zr78     1.0000 0.49649  0.60327  0.25011  Biso   1.000  Zr
  Zr79     1.0000 0.53689  0.84759  0.23158  Biso   1.000  Zr
  Zr80     1.0000 0.49985  0.90034  0.99230  Biso   1.000  Zr
  Zr81     1.0000 0.75234  0.65740  0.25123  Biso   1.000  Zr
  Zr82     1.0000 0.76148  0.60915  0.00192  Biso   1.000  Zr
  Zr83     1.0000 0.74762  0.85831  0.99046  Biso   1.000  Zr
  Zr84     1.0000 0.79291  0.91262  0.22542  Biso   1.000  Zr
  Zr85     1.0000 0.62582  0.49477  0.63208  Biso   1.000  Zr
  Zr86     1.0000 0.62765  0.75108  0.86838  Biso   1.000  Zr
  Zr87     1.0000 0.86613  0.74829  0.61857  Biso   1.000  Zr
  Zr88     1.0000 0.88607  0.49722  0.88483  Biso   1.000  Zr
  Zr89     1.0000 0.48965  0.64408  0.49927  Biso   1.000  Zr
  Zr90     1.0000 0.50490  0.60119  0.75328  Biso   1.000  Zr
  Zr91     1.0000 0.49845  0.85062  0.74186  Biso   1.000  Zr
  Zr92     1.0000 0.49868  0.89481  0.49037  Biso   1.000  Zr
  Zr93     1.0000 0.75535  0.64630  0.75230  Biso   1.000  Zr
  Zr94     1.0000 0.73876  0.60530  0.50515  Biso   1.000  Zr
  Zr95     1.0000 0.75092  0.85833  0.48393  Biso   1.000  Zr
  Zr96     1.0000 0.74801  0.89418  0.73679  Biso   1.000  Zr
  C1       1.0000 0.11886  0.17458  0.19317  Biso   1.000  C 
