data_image0
_cell_length_a       9.99646
_cell_length_b       10.3505
_cell_length_c       10.0405
_cell_angle_alpha    90.0779
_cell_angle_beta     90.1503
_cell_angle_gamma    89.9914

_symmetry_space_group_name_H-M    "P 1"
_symmetry_int_tables_number       1

loop_
  _symmetry_equiv_pos_as_xyz
  'x, y, z'

loop_
  _atom_site_label
  _atom_site_occupancy
  _atom_site_fract_x
  _atom_site_fract_y
  _atom_site_fract_z
  _atom_site_thermal_displace_type
  _atom_site_B_iso_or_equiv
  _atom_site_type_symbol
  Ca1      1.0000 0.13227  0.01356  0.12257  Biso   1.000  Ca
  Hf1      1.0000 0.13345  0.01696  0.62678  Biso   1.000  Hf
  Hf2      1.0000 0.13504  0.51583  0.12552  Biso   1.000  Hf
  Hf3      1.0000 0.13412  0.51679  0.62599  Biso   1.000  Hf
  Hf4      1.0000 0.63361  0.01545  0.12469  Biso   1.000  Hf
  Hf5      1.0000 0.63308  0.01635  0.62456  Biso   1.000  Hf
  Hf6      1.0000 0.63342  0.51575  0.12575  Biso   1.000  Hf
  Hf7      1.0000 0.63375  0.51578  0.62606  Biso   1.000  Hf
  Hf8      1.0000 0.13463  0.23253  0.37575  Biso   1.000  Hf
  Hf9      1.0000 0.13608  0.23284  0.87458  Biso   1.000  Hf
  Hf10     1.0000 0.13523  0.73468  0.37603  Biso   1.000  Hf
  Hf11     1.0000 0.13692  0.73435  0.87694  Biso   1.000  Hf
  Hf12     1.0000 0.63308  0.23313  0.37460  Biso   1.000  Hf
  Hf13     1.0000 0.63466  0.23307  0.87524  Biso   1.000  Hf
  Hf14     1.0000 0.63252  0.73335  0.37705  Biso   1.000  Hf
  Hf15     1.0000 0.63577  0.73332  0.87535  Biso   1.000  Hf
  Hf16     1.0000 0.36317  0.26430  0.12672  Biso   1.000  Hf
  Hf17     1.0000 0.36549  0.26578  0.62534  Biso   1.000  Hf
  Hf18     1.0000 0.36524  0.76622  0.12517  Biso   1.000  Hf
  Hf19     1.0000 0.36604  0.76764  0.62573  Biso   1.000  Hf
  Hf20     1.0000 0.86412  0.26576  0.12624  Biso   1.000  Hf
  Hf21     1.0000 0.86608  0.26682  0.62447  Biso   1.000  Hf
  Hf22     1.0000 0.86348  0.76748  0.12765  Biso   1.000  Hf
  Hf23     1.0000 0.86615  0.76561  0.62567  Biso   1.000  Hf
  Hf24     1.0000 0.36477  0.48323  0.37568  Biso   1.000  Hf
  Hf25     1.0000 0.36603  0.48270  0.87594  Biso   1.000  Hf
  Hf26     1.0000 0.36267  0.98448  0.37338  Biso   1.000  Hf
  Hf27     1.0000 0.36463  0.98353  0.87717  Biso   1.000  Hf
  Hf28     1.0000 0.86543  0.48415  0.37684  Biso   1.000  Hf
  Hf29     1.0000 0.86589  0.48336  0.87643  Biso   1.000  Hf
  Hf30     1.0000 0.86521  0.98241  0.37630  Biso   1.000  Hf
  Hf31     1.0000 0.86535  0.98312  0.87365  Biso   1.000  Hf
  Hf32     1.0000 0.02812  0.19244  0.20469  Biso   1.000  Hf
  Hf33     1.0000 0.03871  0.18837  0.68809  Biso   1.000  Hf
  Hf34     1.0000 0.03495  0.68344  0.19540  Biso   1.000  Hf
  Hf35     1.0000 0.03622  0.68441  0.69498  Biso   1.000  Hf
  Hf36     1.0000 0.53821  0.18524  0.19109  Biso   1.000  Hf
  Hf37     1.0000 0.53596  0.18417  0.69413  Biso   1.000  Hf
  Hf38     1.0000 0.53444  0.68170  0.19657  Biso   1.000  Hf
  Hf39     1.0000 0.53573  0.68334  0.69512  Biso   1.000  Hf
  Hf40     1.0000 0.03411  0.06634  0.44596  Biso   1.000  Hf
  Hf41     1.0000 0.03338  0.07091  0.92346  Biso   1.000  Hf
  Hf42     1.0000 0.03535  0.56613  0.44590  Biso   1.000  Hf
  Hf43     1.0000 0.03550  0.56739  0.94488  Biso   1.000  Hf
  Hf44     1.0000 0.53477  0.06596  0.44394  Biso   1.000  Hf
  Hf45     1.0000 0.53804  0.06552  0.94239  Biso   1.000  Hf
  Hf46     1.0000 0.53440  0.56559  0.44596  Biso   1.000  Hf
  Hf47     1.0000 0.53533  0.56662  0.94539  Biso   1.000  Hf
  Hf48     1.0000 0.46464  0.43274  0.19615  Biso   1.000  Hf
  Hf49     1.0000 0.46480  0.43358  0.69494  Biso   1.000  Hf
  Hf50     1.0000 0.46376  0.93548  0.19322  Biso   1.000  Hf
  Hf51     1.0000 0.46470  0.93385  0.69549  Biso   1.000  Hf
  Hf52     1.0000 0.96290  0.43701  0.19482  Biso   1.000  Hf
  Hf53     1.0000 0.96467  0.43495  0.69618  Biso   1.000  Hf
  Hf54     1.0000 0.95293  0.92713  0.20363  Biso   1.000  Hf
  Hf55     1.0000 0.96213  0.93397  0.69178  Biso   1.000  Hf
  Hf56     1.0000 0.46399  0.31565  0.44497  Biso   1.000  Hf
  Hf57     1.0000 0.46680  0.31770  0.94423  Biso   1.000  Hf
  Hf58     1.0000 0.46549  0.81721  0.44757  Biso   1.000  Hf
  Hf59     1.0000 0.47075  0.81774  0.94655  Biso   1.000  Hf
  Hf60     1.0000 0.96452  0.31904  0.44663  Biso   1.000  Hf
  Hf61     1.0000 0.96624  0.31785  0.94710  Biso   1.000  Hf
  Hf62     1.0000 0.96450  0.81466  0.44694  Biso   1.000  Hf
  Hf63     1.0000 0.96666  0.81772  0.94697  Biso   1.000  Hf
  Hf64     1.0000 0.27994  0.12755  0.25607  Biso   1.000  Hf
  Hf65     1.0000 0.27169  0.11770  0.74791  Biso   1.000  Hf
  Hf66     1.0000 0.26949  0.61466  0.24910  Biso   1.000  Hf
  Hf67     1.0000 0.27109  0.61819  0.74964  Biso   1.000  Hf
  Hf68     1.0000 0.76797  0.11596  0.24970  Biso   1.000  Hf
  Hf69     1.0000 0.77057  0.11755  0.74788  Biso   1.000  Hf
  Hf70     1.0000 0.76957  0.61724  0.24962  Biso   1.000  Hf
  Hf71     1.0000 0.77101  0.61671  0.74905  Biso   1.000  Hf
  Hf72     1.0000 0.26927  0.13115  0.50176  Biso   1.000  Hf
  Hf73     1.0000 0.27735  0.13613  0.99319  Biso   1.000  Hf
  Hf74     1.0000 0.27043  0.63308  0.49939  Biso   1.000  Hf
  Hf75     1.0000 0.27167  0.62888  0.99991  Biso   1.000  Hf
  Hf76     1.0000 0.76846  0.13411  0.49908  Biso   1.000  Hf
  Hf77     1.0000 0.77196  0.13209  0.99875  Biso   1.000  Hf
  Hf78     1.0000 0.76956  0.63209  0.49956  Biso   1.000  Hf
  Hf79     1.0000 0.77007  0.63125  0.99900  Biso   1.000  Hf
  Hf80     1.0000 0.23033  0.38301  0.49967  Biso   1.000  Hf
  Hf81     1.0000 0.23031  0.38224  0.99959  Biso   1.000  Hf
  Hf82     1.0000 0.22855  0.88329  0.50040  Biso   1.000  Hf
  Hf83     1.0000 0.23770  0.87316  0.99358  Biso   1.000  Hf
  Hf84     1.0000 0.72878  0.38301  0.49910  Biso   1.000  Hf
  Hf85     1.0000 0.72921  0.38272  0.99886  Biso   1.000  Hf
  Hf86     1.0000 0.72959  0.88190  0.49999  Biso   1.000  Hf
  Hf87     1.0000 0.73104  0.88145  0.99985  Biso   1.000  Hf
  Hf88     1.0000 0.22698  0.36960  0.24930  Biso   1.000  Hf
  Hf89     1.0000 0.23069  0.36847  0.74885  Biso   1.000  Hf
  Hf90     1.0000 0.23915  0.85883  0.25538  Biso   1.000  Hf
  Hf91     1.0000 0.22905  0.86836  0.74778  Biso   1.000  Hf
  Hf92     1.0000 0.72975  0.36753  0.24983  Biso   1.000  Hf
  Hf93     1.0000 0.73035  0.36741  0.74931  Biso   1.000  Hf
  Hf94     1.0000 0.72103  0.86604  0.25001  Biso   1.000  Hf
  Hf95     1.0000 0.72924  0.86675  0.74885  Biso   1.000  Hf
