data_image0
_cell_length_a       10.0695
_cell_length_b       10.2087
_cell_length_c       10.0695
_cell_angle_alpha    90
_cell_angle_beta     89.9999
_cell_angle_gamma    90

_symmetry_space_group_name_H-M    "P 1"
_symmetry_int_tables_number       1

loop_
  _symmetry_equiv_pos_as_xyz
  'x, y, z'

loop_
  _atom_site_label
  _atom_site_occupancy
  _atom_site_fract_x
  _atom_site_fract_y
  _atom_site_fract_z
  _atom_site_thermal_displace_type
  _atom_site_B_iso_or_equiv
  _atom_site_type_symbol
  Ca1      1.0000 0.12533  0.00034  0.12534  Biso   1.000  Ca
  Zr1      1.0000 0.12533  0.00034  0.62534  Biso   1.000  Zr
  Zr2      1.0000 0.12534  0.50035  0.12535  Biso   1.000  Zr
  Zr3      1.0000 0.12533  0.50034  0.62534  Biso   1.000  Zr
  Zr4      1.0000 0.62533  0.00034  0.12534  Biso   1.000  Zr
  Zr5      1.0000 0.62533  0.00034  0.62534  Biso   1.000  Zr
  Zr6      1.0000 0.62533  0.50034  0.12534  Biso   1.000  Zr
  Zr7      1.0000 0.62533  0.50034  0.62534  Biso   1.000  Zr
  Zr8      1.0000 0.12486  0.24969  0.37363  Biso   1.000  Zr
  Zr9      1.0000 0.12581  0.24970  0.87706  Biso   1.000  Zr
  Zr10     1.0000 0.12581  0.75099  0.37363  Biso   1.000  Zr
  Zr11     1.0000 0.12485  0.75099  0.87706  Biso   1.000  Zr
  Zr12     1.0000 0.62516  0.24990  0.37501  Biso   1.000  Zr
  Zr13     1.0000 0.62551  0.24990  0.87568  Biso   1.000  Zr
  Zr14     1.0000 0.62551  0.75079  0.37501  Biso   1.000  Zr
  Zr15     1.0000 0.62516  0.75079  0.87567  Biso   1.000  Zr
  Zr16     1.0000 0.37362  0.24969  0.12487  Biso   1.000  Zr
  Zr17     1.0000 0.37500  0.24990  0.62517  Biso   1.000  Zr
  Zr18     1.0000 0.37362  0.75099  0.12582  Biso   1.000  Zr
  Zr19     1.0000 0.37500  0.75079  0.62552  Biso   1.000  Zr
  Zr20     1.0000 0.87705  0.24970  0.12582  Biso   1.000  Zr
  Zr21     1.0000 0.87567  0.24990  0.62552  Biso   1.000  Zr
  Zr22     1.0000 0.87705  0.75099  0.12486  Biso   1.000  Zr
  Zr23     1.0000 0.87566  0.75079  0.62517  Biso   1.000  Zr
  Zr24     1.0000 0.37351  0.99948  0.37352  Biso   1.000  Zr
  Zr25     1.0000 0.37351  0.00121  0.87717  Biso   1.000  Zr
  Zr26     1.0000 0.37504  0.49954  0.37505  Biso   1.000  Zr
  Zr27     1.0000 0.37504  0.50114  0.87563  Biso   1.000  Zr
  Zr28     1.0000 0.87716  0.00121  0.37352  Biso   1.000  Zr
  Zr29     1.0000 0.87716  0.99949  0.87717  Biso   1.000  Zr
  Zr30     1.0000 0.87562  0.50114  0.37505  Biso   1.000  Zr
  Zr31     1.0000 0.87562  0.49954  0.87564  Biso   1.000  Zr
  Zr32     1.0000 0.99593  0.14448  0.99594  Biso   1.000  Zr
  Zr33     1.0000 0.00456  0.14400  0.50572  Biso   1.000  Zr
  Zr34     1.0000 0.00365  0.63774  0.00366  Biso   1.000  Zr
  Zr35     1.0000 0.00187  0.64355  0.50302  Biso   1.000  Zr
  Zr36     1.0000 0.50571  0.14400  0.00458  Biso   1.000  Zr
  Zr37     1.0000 0.50351  0.14527  0.50352  Biso   1.000  Zr
  Zr38     1.0000 0.50301  0.64355  0.00188  Biso   1.000  Zr
  Zr39     1.0000 0.50166  0.64474  0.50167  Biso   1.000  Zr
  Zr40     1.0000 0.99179  0.12062  0.25889  Biso   1.000  Zr
  Zr41     1.0000 0.99818  0.10647  0.75107  Biso   1.000  Zr
  Zr42     1.0000 0.99865  0.60959  0.25203  Biso   1.000  Zr
  Zr43     1.0000 0.99942  0.60668  0.75241  Biso   1.000  Zr
  Zr44     1.0000 0.49960  0.10647  0.25249  Biso   1.000  Zr
  Zr45     1.0000 0.49856  0.10591  0.75211  Biso   1.000  Zr
  Zr46     1.0000 0.49827  0.60668  0.25126  Biso   1.000  Zr
  Zr47     1.0000 0.49953  0.60578  0.75115  Biso   1.000  Zr
  Zr48     1.0000 0.00365  0.36294  0.24703  Biso   1.000  Zr
  Zr49     1.0000 0.00186  0.35714  0.74767  Biso   1.000  Zr
  Zr50     1.0000 0.99593  0.85621  0.25474  Biso   1.000  Zr
  Zr51     1.0000 0.00457  0.85669  0.74496  Biso   1.000  Zr
  Zr52     1.0000 0.50301  0.35714  0.24881  Biso   1.000  Zr
  Zr53     1.0000 0.50165  0.35594  0.74902  Biso   1.000  Zr
  Zr54     1.0000 0.50571  0.85669  0.24610  Biso   1.000  Zr
  Zr55     1.0000 0.50351  0.85542  0.74716  Biso   1.000  Zr
  Zr56     1.0000 0.99865  0.39110  0.99866  Biso   1.000  Zr
  Zr57     1.0000 0.99942  0.39400  0.49828  Biso   1.000  Zr
  Zr58     1.0000 0.99178  0.88007  0.99179  Biso   1.000  Zr
  Zr59     1.0000 0.99818  0.89422  0.49961  Biso   1.000  Zr
  Zr60     1.0000 0.49828  0.39400  0.99943  Biso   1.000  Zr
  Zr61     1.0000 0.49953  0.39491  0.49954  Biso   1.000  Zr
  Zr62     1.0000 0.49960  0.89422  0.99819  Biso   1.000  Zr
  Zr63     1.0000 0.49856  0.89477  0.49857  Biso   1.000  Zr
  Zr64     1.0000 0.25474  0.14448  0.25475  Biso   1.000  Zr
  Zr65     1.0000 0.24609  0.14400  0.74496  Biso   1.000  Zr
  Zr66     1.0000 0.24702  0.63774  0.24703  Biso   1.000  Zr
  Zr67     1.0000 0.24880  0.64355  0.74767  Biso   1.000  Zr
  Zr68     1.0000 0.74495  0.14400  0.24610  Biso   1.000  Zr
  Zr69     1.0000 0.74715  0.14527  0.74716  Biso   1.000  Zr
  Zr70     1.0000 0.74766  0.64355  0.24881  Biso   1.000  Zr
  Zr71     1.0000 0.74901  0.64474  0.74902  Biso   1.000  Zr
  Zr72     1.0000 0.25888  0.12062  0.99180  Biso   1.000  Zr
  Zr73     1.0000 0.25248  0.10647  0.49961  Biso   1.000  Zr
  Zr74     1.0000 0.25202  0.60959  0.99866  Biso   1.000  Zr
  Zr75     1.0000 0.25125  0.60668  0.49828  Biso   1.000  Zr
  Zr76     1.0000 0.75106  0.10647  0.99819  Biso   1.000  Zr
  Zr77     1.0000 0.75210  0.10591  0.49856  Biso   1.000  Zr
  Zr78     1.0000 0.75240  0.60668  0.99943  Biso   1.000  Zr
  Zr79     1.0000 0.75114  0.60578  0.49954  Biso   1.000  Zr
  Zr80     1.0000 0.24702  0.36294  0.00366  Biso   1.000  Zr
  Zr81     1.0000 0.24880  0.35714  0.50302  Biso   1.000  Zr
  Zr82     1.0000 0.25473  0.85621  0.99594  Biso   1.000  Zr
  Zr83     1.0000 0.24610  0.85669  0.50572  Biso   1.000  Zr
  Zr84     1.0000 0.74766  0.35714  0.00187  Biso   1.000  Zr
  Zr85     1.0000 0.74901  0.35594  0.50166  Biso   1.000  Zr
  Zr86     1.0000 0.74495  0.85669  0.00458  Biso   1.000  Zr
  Zr87     1.0000 0.74715  0.85542  0.50352  Biso   1.000  Zr
  Zr88     1.0000 0.25202  0.39110  0.25203  Biso   1.000  Zr
  Zr89     1.0000 0.25124  0.39400  0.75241  Biso   1.000  Zr
  Zr90     1.0000 0.25888  0.88007  0.25889  Biso   1.000  Zr
  Zr91     1.0000 0.25248  0.89422  0.75108  Biso   1.000  Zr
  Zr92     1.0000 0.75240  0.39400  0.25125  Biso   1.000  Zr
  Zr93     1.0000 0.75113  0.39491  0.75115  Biso   1.000  Zr
  Zr94     1.0000 0.75106  0.89422  0.25250  Biso   1.000  Zr
  Zr95     1.0000 0.75211  0.89477  0.75212  Biso   1.000  Zr
