data_image0
_cell_length_a       10.0415
_cell_length_b       10.495
_cell_length_c       5.09775
_cell_angle_alpha    90.7423
_cell_angle_beta     87.3253
_cell_angle_gamma    90.2905

_symmetry_space_group_name_H-M    "P 1"
_symmetry_int_tables_number       1

loop_
  _symmetry_equiv_pos_as_xyz
  'x, y, z'

loop_
  _atom_site_label
  _atom_site_occupancy
  _atom_site_fract_x
  _atom_site_fract_y
  _atom_site_fract_z
  _atom_site_thermal_displace_type
  _atom_site_B_iso_or_equiv
  _atom_site_type_symbol
  Hf1      1.0000 0.13837  0.01532  0.28046  Biso   1.000  Hf
  Hf2      1.0000 0.14175  0.21632  0.83545  Biso   1.000  Hf
  Hf3      1.0000 0.37213  0.26558  0.26565  Biso   1.000  Hf
  Hf4      1.0000 0.36899  0.48668  0.75077  Biso   1.000  Hf
  Hf5      1.0000 0.03687  0.10189  0.59636  Biso   1.000  Hf
  Hf6      1.0000 0.99605  0.08533  0.04049  Biso   1.000  Hf
  Hf7      1.0000 0.47301  0.42825  0.40415  Biso   1.000  Hf
  Hf8      1.0000 0.46803  0.31718  0.89440  Biso   1.000  Hf
  Hf9      1.0000 0.28158  0.11466  0.52112  Biso   1.000  Hf
  Hf10     1.0000 0.28428  0.11897  0.02278  Biso   1.000  Hf
  Hf11     1.0000 0.24806  0.39823  0.04931  Biso   1.000  Hf
  Hf12     1.0000 0.24604  0.35016  0.57218  Biso   1.000  Hf
  Hf13     1.0000 0.12863  0.54593  0.21403  Biso   1.000  Hf
  Hf14     1.0000 0.13433  0.74191  0.73467  Biso   1.000  Hf
  Hf15     1.0000 0.37452  0.76399  0.23793  Biso   1.000  Hf
  Hf16     1.0000 0.37042  0.97922  0.74757  Biso   1.000  Hf
  Hf17     1.0000 0.03159  0.69146  0.38692  Biso   1.000  Hf
  Hf18     1.0000 0.03293  0.57636  0.87167  Biso   1.000  Hf
  Hf19     1.0000 0.46959  0.92884  0.37651  Biso   1.000  Hf
  Hf20     1.0000 0.46965  0.81646  0.88461  Biso   1.000  Hf
  Hf21     1.0000 0.26919  0.61328  0.47691  Biso   1.000  Hf
  Hf22     1.0000 0.26885  0.64476  0.97141  Biso   1.000  Hf
  Hf23     1.0000 0.22647  0.88431  0.99126  Biso   1.000  Hf
  Hf24     1.0000 0.23876  0.86364  0.48983  Biso   1.000  Hf
  Hf25     1.0000 0.63426  0.01254  0.22423  Biso   1.000  Hf
  Hf26     1.0000 0.62592  0.23414  0.71338  Biso   1.000  Hf
  Hf27     1.0000 0.84578  0.25685  0.17307  Biso   1.000  Hf
  Hf28     1.0000 0.86641  0.48684  0.72448  Biso   1.000  Hf
  Hf29     1.0000 0.53965  0.18132  0.36799  Biso   1.000  Hf
  Hf30     1.0000 0.53589  0.06408  0.86805  Biso   1.000  Hf
  Hf31     1.0000 0.96243  0.45174  0.36126  Biso   1.000  Hf
  Hf32     1.0000 0.96939  0.32654  0.84867  Biso   1.000  Hf
  Hf33     1.0000 0.77447  0.11349  0.44251  Biso   1.000  Hf
  Hf34     1.0000 0.75655  0.13473  0.93755  Biso   1.000  Hf
  Hf35     1.0000 0.72842  0.38294  0.96791  Biso   1.000  Hf
  Hf36     1.0000 0.73358  0.36552  0.46727  Biso   1.000  Hf
  Hf37     1.0000 0.63527  0.51721  0.23966  Biso   1.000  Hf
  Hf38     1.0000 0.63929  0.73396  0.74191  Biso   1.000  Hf
  Hf39     1.0000 0.86314  0.77043  0.23230  Biso   1.000  Hf
  Hf40     1.0000 0.87907  0.98931  0.72112  Biso   1.000  Hf
  Hf41     1.0000 0.53433  0.68042  0.39431  Biso   1.000  Hf
  Hf42     1.0000 0.53303  0.56932  0.90233  Biso   1.000  Hf
  Hf43     1.0000 0.96932  0.91349  0.38609  Biso   1.000  Hf
  Hf44     1.0000 0.96784  0.82697  0.87975  Biso   1.000  Hf
  Hf45     1.0000 0.76766  0.61714  0.48112  Biso   1.000  Hf
  Hf46     1.0000 0.77059  0.63202  0.97886  Biso   1.000  Hf
  Hf47     1.0000 0.73224  0.88033  0.98785  Biso   1.000  Hf
  Hf48     1.0000 0.72966  0.86852  0.49006  Biso   1.000  Hf
  Cd1      1.0000 0.08370  0.28759  0.35135  Biso   1.000  Cd
