data_image0
_cell_length_a       10.0805
_cell_length_b       10.2272
_cell_length_c       10.0805
_cell_angle_alpha    89.6164
_cell_angle_beta     90.293
_cell_angle_gamma    89.6134

_symmetry_space_group_name_H-M    "P 1"
_symmetry_int_tables_number       1

loop_
  _symmetry_equiv_pos_as_xyz
  'x, y, z'

loop_
  _atom_site_label
  _atom_site_occupancy
  _atom_site_fract_x
  _atom_site_fract_y
  _atom_site_fract_z
  _atom_site_thermal_displace_type
  _atom_site_B_iso_or_equiv
  _atom_site_type_symbol
  Cd1      1.0000 0.12093  0.01489  0.12090  Biso   1.000  Cd
  Zr1      1.0000 0.12211  0.00202  0.62413  Biso   1.000  Zr
  Zr2      1.0000 0.12348  0.49624  0.12345  Biso   1.000  Zr
  Zr3      1.0000 0.12557  0.50060  0.62483  Biso   1.000  Zr
  Zr4      1.0000 0.62416  0.00202  0.12207  Biso   1.000  Zr
  Zr5      1.0000 0.62410  0.99822  0.62407  Biso   1.000  Zr
  Zr6      1.0000 0.62487  0.50060  0.12554  Biso   1.000  Zr
  Zr7      1.0000 0.62427  0.50146  0.62424  Biso   1.000  Zr
  Zr8      1.0000 0.12594  0.25170  0.37995  Biso   1.000  Zr
  Zr9      1.0000 0.13069  0.25070  0.87346  Biso   1.000  Zr
  Zr10     1.0000 0.11971  0.75184  0.37261  Biso   1.000  Zr
  Zr11     1.0000 0.12342  0.74707  0.87660  Biso   1.000  Zr
  Zr12     1.0000 0.62527  0.24948  0.37698  Biso   1.000  Zr
  Zr13     1.0000 0.62737  0.25008  0.87354  Biso   1.000  Zr
  Zr14     1.0000 0.62224  0.75151  0.37265  Biso   1.000  Zr
  Zr15     1.0000 0.62546  0.74910  0.87492  Biso   1.000  Zr
  Zr16     1.0000 0.37997  0.25171  0.12592  Biso   1.000  Zr
  Zr17     1.0000 0.37700  0.24948  0.62525  Biso   1.000  Zr
  Zr18     1.0000 0.37262  0.75185  0.11969  Biso   1.000  Zr
  Zr19     1.0000 0.37268  0.75151  0.62222  Biso   1.000  Zr
  Zr20     1.0000 0.87349  0.25070  0.13066  Biso   1.000  Zr
  Zr21     1.0000 0.87356  0.25008  0.62734  Biso   1.000  Zr
  Zr22     1.0000 0.87662  0.74707  0.12340  Biso   1.000  Zr
  Zr23     1.0000 0.87494  0.74910  0.62544  Biso   1.000  Zr
  Zr24     1.0000 0.37178  0.00321  0.37175  Biso   1.000  Zr
  Zr25     1.0000 0.37479  0.99604  0.87011  Biso   1.000  Zr
  Zr26     1.0000 0.37620  0.50390  0.37616  Biso   1.000  Zr
  Zr27     1.0000 0.37551  0.50149  0.87468  Biso   1.000  Zr
  Zr28     1.0000 0.87014  0.99604  0.37476  Biso   1.000  Zr
  Zr29     1.0000 0.87663  0.99357  0.87660  Biso   1.000  Zr
  Zr30     1.0000 0.87472  0.50149  0.37548  Biso   1.000  Zr
  Zr31     1.0000 0.87444  0.49794  0.87441  Biso   1.000  Zr
  Zr32     1.0000 0.00550  0.14206  0.00547  Biso   1.000  Zr
  Zr33     1.0000 0.99989  0.14799  0.50544  Biso   1.000  Zr
  Zr34     1.0000 0.99891  0.63846  0.99888  Biso   1.000  Zr
  Zr35     1.0000 0.99847  0.64637  0.49933  Biso   1.000  Zr
  Zr36     1.0000 0.50548  0.14800  0.99986  Biso   1.000  Zr
  Zr37     1.0000 0.49773  0.14656  0.49770  Biso   1.000  Zr
  Zr38     1.0000 0.49936  0.64637  0.99844  Biso   1.000  Zr
  Zr39     1.0000 0.49896  0.64685  0.49893  Biso   1.000  Zr
  Zr40     1.0000 0.99774  0.10930  0.26255  Biso   1.000  Zr
  Zr41     1.0000 0.00296  0.10332  0.75661  Biso   1.000  Zr
  Zr42     1.0000 0.00136  0.60159  0.24896  Biso   1.000  Zr
  Zr43     1.0000 0.99932  0.60224  0.74950  Biso   1.000  Zr
  Zr44     1.0000 0.50308  0.10439  0.24880  Biso   1.000  Zr
  Zr45     1.0000 0.50238  0.10367  0.74855  Biso   1.000  Zr
  Zr46     1.0000 0.50077  0.60495  0.24917  Biso   1.000  Zr
  Zr47     1.0000 0.50014  0.60356  0.74924  Biso   1.000  Zr
  Zr48     1.0000 0.00269  0.35418  0.24982  Biso   1.000  Zr
  Zr49     1.0000 0.99990  0.35283  0.75018  Biso   1.000  Zr
  Zr50     1.0000 0.98038  0.84797  0.26202  Biso   1.000  Zr
  Zr51     1.0000 0.00046  0.85293  0.75000  Biso   1.000  Zr
  Zr52     1.0000 0.50332  0.35614  0.25127  Biso   1.000  Zr
  Zr53     1.0000 0.49916  0.35413  0.75120  Biso   1.000  Zr
  Zr54     1.0000 0.48829  0.85464  0.25213  Biso   1.000  Zr
  Zr55     1.0000 0.50066  0.85225  0.74847  Biso   1.000  Zr
  Zr56     1.0000 0.99947  0.38975  0.99945  Biso   1.000  Zr
  Zr57     1.0000 0.00123  0.39738  0.49992  Biso   1.000  Zr
  Zr58     1.0000 0.99874  0.88330  0.99872  Biso   1.000  Zr
  Zr59     1.0000 0.99869  0.89688  0.50388  Biso   1.000  Zr
  Zr60     1.0000 0.49995  0.39738  0.00120  Biso   1.000  Zr
  Zr61     1.0000 0.50092  0.39632  0.50089  Biso   1.000  Zr
  Zr62     1.0000 0.50391  0.89688  0.99867  Biso   1.000  Zr
  Zr63     1.0000 0.49958  0.89793  0.49956  Biso   1.000  Zr
  Zr64     1.0000 0.26097  0.15786  0.26094  Biso   1.000  Zr
  Zr65     1.0000 0.25245  0.14605  0.75009  Biso   1.000  Zr
  Zr66     1.0000 0.25115  0.65398  0.25112  Biso   1.000  Zr
  Zr67     1.0000 0.25041  0.64592  0.74922  Biso   1.000  Zr
  Zr68     1.0000 0.75012  0.14604  0.25242  Biso   1.000  Zr
  Zr69     1.0000 0.75224  0.14496  0.75221  Biso   1.000  Zr
  Zr70     1.0000 0.74925  0.64591  0.25039  Biso   1.000  Zr
  Zr71     1.0000 0.75012  0.64510  0.75009  Biso   1.000  Zr
  Zr72     1.0000 0.26258  0.10930  0.99772  Biso   1.000  Zr
  Zr73     1.0000 0.24883  0.10439  0.50305  Biso   1.000  Zr
  Zr74     1.0000 0.24898  0.60160  0.00134  Biso   1.000  Zr
  Zr75     1.0000 0.24920  0.60495  0.50075  Biso   1.000  Zr
  Zr76     1.0000 0.75664  0.10332  0.00294  Biso   1.000  Zr
  Zr77     1.0000 0.74858  0.10367  0.50235  Biso   1.000  Zr
  Zr78     1.0000 0.74953  0.60224  0.99930  Biso   1.000  Zr
  Zr79     1.0000 0.74927  0.60356  0.50012  Biso   1.000  Zr
  Zr80     1.0000 0.24985  0.35419  0.00265  Biso   1.000  Zr
  Zr81     1.0000 0.25130  0.35614  0.50328  Biso   1.000  Zr
  Zr82     1.0000 0.26205  0.84797  0.98035  Biso   1.000  Zr
  Zr83     1.0000 0.25215  0.85465  0.48826  Biso   1.000  Zr
  Zr84     1.0000 0.75020  0.35283  0.99987  Biso   1.000  Zr
  Zr85     1.0000 0.75122  0.35413  0.49913  Biso   1.000  Zr
  Zr86     1.0000 0.75002  0.85293  0.00043  Biso   1.000  Zr
  Zr87     1.0000 0.74850  0.85225  0.50063  Biso   1.000  Zr
  Zr88     1.0000 0.25177  0.40316  0.25173  Biso   1.000  Zr
  Zr89     1.0000 0.24844  0.39538  0.75368  Biso   1.000  Zr
  Zr90     1.0000 0.24066  0.90102  0.24064  Biso   1.000  Zr
  Zr91     1.0000 0.25341  0.89695  0.73795  Biso   1.000  Zr
  Zr92     1.0000 0.75372  0.39538  0.24841  Biso   1.000  Zr
  Zr93     1.0000 0.74934  0.39519  0.74932  Biso   1.000  Zr
  Zr94     1.0000 0.73798  0.89694  0.25338  Biso   1.000  Zr
  Zr95     1.0000 0.75072  0.89458  0.75069  Biso   1.000  Zr
