data_image0
_cell_length_a       10.0309
_cell_length_b       10.2176
_cell_length_c       10.0309
_cell_angle_alpha    90
_cell_angle_beta     90
_cell_angle_gamma    90

_symmetry_space_group_name_H-M    "P 1"
_symmetry_int_tables_number       1

loop_
  _symmetry_equiv_pos_as_xyz
  'x, y, z'

loop_
  _atom_site_label
  _atom_site_occupancy
  _atom_site_fract_x
  _atom_site_fract_y
  _atom_site_fract_z
  _atom_site_thermal_displace_type
  _atom_site_B_iso_or_equiv
  _atom_site_type_symbol
  Ce1      1.0000 0.12491  0.00005  0.12491  Biso   1.000  Ce
  Hf1      1.0000 0.12371  0.25189  0.37623  Biso   1.000  Hf
  Hf2      1.0000 0.37623  0.25190  0.12371  Biso   1.000  Hf
  Hf3      1.0000 0.37668  0.00116  0.37668  Biso   1.000  Hf
  Hf4      1.0000 0.99839  0.14955  0.99839  Biso   1.000  Hf
  Hf5      1.0000 0.99164  0.11197  0.25817  Biso   1.000  Hf
  Hf6      1.0000 0.00279  0.35513  0.24703  Biso   1.000  Hf
  Hf7      1.0000 0.99844  0.39708  0.99844  Biso   1.000  Hf
  Hf8      1.0000 0.25143  0.14955  0.25143  Biso   1.000  Hf
  Hf9      1.0000 0.25818  0.11197  0.99164  Biso   1.000  Hf
  Hf10     1.0000 0.24702  0.35513  0.00279  Biso   1.000  Hf
  Hf11     1.0000 0.25137  0.39708  0.25138  Biso   1.000  Hf
  Hf12     1.0000 0.12491  0.00005  0.62491  Biso   1.000  Hf
  Hf13     1.0000 0.12611  0.25189  0.87359  Biso   1.000  Hf
  Hf14     1.0000 0.37482  0.25001  0.62476  Biso   1.000  Hf
  Hf15     1.0000 0.37668  0.99895  0.87314  Biso   1.000  Hf
  Hf16     1.0000 0.00405  0.14873  0.50584  Biso   1.000  Hf
  Hf17     1.0000 0.99834  0.10174  0.75171  Biso   1.000  Hf
  Hf18     1.0000 0.00092  0.35283  0.74723  Biso   1.000  Hf
  Hf19     1.0000 0.00015  0.39805  0.49765  Biso   1.000  Hf
  Hf20     1.0000 0.24577  0.14874  0.74398  Biso   1.000  Hf
  Hf21     1.0000 0.25148  0.10174  0.49811  Biso   1.000  Hf
  Hf22     1.0000 0.24890  0.35283  0.50259  Biso   1.000  Hf
  Hf23     1.0000 0.24966  0.39805  0.75217  Biso   1.000  Hf
  Hf24     1.0000 0.12491  0.50005  0.12491  Biso   1.000  Hf
  Hf25     1.0000 0.12611  0.74822  0.37623  Biso   1.000  Hf
  Hf26     1.0000 0.37623  0.74821  0.12611  Biso   1.000  Hf
  Hf27     1.0000 0.37475  0.49939  0.37475  Biso   1.000  Hf
  Hf28     1.0000 0.00279  0.64497  0.00279  Biso   1.000  Hf
  Hf29     1.0000 0.99844  0.60303  0.25138  Biso   1.000  Hf
  Hf30     1.0000 0.99839  0.85056  0.25143  Biso   1.000  Hf
  Hf31     1.0000 0.99164  0.88814  0.99164  Biso   1.000  Hf
  Hf32     1.0000 0.24702  0.64497  0.24703  Biso   1.000  Hf
  Hf33     1.0000 0.25137  0.60303  0.99844  Biso   1.000  Hf
  Hf34     1.0000 0.25143  0.85056  0.99839  Biso   1.000  Hf
  Hf35     1.0000 0.25818  0.88814  0.25818  Biso   1.000  Hf
  Hf36     1.0000 0.12491  0.50005  0.62491  Biso   1.000  Hf
  Hf37     1.0000 0.12371  0.74822  0.87359  Biso   1.000  Hf
  Hf38     1.0000 0.37482  0.75010  0.62506  Biso   1.000  Hf
  Hf39     1.0000 0.37475  0.50071  0.87507  Biso   1.000  Hf
  Hf40     1.0000 0.00092  0.64727  0.50259  Biso   1.000  Hf
  Hf41     1.0000 0.00015  0.60206  0.75217  Biso   1.000  Hf
  Hf42     1.0000 0.00405  0.85137  0.74398  Biso   1.000  Hf
  Hf43     1.0000 0.99833  0.89837  0.49811  Biso   1.000  Hf
  Hf44     1.0000 0.24890  0.64727  0.74723  Biso   1.000  Hf
  Hf45     1.0000 0.24966  0.60206  0.49765  Biso   1.000  Hf
  Hf46     1.0000 0.24577  0.85137  0.50583  Biso   1.000  Hf
  Hf47     1.0000 0.25148  0.89837  0.75171  Biso   1.000  Hf
  Hf48     1.0000 0.62491  0.00005  0.12491  Biso   1.000  Hf
  Hf49     1.0000 0.62476  0.25000  0.37482  Biso   1.000  Hf
  Hf50     1.0000 0.87359  0.25190  0.12611  Biso   1.000  Hf
  Hf51     1.0000 0.87314  0.99895  0.37668  Biso   1.000  Hf
  Hf52     1.0000 0.50583  0.14874  0.00405  Biso   1.000  Hf
  Hf53     1.0000 0.49811  0.10174  0.25148  Biso   1.000  Hf
  Hf54     1.0000 0.50259  0.35283  0.24890  Biso   1.000  Hf
  Hf55     1.0000 0.49765  0.39805  0.00015  Biso   1.000  Hf
  Hf56     1.0000 0.74398  0.14874  0.24577  Biso   1.000  Hf
  Hf57     1.0000 0.75171  0.10174  0.99834  Biso   1.000  Hf
  Hf58     1.0000 0.74722  0.35283  0.00092  Biso   1.000  Hf
  Hf59     1.0000 0.75216  0.39805  0.24967  Biso   1.000  Hf
  Hf60     1.0000 0.62491  0.00005  0.62491  Biso   1.000  Hf
  Hf61     1.0000 0.62506  0.25000  0.87500  Biso   1.000  Hf
  Hf62     1.0000 0.87500  0.25001  0.62506  Biso   1.000  Hf
  Hf63     1.0000 0.87314  0.00116  0.87314  Biso   1.000  Hf
  Hf64     1.0000 0.50220  0.14794  0.50220  Biso   1.000  Hf
  Hf65     1.0000 0.49908  0.10242  0.75073  Biso   1.000  Hf
  Hf66     1.0000 0.50038  0.35187  0.74944  Biso   1.000  Hf
  Hf67     1.0000 0.49949  0.39807  0.49948  Biso   1.000  Hf
  Hf68     1.0000 0.74762  0.14794  0.74761  Biso   1.000  Hf
  Hf69     1.0000 0.75073  0.10242  0.49909  Biso   1.000  Hf
  Hf70     1.0000 0.74943  0.35187  0.50038  Biso   1.000  Hf
  Hf71     1.0000 0.75033  0.39807  0.75033  Biso   1.000  Hf
  Hf72     1.0000 0.62491  0.50006  0.12491  Biso   1.000  Hf
  Hf73     1.0000 0.62506  0.75010  0.37482  Biso   1.000  Hf
  Hf74     1.0000 0.87359  0.74821  0.12371  Biso   1.000  Hf
  Hf75     1.0000 0.87507  0.50071  0.37475  Biso   1.000  Hf
  Hf76     1.0000 0.50259  0.64727  0.00091  Biso   1.000  Hf
  Hf77     1.0000 0.49765  0.60206  0.24967  Biso   1.000  Hf
  Hf78     1.0000 0.50583  0.85137  0.24577  Biso   1.000  Hf
  Hf79     1.0000 0.49811  0.89837  0.99834  Biso   1.000  Hf
  Hf80     1.0000 0.74723  0.64727  0.24890  Biso   1.000  Hf
  Hf81     1.0000 0.75216  0.60206  0.00015  Biso   1.000  Hf
  Hf82     1.0000 0.74399  0.85137  0.00405  Biso   1.000  Hf
  Hf83     1.0000 0.75171  0.89837  0.25148  Biso   1.000  Hf
  Hf84     1.0000 0.62491  0.50006  0.62491  Biso   1.000  Hf
  Hf85     1.0000 0.62476  0.75010  0.87500  Biso   1.000  Hf
  Hf86     1.0000 0.87500  0.75010  0.62476  Biso   1.000  Hf
  Hf87     1.0000 0.87507  0.49939  0.87507  Biso   1.000  Hf
  Hf88     1.0000 0.50038  0.64823  0.50038  Biso   1.000  Hf
  Hf89     1.0000 0.49949  0.60203  0.75033  Biso   1.000  Hf
  Hf90     1.0000 0.50220  0.85216  0.74761  Biso   1.000  Hf
  Hf91     1.0000 0.49908  0.89769  0.49909  Biso   1.000  Hf
  Hf92     1.0000 0.74943  0.64823  0.74944  Biso   1.000  Hf
  Hf93     1.0000 0.75033  0.60203  0.49948  Biso   1.000  Hf
  Hf94     1.0000 0.74762  0.85216  0.50220  Biso   1.000  Hf
  Hf95     1.0000 0.75074  0.89769  0.75073  Biso   1.000  Hf
