data_image0
_cell_length_a       5.16779
_cell_length_b       10.4226
_cell_length_c       10.2306
_cell_angle_alpha    90.5064
_cell_angle_beta     90.3355
_cell_angle_gamma    94.1051

_symmetry_space_group_name_H-M    "P 1"
_symmetry_int_tables_number       1

loop_
  _symmetry_equiv_pos_as_xyz
  'x, y, z'

loop_
  _atom_site_label
  _atom_site_occupancy
  _atom_site_fract_x
  _atom_site_fract_y
  _atom_site_fract_z
  _atom_site_thermal_displace_type
  _atom_site_B_iso_or_equiv
  _atom_site_type_symbol
  Zr1      1.0000 0.28485  0.97282  0.08064  Biso   1.000  Zr
  Zr2      1.0000 0.24557  0.23710  0.39383  Biso   1.000  Zr
  Zr3      1.0000 0.65293  0.27231  0.12330  Biso   1.000  Zr
  Zr4      1.0000 0.74880  0.49366  0.36530  Biso   1.000  Zr
  Zr5      1.0000 0.88242  0.19694  0.28032  Biso   1.000  Zr
  Zr6      1.0000 0.03835  0.07209  0.46594  Biso   1.000  Zr
  Zr7      1.0000 0.92091  0.43344  0.19417  Biso   1.000  Zr
  Zr8      1.0000 0.98959  0.34625  0.48901  Biso   1.000  Zr
  Zr9      1.0000 0.41970  0.11522  0.23581  Biso   1.000  Zr
  Zr10     1.0000 0.52595  0.13522  0.48961  Biso   1.000  Zr
  Zr11     1.0000 0.49909  0.38836  0.49285  Biso   1.000  Zr
  Zr12     1.0000 0.41963  0.37851  0.25059  Biso   1.000  Zr
  Zr13     1.0000 0.26575  0.97990  0.59208  Biso   1.000  Zr
  Zr14     1.0000 0.22130  0.24215  0.83855  Biso   1.000  Zr
  Zr15     1.0000 0.72263  0.26584  0.61970  Biso   1.000  Zr
  Zr16     1.0000 0.73850  0.48268  0.87746  Biso   1.000  Zr
  Zr17     1.0000 0.94860  0.15184  0.71861  Biso   1.000  Zr
  Zr18     1.0000 0.02168  0.07343  0.95785  Biso   1.000  Zr
  Zr19     1.0000 0.99449  0.40445  0.73171  Biso   1.000  Zr
  Zr20     1.0000 0.88770  0.31712  0.95165  Biso   1.000  Zr
  Zr21     1.0000 0.45158  0.11046  0.73216  Biso   1.000  Zr
  Zr22     1.0000 0.48698  0.13527  0.98273  Biso   1.000  Zr
  Zr23     1.0000 0.42825  0.39077  0.99134  Biso   1.000  Zr
  Zr24     1.0000 0.48983  0.36387  0.73818  Biso   1.000  Zr
  Zr25     1.0000 0.26899  0.53157  0.12342  Biso   1.000  Zr
  Zr26     1.0000 0.31465  0.73874  0.37534  Biso   1.000  Zr
  Zr27     1.0000 0.77691  0.76953  0.12290  Biso   1.000  Zr
  Zr28     1.0000 0.71775  0.02026  0.33931  Biso   1.000  Zr
  Zr29     1.0000 0.07498  0.68289  0.21513  Biso   1.000  Zr
  Zr30     1.0000 0.07963  0.57736  0.44962  Biso   1.000  Zr
  Zr31     1.0000 0.96432  0.94038  0.20612  Biso   1.000  Zr
  Zr32     1.0000 0.05603  0.82354  0.49121  Biso   1.000  Zr
  Zr33     1.0000 0.56197  0.62463  0.24621  Biso   1.000  Zr
  Zr34     1.0000 0.56053  0.63628  0.49301  Biso   1.000  Zr
  Zr35     1.0000 0.54773  0.88886  0.48057  Biso   1.000  Zr
  Zr36     1.0000 0.49069  0.86635  0.23003  Biso   1.000  Zr
  Zr37     1.0000 0.25997  0.50447  0.61378  Biso   1.000  Zr
  Zr38     1.0000 0.30622  0.72770  0.86460  Biso   1.000  Zr
  Zr39     1.0000 0.77573  0.75803  0.62554  Biso   1.000  Zr
  Zr40     1.0000 0.72723  0.01330  0.83639  Biso   1.000  Zr
  Zr41     1.0000 0.07154  0.65857  0.70542  Biso   1.000  Zr
  Zr42     1.0000 0.06748  0.57436  0.95489  Biso   1.000  Zr
  Zr43     1.0000 0.98150  0.91007  0.72441  Biso   1.000  Zr
  Zr44     1.0000 0.07098  0.81957  0.98834  Biso   1.000  Zr
  Zr45     1.0000 0.54888  0.60606  0.74300  Biso   1.000  Zr
  Zr46     1.0000 0.55838  0.63760  0.99402  Biso   1.000  Zr
  Zr47     1.0000 0.56607  0.88153  0.97424  Biso   1.000  Zr
  Zr48     1.0000 0.49207  0.85678  0.72728  Biso   1.000  Zr
  Ce1      1.0000 0.14257  0.24095  0.10960  Biso   1.000  Ce
