data_image0
_cell_length_a       10.1909
_cell_length_b       5.18331
_cell_length_c       10.1909
_cell_angle_alpha    90
_cell_angle_beta     90.0001
_cell_angle_gamma    89.9998

_symmetry_space_group_name_H-M    "P 1"
_symmetry_int_tables_number       1

loop_
  _symmetry_equiv_pos_as_xyz
  'x, y, z'

loop_
  _atom_site_label
  _atom_site_occupancy
  _atom_site_fract_x
  _atom_site_fract_y
  _atom_site_fract_z
  _atom_site_thermal_displace_type
  _atom_site_B_iso_or_equiv
  _atom_site_type_symbol
  Zr1      1.0000 0.12540  0.00015  0.12540  Biso   1.000  Zr
  Zr2      1.0000 0.12540  0.50015  0.39877  Biso   1.000  Zr
  Zr3      1.0000 0.39877  0.50015  0.12540  Biso   1.000  Zr
  Zr4      1.0000 0.37357  0.00131  0.37357  Biso   1.000  Zr
  Zr5      1.0000 0.98646  0.28464  0.98646  Biso   1.000  Zr
  Zr6      1.0000 0.00115  0.21085  0.24965  Biso   1.000  Zr
  Zr7      1.0000 0.98646  0.71567  0.26433  Biso   1.000  Zr
  Zr8      1.0000 0.00115  0.78945  0.00115  Biso   1.000  Zr
  Zr9      1.0000 0.26433  0.28463  0.26433  Biso   1.000  Zr
  Zr10     1.0000 0.24965  0.21085  0.00115  Biso   1.000  Zr
  Zr11     1.0000 0.26433  0.71567  0.98647  Biso   1.000  Zr
  Zr12     1.0000 0.24964  0.78945  0.24965  Biso   1.000  Zr
  Zr13     1.0000 0.12540  0.00015  0.62540  Biso   1.000  Zr
  Zr14     1.0000 0.12540  0.50015  0.85202  Biso   1.000  Zr
  Zr15     1.0000 0.38016  0.50015  0.62540  Biso   1.000  Zr
  Zr16     1.0000 0.37357  0.99899  0.87722  Biso   1.000  Zr
  Zr17     1.0000 0.98872  0.28181  0.49788  Biso   1.000  Zr
  Zr18     1.0000 0.00626  0.21497  0.74379  Biso   1.000  Zr
  Zr19     1.0000 0.98872  0.71849  0.75291  Biso   1.000  Zr
  Zr20     1.0000 0.00626  0.78533  0.50700  Biso   1.000  Zr
  Zr21     1.0000 0.26207  0.28180  0.75291  Biso   1.000  Zr
  Zr22     1.0000 0.24454  0.21497  0.50700  Biso   1.000  Zr
  Zr23     1.0000 0.26208  0.71849  0.49788  Biso   1.000  Zr
  Zr24     1.0000 0.24453  0.78533  0.74379  Biso   1.000  Zr
  Zr25     1.0000 0.62540  0.00015  0.12540  Biso   1.000  Zr
  Zr26     1.0000 0.62540  0.50015  0.38016  Biso   1.000  Zr
  Zr27     1.0000 0.85202  0.50015  0.12540  Biso   1.000  Zr
  Zr28     1.0000 0.87722  0.99899  0.37357  Biso   1.000  Zr
  Zr29     1.0000 0.49788  0.28181  0.98872  Biso   1.000  Zr
  Zr30     1.0000 0.50700  0.21497  0.24453  Biso   1.000  Zr
  Zr31     1.0000 0.49788  0.71849  0.26207  Biso   1.000  Zr
  Zr32     1.0000 0.50700  0.78533  0.00626  Biso   1.000  Zr
  Zr33     1.0000 0.75291  0.28181  0.26207  Biso   1.000  Zr
  Zr34     1.0000 0.74379  0.21497  0.00626  Biso   1.000  Zr
  Zr35     1.0000 0.75291  0.71849  0.98872  Biso   1.000  Zr
  Zr36     1.0000 0.74379  0.78533  0.24453  Biso   1.000  Zr
  Zr37     1.0000 0.62540  0.00015  0.62540  Biso   1.000  Zr
  Zr38     1.0000 0.62539  0.50015  0.87063  Biso   1.000  Zr
  Zr39     1.0000 0.87063  0.50015  0.62539  Biso   1.000  Zr
  Zr40     1.0000 0.87722  0.00131  0.87722  Biso   1.000  Zr
  Zr41     1.0000 0.49189  0.29260  0.49189  Biso   1.000  Zr
  Zr42     1.0000 0.50683  0.21162  0.74397  Biso   1.000  Zr
  Zr43     1.0000 0.49189  0.70770  0.75890  Biso   1.000  Zr
  Zr44     1.0000 0.50682  0.78868  0.50682  Biso   1.000  Zr
  Zr45     1.0000 0.75890  0.29260  0.75890  Biso   1.000  Zr
  Zr46     1.0000 0.74397  0.21162  0.50683  Biso   1.000  Zr
  Zr47     1.0000 0.75890  0.70770  0.49189  Biso   1.000  Zr
  Zr48     1.0000 0.74397  0.78868  0.74397  Biso   1.000  Zr
  Ce1      1.0000 0.12539  0.50015  0.12540  Biso   1.000  Ce
