data_image0
_cell_length_a       10.0729
_cell_length_b       10.1941
_cell_length_c       10.0067
_cell_angle_alpha    89.9831
_cell_angle_beta     92.5233
_cell_angle_gamma    89.3669

_symmetry_space_group_name_H-M    "P 1"
_symmetry_int_tables_number       1

loop_
  _symmetry_equiv_pos_as_xyz
  'x, y, z'

loop_
  _atom_site_label
  _atom_site_occupancy
  _atom_site_fract_x
  _atom_site_fract_y
  _atom_site_fract_z
  _atom_site_thermal_displace_type
  _atom_site_B_iso_or_equiv
  _atom_site_type_symbol
  Co1      1.0000 0.11268  0.03765  0.11086  Biso   1.000  Co
  Hf1      1.0000 0.13315  0.99612  0.61535  Biso   1.000  Hf
  Hf2      1.0000 0.11510  0.49200  0.13010  Biso   1.000  Hf
  Hf3      1.0000 0.14408  0.51788  0.62591  Biso   1.000  Hf
  Hf4      1.0000 0.60513  0.02199  0.12503  Biso   1.000  Hf
  Hf5      1.0000 0.63334  0.99407  0.61397  Biso   1.000  Hf
  Hf6      1.0000 0.61594  0.49202  0.13459  Biso   1.000  Hf
  Hf7      1.0000 0.64332  0.51527  0.62700  Biso   1.000  Hf
  Hf8      1.0000 0.14254  0.25965  0.39480  Biso   1.000  Hf
  Hf9      1.0000 0.12848  0.24517  0.86834  Biso   1.000  Hf
  Hf10     1.0000 0.10995  0.75052  0.36375  Biso   1.000  Hf
  Hf11     1.0000 0.12421  0.74335  0.88404  Biso   1.000  Hf
  Hf12     1.0000 0.63871  0.25443  0.38974  Biso   1.000  Hf
  Hf13     1.0000 0.62909  0.24225  0.87036  Biso   1.000  Hf
  Hf14     1.0000 0.60411  0.76334  0.35499  Biso   1.000  Hf
  Hf15     1.0000 0.62625  0.74492  0.88004  Biso   1.000  Hf
  Hf16     1.0000 0.36604  0.25807  0.13362  Biso   1.000  Hf
  Hf17     1.0000 0.39600  0.23792  0.62714  Biso   1.000  Hf
  Hf18     1.0000 0.35223  0.73623  0.11956  Biso   1.000  Hf
  Hf19     1.0000 0.38613  0.75866  0.61501  Biso   1.000  Hf
  Hf20     1.0000 0.86884  0.24771  0.13204  Biso   1.000  Hf
  Hf21     1.0000 0.89365  0.23156  0.62359  Biso   1.000  Hf
  Hf22     1.0000 0.85448  0.72767  0.12930  Biso   1.000  Hf
  Hf23     1.0000 0.88418  0.75670  0.62102  Biso   1.000  Hf
  Hf24     1.0000 0.34389  0.99239  0.34459  Biso   1.000  Hf
  Hf25     1.0000 0.37679  0.00523  0.87611  Biso   1.000  Hf
  Hf26     1.0000 0.38932  0.49877  0.38814  Biso   1.000  Hf
  Hf27     1.0000 0.37805  0.51021  0.86977  Biso   1.000  Hf
  Hf28     1.0000 0.86312  0.98529  0.35685  Biso   1.000  Hf
  Hf29     1.0000 0.88179  0.00259  0.88173  Biso   1.000  Hf
  Hf30     1.0000 0.88397  0.49031  0.39047  Biso   1.000  Hf
  Hf31     1.0000 0.87674  0.50724  0.87076  Biso   1.000  Hf
  Hf32     1.0000 0.00053  0.15508  0.00130  Biso   1.000  Hf
  Hf33     1.0000 0.02121  0.14185  0.49702  Biso   1.000  Hf
  Hf34     1.0000 0.99520  0.64963  0.00459  Biso   1.000  Hf
  Hf35     1.0000 0.01879  0.64497  0.50241  Biso   1.000  Hf
  Hf36     1.0000 0.48726  0.15789  0.00061  Biso   1.000  Hf
  Hf37     1.0000 0.52967  0.15118  0.51415  Biso   1.000  Hf
  Hf38     1.0000 0.49361  0.65338  0.99827  Biso   1.000  Hf
  Hf39     1.0000 0.52105  0.64798  0.49646  Biso   1.000  Hf
  Hf40     1.0000 0.97616  0.07526  0.22171  Biso   1.000  Hf
  Hf41     1.0000 0.01535  0.09691  0.74797  Biso   1.000  Hf
  Hf42     1.0000 0.98366  0.58943  0.25268  Biso   1.000  Hf
  Hf43     1.0000 0.00674  0.60255  0.75281  Biso   1.000  Hf
  Hf44     1.0000 0.47686  0.11179  0.25188  Biso   1.000  Hf
  Hf45     1.0000 0.51510  0.09462  0.75223  Biso   1.000  Hf
  Hf46     1.0000 0.47993  0.61037  0.24879  Biso   1.000  Hf
  Hf47     1.0000 0.50475  0.60274  0.74785  Biso   1.000  Hf
  Hf48     1.0000 0.99932  0.33548  0.26921  Biso   1.000  Hf
  Hf49     1.0000 0.96986  0.34411  0.77845  Biso   1.000  Hf
  Hf50     1.0000 0.96274  0.83324  0.25870  Biso   1.000  Hf
  Hf51     1.0000 0.04246  0.84884  0.73469  Biso   1.000  Hf
  Hf52     1.0000 0.50277  0.35600  0.26881  Biso   1.000  Hf
  Hf53     1.0000 0.47179  0.34594  0.78116  Biso   1.000  Hf
  Hf54     1.0000 0.47234  0.86421  0.22607  Biso   1.000  Hf
  Hf55     1.0000 0.54741  0.83973  0.71702  Biso   1.000  Hf
  Hf56     1.0000 0.95120  0.40803  0.03242  Biso   1.000  Hf
  Hf57     1.0000 0.01353  0.39098  0.52052  Biso   1.000  Hf
  Hf58     1.0000 0.04137  0.91715  0.99572  Biso   1.000  Hf
  Hf59     1.0000 0.99603  0.89681  0.49530  Biso   1.000  Hf
  Hf60     1.0000 0.45011  0.41408  0.03412  Biso   1.000  Hf
  Hf61     1.0000 0.51074  0.39678  0.52034  Biso   1.000  Hf
  Hf62     1.0000 0.53828  0.91006  0.97013  Biso   1.000  Hf
  Hf63     1.0000 0.49358  0.90381  0.47655  Biso   1.000  Hf
  Hf64     1.0000 0.21970  0.14526  0.24205  Biso   1.000  Hf
  Hf65     1.0000 0.26140  0.15397  0.75209  Biso   1.000  Hf
  Hf66     1.0000 0.22784  0.64679  0.24344  Biso   1.000  Hf
  Hf67     1.0000 0.25891  0.65985  0.74787  Biso   1.000  Hf
  Hf68     1.0000 0.73595  0.14125  0.25369  Biso   1.000  Hf
  Hf69     1.0000 0.76282  0.15277  0.75398  Biso   1.000  Hf
  Hf70     1.0000 0.72820  0.63861  0.25427  Biso   1.000  Hf
  Hf71     1.0000 0.76074  0.65650  0.75338  Biso   1.000  Hf
  Hf72     1.0000 0.24523  0.09201  0.00156  Biso   1.000  Hf
  Hf73     1.0000 0.27116  0.11071  0.49445  Biso   1.000  Hf
  Hf74     1.0000 0.23819  0.59302  0.00046  Biso   1.000  Hf
  Hf75     1.0000 0.27118  0.61034  0.50355  Biso   1.000  Hf
  Hf76     1.0000 0.74888  0.09559  0.00091  Biso   1.000  Hf
  Hf77     1.0000 0.77129  0.10106  0.49991  Biso   1.000  Hf
  Hf78     1.0000 0.73755  0.59100  0.00355  Biso   1.000  Hf
  Hf79     1.0000 0.77896  0.60092  0.51569  Biso   1.000  Hf
  Hf80     1.0000 0.20276  0.33635  0.03256  Biso   1.000  Hf
  Hf81     1.0000 0.26309  0.36358  0.52515  Biso   1.000  Hf
  Hf82     1.0000 0.28856  0.83899  0.95640  Biso   1.000  Hf
  Hf83     1.0000 0.24689  0.85647  0.47189  Biso   1.000  Hf
  Hf84     1.0000 0.70039  0.33333  0.03624  Biso   1.000  Hf
  Hf85     1.0000 0.76008  0.35514  0.52238  Biso   1.000  Hf
  Hf86     1.0000 0.79197  0.83780  0.96833  Biso   1.000  Hf
  Hf87     1.0000 0.74562  0.84795  0.48064  Biso   1.000  Hf
  Hf88     1.0000 0.25193  0.39830  0.27064  Biso   1.000  Hf
  Hf89     1.0000 0.21993  0.41087  0.78302  Biso   1.000  Hf
  Hf90     1.0000 0.21333  0.90279  0.21066  Biso   1.000  Hf
  Hf91     1.0000 0.29947  0.91581  0.70906  Biso   1.000  Hf
  Hf92     1.0000 0.75201  0.39309  0.26939  Biso   1.000  Hf
  Hf93     1.0000 0.71902  0.40838  0.78387  Biso   1.000  Hf
  Hf94     1.0000 0.72471  0.88909  0.22693  Biso   1.000  Hf
  Hf95     1.0000 0.79623  0.91272  0.71939  Biso   1.000  Hf
