data_image0
_cell_length_a       10.0253
_cell_length_b       5.20495
_cell_length_c       10.0649
_cell_angle_alpha    90.0674
_cell_angle_beta     88.5399
_cell_angle_gamma    89.3655

_symmetry_space_group_name_H-M    "P 1"
_symmetry_int_tables_number       1

loop_
  _symmetry_equiv_pos_as_xyz
  'x, y, z'

loop_
  _atom_site_label
  _atom_site_occupancy
  _atom_site_fract_x
  _atom_site_fract_y
  _atom_site_fract_z
  _atom_site_thermal_displace_type
  _atom_site_B_iso_or_equiv
  _atom_site_type_symbol
  Hf1      1.0000 0.13387  0.04547  0.12342  Biso   1.000  Hf
  Hf2      1.0000 0.13317  0.45971  0.39192  Biso   1.000  Hf
  Hf3      1.0000 0.38837  0.54920  0.12171  Biso   1.000  Hf
  Hf4      1.0000 0.36977  0.96730  0.37992  Biso   1.000  Hf
  Hf5      1.0000 0.01100  0.30684  0.22737  Biso   1.000  Hf
  Hf6      1.0000 0.03937  0.12300  0.45595  Biso   1.000  Hf
  Hf7      1.0000 0.47482  0.87229  0.20281  Biso   1.000  Hf
  Hf8      1.0000 0.47043  0.64552  0.45016  Biso   1.000  Hf
  Hf9      1.0000 0.26185  0.27621  0.24593  Biso   1.000  Hf
  Hf10     1.0000 0.27625  0.25808  0.50432  Biso   1.000  Hf
  Hf11     1.0000 0.23258  0.76134  0.50484  Biso   1.000  Hf
  Hf12     1.0000 0.24062  0.76161  0.25271  Biso   1.000  Hf
  Hf13     1.0000 0.13355  0.03018  0.63167  Biso   1.000  Hf
  Hf14     1.0000 0.12285  0.46919  0.87454  Biso   1.000  Hf
  Hf15     1.0000 0.36544  0.53587  0.62885  Biso   1.000  Hf
  Hf16     1.0000 0.36412  0.97632  0.87484  Biso   1.000  Hf
  Hf17     1.0000 0.03194  0.36424  0.69212  Biso   1.000  Hf
  Hf18     1.0000 0.02760  0.11630  0.94484  Biso   1.000  Hf
  Hf19     1.0000 0.46089  0.87486  0.69563  Biso   1.000  Hf
  Hf20     1.0000 0.46624  0.64919  0.93918  Biso   1.000  Hf
  Hf21     1.0000 0.26572  0.23946  0.75482  Biso   1.000  Hf
  Hf22     1.0000 0.25739  0.29730  0.00765  Biso   1.000  Hf
  Hf23     1.0000 0.22871  0.76835  0.00426  Biso   1.000  Hf
  Hf24     1.0000 0.22795  0.73791  0.75468  Biso   1.000  Hf
  Hf25     1.0000 0.63998  0.02807  0.12499  Biso   1.000  Hf
  Hf26     1.0000 0.64093  0.47230  0.37176  Biso   1.000  Hf
  Hf27     1.0000 0.87239  0.50633  0.10932  Biso   1.000  Hf
  Hf28     1.0000 0.87551  0.96841  0.37030  Biso   1.000  Hf
  Hf29     1.0000 0.54330  0.36780  0.19938  Biso   1.000  Hf
  Hf30     1.0000 0.53695  0.14364  0.44396  Biso   1.000  Hf
  Hf31     1.0000 0.99169  0.79345  0.18920  Biso   1.000  Hf
  Hf32     1.0000 0.96528  0.63906  0.44871  Biso   1.000  Hf
  Hf33     1.0000 0.77026  0.21553  0.24411  Biso   1.000  Hf
  Hf34     1.0000 0.77345  0.27114  0.49329  Biso   1.000  Hf
  Hf35     1.0000 0.73354  0.77640  0.49264  Biso   1.000  Hf
  Hf36     1.0000 0.74627  0.72564  0.24352  Biso   1.000  Hf
  Hf37     1.0000 0.63133  0.03577  0.61943  Biso   1.000  Hf
  Hf38     1.0000 0.63418  0.46546  0.87142  Biso   1.000  Hf
  Hf39     1.0000 0.86473  0.53523  0.62349  Biso   1.000  Hf
  Hf40     1.0000 0.85987  0.96328  0.86777  Biso   1.000  Hf
  Hf41     1.0000 0.53186  0.36776  0.69671  Biso   1.000  Hf
  Hf42     1.0000 0.52341  0.15042  0.95292  Biso   1.000  Hf
  Hf43     1.0000 0.96175  0.86620  0.69073  Biso   1.000  Hf
  Hf44     1.0000 0.93990  0.61653  0.91710  Biso   1.000  Hf
  Hf45     1.0000 0.76504  0.23344  0.74256  Biso   1.000  Hf
  Hf46     1.0000 0.76310  0.25295  0.99214  Biso   1.000  Hf
  Hf47     1.0000 0.72198  0.75742  0.99525  Biso   1.000  Hf
  Hf48     1.0000 0.72222  0.73773  0.74232  Biso   1.000  Hf
  Cr1      1.0000 0.14186  0.52660  0.13955  Biso   1.000  Cr
