data_image0
_cell_length_a       10.1196
_cell_length_b       10.3663
_cell_length_c       5.09158
_cell_angle_alpha    91.4051
_cell_angle_beta     87.7117
_cell_angle_gamma    89.5381

_symmetry_space_group_name_H-M    "P 1"
_symmetry_int_tables_number       1

loop_
  _symmetry_equiv_pos_as_xyz
  'x, y, z'

loop_
  _atom_site_label
  _atom_site_occupancy
  _atom_site_fract_x
  _atom_site_fract_y
  _atom_site_fract_z
  _atom_site_thermal_displace_type
  _atom_site_B_iso_or_equiv
  _atom_site_type_symbol
  Zr1      1.0000 0.13246  0.96311  0.28321  Biso   1.000  Zr
  Zr2      1.0000 0.11919  0.27787  0.75036  Biso   1.000  Zr
  Zr3      1.0000 0.36630  0.24573  0.28778  Biso   1.000  Zr
  Zr4      1.0000 0.37122  0.99524  0.78933  Biso   1.000  Zr
  Zr5      1.0000 0.98979  0.15452  0.94343  Biso   1.000  Zr
  Zr6      1.0000 0.97950  0.08935  0.43190  Biso   1.000  Zr
  Zr7      1.0000 0.00670  0.33872  0.44653  Biso   1.000  Zr
  Zr8      1.0000 0.98856  0.41301  0.97955  Biso   1.000  Zr
  Zr9      1.0000 0.23047  0.13986  0.52161  Biso   1.000  Zr
  Zr10     1.0000 0.24344  0.09177  0.03897  Biso   1.000  Zr
  Zr11     1.0000 0.22462  0.33293  0.06843  Biso   1.000  Zr
  Zr12     1.0000 0.25650  0.39813  0.53501  Biso   1.000  Zr
  Zr13     1.0000 0.12535  0.50084  0.25163  Biso   1.000  Zr
  Zr14     1.0000 0.13292  0.73346  0.77011  Biso   1.000  Zr
  Zr15     1.0000 0.39349  0.75415  0.27018  Biso   1.000  Zr
  Zr16     1.0000 0.39173  0.51052  0.71887  Biso   1.000  Zr
  Zr17     1.0000 0.01842  0.65598  0.07953  Biso   1.000  Zr
  Zr18     1.0000 0.02848  0.58347  0.57804  Biso   1.000  Zr
  Zr19     1.0000 0.00364  0.83816  0.51906  Biso   1.000  Zr
  Zr20     1.0000 0.00607  0.89449  0.99858  Biso   1.000  Zr
  Zr21     1.0000 0.26577  0.64071  0.48007  Biso   1.000  Zr
  Zr22     1.0000 0.24926  0.58326  0.97071  Biso   1.000  Zr
  Zr23     1.0000 0.25938  0.83529  0.02847  Biso   1.000  Zr
  Zr24     1.0000 0.25941  0.88187  0.54405  Biso   1.000  Zr
  Zr25     1.0000 0.62890  0.01340  0.25322  Biso   1.000  Zr
  Zr26     1.0000 0.60611  0.24161  0.75441  Biso   1.000  Zr
  Zr27     1.0000 0.86169  0.26156  0.20742  Biso   1.000  Zr
  Zr28     1.0000 0.89096  0.99934  0.74807  Biso   1.000  Zr
  Zr29     1.0000 0.49488  0.14290  0.02440  Biso   1.000  Zr
  Zr30     1.0000 0.48477  0.10573  0.52569  Biso   1.000  Zr
  Zr31     1.0000 0.50832  0.36208  0.48780  Biso   1.000  Zr
  Zr32     1.0000 0.48367  0.39232  0.99077  Biso   1.000  Zr
  Zr33     1.0000 0.72270  0.17012  0.44835  Biso   1.000  Zr
  Zr34     1.0000 0.74180  0.10987  0.95897  Biso   1.000  Zr
  Zr35     1.0000 0.73739  0.36388  0.94087  Biso   1.000  Zr
  Zr36     1.0000 0.76489  0.42369  0.43159  Biso   1.000  Zr
  Zr37     1.0000 0.61823  0.49338  0.20902  Biso   1.000  Zr
  Zr38     1.0000 0.63252  0.76338  0.75440  Biso   1.000  Zr
  Zr39     1.0000 0.87056  0.76571  0.24459  Biso   1.000  Zr
  Zr40     1.0000 0.86153  0.50661  0.73435  Biso   1.000  Zr
  Zr41     1.0000 0.50496  0.64567  0.98302  Biso   1.000  Zr
  Zr42     1.0000 0.52087  0.61537  0.48414  Biso   1.000  Zr
  Zr43     1.0000 0.51047  0.86087  0.50915  Biso   1.000  Zr
  Zr44     1.0000 0.50376  0.89786  0.01347  Biso   1.000  Zr
  Zr45     1.0000 0.77817  0.66937  0.54164  Biso   1.000  Zr
  Zr46     1.0000 0.75532  0.61592  0.02252  Biso   1.000  Zr
  Zr47     1.0000 0.75349  0.86721  0.00002  Biso   1.000  Zr
  Zr48     1.0000 0.75398  0.91482  0.49658  Biso   1.000  Zr
  Cr1      1.0000 0.10971  0.19568  0.23949  Biso   1.000  Cr
