data_image0
_cell_length_a       10.0427
_cell_length_b       5.31542
_cell_length_c       10.2271
_cell_angle_alpha    86.043
_cell_angle_beta     90.2813
_cell_angle_gamma    90.5838

_symmetry_space_group_name_H-M    "P 1"
_symmetry_int_tables_number       1

loop_
  _symmetry_equiv_pos_as_xyz
  'x, y, z'

loop_
  _atom_site_label
  _atom_site_occupancy
  _atom_site_fract_x
  _atom_site_fract_y
  _atom_site_fract_z
  _atom_site_thermal_displace_type
  _atom_site_B_iso_or_equiv
  _atom_site_type_symbol
  Hf1      1.0000 0.14239  0.09875  0.14910  Biso   1.000  Hf
  Hf2      1.0000 0.13392  0.46172  0.38858  Biso   1.000  Hf
  Hf3      1.0000 0.37419  0.56660  0.13206  Biso   1.000  Hf
  Hf4      1.0000 0.36869  0.95549  0.38047  Biso   1.000  Hf
  Hf5      1.0000 0.02990  0.38463  0.21377  Biso   1.000  Hf
  Hf6      1.0000 0.05766  0.10137  0.42407  Biso   1.000  Hf
  Hf7      1.0000 0.47673  0.87527  0.21539  Biso   1.000  Hf
  Hf8      1.0000 0.46027  0.61389  0.45614  Biso   1.000  Hf
  Hf9      1.0000 0.27919  0.26182  0.26311  Biso   1.000  Hf
  Hf10     1.0000 0.27665  0.23314  0.50761  Biso   1.000  Hf
  Hf11     1.0000 0.23095  0.73424  0.50506  Biso   1.000  Hf
  Hf12     1.0000 0.23016  0.74854  0.25588  Biso   1.000  Hf
  Hf13     1.0000 0.13458  0.99065  0.61506  Biso   1.000  Hf
  Hf14     1.0000 0.11692  0.36037  0.82882  Biso   1.000  Hf
  Hf15     1.0000 0.36169  0.49813  0.63174  Biso   1.000  Hf
  Hf16     1.0000 0.40050  0.94776  0.86129  Biso   1.000  Hf
  Hf17     1.0000 0.05342  0.35043  0.63532  Biso   1.000  Hf
  Hf18     1.0000 0.01109  0.16044  0.96547  Biso   1.000  Hf
  Hf19     1.0000 0.47129  0.80296  0.69152  Biso   1.000  Hf
  Hf20     1.0000 0.48170  0.62009  0.95333  Biso   1.000  Hf
  Hf21     1.0000 0.26914  0.17627  0.75045  Biso   1.000  Hf
  Hf22     1.0000 0.24525  0.36039  0.01703  Biso   1.000  Hf
  Hf23     1.0000 0.28971  0.89092  0.02100  Biso   1.000  Hf
  Hf24     1.0000 0.23047  0.68205  0.75748  Biso   1.000  Hf
  Hf25     1.0000 0.64464  0.05507  0.13885  Biso   1.000  Hf
  Hf26     1.0000 0.62462  0.45906  0.38752  Biso   1.000  Hf
  Hf27     1.0000 0.84675  0.55451  0.16581  Biso   1.000  Hf
  Hf28     1.0000 0.87491  0.95978  0.39414  Biso   1.000  Hf
  Hf29     1.0000 0.53786  0.37566  0.20715  Biso   1.000  Hf
  Hf30     1.0000 0.53200  0.12022  0.45676  Biso   1.000  Hf
  Hf31     1.0000 0.96379  0.88616  0.21401  Biso   1.000  Hf
  Hf32     1.0000 0.95276  0.60177  0.43343  Biso   1.000  Hf
  Hf33     1.0000 0.76899  0.23903  0.27242  Biso   1.000  Hf
  Hf34     1.0000 0.76380  0.25781  0.51204  Biso   1.000  Hf
  Hf35     1.0000 0.72088  0.74131  0.50970  Biso   1.000  Hf
  Hf36     1.0000 0.72309  0.75012  0.26928  Biso   1.000  Hf
  Hf37     1.0000 0.63763  0.00934  0.62607  Biso   1.000  Hf
  Hf38     1.0000 0.63025  0.43953  0.87444  Biso   1.000  Hf
  Hf39     1.0000 0.86702  0.52415  0.62451  Biso   1.000  Hf
  Hf40     1.0000 0.87144  0.93655  0.84763  Biso   1.000  Hf
  Hf41     1.0000 0.51829  0.28840  0.71870  Biso   1.000  Hf
  Hf42     1.0000 0.54432  0.11301  0.96131  Biso   1.000  Hf
  Hf43     1.0000 0.93564  0.89788  0.62414  Biso   1.000  Hf
  Hf44     1.0000 0.94570  0.58266  0.81049  Biso   1.000  Hf
  Hf45     1.0000 0.76675  0.21765  0.75781  Biso   1.000  Hf
  Hf46     1.0000 0.75062  0.35609  0.02769  Biso   1.000  Hf
  Hf47     1.0000 0.77608  0.84017  0.01972  Biso   1.000  Hf
  Hf48     1.0000 0.71792  0.72805  0.75865  Biso   1.000  Hf
  Cs1      1.0000 0.06894  0.69169  0.01094  Biso   1.000  Cs
