data_image0
_cell_length_a       10.1236
_cell_length_b       5.34075
_cell_length_c       10.292
_cell_angle_alpha    86.1106
_cell_angle_beta     90.2673
_cell_angle_gamma    90.6296

_symmetry_space_group_name_H-M    "P 1"
_symmetry_int_tables_number       1

loop_
  _symmetry_equiv_pos_as_xyz
  'x, y, z'

loop_
  _atom_site_label
  _atom_site_occupancy
  _atom_site_fract_x
  _atom_site_fract_y
  _atom_site_fract_z
  _atom_site_thermal_displace_type
  _atom_site_B_iso_or_equiv
  _atom_site_type_symbol
  Zr1      1.0000 0.14388  0.09857  0.14940  Biso   1.000  Zr
  Zr2      1.0000 0.13435  0.46263  0.38860  Biso   1.000  Zr
  Zr3      1.0000 0.37453  0.56581  0.13159  Biso   1.000  Zr
  Zr4      1.0000 0.36916  0.95645  0.38089  Biso   1.000  Zr
  Zr5      1.0000 0.03055  0.38404  0.21277  Biso   1.000  Zr
  Zr6      1.0000 0.05904  0.10022  0.42176  Biso   1.000  Zr
  Zr7      1.0000 0.47798  0.87316  0.21740  Biso   1.000  Zr
  Zr8      1.0000 0.46191  0.61561  0.45827  Biso   1.000  Zr
  Zr9      1.0000 0.27953  0.26265  0.26289  Biso   1.000  Zr
  Zr10     1.0000 0.27637  0.23441  0.50697  Biso   1.000  Zr
  Zr11     1.0000 0.23276  0.73402  0.50441  Biso   1.000  Zr
  Zr12     1.0000 0.23092  0.74969  0.25555  Biso   1.000  Zr
  Zr13     1.0000 0.13485  0.98936  0.61334  Biso   1.000  Zr
  Zr14     1.0000 0.11697  0.36193  0.82729  Biso   1.000  Zr
  Zr15     1.0000 0.36265  0.49717  0.63290  Biso   1.000  Zr
  Zr16     1.0000 0.40163  0.95277  0.86093  Biso   1.000  Zr
  Zr17     1.0000 0.05320  0.35053  0.63417  Biso   1.000  Zr
  Zr18     1.0000 0.01184  0.15949  0.96252  Biso   1.000  Zr
  Zr19     1.0000 0.47282  0.80069  0.69381  Biso   1.000  Zr
  Zr20     1.0000 0.48378  0.62365  0.95455  Biso   1.000  Zr
  Zr21     1.0000 0.26772  0.17493  0.74919  Biso   1.000  Zr
  Zr22     1.0000 0.24571  0.36062  0.01707  Biso   1.000  Zr
  Zr23     1.0000 0.29090  0.89035  0.02043  Biso   1.000  Zr
  Zr24     1.0000 0.23140  0.68180  0.75667  Biso   1.000  Zr
  Zr25     1.0000 0.64505  0.05176  0.13897  Biso   1.000  Zr
  Zr26     1.0000 0.62433  0.46145  0.38700  Biso   1.000  Zr
  Zr27     1.0000 0.84753  0.55075  0.16494  Biso   1.000  Zr
  Zr28     1.0000 0.87574  0.96074  0.39260  Biso   1.000  Zr
  Zr29     1.0000 0.53816  0.37491  0.20733  Biso   1.000  Zr
  Zr30     1.0000 0.53094  0.12293  0.45861  Biso   1.000  Zr
  Zr31     1.0000 0.96394  0.88546  0.21210  Biso   1.000  Zr
  Zr32     1.0000 0.95338  0.60214  0.43245  Biso   1.000  Zr
  Zr33     1.0000 0.76840  0.23816  0.27205  Biso   1.000  Zr
  Zr34     1.0000 0.76263  0.26086  0.51124  Biso   1.000  Zr
  Zr35     1.0000 0.72244  0.74533  0.50773  Biso   1.000  Zr
  Zr36     1.0000 0.72523  0.74877  0.26811  Biso   1.000  Zr
  Zr37     1.0000 0.63817  0.00992  0.62592  Biso   1.000  Zr
  Zr38     1.0000 0.63168  0.44301  0.87657  Biso   1.000  Zr
  Zr39     1.0000 0.86672  0.52577  0.62377  Biso   1.000  Zr
  Zr40     1.0000 0.87035  0.93740  0.84731  Biso   1.000  Zr
  Zr41     1.0000 0.51673  0.28420  0.72334  Biso   1.000  Zr
  Zr42     1.0000 0.54420  0.11597  0.96372  Biso   1.000  Zr
  Zr43     1.0000 0.93603  0.90040  0.62332  Biso   1.000  Zr
  Zr44     1.0000 0.94595  0.58518  0.80959  Biso   1.000  Zr
  Zr45     1.0000 0.76608  0.21745  0.75697  Biso   1.000  Zr
  Zr46     1.0000 0.75329  0.34657  0.02697  Biso   1.000  Zr
  Zr47     1.0000 0.77410  0.83036  0.01763  Biso   1.000  Zr
  Zr48     1.0000 0.71859  0.72593  0.75583  Biso   1.000  Zr
  Cs1      1.0000 0.06983  0.69223  0.01035  Biso   1.000  Cs
