data_image0
_cell_length_a       10.0953
_cell_length_b       10.4858
_cell_length_c       10.1822
_cell_angle_alpha    89.553
_cell_angle_beta     91.0212
_cell_angle_gamma    90.7971

_symmetry_space_group_name_H-M    "P 1"
_symmetry_int_tables_number       1

loop_
  _symmetry_equiv_pos_as_xyz
  'x, y, z'

loop_
  _atom_site_label
  _atom_site_occupancy
  _atom_site_fract_x
  _atom_site_fract_y
  _atom_site_fract_z
  _atom_site_thermal_displace_type
  _atom_site_B_iso_or_equiv
  _atom_site_type_symbol
  Zr1      1.0000 0.14561  0.98721  0.10794  Biso   1.000  Zr
  Zr2      1.0000 0.12733  0.23365  0.39618  Biso   1.000  Zr
  Zr3      1.0000 0.36798  0.26744  0.12142  Biso   1.000  Zr
  Zr4      1.0000 0.36662  0.48586  0.37159  Biso   1.000  Zr
  Zr5      1.0000 0.95054  0.18397  0.28692  Biso   1.000  Zr
  Zr6      1.0000 0.04944  0.05418  0.45088  Biso   1.000  Zr
  Zr7      1.0000 0.45839  0.43861  0.19012  Biso   1.000  Zr
  Zr8      1.0000 0.46671  0.32190  0.44784  Biso   1.000  Zr
  Zr9      1.0000 0.24034  0.11194  0.24185  Biso   1.000  Zr
  Zr10     1.0000 0.27827  0.13436  0.49404  Biso   1.000  Zr
  Zr11     1.0000 0.23831  0.38652  0.49743  Biso   1.000  Zr
  Zr12     1.0000 0.22477  0.36378  0.25076  Biso   1.000  Zr
  Zr13     1.0000 0.14118  0.00378  0.62196  Biso   1.000  Zr
  Zr14     1.0000 0.14694  0.22438  0.83866  Biso   1.000  Zr
  Zr15     1.0000 0.37708  0.26703  0.62170  Biso   1.000  Zr
  Zr16     1.0000 0.37012  0.48495  0.87224  Biso   1.000  Zr
  Zr17     1.0000 0.05441  0.17861  0.66473  Biso   1.000  Zr
  Zr18     1.0000 0.04912  0.05308  0.92225  Biso   1.000  Zr
  Zr19     1.0000 0.46914  0.43404  0.69584  Biso   1.000  Zr
  Zr20     1.0000 0.47329  0.31622  0.94582  Biso   1.000  Zr
  Zr21     1.0000 0.28197  0.11126  0.73930  Biso   1.000  Zr
  Zr22     1.0000 0.27992  0.12342  0.99119  Biso   1.000  Zr
  Zr23     1.0000 0.23967  0.38885  0.99185  Biso   1.000  Zr
  Zr24     1.0000 0.23700  0.36637  0.73877  Biso   1.000  Zr
  Zr25     1.0000 0.13291  0.52274  0.12667  Biso   1.000  Zr
  Zr26     1.0000 0.13409  0.73759  0.37441  Biso   1.000  Zr
  Zr27     1.0000 0.37085  0.75867  0.12345  Biso   1.000  Zr
  Zr28     1.0000 0.36435  0.98916  0.36917  Biso   1.000  Zr
  Zr29     1.0000 0.03682  0.68577  0.19358  Biso   1.000  Zr
  Zr30     1.0000 0.03652  0.57509  0.43889  Biso   1.000  Zr
  Zr31     1.0000 0.46009  0.93384  0.19412  Biso   1.000  Zr
  Zr32     1.0000 0.46911  0.82016  0.44231  Biso   1.000  Zr
  Zr33     1.0000 0.27139  0.61799  0.24799  Biso   1.000  Zr
  Zr34     1.0000 0.26978  0.63518  0.49601  Biso   1.000  Zr
  Zr35     1.0000 0.23903  0.88326  0.49312  Biso   1.000  Zr
  Zr36     1.0000 0.23542  0.85941  0.24229  Biso   1.000  Zr
  Zr37     1.0000 0.13227  0.51530  0.61481  Biso   1.000  Zr
  Zr38     1.0000 0.13527  0.72906  0.86763  Biso   1.000  Zr
  Zr39     1.0000 0.37382  0.76343  0.61992  Biso   1.000  Zr
  Zr40     1.0000 0.37652  0.97955  0.87011  Biso   1.000  Zr
  Zr41     1.0000 0.04150  0.68945  0.68865  Biso   1.000  Zr
  Zr42     1.0000 0.03448  0.56006  0.94683  Biso   1.000  Zr
  Zr43     1.0000 0.47656  0.92870  0.69798  Biso   1.000  Zr
  Zr44     1.0000 0.47796  0.81939  0.95314  Biso   1.000  Zr
  Zr45     1.0000 0.26909  0.61198  0.74560  Biso   1.000  Zr
  Zr46     1.0000 0.26991  0.63232  0.99642  Biso   1.000  Zr
  Zr47     1.0000 0.24273  0.87201  0.98879  Biso   1.000  Zr
  Zr48     1.0000 0.24171  0.86013  0.74455  Biso   1.000  Zr
  Zr49     1.0000 0.62678  0.00522  0.12007  Biso   1.000  Zr
  Zr50     1.0000 0.62727  0.22868  0.39639  Biso   1.000  Zr
  Zr51     1.0000 0.80813  0.26191  0.16228  Biso   1.000  Zr
  Zr52     1.0000 0.86625  0.48553  0.38328  Biso   1.000  Zr
  Zr53     1.0000 0.52229  0.18104  0.20168  Biso   1.000  Zr
  Zr54     1.0000 0.52982  0.06649  0.45699  Biso   1.000  Zr
  Zr55     1.0000 0.94823  0.43279  0.20487  Biso   1.000  Zr
  Zr56     1.0000 0.98110  0.33730  0.47497  Biso   1.000  Zr
  Zr57     1.0000 0.73056  0.10405  0.26351  Biso   1.000  Zr
  Zr58     1.0000 0.77724  0.13812  0.50880  Biso   1.000  Zr
  Zr59     1.0000 0.73563  0.38171  0.50897  Biso   1.000  Zr
  Zr60     1.0000 0.70128  0.37786  0.27000  Biso   1.000  Zr
  Zr61     1.0000 0.64443  0.01491  0.62817  Biso   1.000  Zr
  Zr62     1.0000 0.64000  0.23475  0.87753  Biso   1.000  Zr
  Zr63     1.0000 0.87667  0.27674  0.64345  Biso   1.000  Zr
  Zr64     1.0000 0.86538  0.48547  0.86976  Biso   1.000  Zr
  Zr65     1.0000 0.54420  0.18421  0.69356  Biso   1.000  Zr
  Zr66     1.0000 0.54221  0.06658  0.94143  Biso   1.000  Zr
  Zr67     1.0000 0.95369  0.46193  0.68046  Biso   1.000  Zr
  Zr68     1.0000 0.95673  0.30452  0.85018  Biso   1.000  Zr
  Zr69     1.0000 0.77532  0.11682  0.75770  Biso   1.000  Zr
  Zr70     1.0000 0.77390  0.13299  0.01151  Biso   1.000  Zr
  Zr71     1.0000 0.73944  0.38293  0.00807  Biso   1.000  Zr
  Zr72     1.0000 0.72348  0.37386  0.75427  Biso   1.000  Zr
  Zr73     1.0000 0.63189  0.52198  0.12769  Biso   1.000  Zr
  Zr74     1.0000 0.63840  0.73955  0.37704  Biso   1.000  Zr
  Zr75     1.0000 0.86640  0.76558  0.12698  Biso   1.000  Zr
  Zr76     1.0000 0.87654  0.99976  0.36768  Biso   1.000  Zr
  Zr77     1.0000 0.53843  0.68530  0.19765  Biso   1.000  Zr
  Zr78     1.0000 0.53447  0.57067  0.44691  Biso   1.000  Zr
  Zr79     1.0000 0.96805  0.94351  0.18553  Biso   1.000  Zr
  Zr80     1.0000 0.96827  0.82140  0.44114  Biso   1.000  Zr
  Zr81     1.0000 0.77016  0.61979  0.25192  Biso   1.000  Zr
  Zr82     1.0000 0.77006  0.63624  0.50009  Biso   1.000  Zr
  Zr83     1.0000 0.73662  0.88932  0.49718  Biso   1.000  Zr
  Zr84     1.0000 0.73586  0.86570  0.24638  Biso   1.000  Zr
  Zr85     1.0000 0.63621  0.51698  0.62503  Biso   1.000  Zr
  Zr86     1.0000 0.63873  0.73502  0.87445  Biso   1.000  Zr
  Zr87     1.0000 0.87112  0.76989  0.62079  Biso   1.000  Zr
  Zr88     1.0000 0.87141  0.98100  0.87531  Biso   1.000  Zr
  Zr89     1.0000 0.53690  0.68156  0.69817  Biso   1.000  Zr
  Zr90     1.0000 0.53552  0.57047  0.94877  Biso   1.000  Zr
  Zr91     1.0000 0.97062  0.93242  0.69692  Biso   1.000  Zr
  Zr92     1.0000 0.97454  0.81292  0.94971  Biso   1.000  Zr
  Zr93     1.0000 0.77135  0.62069  0.75075  Biso   1.000  Zr
  Zr94     1.0000 0.76966  0.63473  0.00094  Biso   1.000  Zr
  Zr95     1.0000 0.73713  0.88198  0.99791  Biso   1.000  Zr
  Zr96     1.0000 0.73887  0.86597  0.74822  Biso   1.000  Zr
  Cs1      1.0000 0.05663  0.24812  0.08237  Biso   1.000  Cs
