data_image0
_cell_length_a       5.02653
_cell_length_b       10.4926
_cell_length_c       10.1638
_cell_angle_alpha    89.8124
_cell_angle_beta     89.2978
_cell_angle_gamma    90.0313

_symmetry_space_group_name_H-M    "P 1"
_symmetry_int_tables_number       1

loop_
  _symmetry_equiv_pos_as_xyz
  'x, y, z'

loop_
  _atom_site_label
  _atom_site_occupancy
  _atom_site_fract_x
  _atom_site_fract_y
  _atom_site_fract_z
  _atom_site_thermal_displace_type
  _atom_site_B_iso_or_equiv
  _atom_site_type_symbol
  Cs1      1.0000 0.22514  0.00896  0.11363  Biso   1.000  Cs
  Zr1      1.0000 0.25777  0.02104  0.63804  Biso   1.000  Zr
  Zr2      1.0000 0.26616  0.51335  0.12911  Biso   1.000  Zr
  Zr3      1.0000 0.26591  0.51746  0.62835  Biso   1.000  Zr
  Zr4      1.0000 0.26827  0.23275  0.38553  Biso   1.000  Zr
  Zr5      1.0000 0.26738  0.23710  0.86576  Biso   1.000  Zr
  Zr6      1.0000 0.26724  0.73523  0.38028  Biso   1.000  Zr
  Zr7      1.0000 0.27425  0.72927  0.87724  Biso   1.000  Zr
  Zr8      1.0000 0.71133  0.26695  0.13431  Biso   1.000  Zr
  Zr9      1.0000 0.73602  0.26976  0.62359  Biso   1.000  Zr
  Zr10     1.0000 0.73182  0.75425  0.12592  Biso   1.000  Zr
  Zr11     1.0000 0.73088  0.76231  0.62231  Biso   1.000  Zr
  Zr12     1.0000 0.72840  0.48553  0.37790  Biso   1.000  Zr
  Zr13     1.0000 0.73307  0.47956  0.87900  Biso   1.000  Zr
  Zr14     1.0000 0.71856  0.98705  0.39018  Biso   1.000  Zr
  Zr15     1.0000 0.73583  0.97985  0.86198  Biso   1.000  Zr
  Zr16     1.0000 0.06811  0.20762  0.20238  Biso   1.000  Zr
  Zr17     1.0000 0.10133  0.20345  0.66717  Biso   1.000  Zr
  Zr18     1.0000 0.08134  0.68852  0.19545  Biso   1.000  Zr
  Zr19     1.0000 0.07119  0.68562  0.69798  Biso   1.000  Zr
  Zr20     1.0000 0.07080  0.06462  0.44306  Biso   1.000  Zr
  Zr21     1.0000 0.10291  0.05882  0.85948  Biso   1.000  Zr
  Zr22     1.0000 0.06623  0.56711  0.44915  Biso   1.000  Zr
  Zr23     1.0000 0.06652  0.56497  0.94867  Biso   1.000  Zr
  Zr24     1.0000 0.91609  0.43737  0.19264  Biso   1.000  Zr
  Zr25     1.0000 0.93094  0.43574  0.70045  Biso   1.000  Zr
  Zr26     1.0000 0.88256  0.93840  0.19627  Biso   1.000  Zr
  Zr27     1.0000 0.90517  0.93319  0.67402  Biso   1.000  Zr
  Zr28     1.0000 0.92136  0.32060  0.44172  Biso   1.000  Zr
  Zr29     1.0000 0.92339  0.30613  0.94410  Biso   1.000  Zr
  Zr30     1.0000 0.92389  0.81403  0.44333  Biso   1.000  Zr
  Zr31     1.0000 0.95430  0.82345  0.95075  Biso   1.000  Zr
  Zr32     1.0000 0.56480  0.13234  0.26753  Biso   1.000  Zr
  Zr33     1.0000 0.56532  0.12559  0.75044  Biso   1.000  Zr
  Zr34     1.0000 0.53601  0.61224  0.24982  Biso   1.000  Zr
  Zr35     1.0000 0.54071  0.61496  0.75132  Biso   1.000  Zr
  Zr36     1.0000 0.53533  0.13079  0.50983  Biso   1.000  Zr
  Zr37     1.0000 0.54151  0.12546  0.99942  Biso   1.000  Zr
  Zr38     1.0000 0.53428  0.63235  0.50011  Biso   1.000  Zr
  Zr39     1.0000 0.54030  0.62508  0.00082  Biso   1.000  Zr
  Zr40     1.0000 0.46017  0.38429  0.50356  Biso   1.000  Zr
  Zr41     1.0000 0.45541  0.37899  0.00249  Biso   1.000  Zr
  Zr42     1.0000 0.44382  0.88278  0.50766  Biso   1.000  Zr
  Zr43     1.0000 0.49468  0.86630  0.99362  Biso   1.000  Zr
  Zr44     1.0000 0.44810  0.37235  0.25548  Biso   1.000  Zr
  Zr45     1.0000 0.46349  0.37113  0.75124  Biso   1.000  Zr
  Zr46     1.0000 0.50704  0.85273  0.26345  Biso   1.000  Zr
  Zr47     1.0000 0.46160  0.86619  0.75135  Biso   1.000  Zr
