data_image0
_cell_length_a       10.0986
_cell_length_b       10.2445
_cell_length_c       10.0986
_cell_angle_alpha    90.0008
_cell_angle_beta     89.9999
_cell_angle_gamma    90.0027

_symmetry_space_group_name_H-M    "P 1"
_symmetry_int_tables_number       1

loop_
  _symmetry_equiv_pos_as_xyz
  'x, y, z'

loop_
  _atom_site_label
  _atom_site_occupancy
  _atom_site_fract_x
  _atom_site_fract_y
  _atom_site_fract_z
  _atom_site_thermal_displace_type
  _atom_site_B_iso_or_equiv
  _atom_site_type_symbol
  Zr1      1.0000 0.12534  0.98975  0.12537  Biso   1.000  Zr
  Zr2      1.0000 0.12533  0.25016  0.38776  Biso   1.000  Zr
  Zr3      1.0000 0.38774  0.25016  0.12535  Biso   1.000  Zr
  Zr4      1.0000 0.37580  0.00073  0.37583  Biso   1.000  Zr
  Zr5      1.0000 0.00094  0.15275  0.00096  Biso   1.000  Zr
  Zr6      1.0000 0.99916  0.09702  0.25153  Biso   1.000  Zr
  Zr7      1.0000 0.00095  0.34757  0.24973  Biso   1.000  Zr
  Zr8      1.0000 0.99916  0.40329  0.99918  Biso   1.000  Zr
  Zr9      1.0000 0.24971  0.15274  0.24973  Biso   1.000  Zr
  Zr10     1.0000 0.25150  0.09702  0.99918  Biso   1.000  Zr
  Zr11     1.0000 0.24972  0.34756  0.00097  Biso   1.000  Zr
  Zr12     1.0000 0.25151  0.40329  0.25153  Biso   1.000  Zr
  Zr13     1.0000 0.12534  0.99773  0.62536  Biso   1.000  Zr
  Zr14     1.0000 0.12533  0.25016  0.86293  Biso   1.000  Zr
  Zr15     1.0000 0.37805  0.25016  0.62535  Biso   1.000  Zr
  Zr16     1.0000 0.37541  0.99920  0.87529  Biso   1.000  Zr
  Zr17     1.0000 0.99945  0.14479  0.50422  Biso   1.000  Zr
  Zr18     1.0000 0.00160  0.10440  0.75216  Biso   1.000  Zr
  Zr19     1.0000 0.99945  0.35553  0.74648  Biso   1.000  Zr
  Zr20     1.0000 0.00160  0.39592  0.49854  Biso   1.000  Zr
  Zr21     1.0000 0.25122  0.14479  0.74649  Biso   1.000  Zr
  Zr22     1.0000 0.24907  0.10440  0.49855  Biso   1.000  Zr
  Zr23     1.0000 0.25122  0.35553  0.50422  Biso   1.000  Zr
  Zr24     1.0000 0.24906  0.39592  0.75216  Biso   1.000  Zr
  Zr25     1.0000 0.12533  0.51056  0.12537  Biso   1.000  Zr
  Zr26     1.0000 0.12533  0.75016  0.37759  Biso   1.000  Zr
  Zr27     1.0000 0.37756  0.75015  0.12536  Biso   1.000  Zr
  Zr28     1.0000 0.37540  0.50111  0.37543  Biso   1.000  Zr
  Zr29     1.0000 0.00225  0.65051  0.00228  Biso   1.000  Zr
  Zr30     1.0000 0.99819  0.60297  0.25251  Biso   1.000  Zr
  Zr31     1.0000 0.00225  0.84980  0.24845  Biso   1.000  Zr
  Zr32     1.0000 0.99819  0.89735  0.99822  Biso   1.000  Zr
  Zr33     1.0000 0.24842  0.65051  0.24845  Biso   1.000  Zr
  Zr34     1.0000 0.25248  0.60297  0.99822  Biso   1.000  Zr
  Zr35     1.0000 0.24842  0.84980  0.00228  Biso   1.000  Zr
  Zr36     1.0000 0.25248  0.89734  0.25251  Biso   1.000  Zr
  Zr37     1.0000 0.12533  0.50259  0.62536  Biso   1.000  Zr
  Zr38     1.0000 0.12533  0.75016  0.87313  Biso   1.000  Zr
  Zr39     1.0000 0.37567  0.75016  0.62536  Biso   1.000  Zr
  Zr40     1.0000 0.37579  0.49959  0.87490  Biso   1.000  Zr
  Zr41     1.0000 0.00101  0.64560  0.50246  Biso   1.000  Zr
  Zr42     1.0000 0.00015  0.60498  0.75191  Biso   1.000  Zr
  Zr43     1.0000 0.00101  0.85472  0.74827  Biso   1.000  Zr
  Zr44     1.0000 0.00015  0.89534  0.49881  Biso   1.000  Zr
  Zr45     1.0000 0.24966  0.64559  0.74826  Biso   1.000  Zr
  Zr46     1.0000 0.25052  0.60498  0.49880  Biso   1.000  Zr
  Zr47     1.0000 0.24966  0.85472  0.50246  Biso   1.000  Zr
  Zr48     1.0000 0.25052  0.89534  0.75192  Biso   1.000  Zr
  Zr49     1.0000 0.62534  0.99773  0.12536  Biso   1.000  Zr
  Zr50     1.0000 0.62533  0.25016  0.37806  Biso   1.000  Zr
  Zr51     1.0000 0.86292  0.25016  0.12535  Biso   1.000  Zr
  Zr52     1.0000 0.87527  0.99921  0.37543  Biso   1.000  Zr
  Zr53     1.0000 0.50420  0.14479  0.99947  Biso   1.000  Zr
  Zr54     1.0000 0.49852  0.10440  0.24909  Biso   1.000  Zr
  Zr55     1.0000 0.50420  0.35553  0.25124  Biso   1.000  Zr
  Zr56     1.0000 0.49852  0.39592  0.00162  Biso   1.000  Zr
  Zr57     1.0000 0.74646  0.14479  0.25124  Biso   1.000  Zr
  Zr58     1.0000 0.75213  0.10440  0.00162  Biso   1.000  Zr
  Zr59     1.0000 0.74646  0.35553  0.99947  Biso   1.000  Zr
  Zr60     1.0000 0.75214  0.39592  0.24909  Biso   1.000  Zr
  Zr61     1.0000 0.62534  0.99866  0.62537  Biso   1.000  Zr
  Zr62     1.0000 0.62533  0.25016  0.87263  Biso   1.000  Zr
  Zr63     1.0000 0.87261  0.25016  0.62535  Biso   1.000  Zr
  Zr64     1.0000 0.87488  0.00073  0.87491  Biso   1.000  Zr
  Zr65     1.0000 0.50015  0.14612  0.50017  Biso   1.000  Zr
  Zr66     1.0000 0.50047  0.10394  0.75022  Biso   1.000  Zr
  Zr67     1.0000 0.50015  0.35419  0.75054  Biso   1.000  Zr
  Zr68     1.0000 0.50046  0.39638  0.50049  Biso   1.000  Zr
  Zr69     1.0000 0.75051  0.14613  0.75054  Biso   1.000  Zr
  Zr70     1.0000 0.75020  0.10394  0.50049  Biso   1.000  Zr
  Zr71     1.0000 0.75051  0.35419  0.50017  Biso   1.000  Zr
  Zr72     1.0000 0.75020  0.39638  0.75022  Biso   1.000  Zr
  Zr73     1.0000 0.62533  0.50259  0.12536  Biso   1.000  Zr
  Zr74     1.0000 0.62533  0.75016  0.37569  Biso   1.000  Zr
  Zr75     1.0000 0.87311  0.75016  0.12536  Biso   1.000  Zr
  Zr76     1.0000 0.87487  0.49959  0.37583  Biso   1.000  Zr
  Zr77     1.0000 0.50243  0.64559  0.00103  Biso   1.000  Zr
  Zr78     1.0000 0.49878  0.60498  0.25054  Biso   1.000  Zr
  Zr79     1.0000 0.50243  0.85472  0.24969  Biso   1.000  Zr
  Zr80     1.0000 0.49878  0.89534  0.00017  Biso   1.000  Zr
  Zr81     1.0000 0.74823  0.64560  0.24969  Biso   1.000  Zr
  Zr82     1.0000 0.75189  0.60498  0.00017  Biso   1.000  Zr
  Zr83     1.0000 0.74824  0.85472  0.00104  Biso   1.000  Zr
  Zr84     1.0000 0.75189  0.89534  0.25055  Biso   1.000  Zr
  Zr85     1.0000 0.62533  0.50166  0.62536  Biso   1.000  Zr
  Zr86     1.0000 0.62533  0.75016  0.87502  Biso   1.000  Zr
  Zr87     1.0000 0.87500  0.75016  0.62536  Biso   1.000  Zr
  Zr88     1.0000 0.87526  0.50111  0.87529  Biso   1.000  Zr
  Zr89     1.0000 0.50170  0.64706  0.50172  Biso   1.000  Zr
  Zr90     1.0000 0.49945  0.60333  0.75124  Biso   1.000  Zr
  Zr91     1.0000 0.50170  0.85326  0.74900  Biso   1.000  Zr
  Zr92     1.0000 0.49945  0.89699  0.49948  Biso   1.000  Zr
  Zr93     1.0000 0.74897  0.64706  0.74899  Biso   1.000  Zr
  Zr94     1.0000 0.75121  0.60333  0.49948  Biso   1.000  Zr
  Zr95     1.0000 0.74897  0.85326  0.50173  Biso   1.000  Zr
  Zr96     1.0000 0.75122  0.89699  0.75125  Biso   1.000  Zr
  Cu1      1.0000 0.12533  0.25015  0.12534  Biso   1.000  Cu
