data_image0
_cell_length_a       9.98059
_cell_length_b       5.20526
_cell_length_c       10.0521
_cell_angle_alpha    90.5046
_cell_angle_beta     88.6829
_cell_angle_gamma    90.2468

_symmetry_space_group_name_H-M    "P 1"
_symmetry_int_tables_number       1

loop_
  _symmetry_equiv_pos_as_xyz
  'x, y, z'

loop_
  _atom_site_label
  _atom_site_occupancy
  _atom_site_fract_x
  _atom_site_fract_y
  _atom_site_fract_z
  _atom_site_thermal_displace_type
  _atom_site_B_iso_or_equiv
  _atom_site_type_symbol
  Cu1      1.0000 0.12122  0.05946  0.10234  Biso   1.000  Cu
  Zr1      1.0000 0.13514  0.03710  0.63286  Biso   1.000  Zr
  Zr2      1.0000 0.63653  0.03354  0.12894  Biso   1.000  Zr
  Zr3      1.0000 0.62990  0.02938  0.62071  Biso   1.000  Zr
  Zr4      1.0000 0.14071  0.45640  0.37733  Biso   1.000  Zr
  Zr5      1.0000 0.13076  0.47886  0.88113  Biso   1.000  Zr
  Zr6      1.0000 0.63703  0.47215  0.37552  Biso   1.000  Zr
  Zr7      1.0000 0.62849  0.46657  0.87502  Biso   1.000  Zr
  Zr8      1.0000 0.36468  0.52424  0.13352  Biso   1.000  Zr
  Zr9      1.0000 0.36577  0.53783  0.63182  Biso   1.000  Zr
  Zr10     1.0000 0.87109  0.53181  0.11914  Biso   1.000  Zr
  Zr11     1.0000 0.86601  0.53075  0.62014  Biso   1.000  Zr
  Zr12     1.0000 0.36392  0.96283  0.37707  Biso   1.000  Zr
  Zr13     1.0000 0.35922  0.97273  0.88503  Biso   1.000  Zr
  Zr14     1.0000 0.87517  0.97330  0.37101  Biso   1.000  Zr
  Zr15     1.0000 0.85803  0.96828  0.86886  Biso   1.000  Zr
  Zr16     1.0000 0.04291  0.35350  0.18194  Biso   1.000  Zr
  Zr17     1.0000 0.03638  0.37927  0.69404  Biso   1.000  Zr
  Zr18     1.0000 0.53865  0.36986  0.19749  Biso   1.000  Zr
  Zr19     1.0000 0.53422  0.36763  0.69543  Biso   1.000  Zr
  Zr20     1.0000 0.03885  0.12633  0.44972  Biso   1.000  Zr
  Zr21     1.0000 0.03264  0.13142  0.92148  Biso   1.000  Zr
  Zr22     1.0000 0.53795  0.13439  0.44200  Biso   1.000  Zr
  Zr23     1.0000 0.52967  0.13379  0.95156  Biso   1.000  Zr
  Zr24     1.0000 0.47232  0.85750  0.19872  Biso   1.000  Zr
  Zr25     1.0000 0.46186  0.87254  0.70194  Biso   1.000  Zr
  Zr26     1.0000 0.98021  0.87132  0.18190  Biso   1.000  Zr
  Zr27     1.0000 0.95972  0.87083  0.68618  Biso   1.000  Zr
  Zr28     1.0000 0.47108  0.63882  0.45503  Biso   1.000  Zr
  Zr29     1.0000 0.44780  0.62263  0.94191  Biso   1.000  Zr
  Zr30     1.0000 0.96516  0.62476  0.43328  Biso   1.000  Zr
  Zr31     1.0000 0.95590  0.63399  0.93555  Biso   1.000  Zr
  Zr32     1.0000 0.27370  0.22208  0.25298  Biso   1.000  Zr
  Zr33     1.0000 0.27055  0.24535  0.75779  Biso   1.000  Zr
  Zr34     1.0000 0.77587  0.23558  0.24619  Biso   1.000  Zr
  Zr35     1.0000 0.76481  0.23373  0.74559  Biso   1.000  Zr
  Zr36     1.0000 0.27341  0.26202  0.50530  Biso   1.000  Zr
  Zr37     1.0000 0.25505  0.26190  0.00958  Biso   1.000  Zr
  Zr38     1.0000 0.77079  0.26728  0.49549  Biso   1.000  Zr
  Zr39     1.0000 0.76818  0.26636  0.99588  Biso   1.000  Zr
  Zr40     1.0000 0.22888  0.76064  0.50854  Biso   1.000  Zr
  Zr41     1.0000 0.21842  0.78251  0.01657  Biso   1.000  Zr
  Zr42     1.0000 0.73587  0.77031  0.49535  Biso   1.000  Zr
  Zr43     1.0000 0.72266  0.76148  0.99695  Biso   1.000  Zr
  Zr44     1.0000 0.24597  0.70706  0.26503  Biso   1.000  Zr
  Zr45     1.0000 0.22602  0.74484  0.75833  Biso   1.000  Zr
  Zr46     1.0000 0.74198  0.73668  0.24554  Biso   1.000  Zr
  Zr47     1.0000 0.72613  0.73104  0.74554  Biso   1.000  Zr
