data_image0
_cell_length_a       4.95474
_cell_length_b       10.3648
_cell_length_c       9.96396
_cell_angle_alpha    90.7229
_cell_angle_beta     89.022
_cell_angle_gamma    90.4647

_symmetry_space_group_name_H-M    "P 1"
_symmetry_int_tables_number       1

loop_
  _symmetry_equiv_pos_as_xyz
  'x, y, z'

loop_
  _atom_site_label
  _atom_site_occupancy
  _atom_site_fract_x
  _atom_site_fract_y
  _atom_site_fract_z
  _atom_site_thermal_displace_type
  _atom_site_B_iso_or_equiv
  _atom_site_type_symbol
  Fe1      1.0000 0.24313  0.03743  0.10790  Biso   1.000  Fe
  Hf1      1.0000 0.26919  0.22678  0.37244  Biso   1.000  Hf
  Hf2      1.0000 0.72776  0.26137  0.12188  Biso   1.000  Hf
  Hf3      1.0000 0.73708  0.48063  0.37598  Biso   1.000  Hf
  Hf4      1.0000 0.06705  0.17952  0.19051  Biso   1.000  Hf
  Hf5      1.0000 0.07395  0.06483  0.44792  Biso   1.000  Hf
  Hf6      1.0000 0.93173  0.42763  0.19418  Biso   1.000  Hf
  Hf7      1.0000 0.93160  0.31291  0.44217  Biso   1.000  Hf
  Hf8      1.0000 0.51825  0.10015  0.23683  Biso   1.000  Hf
  Hf9      1.0000 0.54770  0.13165  0.49338  Biso   1.000  Hf
  Hf10     1.0000 0.45980  0.38043  0.49897  Biso   1.000  Hf
  Hf11     1.0000 0.46245  0.35918  0.24799  Biso   1.000  Hf
  Hf12     1.0000 0.26321  0.01559  0.62503  Biso   1.000  Hf
  Hf13     1.0000 0.25902  0.23778  0.87316  Biso   1.000  Hf
  Hf14     1.0000 0.73049  0.26611  0.62363  Biso   1.000  Hf
  Hf15     1.0000 0.72708  0.48735  0.87441  Biso   1.000  Hf
  Hf16     1.0000 0.06798  0.18509  0.69519  Biso   1.000  Hf
  Hf17     1.0000 0.05182  0.07056  0.95462  Biso   1.000  Hf
  Hf18     1.0000 0.92566  0.43499  0.69320  Biso   1.000  Hf
  Hf19     1.0000 0.91392  0.31653  0.94050  Biso   1.000  Hf
  Hf20     1.0000 0.53577  0.11877  0.74891  Biso   1.000  Hf
  Hf21     1.0000 0.51012  0.13473  0.99915  Biso   1.000  Hf
  Hf22     1.0000 0.45256  0.38467  0.99813  Biso   1.000  Hf
  Hf23     1.0000 0.45437  0.36967  0.74847  Biso   1.000  Hf
  Hf24     1.0000 0.26873  0.51467  0.12832  Biso   1.000  Hf
  Hf25     1.0000 0.28303  0.73349  0.37769  Biso   1.000  Hf
  Hf26     1.0000 0.74876  0.76224  0.12278  Biso   1.000  Hf
  Hf27     1.0000 0.73854  0.98280  0.37111  Biso   1.000  Hf
  Hf28     1.0000 0.08026  0.68537  0.19863  Biso   1.000  Hf
  Hf29     1.0000 0.07861  0.56410  0.44430  Biso   1.000  Hf
  Hf30     1.0000 0.99116  0.94060  0.18769  Biso   1.000  Hf
  Hf31     1.0000 0.94655  0.81975  0.45029  Biso   1.000  Hf
  Hf32     1.0000 0.54603  0.60602  0.24895  Biso   1.000  Hf
  Hf33     1.0000 0.54964  0.63280  0.50098  Biso   1.000  Hf
  Hf34     1.0000 0.47002  0.88389  0.50409  Biso   1.000  Hf
  Hf35     1.0000 0.52675  0.84761  0.26217  Biso   1.000  Hf
  Hf36     1.0000 0.26996  0.51808  0.62507  Biso   1.000  Hf
  Hf37     1.0000 0.26221  0.73781  0.88092  Biso   1.000  Hf
  Hf38     1.0000 0.73783  0.76945  0.62817  Biso   1.000  Hf
  Hf39     1.0000 0.71020  0.98547  0.88149  Biso   1.000  Hf
  Hf40     1.0000 0.07180  0.68488  0.69805  Biso   1.000  Hf
  Hf41     1.0000 0.06175  0.56979  0.95050  Biso   1.000  Hf
  Hf42     1.0000 0.92537  0.93685  0.70074  Biso   1.000  Hf
  Hf43     1.0000 0.90942  0.81921  0.93916  Biso   1.000  Hf
  Hf44     1.0000 0.53756  0.62039  0.75200  Biso   1.000  Hf
  Hf45     1.0000 0.53359  0.63643  0.00104  Biso   1.000  Hf
  Hf46     1.0000 0.43664  0.89402  0.01449  Biso   1.000  Hf
  Hf47     1.0000 0.45304  0.86946  0.75530  Biso   1.000  Hf
