data_image0
_cell_length_a       10.0855
_cell_length_b       10.2684
_cell_length_c       10.0855
_cell_angle_alpha    89.998
_cell_angle_beta     89.816
_cell_angle_gamma    90.0023

_symmetry_space_group_name_H-M    "P 1"
_symmetry_int_tables_number       1

loop_
  _symmetry_equiv_pos_as_xyz
  'x, y, z'

loop_
  _atom_site_label
  _atom_site_occupancy
  _atom_site_fract_x
  _atom_site_fract_y
  _atom_site_fract_z
  _atom_site_thermal_displace_type
  _atom_site_B_iso_or_equiv
  _atom_site_type_symbol
  Zr1      1.0000 0.12538  0.96045  0.12552  Biso   1.000  Zr
  Zr2      1.0000 0.12412  0.25478  0.37863  Biso   1.000  Zr
  Zr3      1.0000 0.37852  0.25476  0.12428  Biso   1.000  Zr
  Zr4      1.0000 0.37839  0.00382  0.37855  Biso   1.000  Zr
  Zr5      1.0000 0.99357  0.15198  0.99371  Biso   1.000  Zr
  Zr6      1.0000 0.00336  0.10767  0.24762  Biso   1.000  Zr
  Zr7      1.0000 0.99334  0.35850  0.25763  Biso   1.000  Zr
  Zr8      1.0000 0.00174  0.40000  0.00192  Biso   1.000  Zr
  Zr9      1.0000 0.25729  0.15204  0.25744  Biso   1.000  Zr
  Zr10     1.0000 0.24750  0.10762  0.00349  Biso   1.000  Zr
  Zr11     1.0000 0.25741  0.35844  0.99355  Biso   1.000  Zr
  Zr12     1.0000 0.24904  0.40004  0.24922  Biso   1.000  Zr
  Zr13     1.0000 0.12540  0.00039  0.62554  Biso   1.000  Zr
  Zr14     1.0000 0.12668  0.25476  0.87246  Biso   1.000  Zr
  Zr15     1.0000 0.37484  0.25181  0.62601  Biso   1.000  Zr
  Zr16     1.0000 0.37348  0.00384  0.87746  Biso   1.000  Zr
  Zr17     1.0000 0.00021  0.14706  0.50131  Biso   1.000  Zr
  Zr18     1.0000 0.99865  0.10480  0.74845  Biso   1.000  Zr
  Zr19     1.0000 0.99772  0.35698  0.75143  Biso   1.000  Zr
  Zr20     1.0000 0.00096  0.39802  0.50314  Biso   1.000  Zr
  Zr21     1.0000 0.25060  0.14705  0.74981  Biso   1.000  Zr
  Zr22     1.0000 0.25217  0.10480  0.50266  Biso   1.000  Zr
  Zr23     1.0000 0.25306  0.35699  0.49971  Biso   1.000  Zr
  Zr24     1.0000 0.24982  0.39801  0.74800  Biso   1.000  Zr
  Zr25     1.0000 0.12540  0.50360  0.12556  Biso   1.000  Zr
  Zr26     1.0000 0.12774  0.74798  0.38070  Biso   1.000  Zr
  Zr27     1.0000 0.38056  0.74797  0.12789  Biso   1.000  Zr
  Zr28     1.0000 0.37499  0.50040  0.37515  Biso   1.000  Zr
  Zr29     1.0000 0.00106  0.64714  0.00121  Biso   1.000  Zr
  Zr30     1.0000 0.99977  0.60410  0.25115  Biso   1.000  Zr
  Zr31     1.0000 0.00054  0.84848  0.25038  Biso   1.000  Zr
  Zr32     1.0000 0.99306  0.89061  0.99321  Biso   1.000  Zr
  Zr33     1.0000 0.24971  0.64717  0.24987  Biso   1.000  Zr
  Zr34     1.0000 0.25101  0.60407  0.99993  Biso   1.000  Zr
  Zr35     1.0000 0.25023  0.84845  0.00069  Biso   1.000  Zr
  Zr36     1.0000 0.25771  0.89067  0.25785  Biso   1.000  Zr
  Zr37     1.0000 0.12540  0.50143  0.62556  Biso   1.000  Zr
  Zr38     1.0000 0.12304  0.74795  0.87037  Biso   1.000  Zr
  Zr39     1.0000 0.37697  0.75215  0.62683  Biso   1.000  Zr
  Zr40     1.0000 0.37520  0.50089  0.87576  Biso   1.000  Zr
  Zr41     1.0000 0.99851  0.64678  0.50168  Biso   1.000  Zr
  Zr42     1.0000 0.00278  0.60540  0.75207  Biso   1.000  Zr
  Zr43     1.0000 0.00073  0.85447  0.74549  Biso   1.000  Zr
  Zr44     1.0000 0.00244  0.89821  0.49652  Biso   1.000  Zr
  Zr45     1.0000 0.25226  0.64677  0.74940  Biso   1.000  Zr
  Zr46     1.0000 0.24800  0.60541  0.49901  Biso   1.000  Zr
  Zr47     1.0000 0.25009  0.85449  0.50557  Biso   1.000  Zr
  Zr48     1.0000 0.24837  0.89820  0.75455  Biso   1.000  Zr
  Zr49     1.0000 0.62540  0.00039  0.12554  Biso   1.000  Zr
  Zr50     1.0000 0.62589  0.25181  0.37497  Biso   1.000  Zr
  Zr51     1.0000 0.87235  0.25477  0.12683  Biso   1.000  Zr
  Zr52     1.0000 0.87732  0.00386  0.37362  Biso   1.000  Zr
  Zr53     1.0000 0.50117  0.14706  0.00035  Biso   1.000  Zr
  Zr54     1.0000 0.50252  0.10481  0.25230  Biso   1.000  Zr
  Zr55     1.0000 0.49954  0.35699  0.25324  Biso   1.000  Zr
  Zr56     1.0000 0.50296  0.39802  0.00113  Biso   1.000  Zr
  Zr57     1.0000 0.74967  0.14706  0.25075  Biso   1.000  Zr
  Zr58     1.0000 0.74832  0.10480  0.99879  Biso   1.000  Zr
  Zr59     1.0000 0.75126  0.35698  0.99788  Biso   1.000  Zr
  Zr60     1.0000 0.74783  0.39802  0.24998  Biso   1.000  Zr
  Zr61     1.0000 0.62540  0.00404  0.62554  Biso   1.000  Zr
  Zr62     1.0000 0.62495  0.25182  0.87611  Biso   1.000  Zr
  Zr63     1.0000 0.87597  0.25182  0.62507  Biso   1.000  Zr
  Zr64     1.0000 0.87239  0.00381  0.87255  Biso   1.000  Zr
  Zr65     1.0000 0.50152  0.14886  0.50166  Biso   1.000  Zr
  Zr66     1.0000 0.49969  0.10487  0.75125  Biso   1.000  Zr
  Zr67     1.0000 0.49908  0.35457  0.75188  Biso   1.000  Zr
  Zr68     1.0000 0.50129  0.39913  0.50147  Biso   1.000  Zr
  Zr69     1.0000 0.74929  0.14885  0.74943  Biso   1.000  Zr
  Zr70     1.0000 0.75112  0.10488  0.49983  Biso   1.000  Zr
  Zr71     1.0000 0.75171  0.35459  0.49925  Biso   1.000  Zr
  Zr72     1.0000 0.74949  0.39912  0.74965  Biso   1.000  Zr
  Zr73     1.0000 0.62540  0.50144  0.12557  Biso   1.000  Zr
  Zr74     1.0000 0.62668  0.75215  0.37713  Biso   1.000  Zr
  Zr75     1.0000 0.87023  0.74796  0.12319  Biso   1.000  Zr
  Zr76     1.0000 0.87560  0.50091  0.37536  Biso   1.000  Zr
  Zr77     1.0000 0.50153  0.64677  0.99867  Biso   1.000  Zr
  Zr78     1.0000 0.49885  0.60540  0.24816  Biso   1.000  Zr
  Zr79     1.0000 0.50543  0.85448  0.25023  Biso   1.000  Zr
  Zr80     1.0000 0.49637  0.89820  0.00259  Biso   1.000  Zr
  Zr81     1.0000 0.74924  0.64677  0.25242  Biso   1.000  Zr
  Zr82     1.0000 0.75192  0.60540  0.00294  Biso   1.000  Zr
  Zr83     1.0000 0.74535  0.85448  0.00087  Biso   1.000  Zr
  Zr84     1.0000 0.75441  0.89821  0.24851  Biso   1.000  Zr
  Zr85     1.0000 0.62540  0.50108  0.62556  Biso   1.000  Zr
  Zr86     1.0000 0.62411  0.75214  0.87396  Biso   1.000  Zr
  Zr87     1.0000 0.87382  0.75214  0.62426  Biso   1.000  Zr
  Zr88     1.0000 0.87581  0.50038  0.87597  Biso   1.000  Zr
  Zr89     1.0000 0.49798  0.64928  0.49814  Biso   1.000  Zr
  Zr90     1.0000 0.50196  0.60595  0.74897  Biso   1.000  Zr
  Zr91     1.0000 0.49886  0.85657  0.75209  Biso   1.000  Zr
  Zr92     1.0000 0.50153  0.89873  0.50167  Biso   1.000  Zr
  Zr93     1.0000 0.75280  0.64927  0.75295  Biso   1.000  Zr
  Zr94     1.0000 0.74881  0.60597  0.50212  Biso   1.000  Zr
  Zr95     1.0000 0.75195  0.85658  0.49900  Biso   1.000  Zr
  Zr96     1.0000 0.74928  0.89873  0.74942  Biso   1.000  Zr
  Fe1      1.0000 0.12544  0.17770  0.12556  Biso   1.000  Fe
