data_image0
_cell_length_a       10.0606
_cell_length_b       5.00138
_cell_length_c       10.0607
_cell_angle_alpha    90.0002
_cell_angle_beta     89.9999
_cell_angle_gamma    89.9999

_symmetry_space_group_name_H-M    "P 1"
_symmetry_int_tables_number       1

loop_
  _symmetry_equiv_pos_as_xyz
  'x, y, z'

loop_
  _atom_site_label
  _atom_site_occupancy
  _atom_site_fract_x
  _atom_site_fract_y
  _atom_site_fract_z
  _atom_site_thermal_displace_type
  _atom_site_B_iso_or_equiv
  _atom_site_type_symbol
  Ga1      1.0000 0.12491  0.00011  0.12491  Biso   1.000  Ga
  Hf1      1.0000 0.12491  0.50011  0.37395  Biso   1.000  Hf
  Hf2      1.0000 0.37394  0.50011  0.12491  Biso   1.000  Hf
  Hf3      1.0000 0.37381  0.00314  0.37381  Biso   1.000  Hf
  Hf4      1.0000 0.97681  0.29891  0.97681  Biso   1.000  Hf
  Hf5      1.0000 0.01822  0.21355  0.23159  Biso   1.000  Hf
  Hf6      1.0000 0.97681  0.70131  0.27301  Biso   1.000  Hf
  Hf7      1.0000 0.01822  0.78667  0.01823  Biso   1.000  Hf
  Hf8      1.0000 0.27301  0.29891  0.27301  Biso   1.000  Hf
  Hf9      1.0000 0.23160  0.21355  0.01823  Biso   1.000  Hf
  Hf10     1.0000 0.27300  0.70130  0.97681  Biso   1.000  Hf
  Hf11     1.0000 0.23159  0.78667  0.23159  Biso   1.000  Hf
  Hf12     1.0000 0.12491  0.00011  0.62491  Biso   1.000  Hf
  Hf13     1.0000 0.12491  0.50011  0.87587  Biso   1.000  Hf
  Hf14     1.0000 0.37534  0.50011  0.62491  Biso   1.000  Hf
  Hf15     1.0000 0.37381  0.99707  0.87601  Biso   1.000  Hf
  Hf16     1.0000 0.98635  0.26818  0.48217  Biso   1.000  Hf
  Hf17     1.0000 0.01079  0.24094  0.73446  Biso   1.000  Hf
  Hf18     1.0000 0.98635  0.73203  0.76765  Biso   1.000  Hf
  Hf19     1.0000 0.01079  0.75927  0.51536  Biso   1.000  Hf
  Hf20     1.0000 0.26347  0.26818  0.76765  Biso   1.000  Hf
  Hf21     1.0000 0.23903  0.24094  0.51536  Biso   1.000  Hf
  Hf22     1.0000 0.26347  0.73204  0.48217  Biso   1.000  Hf
  Hf23     1.0000 0.23902  0.75927  0.73445  Biso   1.000  Hf
  Hf24     1.0000 0.62491  0.00011  0.12491  Biso   1.000  Hf
  Hf25     1.0000 0.62491  0.50011  0.37534  Biso   1.000  Hf
  Hf26     1.0000 0.87587  0.50011  0.12491  Biso   1.000  Hf
  Hf27     1.0000 0.87601  0.99708  0.37381  Biso   1.000  Hf
  Hf28     1.0000 0.48217  0.26819  0.98634  Biso   1.000  Hf
  Hf29     1.0000 0.51535  0.24094  0.23901  Biso   1.000  Hf
  Hf30     1.0000 0.48217  0.73203  0.26348  Biso   1.000  Hf
  Hf31     1.0000 0.51535  0.75927  0.01081  Biso   1.000  Hf
  Hf32     1.0000 0.76764  0.26820  0.26348  Biso   1.000  Hf
  Hf33     1.0000 0.73447  0.24094  0.01081  Biso   1.000  Hf
  Hf34     1.0000 0.76764  0.73202  0.98634  Biso   1.000  Hf
  Hf35     1.0000 0.73447  0.75927  0.23901  Biso   1.000  Hf
  Hf36     1.0000 0.62491  0.00011  0.62491  Biso   1.000  Hf
  Hf37     1.0000 0.62491  0.50011  0.87448  Biso   1.000  Hf
  Hf38     1.0000 0.87447  0.50011  0.62491  Biso   1.000  Hf
  Hf39     1.0000 0.87601  0.00313  0.87601  Biso   1.000  Hf
  Hf40     1.0000 0.48692  0.26517  0.48691  Biso   1.000  Hf
  Hf41     1.0000 0.51133  0.24240  0.73847  Biso   1.000  Hf
  Hf42     1.0000 0.48693  0.73504  0.76290  Biso   1.000  Hf
  Hf43     1.0000 0.51133  0.75781  0.51134  Biso   1.000  Hf
  Hf44     1.0000 0.76289  0.26517  0.76290  Biso   1.000  Hf
  Hf45     1.0000 0.73849  0.24240  0.51134  Biso   1.000  Hf
  Hf46     1.0000 0.76289  0.73505  0.48691  Biso   1.000  Hf
  Hf47     1.0000 0.73848  0.75781  0.73847  Biso   1.000  Hf
