data_image0
_cell_length_a       10.0038
_cell_length_b       10.4328
_cell_length_c       5.08192
_cell_angle_alpha    90.0444
_cell_angle_beta     88.2691
_cell_angle_gamma    90.8519

_symmetry_space_group_name_H-M    "P 1"
_symmetry_int_tables_number       1

loop_
  _symmetry_equiv_pos_as_xyz
  'x, y, z'

loop_
  _atom_site_label
  _atom_site_occupancy
  _atom_site_fract_x
  _atom_site_fract_y
  _atom_site_fract_z
  _atom_site_thermal_displace_type
  _atom_site_B_iso_or_equiv
  _atom_site_type_symbol
  Hf1      1.0000 0.14820  0.01169  0.27551  Biso   1.000  Hf
  Hf2      1.0000 0.13805  0.22083  0.82774  Biso   1.000  Hf
  Hf3      1.0000 0.36569  0.26496  0.25324  Biso   1.000  Hf
  Hf4      1.0000 0.37062  0.48626  0.74770  Biso   1.000  Hf
  Hf5      1.0000 0.02202  0.13655  0.53439  Biso   1.000  Hf
  Hf6      1.0000 0.03062  0.06197  0.97350  Biso   1.000  Hf
  Hf7      1.0000 0.45979  0.43327  0.38754  Biso   1.000  Hf
  Hf8      1.0000 0.46200  0.31522  0.87694  Biso   1.000  Hf
  Hf9      1.0000 0.27690  0.12039  0.52768  Biso   1.000  Hf
  Hf10     1.0000 0.29230  0.11571  0.01413  Biso   1.000  Hf
  Hf11     1.0000 0.23856  0.39002  0.00690  Biso   1.000  Hf
  Hf12     1.0000 0.21284  0.36390  0.51295  Biso   1.000  Hf
  Hf13     1.0000 0.13640  0.53170  0.24408  Biso   1.000  Hf
  Hf14     1.0000 0.13448  0.73563  0.75152  Biso   1.000  Hf
  Hf15     1.0000 0.37272  0.76554  0.24531  Biso   1.000  Hf
  Hf16     1.0000 0.37181  0.97866  0.75169  Biso   1.000  Hf
  Hf17     1.0000 0.03410  0.68204  0.39425  Biso   1.000  Hf
  Hf18     1.0000 0.03423  0.57106  0.89348  Biso   1.000  Hf
  Hf19     1.0000 0.46826  0.93274  0.38010  Biso   1.000  Hf
  Hf20     1.0000 0.47281  0.81693  0.89143  Biso   1.000  Hf
  Hf21     1.0000 0.27226  0.61684  0.49501  Biso   1.000  Hf
  Hf22     1.0000 0.27079  0.63654  0.99237  Biso   1.000  Hf
  Hf23     1.0000 0.23263  0.87751  0.00394  Biso   1.000  Hf
  Hf24     1.0000 0.23883  0.86360  0.50361  Biso   1.000  Hf
  Hf25     1.0000 0.63624  0.01440  0.22714  Biso   1.000  Hf
  Hf26     1.0000 0.62684  0.23169  0.72268  Biso   1.000  Hf
  Hf27     1.0000 0.83600  0.27167  0.20560  Biso   1.000  Hf
  Hf28     1.0000 0.86880  0.48608  0.73531  Biso   1.000  Hf
  Hf29     1.0000 0.53681  0.18408  0.36701  Biso   1.000  Hf
  Hf30     1.0000 0.54106  0.06345  0.86903  Biso   1.000  Hf
  Hf31     1.0000 0.96271  0.43300  0.37277  Biso   1.000  Hf
  Hf32     1.0000 0.95840  0.32394  0.86064  Biso   1.000  Hf
  Hf33     1.0000 0.76773  0.11777  0.46074  Biso   1.000  Hf
  Hf34     1.0000 0.76658  0.13723  0.95597  Biso   1.000  Hf
  Hf35     1.0000 0.72105  0.38770  0.97531  Biso   1.000  Hf
  Hf36     1.0000 0.72220  0.37482  0.48043  Biso   1.000  Hf
  Hf37     1.0000 0.63190  0.52199  0.24521  Biso   1.000  Hf
  Hf38     1.0000 0.64255  0.73755  0.74410  Biso   1.000  Hf
  Hf39     1.0000 0.86777  0.76957  0.23809  Biso   1.000  Hf
  Hf40     1.0000 0.88369  0.99386  0.72274  Biso   1.000  Hf
  Hf41     1.0000 0.53650  0.68373  0.39469  Biso   1.000  Hf
  Hf42     1.0000 0.53254  0.57020  0.89394  Biso   1.000  Hf
  Hf43     1.0000 0.97624  0.91758  0.39446  Biso   1.000  Hf
  Hf44     1.0000 0.96803  0.82105  0.88159  Biso   1.000  Hf
  Hf45     1.0000 0.77080  0.61991  0.48690  Biso   1.000  Hf
  Hf46     1.0000 0.76929  0.63455  0.98839  Biso   1.000  Hf
  Hf47     1.0000 0.73826  0.88587  0.98608  Biso   1.000  Hf
  Hf48     1.0000 0.73358  0.87039  0.48646  Biso   1.000  Hf
  Ga1      1.0000 0.08282  0.26950  0.31320  Biso   1.000  Ga
