data_image0
_cell_length_a       9.99525
_cell_length_b       10.3911
_cell_length_c       10.0549
_cell_angle_alpha    89.865
_cell_angle_beta     89.718
_cell_angle_gamma    90.3768

_symmetry_space_group_name_H-M    "P 1"
_symmetry_int_tables_number       1

loop_
  _symmetry_equiv_pos_as_xyz
  'x, y, z'

loop_
  _atom_site_label
  _atom_site_occupancy
  _atom_site_fract_x
  _atom_site_fract_y
  _atom_site_fract_z
  _atom_site_thermal_displace_type
  _atom_site_B_iso_or_equiv
  _atom_site_type_symbol
  Hf1      1.0000 0.14102  0.01257  0.11863  Biso   1.000  Hf
  Hf2      1.0000 0.13381  0.22687  0.40021  Biso   1.000  Hf
  Hf3      1.0000 0.36973  0.26366  0.11887  Biso   1.000  Hf
  Hf4      1.0000 0.36891  0.48372  0.37558  Biso   1.000  Hf
  Hf5      1.0000 0.99630  0.17164  0.25043  Biso   1.000  Hf
  Hf6      1.0000 0.03812  0.06132  0.46386  Biso   1.000  Hf
  Hf7      1.0000 0.45852  0.43364  0.19433  Biso   1.000  Hf
  Hf8      1.0000 0.46361  0.31626  0.44484  Biso   1.000  Hf
  Hf9      1.0000 0.26169  0.11655  0.25616  Biso   1.000  Hf
  Hf10     1.0000 0.27691  0.12842  0.50705  Biso   1.000  Hf
  Hf11     1.0000 0.23363  0.38228  0.50135  Biso   1.000  Hf
  Hf12     1.0000 0.21383  0.36336  0.24886  Biso   1.000  Hf
  Hf13     1.0000 0.13879  0.01292  0.63444  Biso   1.000  Hf
  Hf14     1.0000 0.13582  0.23083  0.87522  Biso   1.000  Hf
  Hf15     1.0000 0.36954  0.26722  0.62939  Biso   1.000  Hf
  Hf16     1.0000 0.36957  0.48691  0.87159  Biso   1.000  Hf
  Hf17     1.0000 0.03957  0.18355  0.69382  Biso   1.000  Hf
  Hf18     1.0000 0.04207  0.05934  0.93918  Biso   1.000  Hf
  Hf19     1.0000 0.46591  0.43480  0.69289  Biso   1.000  Hf
  Hf20     1.0000 0.46567  0.31473  0.93889  Biso   1.000  Hf
  Hf21     1.0000 0.27325  0.11795  0.75254  Biso   1.000  Hf
  Hf22     1.0000 0.29110  0.12109  0.99428  Biso   1.000  Hf
  Hf23     1.0000 0.23815  0.39197  0.99732  Biso   1.000  Hf
  Hf24     1.0000 0.23021  0.36756  0.74966  Biso   1.000  Hf
  Hf25     1.0000 0.13337  0.52962  0.12271  Biso   1.000  Hf
  Hf26     1.0000 0.13501  0.73503  0.37773  Biso   1.000  Hf
  Hf27     1.0000 0.36759  0.76579  0.12600  Biso   1.000  Hf
  Hf28     1.0000 0.36594  0.98338  0.37653  Biso   1.000  Hf
  Hf29     1.0000 0.03532  0.68641  0.19590  Biso   1.000  Hf
  Hf30     1.0000 0.03637  0.56819  0.44325  Biso   1.000  Hf
  Hf31     1.0000 0.46225  0.93421  0.19494  Biso   1.000  Hf
  Hf32     1.0000 0.46643  0.81625  0.44368  Biso   1.000  Hf
  Hf33     1.0000 0.27144  0.61772  0.24929  Biso   1.000  Hf
  Hf34     1.0000 0.27154  0.63200  0.49843  Biso   1.000  Hf
  Hf35     1.0000 0.23126  0.88150  0.50112  Biso   1.000  Hf
  Hf36     1.0000 0.23130  0.86604  0.24950  Biso   1.000  Hf
  Hf37     1.0000 0.13378  0.51562  0.62445  Biso   1.000  Hf
  Hf38     1.0000 0.13270  0.73412  0.87218  Biso   1.000  Hf
  Hf39     1.0000 0.36953  0.76462  0.62355  Biso   1.000  Hf
  Hf40     1.0000 0.37251  0.97979  0.87346  Biso   1.000  Hf
  Hf41     1.0000 0.03814  0.68542  0.69047  Biso   1.000  Hf
  Hf42     1.0000 0.03510  0.56669  0.94410  Biso   1.000  Hf
  Hf43     1.0000 0.46829  0.93269  0.69097  Biso   1.000  Hf
  Hf44     1.0000 0.46910  0.81585  0.94750  Biso   1.000  Hf
  Hf45     1.0000 0.26957  0.61648  0.74791  Biso   1.000  Hf
  Hf46     1.0000 0.26938  0.63706  0.99737  Biso   1.000  Hf
  Hf47     1.0000 0.23203  0.87955  0.99882  Biso   1.000  Hf
  Hf48     1.0000 0.23586  0.86482  0.75013  Biso   1.000  Hf
  Hf49     1.0000 0.63099  0.01303  0.12241  Biso   1.000  Hf
  Hf50     1.0000 0.63189  0.23236  0.37731  Biso   1.000  Hf
  Hf51     1.0000 0.84374  0.26607  0.12251  Biso   1.000  Hf
  Hf52     1.0000 0.86743  0.48316  0.37587  Biso   1.000  Hf
  Hf53     1.0000 0.53190  0.18206  0.19332  Biso   1.000  Hf
  Hf54     1.0000 0.53627  0.06555  0.44447  Biso   1.000  Hf
  Hf55     1.0000 0.95751  0.43566  0.19121  Biso   1.000  Hf
  Hf56     1.0000 0.97034  0.32432  0.45796  Biso   1.000  Hf
  Hf57     1.0000 0.75647  0.11528  0.24735  Biso   1.000  Hf
  Hf58     1.0000 0.77374  0.13742  0.49655  Biso   1.000  Hf
  Hf59     1.0000 0.73029  0.38302  0.49914  Biso   1.000  Hf
  Hf60     1.0000 0.72273  0.37089  0.25132  Biso   1.000  Hf
  Hf61     1.0000 0.63845  0.01606  0.62208  Biso   1.000  Hf
  Hf62     1.0000 0.63505  0.23176  0.87174  Biso   1.000  Hf
  Hf63     1.0000 0.86828  0.26865  0.62992  Biso   1.000  Hf
  Hf64     1.0000 0.86474  0.48320  0.87445  Biso   1.000  Hf
  Hf65     1.0000 0.53956  0.18385  0.69165  Biso   1.000  Hf
  Hf66     1.0000 0.54325  0.06297  0.93898  Biso   1.000  Hf
  Hf67     1.0000 0.96266  0.43897  0.69424  Biso   1.000  Hf
  Hf68     1.0000 0.94950  0.31148  0.92242  Biso   1.000  Hf
  Hf69     1.0000 0.77297  0.11624  0.74741  Biso   1.000  Hf
  Hf70     1.0000 0.77177  0.12883  0.99692  Biso   1.000  Hf
  Hf71     1.0000 0.72254  0.38199  0.00012  Biso   1.000  Hf
  Hf72     1.0000 0.72700  0.37005  0.74815  Biso   1.000  Hf
  Hf73     1.0000 0.63153  0.51882  0.12796  Biso   1.000  Hf
  Hf74     1.0000 0.63759  0.73670  0.37526  Biso   1.000  Hf
  Hf75     1.0000 0.86508  0.76664  0.12520  Biso   1.000  Hf
  Hf76     1.0000 0.87545  0.99364  0.36688  Biso   1.000  Hf
  Hf77     1.0000 0.53628  0.68466  0.19661  Biso   1.000  Hf
  Hf78     1.0000 0.53540  0.56706  0.44432  Biso   1.000  Hf
  Hf79     1.0000 0.96690  0.93469  0.18801  Biso   1.000  Hf
  Hf80     1.0000 0.96534  0.81949  0.44000  Biso   1.000  Hf
  Hf81     1.0000 0.77019  0.61882  0.25050  Biso   1.000  Hf
  Hf82     1.0000 0.77044  0.63415  0.49855  Biso   1.000  Hf
  Hf83     1.0000 0.73565  0.88738  0.49559  Biso   1.000  Hf
  Hf84     1.0000 0.73162  0.86834  0.24721  Biso   1.000  Hf
  Hf85     1.0000 0.63682  0.51711  0.62426  Biso   1.000  Hf
  Hf86     1.0000 0.63712  0.73292  0.87496  Biso   1.000  Hf
  Hf87     1.0000 0.86868  0.76868  0.62168  Biso   1.000  Hf
  Hf88     1.0000 0.86764  0.98174  0.87441  Biso   1.000  Hf
  Hf89     1.0000 0.53608  0.68235  0.69649  Biso   1.000  Hf
  Hf90     1.0000 0.53545  0.56760  0.94767  Biso   1.000  Hf
  Hf91     1.0000 0.96835  0.92999  0.69934  Biso   1.000  Hf
  Hf92     1.0000 0.96418  0.81370  0.94426  Biso   1.000  Hf
  Hf93     1.0000 0.77142  0.61891  0.74835  Biso   1.000  Hf
  Hf94     1.0000 0.76942  0.63125  0.00060  Biso   1.000  Hf
  Hf95     1.0000 0.73152  0.88018  0.99830  Biso   1.000  Hf
  Hf96     1.0000 0.73176  0.86716  0.74700  Biso   1.000  Hf
  Ga1      1.0000 0.09809  0.26931  0.12723  Biso   1.000  Ga
