data_image0
_cell_length_a       10.1162
_cell_length_b       10.3005
_cell_length_c       10.1162
_cell_angle_alpha    90.0013
_cell_angle_beta     88.8294
_cell_angle_gamma    90.002

_symmetry_space_group_name_H-M    "P 1"
_symmetry_int_tables_number       1

loop_
  _symmetry_equiv_pos_as_xyz
  'x, y, z'

loop_
  _atom_site_label
  _atom_site_occupancy
  _atom_site_fract_x
  _atom_site_fract_y
  _atom_site_fract_z
  _atom_site_thermal_displace_type
  _atom_site_B_iso_or_equiv
  _atom_site_type_symbol
  Zr1      1.0000 0.12535  0.95069  0.12533  Biso   1.000  Zr
  Zr2      1.0000 0.13275  0.25805  0.38255  Biso   1.000  Zr
  Zr3      1.0000 0.38255  0.25806  0.13272  Biso   1.000  Zr
  Zr4      1.0000 0.38093  0.00400  0.38091  Biso   1.000  Zr
  Zr5      1.0000 0.96504  0.15540  0.96503  Biso   1.000  Zr
  Zr6      1.0000 0.02040  0.09202  0.23025  Biso   1.000  Zr
  Zr7      1.0000 0.98509  0.35064  0.26560  Biso   1.000  Zr
  Zr8      1.0000 0.99718  0.40981  0.99716  Biso   1.000  Zr
  Zr9      1.0000 0.28562  0.15535  0.28560  Biso   1.000  Zr
  Zr10     1.0000 0.23027  0.09203  0.02037  Biso   1.000  Zr
  Zr11     1.0000 0.26562  0.35065  0.98507  Biso   1.000  Zr
  Zr12     1.0000 0.25354  0.40973  0.25352  Biso   1.000  Zr
  Zr13     1.0000 0.12533  0.99514  0.62531  Biso   1.000  Zr
  Zr14     1.0000 0.11797  0.25807  0.86814  Biso   1.000  Zr
  Zr15     1.0000 0.37378  0.24889  0.63068  Biso   1.000  Zr
  Zr16     1.0000 0.37049  0.00151  0.88017  Biso   1.000  Zr
  Zr17     1.0000 0.99575  0.14706  0.48315  Biso   1.000  Zr
  Zr18     1.0000 0.99704  0.10524  0.73247  Biso   1.000  Zr
  Zr19     1.0000 0.99431  0.35762  0.74766  Biso   1.000  Zr
  Zr20     1.0000 0.00386  0.39821  0.50407  Biso   1.000  Zr
  Zr21     1.0000 0.25493  0.14707  0.76750  Biso   1.000  Zr
  Zr22     1.0000 0.25363  0.10526  0.51816  Biso   1.000  Zr
  Zr23     1.0000 0.25639  0.35765  0.50301  Biso   1.000  Zr
  Zr24     1.0000 0.24685  0.39822  0.74662  Biso   1.000  Zr
  Zr25     1.0000 0.12537  0.50435  0.12535  Biso   1.000  Zr
  Zr26     1.0000 0.12946  0.74670  0.38260  Biso   1.000  Zr
  Zr27     1.0000 0.38263  0.74670  0.12943  Biso   1.000  Zr
  Zr28     1.0000 0.38028  0.50081  0.38026  Biso   1.000  Zr
  Zr29     1.0000 0.00443  0.65139  0.00440  Biso   1.000  Zr
  Zr30     1.0000 0.99955  0.59899  0.25144  Biso   1.000  Zr
  Zr31     1.0000 0.99945  0.84168  0.25124  Biso   1.000  Zr
  Zr32     1.0000 0.99346  0.89327  0.99344  Biso   1.000  Zr
  Zr33     1.0000 0.24659  0.65129  0.24657  Biso   1.000  Zr
  Zr34     1.0000 0.25148  0.59900  0.99954  Biso   1.000  Zr
  Zr35     1.0000 0.25126  0.84168  0.99941  Biso   1.000  Zr
  Zr36     1.0000 0.25722  0.89320  0.25718  Biso   1.000  Zr
  Zr37     1.0000 0.12534  0.50166  0.62536  Biso   1.000  Zr
  Zr38     1.0000 0.12119  0.74678  0.86803  Biso   1.000  Zr
  Zr39     1.0000 0.37815  0.75241  0.62803  Biso   1.000  Zr
  Zr40     1.0000 0.37514  0.49719  0.87556  Biso   1.000  Zr
  Zr41     1.0000 0.99759  0.64581  0.50178  Biso   1.000  Zr
  Zr42     1.0000 0.00367  0.60627  0.75292  Biso   1.000  Zr
  Zr43     1.0000 0.99471  0.85395  0.74800  Biso   1.000  Zr
  Zr44     1.0000 0.00698  0.89727  0.49621  Biso   1.000  Zr
  Zr45     1.0000 0.25317  0.64582  0.74906  Biso   1.000  Zr
  Zr46     1.0000 0.24709  0.60629  0.49792  Biso   1.000  Zr
  Zr47     1.0000 0.25597  0.85396  0.50265  Biso   1.000  Zr
  Zr48     1.0000 0.24368  0.89729  0.75443  Biso   1.000  Zr
  Zr49     1.0000 0.62533  0.99514  0.12532  Biso   1.000  Zr
  Zr50     1.0000 0.63069  0.24890  0.37376  Biso   1.000  Zr
  Zr51     1.0000 0.86814  0.25807  0.11795  Biso   1.000  Zr
  Zr52     1.0000 0.88018  0.00151  0.37047  Biso   1.000  Zr
  Zr53     1.0000 0.48316  0.14707  0.99572  Biso   1.000  Zr
  Zr54     1.0000 0.51818  0.10526  0.25361  Biso   1.000  Zr
  Zr55     1.0000 0.50303  0.35764  0.25636  Biso   1.000  Zr
  Zr56     1.0000 0.50409  0.39822  0.00383  Biso   1.000  Zr
  Zr57     1.0000 0.76751  0.14707  0.25491  Biso   1.000  Zr
  Zr58     1.0000 0.73248  0.10524  0.99702  Biso   1.000  Zr
  Zr59     1.0000 0.74768  0.35763  0.99429  Biso   1.000  Zr
  Zr60     1.0000 0.74664  0.39823  0.24683  Biso   1.000  Zr
  Zr61     1.0000 0.62533  0.00565  0.62531  Biso   1.000  Zr
  Zr62     1.0000 0.61998  0.24888  0.87689  Biso   1.000  Zr
  Zr63     1.0000 0.87691  0.24888  0.61996  Biso   1.000  Zr
  Zr64     1.0000 0.86974  0.00405  0.86972  Biso   1.000  Zr
  Zr65     1.0000 0.50197  0.14878  0.50195  Biso   1.000  Zr
  Zr66     1.0000 0.49918  0.10285  0.75147  Biso   1.000  Zr
  Zr67     1.0000 0.49642  0.35318  0.75425  Biso   1.000  Zr
  Zr68     1.0000 0.50347  0.39761  0.50343  Biso   1.000  Zr
  Zr69     1.0000 0.74871  0.14879  0.74869  Biso   1.000  Zr
  Zr70     1.0000 0.75149  0.10285  0.49916  Biso   1.000  Zr
  Zr71     1.0000 0.75428  0.35317  0.49640  Biso   1.000  Zr
  Zr72     1.0000 0.74723  0.39759  0.74720  Biso   1.000  Zr
  Zr73     1.0000 0.62539  0.50166  0.12531  Biso   1.000  Zr
  Zr74     1.0000 0.62806  0.75240  0.37813  Biso   1.000  Zr
  Zr75     1.0000 0.86806  0.74678  0.12116  Biso   1.000  Zr
  Zr76     1.0000 0.87558  0.49718  0.37512  Biso   1.000  Zr
  Zr77     1.0000 0.50181  0.64582  0.99757  Biso   1.000  Zr
  Zr78     1.0000 0.49794  0.60629  0.24706  Biso   1.000  Zr
  Zr79     1.0000 0.50268  0.85395  0.25594  Biso   1.000  Zr
  Zr80     1.0000 0.49624  0.89728  0.00696  Biso   1.000  Zr
  Zr81     1.0000 0.74908  0.64582  0.25314  Biso   1.000  Zr
  Zr82     1.0000 0.75296  0.60627  0.00364  Biso   1.000  Zr
  Zr83     1.0000 0.74802  0.85395  0.99469  Biso   1.000  Zr
  Zr84     1.0000 0.75446  0.89729  0.24365  Biso   1.000  Zr
  Zr85     1.0000 0.62534  0.49921  0.62531  Biso   1.000  Zr
  Zr86     1.0000 0.62262  0.75244  0.87245  Biso   1.000  Zr
  Zr87     1.0000 0.87248  0.75243  0.62259  Biso   1.000  Zr
  Zr88     1.0000 0.87039  0.50073  0.87036  Biso   1.000  Zr
  Zr89     1.0000 0.49679  0.64821  0.49677  Biso   1.000  Zr
  Zr90     1.0000 0.50342  0.60621  0.74728  Biso   1.000  Zr
  Zr91     1.0000 0.49084  0.85581  0.75981  Biso   1.000  Zr
  Zr92     1.0000 0.50696  0.89673  0.50694  Biso   1.000  Zr
  Zr93     1.0000 0.75394  0.64820  0.75391  Biso   1.000  Zr
  Zr94     1.0000 0.74731  0.60621  0.50340  Biso   1.000  Zr
  Zr95     1.0000 0.75984  0.85581  0.49081  Biso   1.000  Zr
  Zr96     1.0000 0.74371  0.89675  0.74368  Biso   1.000  Zr
  Ga1      1.0000 0.12534  0.21994  0.12534  Biso   1.000  Ga
