data_image0
_cell_length_a       5.06163
_cell_length_b       10.4679
_cell_length_c       10.1684
_cell_angle_alpha    89.4009
_cell_angle_beta     89.4119
_cell_angle_gamma    91.5091

_symmetry_space_group_name_H-M    "P 1"
_symmetry_int_tables_number       1

loop_
  _symmetry_equiv_pos_as_xyz
  'x, y, z'

loop_
  _atom_site_label
  _atom_site_occupancy
  _atom_site_fract_x
  _atom_site_fract_y
  _atom_site_fract_z
  _atom_site_thermal_displace_type
  _atom_site_B_iso_or_equiv
  _atom_site_type_symbol
  Zr1      1.0000 0.29100  0.99557  0.10467  Biso   1.000  Zr
  Zr2      1.0000 0.25748  0.23010  0.40614  Biso   1.000  Zr
  Zr3      1.0000 0.68087  0.26181  0.11677  Biso   1.000  Zr
  Zr4      1.0000 0.74617  0.48807  0.37421  Biso   1.000  Zr
  Zr5      1.0000 0.93622  0.18373  0.27037  Biso   1.000  Zr
  Zr6      1.0000 0.07393  0.06289  0.46712  Biso   1.000  Zr
  Zr7      1.0000 0.89549  0.43509  0.19020  Biso   1.000  Zr
  Zr8      1.0000 0.95798  0.33635  0.46915  Biso   1.000  Zr
  Zr9      1.0000 0.46130  0.10995  0.25357  Biso   1.000  Zr
  Zr10     1.0000 0.55938  0.13887  0.50376  Biso   1.000  Zr
  Zr11     1.0000 0.48035  0.38695  0.49783  Biso   1.000  Zr
  Zr12     1.0000 0.39112  0.36026  0.24620  Biso   1.000  Zr
  Zr13     1.0000 0.29526  0.01284  0.62993  Biso   1.000  Zr
  Zr14     1.0000 0.26025  0.23271  0.87205  Biso   1.000  Zr
  Zr15     1.0000 0.74537  0.27117  0.63532  Biso   1.000  Zr
  Zr16     1.0000 0.73048  0.48610  0.87255  Biso   1.000  Zr
  Zr17     1.0000 0.08533  0.18466  0.69137  Biso   1.000  Zr
  Zr18     1.0000 0.11253  0.05277  0.92525  Biso   1.000  Zr
  Zr19     1.0000 0.93383  0.44123  0.69947  Biso   1.000  Zr
  Zr20     1.0000 0.89912  0.31183  0.92058  Biso   1.000  Zr
  Zr21     1.0000 0.55185  0.11776  0.75256  Biso   1.000  Zr
  Zr22     1.0000 0.59296  0.11212  0.99755  Biso   1.000  Zr
  Zr23     1.0000 0.44938  0.38774  0.99627  Biso   1.000  Zr
  Zr24     1.0000 0.45689  0.36880  0.74680  Biso   1.000  Zr
  Zr25     1.0000 0.25813  0.52537  0.12493  Biso   1.000  Zr
  Zr26     1.0000 0.28082  0.74189  0.37536  Biso   1.000  Zr
  Zr27     1.0000 0.74362  0.76200  0.12259  Biso   1.000  Zr
  Zr28     1.0000 0.75502  0.00112  0.36204  Biso   1.000  Zr
  Zr29     1.0000 0.07312  0.68563  0.19775  Biso   1.000  Zr
  Zr30     1.0000 0.06862  0.57555  0.44434  Biso   1.000  Zr
  Zr31     1.0000 0.93940  0.94058  0.18562  Biso   1.000  Zr
  Zr32     1.0000 0.94102  0.82368  0.43556  Biso   1.000  Zr
  Zr33     1.0000 0.53634  0.61576  0.24835  Biso   1.000  Zr
  Zr34     1.0000 0.54118  0.63720  0.49472  Biso   1.000  Zr
  Zr35     1.0000 0.47979  0.89069  0.49281  Biso   1.000  Zr
  Zr36     1.0000 0.48095  0.86360  0.24066  Biso   1.000  Zr
  Zr37     1.0000 0.27105  0.51459  0.62032  Biso   1.000  Zr
  Zr38     1.0000 0.27610  0.73040  0.86756  Biso   1.000  Zr
  Zr39     1.0000 0.75088  0.76754  0.61459  Biso   1.000  Zr
  Zr40     1.0000 0.75669  0.97853  0.86770  Biso   1.000  Zr
  Zr41     1.0000 0.07756  0.68401  0.69051  Biso   1.000  Zr
  Zr42     1.0000 0.06510  0.56854  0.94861  Biso   1.000  Zr
  Zr43     1.0000 0.95329  0.92786  0.69416  Biso   1.000  Zr
  Zr44     1.0000 0.95738  0.81570  0.94928  Biso   1.000  Zr
  Zr45     1.0000 0.53939  0.61518  0.74441  Biso   1.000  Zr
  Zr46     1.0000 0.53724  0.63262  0.99745  Biso   1.000  Zr
  Zr47     1.0000 0.48687  0.87072  0.98949  Biso   1.000  Zr
  Zr48     1.0000 0.48521  0.86346  0.74294  Biso   1.000  Zr
  Ga1      1.0000 0.16861  0.24752  0.13631  Biso   1.000  Ga
