data_image0
_cell_length_a       10.3624
_cell_length_b       5.27983
_cell_length_c       10.4059
_cell_angle_alpha    90.1915
_cell_angle_beta     89.6571
_cell_angle_gamma    101.055

_symmetry_space_group_name_H-M    "P 1"
_symmetry_int_tables_number       1

loop_
  _symmetry_equiv_pos_as_xyz
  'x, y, z'

loop_
  _atom_site_label
  _atom_site_occupancy
  _atom_site_fract_x
  _atom_site_fract_y
  _atom_site_fract_z
  _atom_site_thermal_displace_type
  _atom_site_B_iso_or_equiv
  _atom_site_type_symbol
  Zr1      1.0000 0.09303  0.05505  0.14155  Biso   1.000  Zr
  Zr2      1.0000 0.10476  0.54406  0.35923  Biso   1.000  Zr
  Zr3      1.0000 0.40274  0.43450  0.10877  Biso   1.000  Zr
  Zr4      1.0000 0.38901  0.94519  0.40062  Biso   1.000  Zr
  Zr5      1.0000 0.02023  0.28507  0.99745  Biso   1.000  Zr
  Zr6      1.0000 0.96815  0.24706  0.25716  Biso   1.000  Zr
  Zr7      1.0000 0.96665  0.74224  0.24740  Biso   1.000  Zr
  Zr8      1.0000 0.00876  0.78291  0.99449  Biso   1.000  Zr
  Zr9      1.0000 0.21895  0.38596  0.21848  Biso   1.000  Zr
  Zr10     1.0000 0.27682  0.10360  0.03184  Biso   1.000  Zr
  Zr11     1.0000 0.28157  0.57461  0.94396  Biso   1.000  Zr
  Zr12     1.0000 0.21420  0.91493  0.30636  Biso   1.000  Zr
  Zr13     1.0000 0.11063  0.03998  0.64736  Biso   1.000  Zr
  Zr14     1.0000 0.10676  0.54436  0.84970  Biso   1.000  Zr
  Zr15     1.0000 0.38514  0.44956  0.60296  Biso   1.000  Zr
  Zr16     1.0000 0.39101  0.94549  0.89109  Biso   1.000  Zr
  Zr17     1.0000 0.02301  0.26724  0.49881  Biso   1.000  Zr
  Zr18     1.0000 0.97246  0.23090  0.75344  Biso   1.000  Zr
  Zr19     1.0000 0.97218  0.73218  0.74343  Biso   1.000  Zr
  Zr20     1.0000 0.02373  0.76776  0.50319  Biso   1.000  Zr
  Zr21     1.0000 0.21117  0.40699  0.70378  Biso   1.000  Zr
  Zr22     1.0000 0.28460  0.08254  0.54655  Biso   1.000  Zr
  Zr23     1.0000 0.28112  0.58216  0.45856  Biso   1.000  Zr
  Zr24     1.0000 0.21465  0.90737  0.79176  Biso   1.000  Zr
  Zr25     1.0000 0.61229  0.01969  0.14790  Biso   1.000  Zr
  Zr26     1.0000 0.61536  0.52767  0.35707  Biso   1.000  Zr
  Zr27     1.0000 0.88347  0.46985  0.10242  Biso   1.000  Zr
  Zr28     1.0000 0.88780  0.95977  0.39779  Biso   1.000  Zr
  Zr29     1.0000 0.52763  0.24247  0.99316  Biso   1.000  Zr
  Zr30     1.0000 0.47554  0.20449  0.25287  Biso   1.000  Zr
  Zr31     1.0000 0.48700  0.70665  0.25584  Biso   1.000  Zr
  Zr32     1.0000 0.52912  0.74730  0.00293  Biso   1.000  Zr
  Zr33     1.0000 0.71165  0.39907  0.20657  Biso   1.000  Zr
  Zr34     1.0000 0.78412  0.09048  0.04375  Biso   1.000  Zr
  Zr35     1.0000 0.77713  0.58689  0.95645  Biso   1.000  Zr
  Zr36     1.0000 0.71864  0.90265  0.29388  Biso   1.000  Zr
  Zr37     1.0000 0.60949  0.03413  0.64569  Biso   1.000  Zr
  Zr38     1.0000 0.60797  0.52976  0.85253  Biso   1.000  Zr
  Zr39     1.0000 0.88628  0.45541  0.60463  Biso   1.000  Zr
  Zr40     1.0000 0.88040  0.96188  0.89326  Biso   1.000  Zr
  Zr41     1.0000 0.52331  0.25866  0.49688  Biso   1.000  Zr
  Zr42     1.0000 0.47277  0.22230  0.75151  Biso   1.000  Zr
  Zr43     1.0000 0.47203  0.72178  0.74714  Biso   1.000  Zr
  Zr44     1.0000 0.52359  0.75737  0.50690  Biso   1.000  Zr
  Zr45     1.0000 0.71469  0.39939  0.70833  Biso   1.000  Zr
  Zr46     1.0000 0.78108  0.09014  0.54199  Biso   1.000  Zr
  Zr47     1.0000 0.78495  0.59208  0.46102  Biso   1.000  Zr
  Zr48     1.0000 0.71082  0.89743  0.78929  Biso   1.000  Zr
  Ge1      1.0000 0.24789  0.74478  0.12515  Biso   1.000  Ge
