data_image0
_cell_length_a       5.07413
_cell_length_b       10.485
_cell_length_c       10.1475
_cell_angle_alpha    89.5939
_cell_angle_beta     91.1484
_cell_angle_gamma    91.2393

_symmetry_space_group_name_H-M    "P 1"
_symmetry_int_tables_number       1

loop_
  _symmetry_equiv_pos_as_xyz
  'x, y, z'

loop_
  _atom_site_label
  _atom_site_occupancy
  _atom_site_fract_x
  _atom_site_fract_y
  _atom_site_fract_z
  _atom_site_thermal_displace_type
  _atom_site_B_iso_or_equiv
  _atom_site_type_symbol
  Zr1      1.0000 0.27730  0.00965  0.11863  Biso   1.000  Zr
  Zr2      1.0000 0.25763  0.22602  0.40695  Biso   1.000  Zr
  Zr3      1.0000 0.66206  0.26095  0.14282  Biso   1.000  Zr
  Zr4      1.0000 0.74454  0.49065  0.38664  Biso   1.000  Zr
  Zr5      1.0000 0.99303  0.17044  0.23576  Biso   1.000  Zr
  Zr6      1.0000 0.08724  0.05406  0.45319  Biso   1.000  Zr
  Zr7      1.0000 0.86169  0.43927  0.20657  Biso   1.000  Zr
  Zr8      1.0000 0.93269  0.32052  0.45215  Biso   1.000  Zr
  Zr9      1.0000 0.49317  0.11406  0.26339  Biso   1.000  Zr
  Zr10     1.0000 0.56976  0.13142  0.50812  Biso   1.000  Zr
  Zr11     1.0000 0.46693  0.38361  0.49690  Biso   1.000  Zr
  Zr12     1.0000 0.35982  0.35931  0.24207  Biso   1.000  Zr
  Zr13     1.0000 0.29506  0.00884  0.62919  Biso   1.000  Zr
  Zr14     1.0000 0.28632  0.23063  0.85918  Biso   1.000  Zr
  Zr15     1.0000 0.76372  0.27222  0.63722  Biso   1.000  Zr
  Zr16     1.0000 0.73696  0.48215  0.86479  Biso   1.000  Zr
  Zr17     1.0000 0.12124  0.18503  0.66293  Biso   1.000  Zr
  Zr18     1.0000 0.11164  0.05945  0.93233  Biso   1.000  Zr
  Zr19     1.0000 0.90889  0.45862  0.66623  Biso   1.000  Zr
  Zr20     1.0000 0.91686  0.30505  0.84662  Biso   1.000  Zr
  Zr21     1.0000 0.55713  0.11594  0.75520  Biso   1.000  Zr
  Zr22     1.0000 0.60870  0.11839  0.00597  Biso   1.000  Zr
  Zr23     1.0000 0.49033  0.38064  0.99363  Biso   1.000  Zr
  Zr24     1.0000 0.45028  0.37465  0.74245  Biso   1.000  Zr
  Zr25     1.0000 0.24335  0.52709  0.12806  Biso   1.000  Zr
  Zr26     1.0000 0.27629  0.74025  0.37820  Biso   1.000  Zr
  Zr27     1.0000 0.72695  0.76332  0.12885  Biso   1.000  Zr
  Zr28     1.0000 0.74672  0.98860  0.37365  Biso   1.000  Zr
  Zr29     1.0000 0.06251  0.68262  0.19885  Biso   1.000  Zr
  Zr30     1.0000 0.08326  0.57240  0.44241  Biso   1.000  Zr
  Zr31     1.0000 0.93877  0.93118  0.19320  Biso   1.000  Zr
  Zr32     1.0000 0.93760  0.81657  0.44586  Biso   1.000  Zr
  Zr33     1.0000 0.52571  0.61808  0.25620  Biso   1.000  Zr
  Zr34     1.0000 0.54236  0.63842  0.50328  Biso   1.000  Zr
  Zr35     1.0000 0.48155  0.88505  0.49951  Biso   1.000  Zr
  Zr36     1.0000 0.47230  0.86672  0.24876  Biso   1.000  Zr
  Zr37     1.0000 0.27767  0.51949  0.62200  Biso   1.000  Zr
  Zr38     1.0000 0.27346  0.73509  0.87576  Biso   1.000  Zr
  Zr39     1.0000 0.75086  0.76821  0.62795  Biso   1.000  Zr
  Zr40     1.0000 0.75219  0.98052  0.88019  Biso   1.000  Zr
  Zr41     1.0000 0.08732  0.68789  0.69581  Biso   1.000  Zr
  Zr42     1.0000 0.06489  0.56241  0.94666  Biso   1.000  Zr
  Zr43     1.0000 0.95094  0.93371  0.70034  Biso   1.000  Zr
  Zr44     1.0000 0.94009  0.81187  0.95086  Biso   1.000  Zr
  Zr45     1.0000 0.54639  0.62066  0.75325  Biso   1.000  Zr
  Zr46     1.0000 0.52471  0.63261  0.00448  Biso   1.000  Zr
  Zr47     1.0000 0.47102  0.87856  0.00080  Biso   1.000  Zr
  Zr48     1.0000 0.48488  0.86519  0.75250  Biso   1.000  Zr
  Ge1      1.0000 0.15338  0.26802  0.10680  Biso   1.000  Ge
