data_image0
_cell_length_a       10.0633
_cell_length_b       10.5318
_cell_length_c       5.11495
_cell_angle_alpha    89.9453
_cell_angle_beta     88.3051
_cell_angle_gamma    91.5788

_symmetry_space_group_name_H-M    "P 1"
_symmetry_int_tables_number       1

loop_
  _symmetry_equiv_pos_as_xyz
  'x, y, z'

loop_
  _atom_site_label
  _atom_site_occupancy
  _atom_site_fract_x
  _atom_site_fract_y
  _atom_site_fract_z
  _atom_site_thermal_displace_type
  _atom_site_B_iso_or_equiv
  _atom_site_type_symbol
  Zr1      1.0000 0.15517  0.00703  0.27041  Biso   1.000  Zr
  Zr2      1.0000 0.14674  0.21821  0.82350  Biso   1.000  Zr
  Zr3      1.0000 0.36432  0.26307  0.25359  Biso   1.000  Zr
  Zr4      1.0000 0.37046  0.48844  0.74964  Biso   1.000  Zr
  Zr5      1.0000 0.03741  0.12551  0.53928  Biso   1.000  Zr
  Zr6      1.0000 0.02939  0.06561  0.98480  Biso   1.000  Zr
  Zr7      1.0000 0.45457  0.43237  0.38725  Biso   1.000  Zr
  Zr8      1.0000 0.45949  0.31437  0.87144  Biso   1.000  Zr
  Zr9      1.0000 0.28569  0.11898  0.52319  Biso   1.000  Zr
  Zr10     1.0000 0.29633  0.11198  0.00596  Biso   1.000  Zr
  Zr11     1.0000 0.23635  0.38793  0.00335  Biso   1.000  Zr
  Zr12     1.0000 0.19767  0.35597  0.49984  Biso   1.000  Zr
  Zr13     1.0000 0.12819  0.52748  0.24186  Biso   1.000  Zr
  Zr14     1.0000 0.13393  0.73488  0.74910  Biso   1.000  Zr
  Zr15     1.0000 0.37244  0.76081  0.24280  Biso   1.000  Zr
  Zr16     1.0000 0.37638  0.97542  0.74810  Biso   1.000  Zr
  Zr17     1.0000 0.03679  0.68561  0.38776  Biso   1.000  Zr
  Zr18     1.0000 0.03141  0.57273  0.88926  Biso   1.000  Zr
  Zr19     1.0000 0.47156  0.93067  0.37537  Biso   1.000  Zr
  Zr20     1.0000 0.47433  0.81539  0.89278  Biso   1.000  Zr
  Zr21     1.0000 0.26718  0.61095  0.49378  Biso   1.000  Zr
  Zr22     1.0000 0.26784  0.63498  0.99097  Biso   1.000  Zr
  Zr23     1.0000 0.23539  0.87507  0.99889  Biso   1.000  Zr
  Zr24     1.0000 0.24311  0.86027  0.50030  Biso   1.000  Zr
  Zr25     1.0000 0.64015  0.01662  0.23110  Biso   1.000  Zr
  Zr26     1.0000 0.62603  0.23261  0.72602  Biso   1.000  Zr
  Zr27     1.0000 0.83280  0.28042  0.20893  Biso   1.000  Zr
  Zr28     1.0000 0.86756  0.48730  0.73113  Biso   1.000  Zr
  Zr29     1.0000 0.53993  0.18497  0.36073  Biso   1.000  Zr
  Zr30     1.0000 0.54446  0.06162  0.86479  Biso   1.000  Zr
  Zr31     1.0000 0.94559  0.45186  0.36050  Biso   1.000  Zr
  Zr32     1.0000 0.95954  0.32494  0.85183  Biso   1.000  Zr
  Zr33     1.0000 0.77346  0.12268  0.46591  Biso   1.000  Zr
  Zr34     1.0000 0.76571  0.14171  0.96227  Biso   1.000  Zr
  Zr35     1.0000 0.71859  0.39200  0.97324  Biso   1.000  Zr
  Zr36     1.0000 0.71512  0.37758  0.48171  Biso   1.000  Zr
  Zr37     1.0000 0.63047  0.52394  0.24866  Biso   1.000  Zr
  Zr38     1.0000 0.64395  0.74017  0.74631  Biso   1.000  Zr
  Zr39     1.0000 0.86945  0.77064  0.24060  Biso   1.000  Zr
  Zr40     1.0000 0.88426  0.99454  0.72549  Biso   1.000  Zr
  Zr41     1.0000 0.53261  0.68150  0.40328  Biso   1.000  Zr
  Zr42     1.0000 0.52889  0.57168  0.90108  Biso   1.000  Zr
  Zr43     1.0000 0.97784  0.91749  0.39994  Biso   1.000  Zr
  Zr44     1.0000 0.97019  0.82277  0.88346  Biso   1.000  Zr
  Zr45     1.0000 0.76696  0.62487  0.49144  Biso   1.000  Zr
  Zr46     1.0000 0.76614  0.63772  0.99153  Biso   1.000  Zr
  Zr47     1.0000 0.74144  0.88946  0.98798  Biso   1.000  Zr
  Zr48     1.0000 0.73552  0.87329  0.48858  Biso   1.000  Zr
  Ge1      1.0000 0.07668  0.25242  0.30481  Biso   1.000  Ge
