data_image0
_cell_length_a       10.1013
_cell_length_b       10.1024
_cell_length_c       5.02908
_cell_angle_alpha    89.9987
_cell_angle_beta     89.9984
_cell_angle_gamma    89.9987

_symmetry_space_group_name_H-M    "P 1"
_symmetry_int_tables_number       1

loop_
  _symmetry_equiv_pos_as_xyz
  'x, y, z'

loop_
  _atom_site_label
  _atom_site_occupancy
  _atom_site_fract_x
  _atom_site_fract_y
  _atom_site_fract_z
  _atom_site_thermal_displace_type
  _atom_site_B_iso_or_equiv
  _atom_site_type_symbol
  Ge1      1.0000 0.12465  0.99977  0.25132  Biso   1.000  Ge
  Zr1      1.0000 0.12465  0.49976  0.25133  Biso   1.000  Zr
  Zr2      1.0000 0.62465  0.99976  0.25131  Biso   1.000  Zr
  Zr3      1.0000 0.62466  0.49976  0.25132  Biso   1.000  Zr
  Zr4      1.0000 0.12466  0.25042  0.75133  Biso   1.000  Zr
  Zr5      1.0000 0.12466  0.74911  0.75133  Biso   1.000  Zr
  Zr6      1.0000 0.62466  0.25033  0.75133  Biso   1.000  Zr
  Zr7      1.0000 0.62465  0.74919  0.75132  Biso   1.000  Zr
  Zr8      1.0000 0.37385  0.24896  0.26100  Biso   1.000  Zr
  Zr9      1.0000 0.37385  0.75057  0.24167  Biso   1.000  Zr
  Zr10     1.0000 0.87547  0.24896  0.24167  Biso   1.000  Zr
  Zr11     1.0000 0.87546  0.75058  0.26099  Biso   1.000  Zr
  Zr12     1.0000 0.37529  0.99977  0.75132  Biso   1.000  Zr
  Zr13     1.0000 0.37525  0.49976  0.75133  Biso   1.000  Zr
  Zr14     1.0000 0.87402  0.99976  0.75133  Biso   1.000  Zr
  Zr15     1.0000 0.87406  0.49977  0.75132  Biso   1.000  Zr
  Zr16     1.0000 0.97480  0.14967  0.94359  Biso   1.000  Zr
  Zr17     1.0000 0.98773  0.64472  0.98883  Biso   1.000  Zr
  Zr18     1.0000 0.47975  0.13680  0.98870  Biso   1.000  Zr
  Zr19     1.0000 0.48809  0.63644  0.99002  Biso   1.000  Zr
  Zr20     1.0000 0.02273  0.10163  0.45499  Biso   1.000  Zr
  Zr21     1.0000 0.00951  0.60763  0.49625  Biso   1.000  Zr
  Zr22     1.0000 0.51671  0.11480  0.49619  Biso   1.000  Zr
  Zr23     1.0000 0.51048  0.61383  0.49685  Biso   1.000  Zr
  Zr24     1.0000 0.98773  0.35481  0.51383  Biso   1.000  Zr
  Zr25     1.0000 0.97480  0.84986  0.55905  Biso   1.000  Zr
  Zr26     1.0000 0.48810  0.36310  0.51259  Biso   1.000  Zr
  Zr27     1.0000 0.47975  0.86273  0.51392  Biso   1.000  Zr
  Zr28     1.0000 0.00952  0.39190  0.00641  Biso   1.000  Zr
  Zr29     1.0000 0.02272  0.89791  0.04764  Biso   1.000  Zr
  Zr30     1.0000 0.51049  0.38571  0.00576  Biso   1.000  Zr
  Zr31     1.0000 0.51670  0.88473  0.00643  Biso   1.000  Zr
  Zr32     1.0000 0.27451  0.14967  0.55905  Biso   1.000  Zr
  Zr33     1.0000 0.26158  0.64472  0.51383  Biso   1.000  Zr
  Zr34     1.0000 0.76956  0.13681  0.51396  Biso   1.000  Zr
  Zr35     1.0000 0.76121  0.63644  0.51260  Biso   1.000  Zr
  Zr36     1.0000 0.22659  0.10162  0.04763  Biso   1.000  Zr
  Zr37     1.0000 0.23979  0.60763  0.00641  Biso   1.000  Zr
  Zr38     1.0000 0.73261  0.11480  0.00647  Biso   1.000  Zr
  Zr39     1.0000 0.73882  0.61382  0.00576  Biso   1.000  Zr
  Zr40     1.0000 0.26158  0.35480  0.98881  Biso   1.000  Zr
  Zr41     1.0000 0.27451  0.84986  0.94358  Biso   1.000  Zr
  Zr42     1.0000 0.76122  0.36309  0.99004  Biso   1.000  Zr
  Zr43     1.0000 0.76956  0.86273  0.98872  Biso   1.000  Zr
  Zr44     1.0000 0.23980  0.39190  0.49624  Biso   1.000  Zr
  Zr45     1.0000 0.22658  0.89791  0.45500  Biso   1.000  Zr
  Zr46     1.0000 0.73883  0.38571  0.49687  Biso   1.000  Zr
  Zr47     1.0000 0.73261  0.88474  0.49622  Biso   1.000  Zr
