data_image0
_cell_length_a       5.00345
_cell_length_b       10.4404
_cell_length_c       10.0432
_cell_angle_alpha    91.0532
_cell_angle_beta     89.0713
_cell_angle_gamma    90.3284

_symmetry_space_group_name_H-M    "P 1"
_symmetry_int_tables_number       1

loop_
  _symmetry_equiv_pos_as_xyz
  'x, y, z'

loop_
  _atom_site_label
  _atom_site_occupancy
  _atom_site_fract_x
  _atom_site_fract_y
  _atom_site_fract_z
  _atom_site_thermal_displace_type
  _atom_site_B_iso_or_equiv
  _atom_site_type_symbol
  Ge1      1.0000 0.23812  0.03030  0.11120  Biso   1.000  Ge
  Zr1      1.0000 0.26175  0.01459  0.62249  Biso   1.000  Zr
  Zr2      1.0000 0.26903  0.51398  0.12646  Biso   1.000  Zr
  Zr3      1.0000 0.26926  0.51768  0.62324  Biso   1.000  Zr
  Zr4      1.0000 0.26901  0.22834  0.37192  Biso   1.000  Zr
  Zr5      1.0000 0.26190  0.24133  0.86936  Biso   1.000  Zr
  Zr6      1.0000 0.28060  0.73439  0.37738  Biso   1.000  Zr
  Zr7      1.0000 0.25858  0.73998  0.87945  Biso   1.000  Zr
  Zr8      1.0000 0.73461  0.26191  0.11691  Biso   1.000  Zr
  Zr9      1.0000 0.73311  0.26558  0.62082  Biso   1.000  Zr
  Zr10     1.0000 0.75447  0.76062  0.12340  Biso   1.000  Zr
  Zr11     1.0000 0.73719  0.76960  0.62784  Biso   1.000  Zr
  Zr12     1.0000 0.73925  0.48170  0.37412  Biso   1.000  Zr
  Zr13     1.0000 0.72891  0.49126  0.87228  Biso   1.000  Zr
  Zr14     1.0000 0.74177  0.98263  0.36785  Biso   1.000  Zr
  Zr15     1.0000 0.71390  0.98989  0.87944  Biso   1.000  Zr
  Zr16     1.0000 0.05344  0.17560  0.19665  Biso   1.000  Zr
  Zr17     1.0000 0.06415  0.18448  0.69655  Biso   1.000  Zr
  Zr18     1.0000 0.07552  0.68053  0.20245  Biso   1.000  Zr
  Zr19     1.0000 0.06510  0.68361  0.70120  Biso   1.000  Zr
  Zr20     1.0000 0.06918  0.06746  0.44985  Biso   1.000  Zr
  Zr21     1.0000 0.04592  0.07514  0.95949  Biso   1.000  Zr
  Zr22     1.0000 0.07425  0.56606  0.44662  Biso   1.000  Zr
  Zr23     1.0000 0.05350  0.57510  0.95426  Biso   1.000  Zr
  Zr24     1.0000 0.93838  0.42640  0.19548  Biso   1.000  Zr
  Zr25     1.0000 0.93126  0.43432  0.69470  Biso   1.000  Zr
  Zr26     1.0000 0.98662  0.93138  0.19383  Biso   1.000  Zr
  Zr27     1.0000 0.93049  0.93648  0.70330  Biso   1.000  Zr
  Zr28     1.0000 0.93705  0.31565  0.44421  Biso   1.000  Zr
  Zr29     1.0000 0.92487  0.32221  0.94193  Biso   1.000  Zr
  Zr30     1.0000 0.95085  0.82157  0.45480  Biso   1.000  Zr
  Zr31     1.0000 0.90905  0.82302  0.94133  Biso   1.000  Zr
  Zr32     1.0000 0.50108  0.09235  0.23478  Biso   1.000  Zr
  Zr33     1.0000 0.53317  0.11783  0.74474  Biso   1.000  Zr
  Zr34     1.0000 0.54317  0.60334  0.24733  Biso   1.000  Zr
  Zr35     1.0000 0.53201  0.62009  0.75015  Biso   1.000  Zr
  Zr36     1.0000 0.54602  0.13369  0.48950  Biso   1.000  Zr
  Zr37     1.0000 0.51107  0.14047  0.99423  Biso   1.000  Zr
  Zr38     1.0000 0.54598  0.63481  0.49969  Biso   1.000  Zr
  Zr39     1.0000 0.52682  0.64063  0.99915  Biso   1.000  Zr
  Zr40     1.0000 0.46417  0.38270  0.49598  Biso   1.000  Zr
  Zr41     1.0000 0.45957  0.38909  0.99389  Biso   1.000  Zr
  Zr42     1.0000 0.47522  0.88587  0.50269  Biso   1.000  Zr
  Zr43     1.0000 0.43466  0.89995  0.01590  Biso   1.000  Zr
  Zr44     1.0000 0.46874  0.35476  0.24433  Biso   1.000  Zr
  Zr45     1.0000 0.46056  0.36930  0.74490  Biso   1.000  Zr
  Zr46     1.0000 0.52683  0.84406  0.26170  Biso   1.000  Zr
  Zr47     1.0000 0.45677  0.86902  0.75538  Biso   1.000  Zr
