data_image0
_cell_length_a       4.98915
_cell_length_b       10.3736
_cell_length_c       10.0211
_cell_angle_alpha    89.734
_cell_angle_beta     90.1623
_cell_angle_gamma    90.3336

_symmetry_space_group_name_H-M    "P 1"
_symmetry_int_tables_number       1

loop_
  _symmetry_equiv_pos_as_xyz
  'x, y, z'

loop_
  _atom_site_label
  _atom_site_occupancy
  _atom_site_fract_x
  _atom_site_fract_y
  _atom_site_fract_z
  _atom_site_thermal_displace_type
  _atom_site_B_iso_or_equiv
  _atom_site_type_symbol
  Hf1      1.0000 0.27612  0.01311  0.11861  Biso   1.000  Hf
  Hf2      1.0000 0.26967  0.23499  0.38524  Biso   1.000  Hf
  Hf3      1.0000 0.69520  0.26992  0.12211  Biso   1.000  Hf
  Hf4      1.0000 0.73379  0.48435  0.37531  Biso   1.000  Hf
  Hf5      1.0000 0.05171  0.18861  0.19860  Biso   1.000  Hf
  Hf6      1.0000 0.07317  0.06720  0.44463  Biso   1.000  Hf
  Hf7      1.0000 0.91600  0.43486  0.19304  Biso   1.000  Hf
  Hf8      1.0000 0.92809  0.31776  0.44667  Biso   1.000  Hf
  Hf9      1.0000 0.52528  0.11913  0.25050  Biso   1.000  Hf
  Hf10     1.0000 0.54705  0.13270  0.50030  Biso   1.000  Hf
  Hf11     1.0000 0.46173  0.38267  0.50146  Biso   1.000  Hf
  Hf12     1.0000 0.43941  0.36980  0.25213  Biso   1.000  Hf
  Hf13     1.0000 0.27348  0.01652  0.62604  Biso   1.000  Hf
  Hf14     1.0000 0.27217  0.23206  0.87758  Biso   1.000  Hf
  Hf15     1.0000 0.73628  0.26687  0.62869  Biso   1.000  Hf
  Hf16     1.0000 0.73780  0.48378  0.87604  Biso   1.000  Hf
  Hf17     1.0000 0.07598  0.18342  0.69393  Biso   1.000  Hf
  Hf18     1.0000 0.08772  0.06210  0.94058  Biso   1.000  Hf
  Hf19     1.0000 0.93365  0.43385  0.69681  Biso   1.000  Hf
  Hf20     1.0000 0.93195  0.31621  0.94846  Biso   1.000  Hf
  Hf21     1.0000 0.54565  0.11750  0.74804  Biso   1.000  Hf
  Hf22     1.0000 0.57155  0.12591  0.99332  Biso   1.000  Hf
  Hf23     1.0000 0.45901  0.38696  0.99799  Biso   1.000  Hf
  Hf24     1.0000 0.46396  0.36822  0.75053  Biso   1.000  Hf
  Hf25     1.0000 0.26057  0.51904  0.12676  Biso   1.000  Hf
  Hf26     1.0000 0.27067  0.73463  0.37627  Biso   1.000  Hf
  Hf27     1.0000 0.73471  0.76662  0.12574  Biso   1.000  Hf
  Hf28     1.0000 0.73348  0.98493  0.37386  Biso   1.000  Hf
  Hf29     1.0000 0.07298  0.68505  0.19572  Biso   1.000  Hf
  Hf30     1.0000 0.07280  0.56662  0.44497  Biso   1.000  Hf
  Hf31     1.0000 0.93216  0.93820  0.19338  Biso   1.000  Hf
  Hf32     1.0000 0.92900  0.81681  0.44241  Biso   1.000  Hf
  Hf33     1.0000 0.53958  0.61840  0.25006  Biso   1.000  Hf
  Hf34     1.0000 0.54270  0.63268  0.49952  Biso   1.000  Hf
  Hf35     1.0000 0.46157  0.88337  0.49845  Biso   1.000  Hf
  Hf36     1.0000 0.46485  0.86733  0.24837  Biso   1.000  Hf
  Hf37     1.0000 0.27217  0.51663  0.62693  Biso   1.000  Hf
  Hf38     1.0000 0.27313  0.73353  0.87508  Biso   1.000  Hf
  Hf39     1.0000 0.73693  0.76645  0.62444  Biso   1.000  Hf
  Hf40     1.0000 0.74073  0.98224  0.87317  Biso   1.000  Hf
  Hf41     1.0000 0.07606  0.68388  0.69375  Biso   1.000  Hf
  Hf42     1.0000 0.07463  0.56780  0.94525  Biso   1.000  Hf
  Hf43     1.0000 0.93400  0.93287  0.69235  Biso   1.000  Hf
  Hf44     1.0000 0.93607  0.81569  0.94592  Biso   1.000  Hf
  Hf45     1.0000 0.54540  0.61796  0.74984  Biso   1.000  Hf
  Hf46     1.0000 0.54344  0.63283  0.00035  Biso   1.000  Hf
  Hf47     1.0000 0.46644  0.87970  0.99855  Biso   1.000  Hf
  Hf48     1.0000 0.46511  0.86733  0.74833  Biso   1.000  Hf
  H1       1.0000 0.18493  0.23208  0.13064  Biso   1.000  H 
