data_image0
_cell_length_a       10.0236
_cell_length_b       10.4427
_cell_length_c       10.0844
_cell_angle_alpha    89.977
_cell_angle_beta     89.7627
_cell_angle_gamma    90.172

_symmetry_space_group_name_H-M    "P 1"
_symmetry_int_tables_number       1

loop_
  _symmetry_equiv_pos_as_xyz
  'x, y, z'

loop_
  _atom_site_label
  _atom_site_occupancy
  _atom_site_fract_x
  _atom_site_fract_y
  _atom_site_fract_z
  _atom_site_thermal_displace_type
  _atom_site_B_iso_or_equiv
  _atom_site_type_symbol
  Zr1      1.0000 0.13879  0.00992  0.12244  Biso   1.000  Zr
  Zr2      1.0000 0.14008  0.23325  0.38746  Biso   1.000  Zr
  Zr3      1.0000 0.36796  0.26493  0.12506  Biso   1.000  Zr
  Zr4      1.0000 0.36741  0.48378  0.37419  Biso   1.000  Zr
  Zr5      1.0000 0.03921  0.19301  0.18554  Biso   1.000  Zr
  Zr6      1.0000 0.03837  0.06619  0.44167  Biso   1.000  Zr
  Zr7      1.0000 0.46012  0.43469  0.19223  Biso   1.000  Zr
  Zr8      1.0000 0.46531  0.31591  0.44504  Biso   1.000  Zr
  Zr9      1.0000 0.26632  0.11682  0.25135  Biso   1.000  Zr
  Zr10     1.0000 0.27447  0.13060  0.50272  Biso   1.000  Zr
  Zr11     1.0000 0.23245  0.38182  0.50084  Biso   1.000  Zr
  Zr12     1.0000 0.22262  0.36366  0.24811  Biso   1.000  Zr
  Zr13     1.0000 0.13584  0.01357  0.62634  Biso   1.000  Zr
  Zr14     1.0000 0.13301  0.23301  0.87387  Biso   1.000  Zr
  Zr15     1.0000 0.36851  0.26645  0.62814  Biso   1.000  Zr
  Zr16     1.0000 0.36500  0.48303  0.87670  Biso   1.000  Zr
  Zr17     1.0000 0.03830  0.18356  0.69032  Biso   1.000  Zr
  Zr18     1.0000 0.03677  0.06454  0.94257  Biso   1.000  Zr
  Zr19     1.0000 0.46590  0.43308  0.69612  Biso   1.000  Zr
  Zr20     1.0000 0.46262  0.31490  0.94320  Biso   1.000  Zr
  Zr21     1.0000 0.27040  0.11667  0.75035  Biso   1.000  Zr
  Zr22     1.0000 0.26910  0.13184  0.00028  Biso   1.000  Zr
  Zr23     1.0000 0.22656  0.38057  0.00039  Biso   1.000  Zr
  Zr24     1.0000 0.23056  0.36728  0.74973  Biso   1.000  Zr
  Zr25     1.0000 0.13343  0.51924  0.12485  Biso   1.000  Zr
  Zr26     1.0000 0.13511  0.73356  0.37584  Biso   1.000  Zr
  Zr27     1.0000 0.36767  0.76469  0.12470  Biso   1.000  Zr
  Zr28     1.0000 0.36755  0.98323  0.37438  Biso   1.000  Zr
  Zr29     1.0000 0.03582  0.68586  0.19418  Biso   1.000  Zr
  Zr30     1.0000 0.03624  0.56547  0.44382  Biso   1.000  Zr
  Zr31     1.0000 0.46391  0.93460  0.19241  Biso   1.000  Zr
  Zr32     1.0000 0.46533  0.81577  0.44336  Biso   1.000  Zr
  Zr33     1.0000 0.26997  0.61689  0.24940  Biso   1.000  Zr
  Zr34     1.0000 0.27050  0.63198  0.49911  Biso   1.000  Zr
  Zr35     1.0000 0.23119  0.88213  0.49849  Biso   1.000  Zr
  Zr36     1.0000 0.23127  0.86581  0.24836  Biso   1.000  Zr
  Zr37     1.0000 0.13491  0.51611  0.62579  Biso   1.000  Zr
  Zr38     1.0000 0.13414  0.73314  0.87428  Biso   1.000  Zr
  Zr39     1.0000 0.36776  0.76480  0.62473  Biso   1.000  Zr
  Zr40     1.0000 0.36751  0.98361  0.87455  Biso   1.000  Zr
  Zr41     1.0000 0.03663  0.68340  0.69327  Biso   1.000  Zr
  Zr42     1.0000 0.03556  0.56633  0.94347  Biso   1.000  Zr
  Zr43     1.0000 0.46530  0.93316  0.69383  Biso   1.000  Zr
  Zr44     1.0000 0.46492  0.81553  0.94332  Biso   1.000  Zr
  Zr45     1.0000 0.27075  0.61645  0.74932  Biso   1.000  Zr
  Zr46     1.0000 0.26951  0.63209  0.99912  Biso   1.000  Zr
  Zr47     1.0000 0.23121  0.88076  0.99815  Biso   1.000  Zr
  Zr48     1.0000 0.23108  0.86638  0.74838  Biso   1.000  Zr
  Zr49     1.0000 0.63527  0.01605  0.12572  Biso   1.000  Zr
  Zr50     1.0000 0.63471  0.23334  0.37743  Biso   1.000  Zr
  Zr51     1.0000 0.85108  0.27123  0.12135  Biso   1.000  Zr
  Zr52     1.0000 0.86734  0.48382  0.37374  Biso   1.000  Zr
  Zr53     1.0000 0.53680  0.18396  0.19510  Biso   1.000  Zr
  Zr54     1.0000 0.53787  0.06462  0.44306  Biso   1.000  Zr
  Zr55     1.0000 0.96177  0.43246  0.19041  Biso   1.000  Zr
  Zr56     1.0000 0.96676  0.31606  0.44340  Biso   1.000  Zr
  Zr57     1.0000 0.77420  0.12112  0.24875  Biso   1.000  Zr
  Zr58     1.0000 0.77148  0.13183  0.49903  Biso   1.000  Zr
  Zr59     1.0000 0.73248  0.38204  0.49888  Biso   1.000  Zr
  Zr60     1.0000 0.72313  0.37122  0.24942  Biso   1.000  Zr
  Zr61     1.0000 0.63566  0.01419  0.62503  Biso   1.000  Zr
  Zr62     1.0000 0.63250  0.23298  0.87284  Biso   1.000  Zr
  Zr63     1.0000 0.86721  0.26579  0.62499  Biso   1.000  Zr
  Zr64     1.0000 0.86662  0.48371  0.87449  Biso   1.000  Zr
  Zr65     1.0000 0.53728  0.18233  0.69308  Biso   1.000  Zr
  Zr66     1.0000 0.53526  0.06576  0.94488  Biso   1.000  Zr
  Zr67     1.0000 0.96535  0.43320  0.69434  Biso   1.000  Zr
  Zr68     1.0000 0.96210  0.31501  0.94343  Biso   1.000  Zr
  Zr69     1.0000 0.77091  0.11649  0.74838  Biso   1.000  Zr
  Zr70     1.0000 0.76828  0.13231  0.99752  Biso   1.000  Zr
  Zr71     1.0000 0.72594  0.38288  0.99795  Biso   1.000  Zr
  Zr72     1.0000 0.73094  0.36667  0.74856  Biso   1.000  Zr
  Zr73     1.0000 0.63254  0.51905  0.12576  Biso   1.000  Zr
  Zr74     1.0000 0.63584  0.73389  0.37610  Biso   1.000  Zr
  Zr75     1.0000 0.86597  0.76717  0.12495  Biso   1.000  Zr
  Zr76     1.0000 0.86681  0.98419  0.37570  Biso   1.000  Zr
  Zr77     1.0000 0.53660  0.68502  0.19547  Biso   1.000  Zr
  Zr78     1.0000 0.53561  0.56530  0.44396  Biso   1.000  Zr
  Zr79     1.0000 0.96507  0.93977  0.19279  Biso   1.000  Zr
  Zr80     1.0000 0.96511  0.81661  0.44297  Biso   1.000  Zr
  Zr81     1.0000 0.77108  0.61920  0.24921  Biso   1.000  Zr
  Zr82     1.0000 0.77058  0.63191  0.49890  Biso   1.000  Zr
  Zr83     1.0000 0.73136  0.88167  0.49947  Biso   1.000  Zr
  Zr84     1.0000 0.73089  0.86948  0.24981  Biso   1.000  Zr
  Zr85     1.0000 0.63522  0.51512  0.62516  Biso   1.000  Zr
  Zr86     1.0000 0.63446  0.73335  0.87497  Biso   1.000  Zr
  Zr87     1.0000 0.86692  0.76499  0.62471  Biso   1.000  Zr
  Zr88     1.0000 0.86651  0.98363  0.87472  Biso   1.000  Zr
  Zr89     1.0000 0.53711  0.68326  0.69306  Biso   1.000  Zr
  Zr90     1.0000 0.53437  0.56673  0.94492  Biso   1.000  Zr
  Zr91     1.0000 0.96497  0.93312  0.69322  Biso   1.000  Zr
  Zr92     1.0000 0.96534  0.81626  0.94428  Biso   1.000  Zr
  Zr93     1.0000 0.77058  0.61643  0.74893  Biso   1.000  Zr
  Zr94     1.0000 0.77009  0.63266  0.99942  Biso   1.000  Zr
  Zr95     1.0000 0.73019  0.88246  0.99925  Biso   1.000  Zr
  Zr96     1.0000 0.73128  0.86634  0.74886  Biso   1.000  Zr
  H1       1.0000 0.09581  0.26748  0.15998  Biso   1.000  H 
