data_image0
_cell_length_a       10.0589
_cell_length_b       10.4264
_cell_length_c       10.0858
_cell_angle_alpha    89.7624
_cell_angle_beta     89.5856
_cell_angle_gamma    89.7299

_symmetry_space_group_name_H-M    "P 1"
_symmetry_int_tables_number       1

loop_
  _symmetry_equiv_pos_as_xyz
  'x, y, z'

loop_
  _atom_site_label
  _atom_site_occupancy
  _atom_site_fract_x
  _atom_site_fract_y
  _atom_site_fract_z
  _atom_site_thermal_displace_type
  _atom_site_B_iso_or_equiv
  _atom_site_type_symbol
  H1       1.0000 0.06140  0.94972  0.17368  Biso   1.000  H 
  Zr1      1.0000 0.13431  0.23099  0.37178  Biso   1.000  Zr
  Zr2      1.0000 0.36585  0.26441  0.12879  Biso   1.000  Zr
  Zr3      1.0000 0.36577  0.48462  0.37627  Biso   1.000  Zr
  Zr4      1.0000 0.02687  0.18814  0.20939  Biso   1.000  Zr
  Zr5      1.0000 0.03032  0.07080  0.45780  Biso   1.000  Zr
  Zr6      1.0000 0.46879  0.43156  0.19769  Biso   1.000  Zr
  Zr7      1.0000 0.46430  0.31632  0.44376  Biso   1.000  Zr
  Zr8      1.0000 0.28783  0.13339  0.26099  Biso   1.000  Zr
  Zr9      1.0000 0.26403  0.13072  0.50535  Biso   1.000  Zr
  Zr10     1.0000 0.23108  0.38373  0.50045  Biso   1.000  Zr
  Zr11     1.0000 0.22849  0.37175  0.24966  Biso   1.000  Zr
  Zr12     1.0000 0.13582  0.01147  0.63119  Biso   1.000  Zr
  Zr13     1.0000 0.15266  0.24757  0.88494  Biso   1.000  Zr
  Zr14     1.0000 0.36713  0.26579  0.62387  Biso   1.000  Zr
  Zr15     1.0000 0.37209  0.48819  0.87443  Biso   1.000  Zr
  Zr16     1.0000 0.02613  0.17611  0.72238  Biso   1.000  Zr
  Zr17     1.0000 0.03304  0.08682  0.83250  Biso   1.000  Zr
  Zr18     1.0000 0.46390  0.43559  0.69124  Biso   1.000  Zr
  Zr19     1.0000 0.46695  0.31747  0.93985  Biso   1.000  Zr
  Zr20     1.0000 0.27221  0.12266  0.74979  Biso   1.000  Zr
  Zr21     1.0000 0.27419  0.13738  0.99783  Biso   1.000  Zr
  Zr22     1.0000 0.23910  0.38898  0.00269  Biso   1.000  Zr
  Zr23     1.0000 0.23315  0.37061  0.75038  Biso   1.000  Zr
  Zr24     1.0000 0.13595  0.51748  0.12792  Biso   1.000  Zr
  Zr25     1.0000 0.13699  0.73583  0.37549  Biso   1.000  Zr
  Zr26     1.0000 0.36283  0.76922  0.12556  Biso   1.000  Zr
  Zr27     1.0000 0.35916  0.98458  0.37090  Biso   1.000  Zr
  Zr28     1.0000 0.03752  0.68589  0.19305  Biso   1.000  Zr
  Zr29     1.0000 0.03347  0.56798  0.44785  Biso   1.000  Zr
  Zr30     1.0000 0.47055  0.93233  0.19745  Biso   1.000  Zr
  Zr31     1.0000 0.46738  0.81879  0.45009  Biso   1.000  Zr
  Zr32     1.0000 0.26998  0.61576  0.24951  Biso   1.000  Zr
  Zr33     1.0000 0.26986  0.63380  0.50017  Biso   1.000  Zr
  Zr34     1.0000 0.22738  0.88274  0.50317  Biso   1.000  Zr
  Zr35     1.0000 0.24031  0.86033  0.25771  Biso   1.000  Zr
  Zr36     1.0000 0.13375  0.51776  0.62587  Biso   1.000  Zr
  Zr37     1.0000 0.13834  0.73555  0.88030  Biso   1.000  Zr
  Zr38     1.0000 0.36669  0.76766  0.62628  Biso   1.000  Zr
  Zr39     1.0000 0.36075  0.98517  0.88296  Biso   1.000  Zr
  Zr40     1.0000 0.03429  0.68284  0.69598  Biso   1.000  Zr
  Zr41     1.0000 0.03480  0.56955  0.94689  Biso   1.000  Zr
  Zr42     1.0000 0.46149  0.93527  0.69625  Biso   1.000  Zr
  Zr43     1.0000 0.46876  0.81864  0.94596  Biso   1.000  Zr
  Zr44     1.0000 0.26919  0.61927  0.74991  Biso   1.000  Zr
  Zr45     1.0000 0.27331  0.63102  0.00010  Biso   1.000  Zr
  Zr46     1.0000 0.23461  0.87501  0.99693  Biso   1.000  Zr
  Zr47     1.0000 0.22901  0.86895  0.75062  Biso   1.000  Zr
  Zr48     1.0000 0.63577  0.01339  0.12288  Biso   1.000  Zr
  Zr49     1.0000 0.63040  0.23391  0.36881  Biso   1.000  Zr
  Zr50     1.0000 0.86875  0.26130  0.12607  Biso   1.000  Zr
  Zr51     1.0000 0.86794  0.48441  0.37490  Biso   1.000  Zr
  Zr52     1.0000 0.54324  0.18584  0.18476  Biso   1.000  Zr
  Zr53     1.0000 0.53107  0.06793  0.44131  Biso   1.000  Zr
  Zr54     1.0000 0.96630  0.43449  0.19698  Biso   1.000  Zr
  Zr55     1.0000 0.96698  0.32010  0.45433  Biso   1.000  Zr
  Zr56     1.0000 0.76748  0.11312  0.24641  Biso   1.000  Zr
  Zr57     1.0000 0.76515  0.13612  0.49306  Biso   1.000  Zr
  Zr58     1.0000 0.72852  0.38381  0.49824  Biso   1.000  Zr
  Zr59     1.0000 0.73431  0.36639  0.24929  Biso   1.000  Zr
  Zr60     1.0000 0.62586  0.01535  0.61792  Biso   1.000  Zr
  Zr61     1.0000 0.63435  0.23134  0.87548  Biso   1.000  Zr
  Zr62     1.0000 0.85341  0.26925  0.61970  Biso   1.000  Zr
  Zr63     1.0000 0.86953  0.48170  0.87529  Biso   1.000  Zr
  Zr64     1.0000 0.53673  0.18603  0.69204  Biso   1.000  Zr
  Zr65     1.0000 0.53879  0.06498  0.94220  Biso   1.000  Zr
  Zr66     1.0000 0.96873  0.42447  0.69834  Biso   1.000  Zr
  Zr67     1.0000 0.97523  0.31494  0.95226  Biso   1.000  Zr
  Zr68     1.0000 0.76624  0.11639  0.74039  Biso   1.000  Zr
  Zr69     1.0000 0.78006  0.12629  0.99256  Biso   1.000  Zr
  Zr70     1.0000 0.73396  0.38052  0.99725  Biso   1.000  Zr
  Zr71     1.0000 0.72869  0.36798  0.74810  Biso   1.000  Zr
  Zr72     1.0000 0.63678  0.51431  0.12670  Biso   1.000  Zr
  Zr73     1.0000 0.63234  0.73687  0.37064  Biso   1.000  Zr
  Zr74     1.0000 0.86850  0.76492  0.12148  Biso   1.000  Zr
  Zr75     1.0000 0.86935  0.98772  0.37647  Biso   1.000  Zr
  Zr76     1.0000 0.53685  0.68263  0.19288  Biso   1.000  Zr
  Zr77     1.0000 0.53423  0.56862  0.44421  Biso   1.000  Zr
  Zr78     1.0000 0.96651  0.93502  0.19274  Biso   1.000  Zr
  Zr79     1.0000 0.96418  0.81564  0.43791  Biso   1.000  Zr
  Zr80     1.0000 0.77182  0.61630  0.24631  Biso   1.000  Zr
  Zr81     1.0000 0.76619  0.63371  0.49459  Biso   1.000  Zr
  Zr82     1.0000 0.73040  0.88513  0.49411  Biso   1.000  Zr
  Zr83     1.0000 0.73827  0.86596  0.24480  Biso   1.000  Zr
  Zr84     1.0000 0.63214  0.51844  0.62424  Biso   1.000  Zr
  Zr85     1.0000 0.63342  0.73126  0.87638  Biso   1.000  Zr
  Zr86     1.0000 0.86743  0.76160  0.61819  Biso   1.000  Zr
  Zr87     1.0000 0.85185  0.97441  0.86092  Biso   1.000  Zr
  Zr88     1.0000 0.53381  0.68292  0.69803  Biso   1.000  Zr
  Zr89     1.0000 0.53966  0.56469  0.94578  Biso   1.000  Zr
  Zr90     1.0000 0.95501  0.93003  0.67626  Biso   1.000  Zr
  Zr91     1.0000 0.96856  0.83017  0.94040  Biso   1.000  Zr
  Zr92     1.0000 0.77100  0.61436  0.74673  Biso   1.000  Zr
  Zr93     1.0000 0.77361  0.63146  0.99687  Biso   1.000  Zr
  Zr94     1.0000 0.72813  0.87698  0.99605  Biso   1.000  Zr
  Zr95     1.0000 0.72657  0.86461  0.74474  Biso   1.000  Zr
