data_image0
_cell_length_a       5.00262
_cell_length_b       10.1475
_cell_length_c       10.0976
_cell_angle_alpha    89.9108
_cell_angle_beta     90.2306
_cell_angle_gamma    89.7325

_symmetry_space_group_name_H-M    "P 1"
_symmetry_int_tables_number       1

loop_
  _symmetry_equiv_pos_as_xyz
  'x, y, z'

loop_
  _atom_site_label
  _atom_site_occupancy
  _atom_site_fract_x
  _atom_site_fract_y
  _atom_site_fract_z
  _atom_site_thermal_displace_type
  _atom_site_B_iso_or_equiv
  _atom_site_type_symbol
  H1       1.0000 0.34771  0.94953  0.18461  Biso   1.000  H 
  Zr1      1.0000 0.24691  0.25027  0.37265  Biso   1.000  Zr
  Zr2      1.0000 0.75448  0.24583  0.12595  Biso   1.000  Zr
  Zr3      1.0000 0.74982  0.00142  0.37116  Biso   1.000  Zr
  Zr4      1.0000 0.98564  0.13788  0.99078  Biso   1.000  Zr
  Zr5      1.0000 0.00203  0.12173  0.25250  Biso   1.000  Zr
  Zr6      1.0000 0.99233  0.36720  0.25335  Biso   1.000  Zr
  Zr7      1.0000 0.00803  0.38520  0.00242  Biso   1.000  Zr
  Zr8      1.0000 0.52189  0.14376  0.26084  Biso   1.000  Zr
  Zr9      1.0000 0.50742  0.12444  0.99666  Biso   1.000  Zr
  Zr10     1.0000 0.50899  0.36825  0.99630  Biso   1.000  Zr
  Zr11     1.0000 0.49353  0.39001  0.24700  Biso   1.000  Zr
  Zr12     1.0000 0.25013  0.00154  0.62398  Biso   1.000  Zr
  Zr13     1.0000 0.25483  0.24892  0.87667  Biso   1.000  Zr
  Zr14     1.0000 0.74901  0.25086  0.62446  Biso   1.000  Zr
  Zr15     1.0000 0.75361  0.99891  0.87942  Biso   1.000  Zr
  Zr16     1.0000 0.98948  0.13955  0.49633  Biso   1.000  Zr
  Zr17     1.0000 0.00769  0.11446  0.74623  Biso   1.000  Zr
  Zr18     1.0000 0.98908  0.36407  0.75341  Biso   1.000  Zr
  Zr19     1.0000 0.00393  0.38973  0.50235  Biso   1.000  Zr
  Zr20     1.0000 0.50873  0.13787  0.75165  Biso   1.000  Zr
  Zr21     1.0000 0.49200  0.11329  0.50410  Biso   1.000  Zr
  Zr22     1.0000 0.50728  0.36339  0.49605  Biso   1.000  Zr
  Zr23     1.0000 0.49112  0.38746  0.74722  Biso   1.000  Zr
  Zr24     1.0000 0.24958  0.50154  0.12466  Biso   1.000  Zr
  Zr25     1.0000 0.23808  0.75195  0.37382  Biso   1.000  Zr
  Zr26     1.0000 0.74883  0.75343  0.12380  Biso   1.000  Zr
  Zr27     1.0000 0.74543  0.50267  0.37438  Biso   1.000  Zr
  Zr28     1.0000 0.98879  0.63424  0.99520  Biso   1.000  Zr
  Zr29     1.0000 0.00376  0.61214  0.24533  Biso   1.000  Zr
  Zr30     1.0000 0.94940  0.85402  0.26722  Biso   1.000  Zr
  Zr31     1.0000 0.00124  0.87711  0.99854  Biso   1.000  Zr
  Zr32     1.0000 0.50512  0.64228  0.25528  Biso   1.000  Zr
  Zr33     1.0000 0.49072  0.61474  0.00279  Biso   1.000  Zr
  Zr34     1.0000 0.52062  0.86104  0.98682  Biso   1.000  Zr
  Zr35     1.0000 0.46312  0.89341  0.24014  Biso   1.000  Zr
  Zr36     1.0000 0.24724  0.50078  0.62460  Biso   1.000  Zr
  Zr37     1.0000 0.24642  0.75254  0.87586  Biso   1.000  Zr
  Zr38     1.0000 0.74538  0.75207  0.62355  Biso   1.000  Zr
  Zr39     1.0000 0.74928  0.50111  0.87432  Biso   1.000  Zr
  Zr40     1.0000 0.98477  0.64007  0.49438  Biso   1.000  Zr
  Zr41     1.0000 0.00600  0.61407  0.74596  Biso   1.000  Zr
  Zr42     1.0000 0.99066  0.86351  0.75218  Biso   1.000  Zr
  Zr43     1.0000 0.00588  0.89012  0.50621  Biso   1.000  Zr
  Zr44     1.0000 0.50953  0.63784  0.75359  Biso   1.000  Zr
  Zr45     1.0000 0.48776  0.61246  0.50345  Biso   1.000  Zr
  Zr46     1.0000 0.50927  0.86116  0.48930  Biso   1.000  Zr
  Zr47     1.0000 0.49337  0.88741  0.74264  Biso   1.000  Zr
