data_image0
_cell_length_a       10.094
_cell_length_b       5.11204
_cell_length_c       10.094
_cell_angle_alpha    90
_cell_angle_beta     90
_cell_angle_gamma    89.9999

_symmetry_space_group_name_H-M    "P 1"
_symmetry_int_tables_number       1

loop_
  _symmetry_equiv_pos_as_xyz
  'x, y, z'

loop_
  _atom_site_label
  _atom_site_occupancy
  _atom_site_fract_x
  _atom_site_fract_y
  _atom_site_fract_z
  _atom_site_thermal_displace_type
  _atom_site_B_iso_or_equiv
  _atom_site_type_symbol
  Hf1      1.0000 0.12491  0.00011  0.12491  Biso   1.000  Hf
  Hf2      1.0000 0.12491  0.50011  0.39508  Biso   1.000  Hf
  Hf3      1.0000 0.39509  0.50011  0.12491  Biso   1.000  Hf
  Hf4      1.0000 0.37143  0.99892  0.37143  Biso   1.000  Hf
  Hf5      1.0000 0.99394  0.27796  0.99393  Biso   1.000  Hf
  Hf6      1.0000 0.00326  0.23048  0.24655  Biso   1.000  Hf
  Hf7      1.0000 0.99394  0.72225  0.25589  Biso   1.000  Hf
  Hf8      1.0000 0.00326  0.76973  0.00327  Biso   1.000  Hf
  Hf9      1.0000 0.25587  0.27796  0.25589  Biso   1.000  Hf
  Hf10     1.0000 0.24656  0.23049  0.00327  Biso   1.000  Hf
  Hf11     1.0000 0.25587  0.72225  0.99393  Biso   1.000  Hf
  Hf12     1.0000 0.24656  0.76973  0.24655  Biso   1.000  Hf
  Hf13     1.0000 0.12491  0.00011  0.62491  Biso   1.000  Hf
  Hf14     1.0000 0.12491  0.50011  0.85473  Biso   1.000  Hf
  Hf15     1.0000 0.37980  0.50011  0.62491  Biso   1.000  Hf
  Hf16     1.0000 0.37143  0.00130  0.87838  Biso   1.000  Hf
  Hf17     1.0000 0.98738  0.27948  0.49669  Biso   1.000  Hf
  Hf18     1.0000 0.00684  0.21608  0.74600  Biso   1.000  Hf
  Hf19     1.0000 0.98738  0.72073  0.75312  Biso   1.000  Hf
  Hf20     1.0000 0.00684  0.78414  0.50382  Biso   1.000  Hf
  Hf21     1.0000 0.26243  0.27949  0.75312  Biso   1.000  Hf
  Hf22     1.0000 0.24298  0.21608  0.50382  Biso   1.000  Hf
  Hf23     1.0000 0.26243  0.72073  0.49669  Biso   1.000  Hf
  Hf24     1.0000 0.24298  0.78414  0.74600  Biso   1.000  Hf
  Hf25     1.0000 0.62491  0.00011  0.12491  Biso   1.000  Hf
  Hf26     1.0000 0.62491  0.50011  0.37981  Biso   1.000  Hf
  Hf27     1.0000 0.85473  0.50011  0.12491  Biso   1.000  Hf
  Hf28     1.0000 0.87838  0.00130  0.37144  Biso   1.000  Hf
  Hf29     1.0000 0.49670  0.27949  0.98738  Biso   1.000  Hf
  Hf30     1.0000 0.50380  0.21607  0.24297  Biso   1.000  Hf
  Hf31     1.0000 0.49670  0.72073  0.26244  Biso   1.000  Hf
  Hf32     1.0000 0.50380  0.78415  0.00685  Biso   1.000  Hf
  Hf33     1.0000 0.75311  0.27949  0.26244  Biso   1.000  Hf
  Hf34     1.0000 0.74602  0.21607  0.00685  Biso   1.000  Hf
  Hf35     1.0000 0.75312  0.72073  0.98738  Biso   1.000  Hf
  Hf36     1.0000 0.74602  0.78414  0.24297  Biso   1.000  Hf
  Hf37     1.0000 0.62491  0.00011  0.62491  Biso   1.000  Hf
  Hf38     1.0000 0.62491  0.50011  0.87001  Biso   1.000  Hf
  Hf39     1.0000 0.87001  0.50011  0.62491  Biso   1.000  Hf
  Hf40     1.0000 0.87838  0.99892  0.87838  Biso   1.000  Hf
  Hf41     1.0000 0.48902  0.28759  0.48902  Biso   1.000  Hf
  Hf42     1.0000 0.50662  0.21452  0.74318  Biso   1.000  Hf
  Hf43     1.0000 0.48902  0.71262  0.76080  Biso   1.000  Hf
  Hf44     1.0000 0.50662  0.78569  0.50663  Biso   1.000  Hf
  Hf45     1.0000 0.76079  0.28759  0.76080  Biso   1.000  Hf
  Hf46     1.0000 0.74319  0.21452  0.50663  Biso   1.000  Hf
  Hf47     1.0000 0.76080  0.71262  0.48902  Biso   1.000  Hf
  Hf48     1.0000 0.74319  0.78569  0.74318  Biso   1.000  Hf
  Hf49     1.0000 0.12491  0.50011  0.12491  Biso   1.000  Hf
