data_image0
_cell_length_a       10.094
_cell_length_b       10.094
_cell_length_c       5.11204
_cell_angle_alpha    89.9999
_cell_angle_beta     90.0001
_cell_angle_gamma    90.0001

_symmetry_space_group_name_H-M    "P 1"
_symmetry_int_tables_number       1

loop_
  _symmetry_equiv_pos_as_xyz
  'x, y, z'

loop_
  _atom_site_label
  _atom_site_occupancy
  _atom_site_fract_x
  _atom_site_fract_y
  _atom_site_fract_z
  _atom_site_thermal_displace_type
  _atom_site_B_iso_or_equiv
  _atom_site_type_symbol
  Hf1      1.0000 0.12491  0.97988  0.24982  Biso   1.000  Hf
  Hf2      1.0000 0.12491  0.25005  0.74982  Biso   1.000  Hf
  Hf3      1.0000 0.39509  0.25005  0.24982  Biso   1.000  Hf
  Hf4      1.0000 0.37143  0.00353  0.74862  Biso   1.000  Hf
  Hf5      1.0000 0.00325  0.12842  0.98020  Biso   1.000  Hf
  Hf6      1.0000 0.99394  0.11908  0.47197  Biso   1.000  Hf
  Hf7      1.0000 0.00325  0.37169  0.51944  Biso   1.000  Hf
  Hf8      1.0000 0.99395  0.38103  0.02767  Biso   1.000  Hf
  Hf9      1.0000 0.24656  0.12842  0.51944  Biso   1.000  Hf
  Hf10     1.0000 0.25587  0.11908  0.02767  Biso   1.000  Hf
  Hf11     1.0000 0.24656  0.37169  0.98020  Biso   1.000  Hf
  Hf12     1.0000 0.25587  0.38103  0.47197  Biso   1.000  Hf
  Hf13     1.0000 0.12491  0.52023  0.24982  Biso   1.000  Hf
  Hf14     1.0000 0.12491  0.75005  0.74982  Biso   1.000  Hf
  Hf15     1.0000 0.37981  0.75005  0.24982  Biso   1.000  Hf
  Hf16     1.0000 0.37143  0.49658  0.75101  Biso   1.000  Hf
  Hf17     1.0000 0.00684  0.62895  0.96577  Biso   1.000  Hf
  Hf18     1.0000 0.98738  0.62184  0.47042  Biso   1.000  Hf
  Hf19     1.0000 0.00684  0.87115  0.53386  Biso   1.000  Hf
  Hf20     1.0000 0.98738  0.87827  0.02921  Biso   1.000  Hf
  Hf21     1.0000 0.24298  0.62896  0.53387  Biso   1.000  Hf
  Hf22     1.0000 0.26244  0.62184  0.02921  Biso   1.000  Hf
  Hf23     1.0000 0.24298  0.87115  0.96577  Biso   1.000  Hf
  Hf24     1.0000 0.26243  0.87827  0.47042  Biso   1.000  Hf
  Hf25     1.0000 0.62491  0.99516  0.24982  Biso   1.000  Hf
  Hf26     1.0000 0.62491  0.25005  0.74982  Biso   1.000  Hf
  Hf27     1.0000 0.85473  0.25005  0.24981  Biso   1.000  Hf
  Hf28     1.0000 0.87838  0.00353  0.75101  Biso   1.000  Hf
  Hf29     1.0000 0.50380  0.13199  0.96576  Biso   1.000  Hf
  Hf30     1.0000 0.49671  0.11252  0.47042  Biso   1.000  Hf
  Hf31     1.0000 0.50380  0.36812  0.53387  Biso   1.000  Hf
  Hf32     1.0000 0.49671  0.38758  0.02921  Biso   1.000  Hf
  Hf33     1.0000 0.74602  0.13199  0.53386  Biso   1.000  Hf
  Hf34     1.0000 0.75311  0.11252  0.02921  Biso   1.000  Hf
  Hf35     1.0000 0.74602  0.36812  0.96577  Biso   1.000  Hf
  Hf36     1.0000 0.75311  0.38758  0.47042  Biso   1.000  Hf
  Hf37     1.0000 0.62491  0.50495  0.24982  Biso   1.000  Hf
  Hf38     1.0000 0.62491  0.75005  0.74982  Biso   1.000  Hf
  Hf39     1.0000 0.87001  0.75006  0.24982  Biso   1.000  Hf
  Hf40     1.0000 0.87838  0.49658  0.74862  Biso   1.000  Hf
  Hf41     1.0000 0.50662  0.63178  0.96423  Biso   1.000  Hf
  Hf42     1.0000 0.48903  0.61417  0.46233  Biso   1.000  Hf
  Hf43     1.0000 0.50662  0.86833  0.53541  Biso   1.000  Hf
  Hf44     1.0000 0.48902  0.88594  0.03731  Biso   1.000  Hf
  Hf45     1.0000 0.74320  0.63178  0.53541  Biso   1.000  Hf
  Hf46     1.0000 0.76079  0.61416  0.03731  Biso   1.000  Hf
  Hf47     1.0000 0.74320  0.86833  0.96423  Biso   1.000  Hf
  Hf48     1.0000 0.76079  0.88594  0.46233  Biso   1.000  Hf
  Hf49     1.0000 0.12491  0.25005  0.24982  Biso   1.000  Hf
