data_image0
_cell_length_a       5.13581
_cell_length_b       10.1387
_cell_length_c       10.1387
_cell_angle_alpha    90
_cell_angle_beta     90.0001
_cell_angle_gamma    90

_symmetry_space_group_name_H-M    "P 1"
_symmetry_int_tables_number       1

loop_
  _symmetry_equiv_pos_as_xyz
  'x, y, z'

loop_
  _atom_site_label
  _atom_site_occupancy
  _atom_site_fract_x
  _atom_site_fract_y
  _atom_site_fract_z
  _atom_site_thermal_displace_type
  _atom_site_B_iso_or_equiv
  _atom_site_type_symbol
  Zr1      1.0000 0.25079  0.98176  0.12540  Biso   1.000  Zr
  Zr2      1.0000 0.25079  0.25007  0.39372  Biso   1.000  Zr
  Zr3      1.0000 0.75079  0.25008  0.12540  Biso   1.000  Zr
  Zr4      1.0000 0.74932  0.00366  0.37181  Biso   1.000  Zr
  Zr5      1.0000 0.98912  0.12718  0.00253  Biso   1.000  Zr
  Zr6      1.0000 0.02103  0.12177  0.25372  Biso   1.000  Zr
  Zr7      1.0000 0.98912  0.37297  0.24826  Biso   1.000  Zr
  Zr8      1.0000 0.02104  0.37838  0.99707  Biso   1.000  Zr
  Zr9      1.0000 0.51247  0.12718  0.24826  Biso   1.000  Zr
  Zr10     1.0000 0.48055  0.12177  0.99707  Biso   1.000  Zr
  Zr11     1.0000 0.51246  0.37297  0.00253  Biso   1.000  Zr
  Zr12     1.0000 0.48055  0.37838  0.25372  Biso   1.000  Zr
  Zr13     1.0000 0.25079  0.99587  0.62540  Biso   1.000  Zr
  Zr14     1.0000 0.25079  0.25007  0.85708  Biso   1.000  Zr
  Zr15     1.0000 0.75079  0.25008  0.62540  Biso   1.000  Zr
  Zr16     1.0000 0.75226  0.00366  0.87898  Biso   1.000  Zr
  Zr17     1.0000 0.96791  0.13061  0.50311  Biso   1.000  Zr
  Zr18     1.0000 0.02840  0.11528  0.75073  Biso   1.000  Zr
  Zr19     1.0000 0.96790  0.36954  0.74768  Biso   1.000  Zr
  Zr20     1.0000 0.02840  0.38487  0.50006  Biso   1.000  Zr
  Zr21     1.0000 0.53368  0.13061  0.74768  Biso   1.000  Zr
  Zr22     1.0000 0.47318  0.11528  0.50006  Biso   1.000  Zr
  Zr23     1.0000 0.53368  0.36954  0.50311  Biso   1.000  Zr
  Zr24     1.0000 0.47318  0.38487  0.75073  Biso   1.000  Zr
  Zr25     1.0000 0.25079  0.51839  0.12540  Biso   1.000  Zr
  Zr26     1.0000 0.25079  0.75007  0.37960  Biso   1.000  Zr
  Zr27     1.0000 0.75079  0.75007  0.12540  Biso   1.000  Zr
  Zr28     1.0000 0.75226  0.49649  0.37181  Biso   1.000  Zr
  Zr29     1.0000 0.96792  0.62777  0.00594  Biso   1.000  Zr
  Zr30     1.0000 0.02839  0.62475  0.26019  Biso   1.000  Zr
  Zr31     1.0000 0.96792  0.87238  0.24485  Biso   1.000  Zr
  Zr32     1.0000 0.02839  0.87540  0.99060  Biso   1.000  Zr
  Zr33     1.0000 0.53367  0.62777  0.24485  Biso   1.000  Zr
  Zr34     1.0000 0.47320  0.62475  0.99060  Biso   1.000  Zr
  Zr35     1.0000 0.53367  0.87238  0.00594  Biso   1.000  Zr
  Zr36     1.0000 0.47320  0.87540  0.26019  Biso   1.000  Zr
  Zr37     1.0000 0.25079  0.50428  0.62540  Biso   1.000  Zr
  Zr38     1.0000 0.25079  0.75008  0.87119  Biso   1.000  Zr
  Zr39     1.0000 0.75079  0.75008  0.62540  Biso   1.000  Zr
  Zr40     1.0000 0.74932  0.49649  0.87898  Biso   1.000  Zr
  Zr41     1.0000 0.96449  0.63030  0.50564  Biso   1.000  Zr
  Zr42     1.0000 0.03847  0.61689  0.75860  Biso   1.000  Zr
  Zr43     1.0000 0.96449  0.86985  0.74515  Biso   1.000  Zr
  Zr44     1.0000 0.03847  0.88326  0.49220  Biso   1.000  Zr
  Zr45     1.0000 0.53709  0.63030  0.74515  Biso   1.000  Zr
  Zr46     1.0000 0.46312  0.61689  0.49220  Biso   1.000  Zr
  Zr47     1.0000 0.53709  0.86985  0.50564  Biso   1.000  Zr
  Zr48     1.0000 0.46312  0.88326  0.75859  Biso   1.000  Zr
  Hf1      1.0000 0.25079  0.25007  0.12540  Biso   1.000  Hf
