data_image0
_cell_length_a       10.1387
_cell_length_b       10.1387
_cell_length_c       5.13582
_cell_angle_alpha    90
_cell_angle_beta     90.0001
_cell_angle_gamma    90

_symmetry_space_group_name_H-M    "P 1"
_symmetry_int_tables_number       1

loop_
  _symmetry_equiv_pos_as_xyz
  'x, y, z'

loop_
  _atom_site_label
  _atom_site_occupancy
  _atom_site_fract_x
  _atom_site_fract_y
  _atom_site_fract_z
  _atom_site_thermal_displace_type
  _atom_site_B_iso_or_equiv
  _atom_site_type_symbol
  Zr1      1.0000 0.12540  0.98176  0.25079  Biso   1.000  Zr
  Zr2      1.0000 0.12540  0.25008  0.75079  Biso   1.000  Zr
  Zr3      1.0000 0.39372  0.25008  0.25079  Biso   1.000  Zr
  Zr4      1.0000 0.37181  0.00366  0.74932  Biso   1.000  Zr
  Zr5      1.0000 0.00253  0.12718  0.98912  Biso   1.000  Zr
  Zr6      1.0000 0.99707  0.12177  0.48055  Biso   1.000  Zr
  Zr7      1.0000 0.00253  0.37297  0.51246  Biso   1.000  Zr
  Zr8      1.0000 0.99707  0.37838  0.02103  Biso   1.000  Zr
  Zr9      1.0000 0.24826  0.12718  0.51247  Biso   1.000  Zr
  Zr10     1.0000 0.25372  0.12177  0.02103  Biso   1.000  Zr
  Zr11     1.0000 0.24826  0.37297  0.98912  Biso   1.000  Zr
  Zr12     1.0000 0.25372  0.37838  0.48055  Biso   1.000  Zr
  Zr13     1.0000 0.12540  0.51839  0.25079  Biso   1.000  Zr
  Zr14     1.0000 0.12540  0.75007  0.75079  Biso   1.000  Zr
  Zr15     1.0000 0.37960  0.75007  0.25079  Biso   1.000  Zr
  Zr16     1.0000 0.37181  0.49649  0.75226  Biso   1.000  Zr
  Zr17     1.0000 0.00594  0.62777  0.96792  Biso   1.000  Zr
  Zr18     1.0000 0.99060  0.62475  0.47319  Biso   1.000  Zr
  Zr19     1.0000 0.00594  0.87238  0.53367  Biso   1.000  Zr
  Zr20     1.0000 0.99060  0.87540  0.02839  Biso   1.000  Zr
  Zr21     1.0000 0.24485  0.62777  0.53367  Biso   1.000  Zr
  Zr22     1.0000 0.26019  0.62475  0.02839  Biso   1.000  Zr
  Zr23     1.0000 0.24485  0.87238  0.96792  Biso   1.000  Zr
  Zr24     1.0000 0.26019  0.87540  0.47320  Biso   1.000  Zr
  Zr25     1.0000 0.62540  0.99587  0.25079  Biso   1.000  Zr
  Zr26     1.0000 0.62540  0.25007  0.75079  Biso   1.000  Zr
  Zr27     1.0000 0.85708  0.25007  0.25079  Biso   1.000  Zr
  Zr28     1.0000 0.87898  0.00366  0.75226  Biso   1.000  Zr
  Zr29     1.0000 0.50311  0.13061  0.96790  Biso   1.000  Zr
  Zr30     1.0000 0.50006  0.11528  0.47318  Biso   1.000  Zr
  Zr31     1.0000 0.50311  0.36954  0.53368  Biso   1.000  Zr
  Zr32     1.0000 0.50006  0.38487  0.02840  Biso   1.000  Zr
  Zr33     1.0000 0.74768  0.13061  0.53368  Biso   1.000  Zr
  Zr34     1.0000 0.75073  0.11528  0.02840  Biso   1.000  Zr
  Zr35     1.0000 0.74768  0.36954  0.96790  Biso   1.000  Zr
  Zr36     1.0000 0.75073  0.38487  0.47318  Biso   1.000  Zr
  Zr37     1.0000 0.62540  0.50428  0.25079  Biso   1.000  Zr
  Zr38     1.0000 0.62539  0.75008  0.75079  Biso   1.000  Zr
  Zr39     1.0000 0.87119  0.75008  0.25079  Biso   1.000  Zr
  Zr40     1.0000 0.87898  0.49649  0.74932  Biso   1.000  Zr
  Zr41     1.0000 0.50564  0.63030  0.96449  Biso   1.000  Zr
  Zr42     1.0000 0.49220  0.61689  0.46311  Biso   1.000  Zr
  Zr43     1.0000 0.50564  0.86985  0.53709  Biso   1.000  Zr
  Zr44     1.0000 0.49220  0.88326  0.03847  Biso   1.000  Zr
  Zr45     1.0000 0.74515  0.63030  0.53710  Biso   1.000  Zr
  Zr46     1.0000 0.75859  0.61689  0.03847  Biso   1.000  Zr
  Zr47     1.0000 0.74515  0.86985  0.96449  Biso   1.000  Zr
  Zr48     1.0000 0.75859  0.88326  0.46311  Biso   1.000  Zr
  Hf1      1.0000 0.12540  0.25007  0.25079  Biso   1.000  Hf
