data_image0
_cell_length_a       10.1387
_cell_length_b       5.1358
_cell_length_c       10.1387
_cell_angle_alpha    90.0001
_cell_angle_beta     90
_cell_angle_gamma    90.0001

_symmetry_space_group_name_H-M    "P 1"
_symmetry_int_tables_number       1

loop_
  _symmetry_equiv_pos_as_xyz
  'x, y, z'

loop_
  _atom_site_label
  _atom_site_occupancy
  _atom_site_fract_x
  _atom_site_fract_y
  _atom_site_fract_z
  _atom_site_thermal_displace_type
  _atom_site_B_iso_or_equiv
  _atom_site_type_symbol
  Zr1      1.0000 0.12540  0.00015  0.12540  Biso   1.000  Zr
  Zr2      1.0000 0.12540  0.50015  0.39371  Biso   1.000  Zr
  Zr3      1.0000 0.39371  0.50015  0.12540  Biso   1.000  Zr
  Zr4      1.0000 0.37182  0.99868  0.37182  Biso   1.000  Zr
  Zr5      1.0000 0.99709  0.27039  0.99708  Biso   1.000  Zr
  Zr6      1.0000 0.00251  0.23849  0.24828  Biso   1.000  Zr
  Zr7      1.0000 0.99709  0.72991  0.25371  Biso   1.000  Zr
  Zr8      1.0000 0.00251  0.76181  0.00251  Biso   1.000  Zr
  Zr9      1.0000 0.25370  0.27039  0.25371  Biso   1.000  Zr
  Zr10     1.0000 0.24828  0.23849  0.00251  Biso   1.000  Zr
  Zr11     1.0000 0.25371  0.72991  0.99708  Biso   1.000  Zr
  Zr12     1.0000 0.24828  0.76181  0.24828  Biso   1.000  Zr
  Zr13     1.0000 0.12540  0.00015  0.62540  Biso   1.000  Zr
  Zr14     1.0000 0.12540  0.50015  0.85708  Biso   1.000  Zr
  Zr15     1.0000 0.37959  0.50015  0.62540  Biso   1.000  Zr
  Zr16     1.0000 0.37181  0.00162  0.87897  Biso   1.000  Zr
  Zr17     1.0000 0.99060  0.27774  0.50007  Biso   1.000  Zr
  Zr18     1.0000 0.00593  0.21728  0.74769  Biso   1.000  Zr
  Zr19     1.0000 0.99060  0.72256  0.75073  Biso   1.000  Zr
  Zr20     1.0000 0.00593  0.78302  0.50310  Biso   1.000  Zr
  Zr21     1.0000 0.26019  0.27774  0.75073  Biso   1.000  Zr
  Zr22     1.0000 0.24486  0.21728  0.50310  Biso   1.000  Zr
  Zr23     1.0000 0.26019  0.72256  0.50007  Biso   1.000  Zr
  Zr24     1.0000 0.24486  0.78302  0.74769  Biso   1.000  Zr
  Zr25     1.0000 0.62540  0.00015  0.12540  Biso   1.000  Zr
  Zr26     1.0000 0.62540  0.50015  0.37959  Biso   1.000  Zr
  Zr27     1.0000 0.85708  0.50015  0.12540  Biso   1.000  Zr
  Zr28     1.0000 0.87898  0.00162  0.37181  Biso   1.000  Zr
  Zr29     1.0000 0.50007  0.27774  0.99060  Biso   1.000  Zr
  Zr30     1.0000 0.50310  0.21728  0.24485  Biso   1.000  Zr
  Zr31     1.0000 0.50007  0.72256  0.26019  Biso   1.000  Zr
  Zr32     1.0000 0.50310  0.78302  0.00594  Biso   1.000  Zr
  Zr33     1.0000 0.75072  0.27774  0.26019  Biso   1.000  Zr
  Zr34     1.0000 0.74769  0.21728  0.00594  Biso   1.000  Zr
  Zr35     1.0000 0.75072  0.72256  0.99060  Biso   1.000  Zr
  Zr36     1.0000 0.74769  0.78302  0.24485  Biso   1.000  Zr
  Zr37     1.0000 0.62539  0.00015  0.62540  Biso   1.000  Zr
  Zr38     1.0000 0.62540  0.50015  0.87120  Biso   1.000  Zr
  Zr39     1.0000 0.87120  0.50015  0.62540  Biso   1.000  Zr
  Zr40     1.0000 0.87898  0.99868  0.87898  Biso   1.000  Zr
  Zr41     1.0000 0.49220  0.28784  0.49220  Biso   1.000  Zr
  Zr42     1.0000 0.50563  0.21384  0.74516  Biso   1.000  Zr
  Zr43     1.0000 0.49220  0.71246  0.75860  Biso   1.000  Zr
  Zr44     1.0000 0.50563  0.78646  0.50563  Biso   1.000  Zr
  Zr45     1.0000 0.75859  0.28784  0.75860  Biso   1.000  Zr
  Zr46     1.0000 0.74516  0.21384  0.50563  Biso   1.000  Zr
  Zr47     1.0000 0.75859  0.71246  0.49220  Biso   1.000  Zr
  Zr48     1.0000 0.74516  0.78646  0.74516  Biso   1.000  Zr
  Hf1      1.0000 0.12540  0.50015  0.12540  Biso   1.000  Hf
