data_image0
_cell_length_a       10.1344
_cell_length_b       10.5211
_cell_length_c       5.13425
_cell_angle_alpha    90.5266
_cell_angle_beta     90.4557
_cell_angle_gamma    95.6042

_symmetry_space_group_name_H-M    "P 1"
_symmetry_int_tables_number       1

loop_
  _symmetry_equiv_pos_as_xyz
  'x, y, z'

loop_
  _atom_site_label
  _atom_site_occupancy
  _atom_site_fract_x
  _atom_site_fract_y
  _atom_site_fract_z
  _atom_site_thermal_displace_type
  _atom_site_B_iso_or_equiv
  _atom_site_type_symbol
  Hf1      1.0000 0.15305  0.97058  0.12128  Biso   1.000  Hf
  Hf2      1.0000 0.10944  0.24800  0.82381  Biso   1.000  Hf
  Hf3      1.0000 0.35365  0.26167  0.25262  Biso   1.000  Hf
  Hf4      1.0000 0.36389  0.48212  0.75048  Biso   1.000  Hf
  Hf5      1.0000 0.92587  0.21324  0.62088  Biso   1.000  Hf
  Hf6      1.0000 0.03995  0.05432  0.84414  Biso   1.000  Hf
  Hf7      1.0000 0.46152  0.42920  0.41705  Biso   1.000  Hf
  Hf8      1.0000 0.47237  0.32877  0.94172  Biso   1.000  Hf
  Hf9      1.0000 0.25082  0.08904  0.41144  Biso   1.000  Hf
  Hf10     1.0000 0.27207  0.13597  0.93495  Biso   1.000  Hf
  Hf11     1.0000 0.23586  0.39387  0.03965  Biso   1.000  Hf
  Hf12     1.0000 0.23710  0.33466  0.55823  Biso   1.000  Hf
  Hf13     1.0000 0.10868  0.51843  0.21252  Biso   1.000  Hf
  Hf14     1.0000 0.16022  0.72931  0.71464  Biso   1.000  Hf
  Hf15     1.0000 0.39109  0.75823  0.22999  Biso   1.000  Hf
  Hf16     1.0000 0.37438  0.01402  0.65404  Biso   1.000  Hf
  Hf17     1.0000 0.03329  0.68052  0.39677  Biso   1.000  Hf
  Hf18     1.0000 0.03330  0.58516  0.88292  Biso   1.000  Hf
  Hf19     1.0000 0.49231  0.92338  0.41455  Biso   1.000  Hf
  Hf20     1.0000 0.53608  0.82201  0.97441  Biso   1.000  Hf
  Hf21     1.0000 0.26124  0.59464  0.48348  Biso   1.000  Hf
  Hf22     1.0000 0.27864  0.63584  0.97587  Biso   1.000  Hf
  Hf23     1.0000 0.28851  0.87940  0.91702  Biso   1.000  Hf
  Hf24     1.0000 0.24801  0.84919  0.42344  Biso   1.000  Hf
  Hf25     1.0000 0.64271  0.98385  0.16748  Biso   1.000  Hf
  Hf26     1.0000 0.61540  0.23600  0.76927  Biso   1.000  Hf
  Hf27     1.0000 0.83136  0.28232  0.26988  Biso   1.000  Hf
  Hf28     1.0000 0.85969  0.49353  0.75506  Biso   1.000  Hf
  Hf29     1.0000 0.48117  0.18082  0.48656  Biso   1.000  Hf
  Hf30     1.0000 0.52153  0.07085  0.92509  Biso   1.000  Hf
  Hf31     1.0000 0.96106  0.43674  0.43809  Biso   1.000  Hf
  Hf32     1.0000 0.97341  0.36574  0.98293  Biso   1.000  Hf
  Hf33     1.0000 0.72031  0.11195  0.45970  Biso   1.000  Hf
  Hf34     1.0000 0.76244  0.14346  0.98170  Biso   1.000  Hf
  Hf35     1.0000 0.72701  0.39202  0.01395  Biso   1.000  Hf
  Hf36     1.0000 0.71052  0.37119  0.51447  Biso   1.000  Hf
  Hf37     1.0000 0.62081  0.51700  0.24851  Biso   1.000  Hf
  Hf38     1.0000 0.65537  0.73443  0.73559  Biso   1.000  Hf
  Hf39     1.0000 0.88949  0.77242  0.23389  Biso   1.000  Hf
  Hf40     1.0000 0.86152  0.01769  0.66842  Biso   1.000  Hf
  Hf41     1.0000 0.53171  0.67278  0.42458  Biso   1.000  Hf
  Hf42     1.0000 0.53496  0.57479  0.90923  Biso   1.000  Hf
  Hf43     1.0000 0.98330  0.94492  0.37718  Biso   1.000  Hf
  Hf44     1.0000 0.03512  0.81798  0.95490  Biso   1.000  Hf
  Hf45     1.0000 0.76968  0.61496  0.48684  Biso   1.000  Hf
  Hf46     1.0000 0.77989  0.64311  0.98431  Biso   1.000  Hf
  Hf47     1.0000 0.78110  0.89275  0.94733  Biso   1.000  Hf
  Hf48     1.0000 0.74664  0.86198  0.45347  Biso   1.000  Hf
  Hg1      1.0000 0.06165  0.18405  0.30898  Biso   1.000  Hg
