data_image0
_cell_length_a       10.0231
_cell_length_b       10.4457
_cell_length_c       5.06471
_cell_angle_alpha    90.1632
_cell_angle_beta     89.0092
_cell_angle_gamma    89.9293

_symmetry_space_group_name_H-M    "P 1"
_symmetry_int_tables_number       1

loop_
  _symmetry_equiv_pos_as_xyz
  'x, y, z'

loop_
  _atom_site_label
  _atom_site_occupancy
  _atom_site_fract_x
  _atom_site_fract_y
  _atom_site_fract_z
  _atom_site_thermal_displace_type
  _atom_site_B_iso_or_equiv
  _atom_site_type_symbol
  Hg1      1.0000 0.12056  0.02294  0.22395  Biso   1.000  Hg
  Zr1      1.0000 0.13585  0.23501  0.74826  Biso   1.000  Zr
  Zr2      1.0000 0.36785  0.26813  0.26462  Biso   1.000  Zr
  Zr3      1.0000 0.36565  0.48470  0.75793  Biso   1.000  Zr
  Zr4      1.0000 0.04538  0.19332  0.35324  Biso   1.000  Zr
  Zr5      1.0000 0.03362  0.07031  0.79867  Biso   1.000  Zr
  Zr6      1.0000 0.46512  0.43341  0.39743  Biso   1.000  Zr
  Zr7      1.0000 0.46315  0.31472  0.89079  Biso   1.000  Zr
  Zr8      1.0000 0.29192  0.13480  0.53509  Biso   1.000  Zr
  Zr9      1.0000 0.26305  0.12660  0.02264  Biso   1.000  Zr
  Zr10     1.0000 0.23142  0.38104  0.00388  Biso   1.000  Zr
  Zr11     1.0000 0.22771  0.37226  0.50250  Biso   1.000  Zr
  Zr12     1.0000 0.13481  0.51545  0.25489  Biso   1.000  Zr
  Zr13     1.0000 0.13321  0.73203  0.75704  Biso   1.000  Zr
  Zr14     1.0000 0.36667  0.76443  0.26481  Biso   1.000  Zr
  Zr15     1.0000 0.36337  0.98316  0.75404  Biso   1.000  Zr
  Zr16     1.0000 0.03497  0.68326  0.39331  Biso   1.000  Zr
  Zr17     1.0000 0.03303  0.56463  0.89621  Biso   1.000  Zr
  Zr18     1.0000 0.46896  0.93280  0.39869  Biso   1.000  Zr
  Zr19     1.0000 0.46269  0.81684  0.90266  Biso   1.000  Zr
  Zr20     1.0000 0.26884  0.61323  0.50280  Biso   1.000  Zr
  Zr21     1.0000 0.26885  0.63333  0.00448  Biso   1.000  Zr
  Zr22     1.0000 0.22421  0.88079  0.02740  Biso   1.000  Zr
  Zr23     1.0000 0.24349  0.85677  0.53313  Biso   1.000  Zr
  Zr24     1.0000 0.63396  0.01542  0.24683  Biso   1.000  Zr
  Zr25     1.0000 0.63242  0.23252  0.74802  Biso   1.000  Zr
  Zr26     1.0000 0.86062  0.26683  0.24122  Biso   1.000  Zr
  Zr27     1.0000 0.86597  0.48317  0.74894  Biso   1.000  Zr
  Zr28     1.0000 0.54287  0.18717  0.37880  Biso   1.000  Zr
  Zr29     1.0000 0.53508  0.06558  0.88811  Biso   1.000  Zr
  Zr30     1.0000 0.96486  0.42835  0.38780  Biso   1.000  Zr
  Zr31     1.0000 0.96210  0.31715  0.88068  Biso   1.000  Zr
  Zr32     1.0000 0.77137  0.11760  0.48980  Biso   1.000  Zr
  Zr33     1.0000 0.77102  0.13169  0.98960  Biso   1.000  Zr
  Zr34     1.0000 0.72885  0.38187  0.99877  Biso   1.000  Zr
  Zr35     1.0000 0.72915  0.36814  0.49869  Biso   1.000  Zr
  Zr36     1.0000 0.63378  0.51617  0.25519  Biso   1.000  Zr
  Zr37     1.0000 0.63236  0.73469  0.75451  Biso   1.000  Zr
  Zr38     1.0000 0.86745  0.76149  0.24032  Biso   1.000  Zr
  Zr39     1.0000 0.86396  0.98350  0.74194  Biso   1.000  Zr
  Zr40     1.0000 0.53522  0.68247  0.40109  Biso   1.000  Zr
  Zr41     1.0000 0.53412  0.56680  0.89828  Biso   1.000  Zr
  Zr42     1.0000 0.95743  0.93550  0.36486  Biso   1.000  Zr
  Zr43     1.0000 0.96288  0.81656  0.88191  Biso   1.000  Zr
  Zr44     1.0000 0.76978  0.61555  0.49601  Biso   1.000  Zr
  Zr45     1.0000 0.76770  0.63164  0.99553  Biso   1.000  Zr
  Zr46     1.0000 0.72717  0.87992  0.99610  Biso   1.000  Zr
  Zr47     1.0000 0.73573  0.86538  0.49324  Biso   1.000  Zr
