data_image0
_cell_length_a       10.3347
_cell_length_b       10.5383
_cell_length_c       5.11196
_cell_angle_alpha    96.2605
_cell_angle_beta     90.4551
_cell_angle_gamma    89.4378

_symmetry_space_group_name_H-M    "P 1"
_symmetry_int_tables_number       1

loop_
  _symmetry_equiv_pos_as_xyz
  'x, y, z'

loop_
  _atom_site_label
  _atom_site_occupancy
  _atom_site_fract_x
  _atom_site_fract_y
  _atom_site_fract_z
  _atom_site_thermal_displace_type
  _atom_site_B_iso_or_equiv
  _atom_site_type_symbol
  Zr1      1.0000 0.15829  0.97433  0.30132  Biso   1.000  Zr
  Zr2      1.0000 0.11853  0.28143  0.64234  Biso   1.000  Zr
  Zr3      1.0000 0.35736  0.22697  0.22090  Biso   1.000  Zr
  Zr4      1.0000 0.40605  0.01254  0.72591  Biso   1.000  Zr
  Zr5      1.0000 0.92060  0.22275  0.88353  Biso   1.000  Zr
  Zr6      1.0000 0.00630  0.11210  0.47320  Biso   1.000  Zr
  Zr7      1.0000 0.97901  0.37873  0.41635  Biso   1.000  Zr
  Zr8      1.0000 0.04748  0.43765  0.89819  Biso   1.000  Zr
  Zr9      1.0000 0.25712  0.13025  0.54296  Biso   1.000  Zr
  Zr10     1.0000 0.30389  0.04094  0.06669  Biso   1.000  Zr
  Zr11     1.0000 0.28639  0.32884  0.89066  Biso   1.000  Zr
  Zr12     1.0000 0.23591  0.39346  0.43290  Biso   1.000  Zr
  Zr13     1.0000 0.11489  0.52312  0.24622  Biso   1.000  Zr
  Zr14     1.0000 0.10995  0.77115  0.77006  Biso   1.000  Zr
  Zr15     1.0000 0.36764  0.72762  0.31260  Biso   1.000  Zr
  Zr16     1.0000 0.35888  0.48874  0.73036  Biso   1.000  Zr
  Zr17     1.0000 0.00627  0.67376  0.03364  Biso   1.000  Zr
  Zr18     1.0000 0.99467  0.62351  0.52441  Biso   1.000  Zr
  Zr19     1.0000 0.00629  0.86398  0.48403  Biso   1.000  Zr
  Zr20     1.0000 0.03167  0.94579  0.96841  Biso   1.000  Zr
  Zr21     1.0000 0.23882  0.63850  0.55875  Biso   1.000  Zr
  Zr22     1.0000 0.27932  0.57393  0.07103  Biso   1.000  Zr
  Zr23     1.0000 0.23338  0.81054  0.08596  Biso   1.000  Zr
  Zr24     1.0000 0.26172  0.88082  0.57797  Biso   1.000  Zr
  Zr25     1.0000 0.64802  0.98108  0.28269  Biso   1.000  Zr
  Zr26     1.0000 0.59671  0.27031  0.70552  Biso   1.000  Zr
  Zr27     1.0000 0.83068  0.24515  0.26440  Biso   1.000  Zr
  Zr28     1.0000 0.89116  0.02450  0.73436  Biso   1.000  Zr
  Zr29     1.0000 0.49014  0.17318  0.94094  Biso   1.000  Zr
  Zr30     1.0000 0.50380  0.11119  0.44561  Biso   1.000  Zr
  Zr31     1.0000 0.48396  0.35951  0.43532  Biso   1.000  Zr
  Zr32     1.0000 0.51745  0.43537  0.92363  Biso   1.000  Zr
  Zr33     1.0000 0.74128  0.13994  0.53795  Biso   1.000  Zr
  Zr34     1.0000 0.77811  0.06523  0.06364  Biso   1.000  Zr
  Zr35     1.0000 0.69711  0.32063  0.06449  Biso   1.000  Zr
  Zr36     1.0000 0.73781  0.39524  0.54423  Biso   1.000  Zr
  Zr37     1.0000 0.61694  0.49930  0.25231  Biso   1.000  Zr
  Zr38     1.0000 0.60756  0.75736  0.77688  Biso   1.000  Zr
  Zr39     1.0000 0.86034  0.73768  0.30687  Biso   1.000  Zr
  Zr40     1.0000 0.87986  0.51059  0.73493  Biso   1.000  Zr
  Zr41     1.0000 0.52425  0.67067  0.06994  Biso   1.000  Zr
  Zr42     1.0000 0.49085  0.60839  0.53863  Biso   1.000  Zr
  Zr43     1.0000 0.50779  0.85875  0.48775  Biso   1.000  Zr
  Zr44     1.0000 0.52991  0.92265  0.97005  Biso   1.000  Zr
  Zr45     1.0000 0.74652  0.64309  0.56000  Biso   1.000  Zr
  Zr46     1.0000 0.78474  0.55912  0.07796  Biso   1.000  Zr
  Zr47     1.0000 0.74577  0.81623  0.05656  Biso   1.000  Zr
  Zr48     1.0000 0.75930  0.89199  0.55438  Biso   1.000  Zr
  Hg1      1.0000 0.09647  0.19652  0.10220  Biso   1.000  Hg
