data_image0
_cell_length_a       10.3877
_cell_length_b       5.38352
_cell_length_c       10.3089
_cell_angle_alpha    100.157
_cell_angle_beta     86.2825
_cell_angle_gamma    95.267

_symmetry_space_group_name_H-M    "P 1"
_symmetry_int_tables_number       1

loop_
  _symmetry_equiv_pos_as_xyz
  'x, y, z'

loop_
  _atom_site_label
  _atom_site_occupancy
  _atom_site_fract_x
  _atom_site_fract_y
  _atom_site_fract_z
  _atom_site_thermal_displace_type
  _atom_site_B_iso_or_equiv
  _atom_site_type_symbol
  Zr1      1.0000 0.14488  0.81267  0.14378  Biso   1.000  Zr
  Zr2      1.0000 0.11576  0.47958  0.37514  Biso   1.000  Zr
  Zr3      1.0000 0.36014  0.45898  0.14548  Biso   1.000  Zr
  Zr4      1.0000 0.39843  0.04700  0.36586  Biso   1.000  Zr
  Zr5      1.0000 0.95498  0.38123  0.96788  Biso   1.000  Zr
  Zr6      1.0000 0.02900  0.12035  0.26164  Biso   1.000  Zr
  Zr7      1.0000 0.97904  0.64548  0.25173  Biso   1.000  Zr
  Zr8      1.0000 0.02212  0.89445  0.99575  Biso   1.000  Zr
  Zr9      1.0000 0.27462  0.29069  0.30589  Biso   1.000  Zr
  Zr10     1.0000 0.27876  0.10298  0.04506  Biso   1.000  Zr
  Zr11     1.0000 0.27184  0.63340  0.00587  Biso   1.000  Zr
  Zr12     1.0000 0.25562  0.76534  0.29328  Biso   1.000  Zr
  Zr13     1.0000 0.14630  0.94620  0.64875  Biso   1.000  Zr
  Zr14     1.0000 0.11148  0.52512  0.85184  Biso   1.000  Zr
  Zr15     1.0000 0.35537  0.46534  0.63776  Biso   1.000  Zr
  Zr16     1.0000 0.39930  0.03123  0.87670  Biso   1.000  Zr
  Zr17     1.0000 0.99175  0.30390  0.49938  Biso   1.000  Zr
  Zr18     1.0000 0.01120  0.17727  0.74945  Biso   1.000  Zr
  Zr19     1.0000 0.99018  0.69141  0.74778  Biso   1.000  Zr
  Zr20     1.0000 0.00660  0.79549  0.50486  Biso   1.000  Zr
  Zr21     1.0000 0.24964  0.27812  0.77812  Biso   1.000  Zr
  Zr22     1.0000 0.27848  0.11124  0.53392  Biso   1.000  Zr
  Zr23     1.0000 0.22234  0.60349  0.54068  Biso   1.000  Zr
  Zr24     1.0000 0.24973  0.78509  0.77587  Biso   1.000  Zr
  Zr25     1.0000 0.64244  0.01377  0.13311  Biso   1.000  Zr
  Zr26     1.0000 0.60178  0.57495  0.35777  Biso   1.000  Zr
  Zr27     1.0000 0.82787  0.53436  0.11487  Biso   1.000  Zr
  Zr28     1.0000 0.89829  0.97281  0.39455  Biso   1.000  Zr
  Zr29     1.0000 0.48730  0.37665  0.97814  Biso   1.000  Zr
  Zr30     1.0000 0.50219  0.24690  0.22707  Biso   1.000  Zr
  Zr31     1.0000 0.50235  0.74632  0.22820  Biso   1.000  Zr
  Zr32     1.0000 0.52640  0.88518  0.97345  Biso   1.000  Zr
  Zr33     1.0000 0.73679  0.34330  0.24811  Biso   1.000  Zr
  Zr34     1.0000 0.74578  0.19853  0.00267  Biso   1.000  Zr
  Zr35     1.0000 0.74608  0.71968  0.99116  Biso   1.000  Zr
  Zr36     1.0000 0.75164  0.83908  0.25077  Biso   1.000  Zr
  Zr37     1.0000 0.64265  0.01660  0.63100  Biso   1.000  Zr
  Zr38     1.0000 0.60142  0.56214  0.85310  Biso   1.000  Zr
  Zr39     1.0000 0.85398  0.51906  0.60529  Biso   1.000  Zr
  Zr40     1.0000 0.88527  0.00751  0.87582  Biso   1.000  Zr
  Zr41     1.0000 0.48680  0.38888  0.48064  Biso   1.000  Zr
  Zr42     1.0000 0.49748  0.23286  0.73093  Biso   1.000  Zr
  Zr43     1.0000 0.49769  0.73513  0.72976  Biso   1.000  Zr
  Zr44     1.0000 0.52459  0.89255  0.47546  Biso   1.000  Zr
  Zr45     1.0000 0.74201  0.34555  0.74373  Biso   1.000  Zr
  Zr46     1.0000 0.75844  0.18911  0.50074  Biso   1.000  Zr
  Zr47     1.0000 0.75031  0.70313  0.49119  Biso   1.000  Zr
  Zr48     1.0000 0.75041  0.83236  0.74410  Biso   1.000  Zr
  In1      1.0000 0.09596  0.28336  0.08908  Biso   1.000  In
