data_image0
_cell_length_a       10.1156
_cell_length_b       5.13591
_cell_length_c       10.1155
_cell_angle_alpha    89.9999
_cell_angle_beta     90
_cell_angle_gamma    90.0019

_symmetry_space_group_name_H-M    "P 1"
_symmetry_int_tables_number       1

loop_
  _symmetry_equiv_pos_as_xyz
  'x, y, z'

loop_
  _atom_site_label
  _atom_site_occupancy
  _atom_site_fract_x
  _atom_site_fract_y
  _atom_site_fract_z
  _atom_site_thermal_displace_type
  _atom_site_B_iso_or_equiv
  _atom_site_type_symbol
  Hf1      1.0000 0.12491  0.00011  0.12492  Biso   1.000  Hf
  Hf2      1.0000 0.12491  0.50011  0.39428  Biso   1.000  Hf
  Hf3      1.0000 0.39428  0.50010  0.12490  Biso   1.000  Hf
  Hf4      1.0000 0.37320  0.00795  0.37320  Biso   1.000  Hf
  Hf5      1.0000 0.98028  0.30920  0.98028  Biso   1.000  Hf
  Hf6      1.0000 0.00172  0.19107  0.24813  Biso   1.000  Hf
  Hf7      1.0000 0.98027  0.69101  0.26954  Biso   1.000  Hf
  Hf8      1.0000 0.00169  0.80914  0.00171  Biso   1.000  Hf
  Hf9      1.0000 0.26955  0.30921  0.26954  Biso   1.000  Hf
  Hf10     1.0000 0.24813  0.19107  0.00171  Biso   1.000  Hf
  Hf11     1.0000 0.26954  0.69101  0.98028  Biso   1.000  Hf
  Hf12     1.0000 0.24810  0.80915  0.24813  Biso   1.000  Hf
  Hf13     1.0000 0.12491  0.00011  0.62491  Biso   1.000  Hf
  Hf14     1.0000 0.12491  0.50011  0.85553  Biso   1.000  Hf
  Hf15     1.0000 0.37858  0.50011  0.62490  Biso   1.000  Hf
  Hf16     1.0000 0.37320  0.99226  0.87662  Biso   1.000  Hf
  Hf17     1.0000 0.99111  0.28623  0.49716  Biso   1.000  Hf
  Hf18     1.0000 0.00542  0.21158  0.74391  Biso   1.000  Hf
  Hf19     1.0000 0.99110  0.71398  0.75267  Biso   1.000  Hf
  Hf20     1.0000 0.00541  0.78863  0.50592  Biso   1.000  Hf
  Hf21     1.0000 0.25871  0.28623  0.75267  Biso   1.000  Hf
  Hf22     1.0000 0.24441  0.21159  0.50592  Biso   1.000  Hf
  Hf23     1.0000 0.25871  0.71399  0.49716  Biso   1.000  Hf
  Hf24     1.0000 0.24440  0.78864  0.74390  Biso   1.000  Hf
  Hf25     1.0000 0.62491  0.00011  0.12491  Biso   1.000  Hf
  Hf26     1.0000 0.62491  0.50011  0.37857  Biso   1.000  Hf
  Hf27     1.0000 0.85553  0.50012  0.12490  Biso   1.000  Hf
  Hf28     1.0000 0.87662  0.99227  0.37320  Biso   1.000  Hf
  Hf29     1.0000 0.49716  0.28623  0.99111  Biso   1.000  Hf
  Hf30     1.0000 0.50592  0.21158  0.24441  Biso   1.000  Hf
  Hf31     1.0000 0.49715  0.71398  0.25871  Biso   1.000  Hf
  Hf32     1.0000 0.50592  0.78863  0.00541  Biso   1.000  Hf
  Hf33     1.0000 0.75267  0.28623  0.25871  Biso   1.000  Hf
  Hf34     1.0000 0.74390  0.21158  0.00541  Biso   1.000  Hf
  Hf35     1.0000 0.75266  0.71398  0.99111  Biso   1.000  Hf
  Hf36     1.0000 0.74390  0.78863  0.24441  Biso   1.000  Hf
  Hf37     1.0000 0.62491  0.00011  0.62491  Biso   1.000  Hf
  Hf38     1.0000 0.62491  0.50011  0.87122  Biso   1.000  Hf
  Hf39     1.0000 0.87124  0.50011  0.62490  Biso   1.000  Hf
  Hf40     1.0000 0.87662  0.00795  0.87662  Biso   1.000  Hf
  Hf41     1.0000 0.49314  0.29676  0.49314  Biso   1.000  Hf
  Hf42     1.0000 0.50466  0.20624  0.74516  Biso   1.000  Hf
  Hf43     1.0000 0.49313  0.70346  0.75668  Biso   1.000  Hf
  Hf44     1.0000 0.50466  0.79398  0.50466  Biso   1.000  Hf
  Hf45     1.0000 0.75668  0.29676  0.75668  Biso   1.000  Hf
  Hf46     1.0000 0.74516  0.20624  0.50466  Biso   1.000  Hf
  Hf47     1.0000 0.75668  0.70346  0.49313  Biso   1.000  Hf
  Hf48     1.0000 0.74515  0.79397  0.74516  Biso   1.000  Hf
  K1       1.0000 0.12491  0.50011  0.12491  Biso   1.000  K 
