data_image0
_cell_length_a       5.08874
_cell_length_b       10.2667
_cell_length_c       10.1104
_cell_angle_alpha    88.2879
_cell_angle_beta     88.9058
_cell_angle_gamma    89.4668

_symmetry_space_group_name_H-M    "P 1"
_symmetry_int_tables_number       1

loop_
  _symmetry_equiv_pos_as_xyz
  'x, y, z'

loop_
  _atom_site_label
  _atom_site_occupancy
  _atom_site_fract_x
  _atom_site_fract_y
  _atom_site_fract_z
  _atom_site_thermal_displace_type
  _atom_site_B_iso_or_equiv
  _atom_site_type_symbol
  K1       1.0000 0.30883  0.99218  0.12000  Biso   1.000  K 
  Hf1      1.0000 0.23582  0.00548  0.62662  Biso   1.000  Hf
  Hf2      1.0000 0.20018  0.50513  0.13906  Biso   1.000  Hf
  Hf3      1.0000 0.24022  0.49488  0.61901  Biso   1.000  Hf
  Hf4      1.0000 0.25254  0.24033  0.35732  Biso   1.000  Hf
  Hf5      1.0000 0.30947  0.26281  0.87677  Biso   1.000  Hf
  Hf6      1.0000 0.27505  0.74249  0.37850  Biso   1.000  Hf
  Hf7      1.0000 0.30832  0.75785  0.86835  Biso   1.000  Hf
  Hf8      1.0000 0.81024  0.23317  0.09577  Biso   1.000  Hf
  Hf9      1.0000 0.74985  0.26344  0.63075  Biso   1.000  Hf
  Hf10     1.0000 0.78590  0.75787  0.15475  Biso   1.000  Hf
  Hf11     1.0000 0.74485  0.77198  0.61779  Biso   1.000  Hf
  Hf12     1.0000 0.76620  0.02520  0.36096  Biso   1.000  Hf
  Hf13     1.0000 0.80668  0.97449  0.88290  Biso   1.000  Hf
  Hf14     1.0000 0.70272  0.48311  0.36457  Biso   1.000  Hf
  Hf15     1.0000 0.77062  0.49908  0.88135  Biso   1.000  Hf
  Hf16     1.0000 0.04637  0.12694  0.96367  Biso   1.000  Hf
  Hf17     1.0000 0.93951  0.17400  0.47851  Biso   1.000  Hf
  Hf18     1.0000 0.87675  0.59890  0.04397  Biso   1.000  Hf
  Hf19     1.0000 0.04033  0.66284  0.54016  Biso   1.000  Hf
  Hf20     1.0000 0.02338  0.12429  0.23878  Biso   1.000  Hf
  Hf21     1.0000 0.91297  0.09543  0.72259  Biso   1.000  Hf
  Hf22     1.0000 0.99726  0.61435  0.28509  Biso   1.000  Hf
  Hf23     1.0000 0.11670  0.59469  0.79162  Biso   1.000  Hf
  Hf24     1.0000 0.93921  0.36597  0.24336  Biso   1.000  Hf
  Hf25     1.0000 0.00513  0.35628  0.75259  Biso   1.000  Hf
  Hf26     1.0000 0.02345  0.86246  0.27566  Biso   1.000  Hf
  Hf27     1.0000 0.02467  0.85251  0.75045  Biso   1.000  Hf
  Hf28     1.0000 0.06438  0.37433  0.99951  Biso   1.000  Hf
  Hf29     1.0000 0.95841  0.41747  0.50897  Biso   1.000  Hf
  Hf30     1.0000 0.04155  0.84402  0.00046  Biso   1.000  Hf
  Hf31     1.0000 0.92218  0.92691  0.51799  Biso   1.000  Hf
  Hf32     1.0000 0.54755  0.16036  0.23785  Biso   1.000  Hf
  Hf33     1.0000 0.41306  0.16728  0.70651  Biso   1.000  Hf
  Hf34     1.0000 0.48852  0.63382  0.23773  Biso   1.000  Hf
  Hf35     1.0000 0.62831  0.65867  0.77108  Biso   1.000  Hf
  Hf36     1.0000 0.57361  0.12166  0.96016  Biso   1.000  Hf
  Hf37     1.0000 0.42663  0.08344  0.46292  Biso   1.000  Hf
  Hf38     1.0000 0.39594  0.59067  0.97986  Biso   1.000  Hf
  Hf39     1.0000 0.52390  0.60564  0.50139  Biso   1.000  Hf
  Hf40     1.0000 0.56504  0.35940  0.99706  Biso   1.000  Hf
  Hf41     1.0000 0.46782  0.35090  0.50002  Biso   1.000  Hf
  Hf42     1.0000 0.57272  0.83709  0.99988  Biso   1.000  Hf
  Hf43     1.0000 0.41091  0.84188  0.53491  Biso   1.000  Hf
  Hf44     1.0000 0.42446  0.39604  0.26041  Biso   1.000  Hf
  Hf45     1.0000 0.51378  0.40669  0.74945  Biso   1.000  Hf
  Hf46     1.0000 0.55414  0.86851  0.28778  Biso   1.000  Hf
  Hf47     1.0000 0.50937  0.91074  0.75957  Biso   1.000  Hf
