data_image0
_cell_length_a       10.1699
_cell_length_b       10.4237
_cell_length_c       5.0813
_cell_angle_alpha    85.4789
_cell_angle_beta     89.6489
_cell_angle_gamma    90.3561

_symmetry_space_group_name_H-M    "P 1"
_symmetry_int_tables_number       1

loop_
  _symmetry_equiv_pos_as_xyz
  'x, y, z'

loop_
  _atom_site_label
  _atom_site_occupancy
  _atom_site_fract_x
  _atom_site_fract_y
  _atom_site_fract_z
  _atom_site_thermal_displace_type
  _atom_site_B_iso_or_equiv
  _atom_site_type_symbol
  Hf1      1.0000 0.10600  0.97074  0.23311  Biso   1.000  Hf
  Hf2      1.0000 0.10807  0.22744  0.62831  Biso   1.000  Hf
  Hf3      1.0000 0.37662  0.26841  0.18878  Biso   1.000  Hf
  Hf4      1.0000 0.39834  0.48586  0.69323  Biso   1.000  Hf
  Hf5      1.0000 0.97812  0.12690  0.39549  Biso   1.000  Hf
  Hf6      1.0000 0.03880  0.06651  0.88718  Biso   1.000  Hf
  Hf7      1.0000 0.50014  0.38899  0.41107  Biso   1.000  Hf
  Hf8      1.0000 0.50489  0.33315  0.91037  Biso   1.000  Hf
  Hf9      1.0000 0.23429  0.10806  0.40441  Biso   1.000  Hf
  Hf10     1.0000 0.28701  0.18157  0.86014  Biso   1.000  Hf
  Hf11     1.0000 0.27775  0.43348  0.00167  Biso   1.000  Hf
  Hf12     1.0000 0.25000  0.36582  0.47356  Biso   1.000  Hf
  Hf13     1.0000 0.15144  0.52666  0.25173  Biso   1.000  Hf
  Hf14     1.0000 0.10670  0.73092  0.74353  Biso   1.000  Hf
  Hf15     1.0000 0.36398  0.77176  0.27726  Biso   1.000  Hf
  Hf16     1.0000 0.35340  0.01654  0.70249  Biso   1.000  Hf
  Hf17     1.0000 0.00267  0.63542  0.45248  Biso   1.000  Hf
  Hf18     1.0000 0.02688  0.56018  0.93050  Biso   1.000  Hf
  Hf19     1.0000 0.48641  0.89203  0.51181  Biso   1.000  Hf
  Hf20     1.0000 0.52510  0.83053  0.04159  Biso   1.000  Hf
  Hf21     1.0000 0.25696  0.61673  0.53386  Biso   1.000  Hf
  Hf22     1.0000 0.24221  0.68132  0.03712  Biso   1.000  Hf
  Hf23     1.0000 0.27794  0.92732  0.03970  Biso   1.000  Hf
  Hf24     1.0000 0.23442  0.86172  0.52797  Biso   1.000  Hf
  Hf25     1.0000 0.61300  0.99063  0.21807  Biso   1.000  Hf
  Hf26     1.0000 0.60748  0.22920  0.66507  Biso   1.000  Hf
  Hf27     1.0000 0.83899  0.26385  0.19748  Biso   1.000  Hf
  Hf28     1.0000 0.89483  0.47845  0.68358  Biso   1.000  Hf
  Hf29     1.0000 0.48876  0.13737  0.40706  Biso   1.000  Hf
  Hf30     1.0000 0.51881  0.07384  0.90015  Biso   1.000  Hf
  Hf31     1.0000 0.99891  0.38857  0.38746  Biso   1.000  Hf
  Hf32     1.0000 0.95241  0.30292  0.84483  Biso   1.000  Hf
  Hf33     1.0000 0.73401  0.11091  0.44249  Biso   1.000  Hf
  Hf34     1.0000 0.74933  0.15997  0.92894  Biso   1.000  Hf
  Hf35     1.0000 0.76750  0.43048  0.00221  Biso   1.000  Hf
  Hf36     1.0000 0.74318  0.36393  0.48768  Biso   1.000  Hf
  Hf37     1.0000 0.64520  0.52087  0.23962  Biso   1.000  Hf
  Hf38     1.0000 0.60656  0.73890  0.74154  Biso   1.000  Hf
  Hf39     1.0000 0.85677  0.76435  0.28366  Biso   1.000  Hf
  Hf40     1.0000 0.86148  0.01248  0.70829  Biso   1.000  Hf
  Hf41     1.0000 0.50295  0.64087  0.45618  Biso   1.000  Hf
  Hf42     1.0000 0.51577  0.57932  0.94251  Biso   1.000  Hf
  Hf43     1.0000 0.98362  0.87920  0.52830  Biso   1.000  Hf
  Hf44     1.0000 0.01948  0.81833  0.04591  Biso   1.000  Hf
  Hf45     1.0000 0.75251  0.61263  0.52240  Biso   1.000  Hf
  Hf46     1.0000 0.74195  0.67865  0.02720  Biso   1.000  Hf
  Hf47     1.0000 0.78448  0.92580  0.04903  Biso   1.000  Hf
  Hf48     1.0000 0.73715  0.86444  0.53301  Biso   1.000  Hf
  K1       1.0000 0.11962  0.26060  0.11665  Biso   1.000  K 
