data_image0
_cell_length_a       5.02897
_cell_length_b       10.2972
_cell_length_c       10.1611
_cell_angle_alpha    90.0012
_cell_angle_beta     89.9992
_cell_angle_gamma    89.9998

_symmetry_space_group_name_H-M    "P 1"
_symmetry_int_tables_number       1

loop_
  _symmetry_equiv_pos_as_xyz
  'x, y, z'

loop_
  _atom_site_label
  _atom_site_occupancy
  _atom_site_fract_x
  _atom_site_fract_y
  _atom_site_fract_z
  _atom_site_thermal_displace_type
  _atom_site_B_iso_or_equiv
  _atom_site_type_symbol
  K1       1.0000 0.25182  0.00020  0.12570  Biso   1.000  K 
  Zr1      1.0000 0.25183  0.00021  0.62570  Biso   1.000  Zr
  Zr2      1.0000 0.25182  0.50020  0.12570  Biso   1.000  Zr
  Zr3      1.0000 0.25183  0.50021  0.62570  Biso   1.000  Zr
  Zr4      1.0000 0.24928  0.25401  0.37708  Biso   1.000  Zr
  Zr5      1.0000 0.25434  0.25401  0.87433  Biso   1.000  Zr
  Zr6      1.0000 0.25437  0.74640  0.37707  Biso   1.000  Zr
  Zr7      1.0000 0.24927  0.74640  0.87432  Biso   1.000  Zr
  Zr8      1.0000 0.75180  0.25494  0.12570  Biso   1.000  Zr
  Zr9      1.0000 0.75180  0.24851  0.62570  Biso   1.000  Zr
  Zr10     1.0000 0.75183  0.74547  0.12570  Biso   1.000  Zr
  Zr11     1.0000 0.75182  0.75191  0.62570  Biso   1.000  Zr
  Zr12     1.0000 0.75182  0.00020  0.37606  Biso   1.000  Zr
  Zr13     1.0000 0.75182  0.00020  0.87534  Biso   1.000  Zr
  Zr14     1.0000 0.75183  0.50021  0.37595  Biso   1.000  Zr
  Zr15     1.0000 0.75183  0.50020  0.87544  Biso   1.000  Zr
  Zr16     1.0000 0.99333  0.14980  0.99267  Biso   1.000  Zr
  Zr17     1.0000 0.01939  0.14728  0.50953  Biso   1.000  Zr
  Zr18     1.0000 0.01884  0.63701  0.00605  Biso   1.000  Zr
  Zr19     1.0000 0.00491  0.64476  0.50610  Biso   1.000  Zr
  Zr20     1.0000 0.97403  0.12765  0.26561  Biso   1.000  Zr
  Zr21     1.0000 0.99069  0.10373  0.75023  Biso   1.000  Zr
  Zr22     1.0000 0.98992  0.60700  0.25299  Biso   1.000  Zr
  Zr23     1.0000 0.00161  0.60433  0.75469  Biso   1.000  Zr
  Zr24     1.0000 0.01885  0.36340  0.24534  Biso   1.000  Zr
  Zr25     1.0000 0.00489  0.35567  0.74529  Biso   1.000  Zr
  Zr26     1.0000 0.99332  0.85060  0.25873  Biso   1.000  Zr
  Zr27     1.0000 0.01939  0.85314  0.74187  Biso   1.000  Zr
  Zr28     1.0000 0.98992  0.39341  0.99841  Biso   1.000  Zr
  Zr29     1.0000 0.00163  0.39609  0.49670  Biso   1.000  Zr
  Zr30     1.0000 0.97402  0.87276  0.98580  Biso   1.000  Zr
  Zr31     1.0000 0.99069  0.89670  0.50118  Biso   1.000  Zr
  Zr32     1.0000 0.51033  0.14981  0.25873  Biso   1.000  Zr
  Zr33     1.0000 0.48426  0.14727  0.74188  Biso   1.000  Zr
  Zr34     1.0000 0.48479  0.63702  0.24534  Biso   1.000  Zr
  Zr35     1.0000 0.49873  0.64475  0.74528  Biso   1.000  Zr
  Zr36     1.0000 0.52963  0.12764  0.98580  Biso   1.000  Zr
  Zr37     1.0000 0.51296  0.10373  0.50118  Biso   1.000  Zr
  Zr38     1.0000 0.51370  0.60699  0.99840  Biso   1.000  Zr
  Zr39     1.0000 0.50202  0.60433  0.49670  Biso   1.000  Zr
  Zr40     1.0000 0.48478  0.36338  0.00606  Biso   1.000  Zr
  Zr41     1.0000 0.49873  0.35566  0.50611  Biso   1.000  Zr
  Zr42     1.0000 0.51032  0.85059  0.99267  Biso   1.000  Zr
  Zr43     1.0000 0.48426  0.85314  0.50952  Biso   1.000  Zr
  Zr44     1.0000 0.51371  0.39342  0.25299  Biso   1.000  Zr
  Zr45     1.0000 0.50200  0.39609  0.75470  Biso   1.000  Zr
  Zr46     1.0000 0.52962  0.87277  0.26560  Biso   1.000  Zr
  Zr47     1.0000 0.51296  0.89669  0.75022  Biso   1.000  Zr
