data_image0
_cell_length_a       10.1634
_cell_length_b       10.3715
_cell_length_c       5.09239
_cell_angle_alpha    90.0001
_cell_angle_beta     90.0002
_cell_angle_gamma    90.0002

_symmetry_space_group_name_H-M    "P 1"
_symmetry_int_tables_number       1

loop_
  _symmetry_equiv_pos_as_xyz
  'x, y, z'

loop_
  _atom_site_label
  _atom_site_occupancy
  _atom_site_fract_x
  _atom_site_fract_y
  _atom_site_fract_z
  _atom_site_thermal_displace_type
  _atom_site_B_iso_or_equiv
  _atom_site_type_symbol
  Zr1      1.0000 0.12540  0.97405  0.25080  Biso   1.000  Zr
  Zr2      1.0000 0.12539  0.25008  0.75078  Biso   1.000  Zr
  Zr3      1.0000 0.39399  0.25008  0.25079  Biso   1.000  Zr
  Zr4      1.0000 0.37393  0.00705  0.75300  Biso   1.000  Zr
  Zr5      1.0000 0.97796  0.15349  0.96318  Biso   1.000  Zr
  Zr6      1.0000 0.00579  0.09201  0.48384  Biso   1.000  Zr
  Zr7      1.0000 0.97797  0.34667  0.53837  Biso   1.000  Zr
  Zr8      1.0000 0.00580  0.40815  0.01772  Biso   1.000  Zr
  Zr9      1.0000 0.27282  0.15348  0.53838  Biso   1.000  Zr
  Zr10     1.0000 0.24500  0.09200  0.01772  Biso   1.000  Zr
  Zr11     1.0000 0.27283  0.34666  0.96318  Biso   1.000  Zr
  Zr12     1.0000 0.24500  0.40814  0.48384  Biso   1.000  Zr
  Zr13     1.0000 0.12539  0.52610  0.25080  Biso   1.000  Zr
  Zr14     1.0000 0.12540  0.75007  0.75080  Biso   1.000  Zr
  Zr15     1.0000 0.38340  0.75007  0.25079  Biso   1.000  Zr
  Zr16     1.0000 0.37393  0.49310  0.74858  Biso   1.000  Zr
  Zr17     1.0000 0.00174  0.65469  0.01314  Biso   1.000  Zr
  Zr18     1.0000 0.00067  0.60334  0.51664  Biso   1.000  Zr
  Zr19     1.0000 0.00174  0.84547  0.48847  Biso   1.000  Zr
  Zr20     1.0000 0.00067  0.89682  0.98496  Biso   1.000  Zr
  Zr21     1.0000 0.24905  0.65468  0.48846  Biso   1.000  Zr
  Zr22     1.0000 0.25012  0.60333  0.98496  Biso   1.000  Zr
  Zr23     1.0000 0.24905  0.84546  0.01314  Biso   1.000  Zr
  Zr24     1.0000 0.25012  0.89681  0.51664  Biso   1.000  Zr
  Zr25     1.0000 0.62540  0.99423  0.25079  Biso   1.000  Zr
  Zr26     1.0000 0.62540  0.25008  0.75079  Biso   1.000  Zr
  Zr27     1.0000 0.85680  0.25007  0.25079  Biso   1.000  Zr
  Zr28     1.0000 0.87686  0.00705  0.74858  Biso   1.000  Zr
  Zr29     1.0000 0.49701  0.14497  0.98395  Biso   1.000  Zr
  Zr30     1.0000 0.50797  0.10318  0.49167  Biso   1.000  Zr
  Zr31     1.0000 0.49702  0.35518  0.51763  Biso   1.000  Zr
  Zr32     1.0000 0.50797  0.39697  0.00992  Biso   1.000  Zr
  Zr33     1.0000 0.75378  0.14497  0.51763  Biso   1.000  Zr
  Zr34     1.0000 0.74282  0.10318  0.00992  Biso   1.000  Zr
  Zr35     1.0000 0.75378  0.35518  0.98396  Biso   1.000  Zr
  Zr36     1.0000 0.74282  0.39697  0.49166  Biso   1.000  Zr
  Zr37     1.0000 0.62540  0.50592  0.25079  Biso   1.000  Zr
  Zr38     1.0000 0.62539  0.75008  0.75079  Biso   1.000  Zr
  Zr39     1.0000 0.86740  0.75008  0.25080  Biso   1.000  Zr
  Zr40     1.0000 0.87686  0.49310  0.75300  Biso   1.000  Zr
  Zr41     1.0000 0.50113  0.64678  0.99499  Biso   1.000  Zr
  Zr42     1.0000 0.49878  0.60407  0.49363  Biso   1.000  Zr
  Zr43     1.0000 0.50113  0.85336  0.50659  Biso   1.000  Zr
  Zr44     1.0000 0.49878  0.89607  0.00796  Biso   1.000  Zr
  Zr45     1.0000 0.74966  0.64679  0.50659  Biso   1.000  Zr
  Zr46     1.0000 0.75201  0.60408  0.00796  Biso   1.000  Zr
  Zr47     1.0000 0.74966  0.85336  0.99499  Biso   1.000  Zr
  Zr48     1.0000 0.75201  0.89607  0.49363  Biso   1.000  Zr
  K1       1.0000 0.12540  0.25007  0.25078  Biso   1.000  K 
