data_image0
_cell_length_a       5.0642
_cell_length_b       10.2882
_cell_length_c       10.1424
_cell_angle_alpha    90.0056
_cell_angle_beta     90.0009
_cell_angle_gamma    89.9972

_symmetry_space_group_name_H-M    "P 1"
_symmetry_int_tables_number       1

loop_
  _symmetry_equiv_pos_as_xyz
  'x, y, z'

loop_
  _atom_site_label
  _atom_site_occupancy
  _atom_site_fract_x
  _atom_site_fract_y
  _atom_site_fract_z
  _atom_site_thermal_displace_type
  _atom_site_B_iso_or_equiv
  _atom_site_type_symbol
  La1      1.0000 0.25306  0.99985  0.12559  Biso   1.000  La
  Zr1      1.0000 0.25309  0.99985  0.62559  Biso   1.000  Zr
  Zr2      1.0000 0.25308  0.49984  0.12559  Biso   1.000  Zr
  Zr3      1.0000 0.25310  0.49985  0.62559  Biso   1.000  Zr
  Zr4      1.0000 0.24960  0.25236  0.37775  Biso   1.000  Zr
  Zr5      1.0000 0.25649  0.25235  0.87346  Biso   1.000  Zr
  Zr6      1.0000 0.25650  0.74734  0.37774  Biso   1.000  Zr
  Zr7      1.0000 0.24959  0.74734  0.87346  Biso   1.000  Zr
  Zr8      1.0000 0.75305  0.25558  0.12560  Biso   1.000  Zr
  Zr9      1.0000 0.75305  0.24980  0.62560  Biso   1.000  Zr
  Zr10     1.0000 0.75305  0.74411  0.12560  Biso   1.000  Zr
  Zr11     1.0000 0.75306  0.74990  0.62560  Biso   1.000  Zr
  Zr12     1.0000 0.75308  0.99984  0.38012  Biso   1.000  Zr
  Zr13     1.0000 0.75309  0.99986  0.87106  Biso   1.000  Zr
  Zr14     1.0000 0.75310  0.49985  0.37586  Biso   1.000  Zr
  Zr15     1.0000 0.75310  0.49985  0.87531  Biso   1.000  Zr
  Zr16     1.0000 0.00583  0.15227  0.99878  Biso   1.000  Zr
  Zr17     1.0000 0.01702  0.14750  0.50974  Biso   1.000  Zr
  Zr18     1.0000 0.01826  0.64205  0.00522  Biso   1.000  Zr
  Zr19     1.0000 0.00736  0.64558  0.50498  Biso   1.000  Zr
  Zr20     1.0000 0.97740  0.11746  0.26400  Biso   1.000  Zr
  Zr21     1.0000 0.99702  0.10317  0.75219  Biso   1.000  Zr
  Zr22     1.0000 0.99240  0.60283  0.25197  Biso   1.000  Zr
  Zr23     1.0000 0.00171  0.60313  0.75364  Biso   1.000  Zr
  Zr24     1.0000 0.01827  0.35764  0.24596  Biso   1.000  Zr
  Zr25     1.0000 0.00735  0.35412  0.74621  Biso   1.000  Zr
  Zr26     1.0000 0.00583  0.84743  0.25241  Biso   1.000  Zr
  Zr27     1.0000 0.01703  0.85220  0.74145  Biso   1.000  Zr
  Zr28     1.0000 0.99238  0.39687  0.99923  Biso   1.000  Zr
  Zr29     1.0000 0.00170  0.39656  0.49755  Biso   1.000  Zr
  Zr30     1.0000 0.97740  0.88223  0.98720  Biso   1.000  Zr
  Zr31     1.0000 0.99702  0.89653  0.49900  Biso   1.000  Zr
  Zr32     1.0000 0.50028  0.15228  0.25241  Biso   1.000  Zr
  Zr33     1.0000 0.48914  0.14750  0.74146  Biso   1.000  Zr
  Zr34     1.0000 0.48790  0.64205  0.24597  Biso   1.000  Zr
  Zr35     1.0000 0.49880  0.64557  0.74621  Biso   1.000  Zr
  Zr36     1.0000 0.52870  0.11745  0.98720  Biso   1.000  Zr
  Zr37     1.0000 0.50913  0.10317  0.49900  Biso   1.000  Zr
  Zr38     1.0000 0.51375  0.60280  0.99923  Biso   1.000  Zr
  Zr39     1.0000 0.50444  0.60313  0.49756  Biso   1.000  Zr
  Zr40     1.0000 0.48786  0.35763  0.00523  Biso   1.000  Zr
  Zr41     1.0000 0.49879  0.35412  0.50499  Biso   1.000  Zr
  Zr42     1.0000 0.50028  0.84741  0.99879  Biso   1.000  Zr
  Zr43     1.0000 0.48913  0.85220  0.50974  Biso   1.000  Zr
  Zr44     1.0000 0.51376  0.39687  0.25197  Biso   1.000  Zr
  Zr45     1.0000 0.50443  0.39656  0.75364  Biso   1.000  Zr
  Zr46     1.0000 0.52870  0.88223  0.26400  Biso   1.000  Zr
  Zr47     1.0000 0.50914  0.89652  0.75219  Biso   1.000  Zr
