data_image0
_cell_length_a       10.1155
_cell_length_b       5.12009
_cell_length_c       10.1155
_cell_angle_alpha    90
_cell_angle_beta     90.0001
_cell_angle_gamma    90

_symmetry_space_group_name_H-M    "P 1"
_symmetry_int_tables_number       1

loop_
  _symmetry_equiv_pos_as_xyz
  'x, y, z'

loop_
  _atom_site_label
  _atom_site_occupancy
  _atom_site_fract_x
  _atom_site_fract_y
  _atom_site_fract_z
  _atom_site_thermal_displace_type
  _atom_site_B_iso_or_equiv
  _atom_site_type_symbol
  Zr1      1.0000 0.12540  0.00014  0.12540  Biso   1.000  Zr
  Zr2      1.0000 0.12540  0.50015  0.38692  Biso   1.000  Zr
  Zr3      1.0000 0.38692  0.50015  0.12540  Biso   1.000  Zr
  Zr4      1.0000 0.37665  0.00014  0.37665  Biso   1.000  Zr
  Zr5      1.0000 0.01372  0.31482  0.01372  Biso   1.000  Zr
  Zr6      1.0000 0.99538  0.19558  0.25541  Biso   1.000  Zr
  Zr7      1.0000 0.01372  0.68546  0.23707  Biso   1.000  Zr
  Zr8      1.0000 0.99538  0.80471  0.99538  Biso   1.000  Zr
  Zr9      1.0000 0.23708  0.31482  0.23707  Biso   1.000  Zr
  Zr10     1.0000 0.25541  0.19558  0.99538  Biso   1.000  Zr
  Zr11     1.0000 0.23707  0.68546  0.01372  Biso   1.000  Zr
  Zr12     1.0000 0.25541  0.80471  0.25542  Biso   1.000  Zr
  Zr13     1.0000 0.12540  0.00015  0.62540  Biso   1.000  Zr
  Zr14     1.0000 0.12539  0.50015  0.86387  Biso   1.000  Zr
  Zr15     1.0000 0.37832  0.50015  0.62540  Biso   1.000  Zr
  Zr16     1.0000 0.37665  0.00017  0.87414  Biso   1.000  Zr
  Zr17     1.0000 0.00271  0.28556  0.50948  Biso   1.000  Zr
  Zr18     1.0000 0.00012  0.21420  0.75805  Biso   1.000  Zr
  Zr19     1.0000 0.00271  0.71474  0.74131  Biso   1.000  Zr
  Zr20     1.0000 0.00012  0.78610  0.49274  Biso   1.000  Zr
  Zr21     1.0000 0.24808  0.28556  0.74131  Biso   1.000  Zr
  Zr22     1.0000 0.25068  0.21420  0.49274  Biso   1.000  Zr
  Zr23     1.0000 0.24808  0.71475  0.50949  Biso   1.000  Zr
  Zr24     1.0000 0.25067  0.78610  0.75805  Biso   1.000  Zr
  Zr25     1.0000 0.62540  0.00015  0.12540  Biso   1.000  Zr
  Zr26     1.0000 0.62540  0.50015  0.37832  Biso   1.000  Zr
  Zr27     1.0000 0.86387  0.50015  0.12539  Biso   1.000  Zr
  Zr28     1.0000 0.87414  0.00017  0.37665  Biso   1.000  Zr
  Zr29     1.0000 0.50948  0.28556  0.00271  Biso   1.000  Zr
  Zr30     1.0000 0.49275  0.21421  0.25068  Biso   1.000  Zr
  Zr31     1.0000 0.50949  0.71474  0.24808  Biso   1.000  Zr
  Zr32     1.0000 0.49274  0.78610  0.00012  Biso   1.000  Zr
  Zr33     1.0000 0.74131  0.28556  0.24808  Biso   1.000  Zr
  Zr34     1.0000 0.75805  0.21420  0.00012  Biso   1.000  Zr
  Zr35     1.0000 0.74131  0.71475  0.00271  Biso   1.000  Zr
  Zr36     1.0000 0.75805  0.78610  0.25068  Biso   1.000  Zr
  Zr37     1.0000 0.62540  0.00015  0.62540  Biso   1.000  Zr
  Zr38     1.0000 0.62540  0.50015  0.87247  Biso   1.000  Zr
  Zr39     1.0000 0.87247  0.50015  0.62540  Biso   1.000  Zr
  Zr40     1.0000 0.87414  0.00014  0.87414  Biso   1.000  Zr
  Zr41     1.0000 0.50378  0.28895  0.50378  Biso   1.000  Zr
  Zr42     1.0000 0.49830  0.21179  0.75249  Biso   1.000  Zr
  Zr43     1.0000 0.50378  0.71135  0.74701  Biso   1.000  Zr
  Zr44     1.0000 0.49830  0.78851  0.49830  Biso   1.000  Zr
  Zr45     1.0000 0.74701  0.28895  0.74701  Biso   1.000  Zr
  Zr46     1.0000 0.75249  0.21179  0.49830  Biso   1.000  Zr
  Zr47     1.0000 0.74701  0.71136  0.50378  Biso   1.000  Zr
  Zr48     1.0000 0.75249  0.78852  0.75249  Biso   1.000  Zr
  Li1      1.0000 0.12540  0.50013  0.12540  Biso   1.000  Li
