data_image0
_cell_length_a       10.0486
_cell_length_b       5.2371
_cell_length_c       10.0926
_cell_angle_alpha    89.7078
_cell_angle_beta     90.2503
_cell_angle_gamma    90.0052

_symmetry_space_group_name_H-M    "P 1"
_symmetry_int_tables_number       1

loop_
  _symmetry_equiv_pos_as_xyz
  'x, y, z'

loop_
  _atom_site_label
  _atom_site_occupancy
  _atom_site_fract_x
  _atom_site_fract_y
  _atom_site_fract_z
  _atom_site_thermal_displace_type
  _atom_site_B_iso_or_equiv
  _atom_site_type_symbol
  Zr1      1.0000 0.13648  0.07042  0.12030  Biso   1.000  Zr
  Zr2      1.0000 0.13524  0.46851  0.38270  Biso   1.000  Zr
  Zr3      1.0000 0.36705  0.53279  0.12418  Biso   1.000  Zr
  Zr4      1.0000 0.36498  0.96692  0.37336  Biso   1.000  Zr
  Zr5      1.0000 0.02251  0.36604  0.20700  Biso   1.000  Zr
  Zr6      1.0000 0.03620  0.13170  0.44723  Biso   1.000  Zr
  Zr7      1.0000 0.46019  0.86958  0.19299  Biso   1.000  Zr
  Zr8      1.0000 0.46519  0.63235  0.44403  Biso   1.000  Zr
  Zr9      1.0000 0.27080  0.24610  0.25084  Biso   1.000  Zr
  Zr10     1.0000 0.27140  0.26225  0.49942  Biso   1.000  Zr
  Zr11     1.0000 0.23268  0.76392  0.49870  Biso   1.000  Zr
  Zr12     1.0000 0.22339  0.73517  0.24646  Biso   1.000  Zr
  Zr13     1.0000 0.13510  0.02565  0.62577  Biso   1.000  Zr
  Zr14     1.0000 0.13674  0.46396  0.86823  Biso   1.000  Zr
  Zr15     1.0000 0.37050  0.52801  0.62441  Biso   1.000  Zr
  Zr16     1.0000 0.36694  0.96053  0.87518  Biso   1.000  Zr
  Zr17     1.0000 0.03704  0.35979  0.69080  Biso   1.000  Zr
  Zr18     1.0000 0.03756  0.13649  0.94283  Biso   1.000  Zr
  Zr19     1.0000 0.46965  0.86066  0.69536  Biso   1.000  Zr
  Zr20     1.0000 0.46810  0.63093  0.94520  Biso   1.000  Zr
  Zr21     1.0000 0.27204  0.22759  0.74604  Biso   1.000  Zr
  Zr22     1.0000 0.28119  0.26010  0.99192  Biso   1.000  Zr
  Zr23     1.0000 0.22626  0.76184  0.00035  Biso   1.000  Zr
  Zr24     1.0000 0.23619  0.72989  0.74694  Biso   1.000  Zr
  Zr25     1.0000 0.63044  0.03005  0.12368  Biso   1.000  Zr
  Zr26     1.0000 0.63244  0.46245  0.37729  Biso   1.000  Zr
  Zr27     1.0000 0.85044  0.52683  0.12786  Biso   1.000  Zr
  Zr28     1.0000 0.87011  0.96704  0.37139  Biso   1.000  Zr
  Zr29     1.0000 0.53510  0.36481  0.19483  Biso   1.000  Zr
  Zr30     1.0000 0.53380  0.12938  0.44535  Biso   1.000  Zr
  Zr31     1.0000 0.96476  0.86431  0.19071  Biso   1.000  Zr
  Zr32     1.0000 0.96764  0.63748  0.44923  Biso   1.000  Zr
  Zr33     1.0000 0.76422  0.22921  0.25006  Biso   1.000  Zr
  Zr34     1.0000 0.77090  0.26372  0.49828  Biso   1.000  Zr
  Zr35     1.0000 0.73345  0.76454  0.49846  Biso   1.000  Zr
  Zr36     1.0000 0.72563  0.73482  0.25063  Biso   1.000  Zr
  Zr37     1.0000 0.63753  0.02494  0.62504  Biso   1.000  Zr
  Zr38     1.0000 0.63398  0.46127  0.87294  Biso   1.000  Zr
  Zr39     1.0000 0.86679  0.52735  0.62517  Biso   1.000  Zr
  Zr40     1.0000 0.86949  0.95796  0.87864  Biso   1.000  Zr
  Zr41     1.0000 0.53952  0.36254  0.69201  Biso   1.000  Zr
  Zr42     1.0000 0.53785  0.12811  0.94203  Biso   1.000  Zr
  Zr43     1.0000 0.97138  0.85367  0.70371  Biso   1.000  Zr
  Zr44     1.0000 0.97106  0.62571  0.95773  Biso   1.000  Zr
  Zr45     1.0000 0.77345  0.22510  0.74923  Biso   1.000  Zr
  Zr46     1.0000 0.77019  0.25859  0.99866  Biso   1.000  Zr
  Zr47     1.0000 0.72916  0.75884  0.99929  Biso   1.000  Zr
  Zr48     1.0000 0.73484  0.72736  0.74970  Biso   1.000  Zr
  Li1      1.0000 0.09635  0.62091  0.11561  Biso   1.000  Li
