data_image0
_cell_length_a       5.00203
_cell_length_b       10.1772
_cell_length_c       10.0681
_cell_angle_alpha    89.9998
_cell_angle_beta     89.9991
_cell_angle_gamma    90.0006

_symmetry_space_group_name_H-M    "P 1"
_symmetry_int_tables_number       1

loop_
  _symmetry_equiv_pos_as_xyz
  'x, y, z'

loop_
  _atom_site_label
  _atom_site_occupancy
  _atom_site_fract_x
  _atom_site_fract_y
  _atom_site_fract_z
  _atom_site_thermal_displace_type
  _atom_site_B_iso_or_equiv
  _atom_site_type_symbol
  Mg1      1.0000 0.25050  0.00000  0.12499  Biso   1.000  Mg
  Zr1      1.0000 0.25050  0.00001  0.62500  Biso   1.000  Zr
  Zr2      1.0000 0.25050  0.50001  0.12500  Biso   1.000  Zr
  Zr3      1.0000 0.25050  0.50001  0.62500  Biso   1.000  Zr
  Zr4      1.0000 0.24860  0.24841  0.37331  Biso   1.000  Zr
  Zr5      1.0000 0.25240  0.24841  0.87668  Biso   1.000  Zr
  Zr6      1.0000 0.25241  0.75162  0.37331  Biso   1.000  Zr
  Zr7      1.0000 0.24859  0.75162  0.87668  Biso   1.000  Zr
  Zr8      1.0000 0.75050  0.24708  0.12499  Biso   1.000  Zr
  Zr9      1.0000 0.75050  0.24958  0.62499  Biso   1.000  Zr
  Zr10     1.0000 0.75050  0.75294  0.12499  Biso   1.000  Zr
  Zr11     1.0000 0.75050  0.75045  0.62499  Biso   1.000  Zr
  Zr12     1.0000 0.75050  0.00001  0.36978  Biso   1.000  Zr
  Zr13     1.0000 0.75049  0.00001  0.88022  Biso   1.000  Zr
  Zr14     1.0000 0.75050  0.50001  0.37498  Biso   1.000  Zr
  Zr15     1.0000 0.75050  0.50001  0.87502  Biso   1.000  Zr
  Zr16     1.0000 0.99049  0.14054  0.99502  Biso   1.000  Zr
  Zr17     1.0000 0.99950  0.14212  0.49956  Biso   1.000  Zr
  Zr18     1.0000 0.99957  0.63840  0.99946  Biso   1.000  Zr
  Zr19     1.0000 0.99838  0.64198  0.49921  Biso   1.000  Zr
  Zr20     1.0000 0.00399  0.11354  0.24958  Biso   1.000  Zr
  Zr21     1.0000 0.00077  0.10778  0.74872  Biso   1.000  Zr
  Zr22     1.0000 0.00123  0.61025  0.24939  Biso   1.000  Zr
  Zr23     1.0000 0.00193  0.60785  0.74967  Biso   1.000  Zr
  Zr24     1.0000 0.99956  0.36163  0.25053  Biso   1.000  Zr
  Zr25     1.0000 0.99838  0.35805  0.75078  Biso   1.000  Zr
  Zr26     1.0000 0.99052  0.85948  0.25496  Biso   1.000  Zr
  Zr27     1.0000 0.99950  0.85790  0.75043  Biso   1.000  Zr
  Zr28     1.0000 0.00122  0.38978  0.00061  Biso   1.000  Zr
  Zr29     1.0000 0.00194  0.39217  0.50032  Biso   1.000  Zr
  Zr30     1.0000 0.00397  0.88648  0.00040  Biso   1.000  Zr
  Zr31     1.0000 0.00078  0.89224  0.50126  Biso   1.000  Zr
  Zr32     1.0000 0.51051  0.14054  0.25497  Biso   1.000  Zr
  Zr33     1.0000 0.50149  0.14213  0.75042  Biso   1.000  Zr
  Zr34     1.0000 0.50145  0.63840  0.25054  Biso   1.000  Zr
  Zr35     1.0000 0.50262  0.64198  0.75078  Biso   1.000  Zr
  Zr36     1.0000 0.49701  0.11354  0.00040  Biso   1.000  Zr
  Zr37     1.0000 0.50023  0.10779  0.50127  Biso   1.000  Zr
  Zr38     1.0000 0.49978  0.61025  0.00061  Biso   1.000  Zr
  Zr39     1.0000 0.49907  0.60786  0.50032  Biso   1.000  Zr
  Zr40     1.0000 0.50143  0.36162  0.99946  Biso   1.000  Zr
  Zr41     1.0000 0.50262  0.35805  0.49921  Biso   1.000  Zr
  Zr42     1.0000 0.51048  0.85948  0.99503  Biso   1.000  Zr
  Zr43     1.0000 0.50151  0.85790  0.49956  Biso   1.000  Zr
  Zr44     1.0000 0.49977  0.38977  0.24939  Biso   1.000  Zr
  Zr45     1.0000 0.49907  0.39217  0.74967  Biso   1.000  Zr
  Zr46     1.0000 0.49703  0.88648  0.24959  Biso   1.000  Zr
  Zr47     1.0000 0.50022  0.89224  0.74872  Biso   1.000  Zr
