data_image0
_cell_length_a       10.0729
_cell_length_b       10.3562
_cell_length_c       5.044
_cell_angle_alpha    90.1014
_cell_angle_beta     89.9117
_cell_angle_gamma    90.1506

_symmetry_space_group_name_H-M    "P 1"
_symmetry_int_tables_number       1

loop_
  _symmetry_equiv_pos_as_xyz
  'x, y, z'

loop_
  _atom_site_label
  _atom_site_occupancy
  _atom_site_fract_x
  _atom_site_fract_y
  _atom_site_fract_z
  _atom_site_thermal_displace_type
  _atom_site_B_iso_or_equiv
  _atom_site_type_symbol
  Mg1      1.0000 0.13187  0.01576  0.23890  Biso   1.000  Mg
  Zr1      1.0000 0.13570  0.51523  0.25148  Biso   1.000  Zr
  Zr2      1.0000 0.63231  0.01452  0.24295  Biso   1.000  Zr
  Zr3      1.0000 0.63366  0.51580  0.24998  Biso   1.000  Zr
  Zr4      1.0000 0.13459  0.22901  0.75133  Biso   1.000  Zr
  Zr5      1.0000 0.13773  0.73801  0.75607  Biso   1.000  Zr
  Zr6      1.0000 0.63272  0.23368  0.74669  Biso   1.000  Zr
  Zr7      1.0000 0.63423  0.73615  0.74804  Biso   1.000  Zr
  Zr8      1.0000 0.36267  0.26317  0.25272  Biso   1.000  Zr
  Zr9      1.0000 0.36349  0.76811  0.25355  Biso   1.000  Zr
  Zr10     1.0000 0.86563  0.26331  0.24784  Biso   1.000  Zr
  Zr11     1.0000 0.86751  0.76826  0.24780  Biso   1.000  Zr
  Zr12     1.0000 0.36505  0.48360  0.75127  Biso   1.000  Zr
  Zr13     1.0000 0.35865  0.98333  0.75359  Biso   1.000  Zr
  Zr14     1.0000 0.86526  0.48544  0.75088  Biso   1.000  Zr
  Zr15     1.0000 0.86997  0.98598  0.74069  Biso   1.000  Zr
  Zr16     1.0000 0.02777  0.18055  0.40513  Biso   1.000  Zr
  Zr17     1.0000 0.03408  0.68287  0.39244  Biso   1.000  Zr
  Zr18     1.0000 0.53531  0.18415  0.38430  Biso   1.000  Zr
  Zr19     1.0000 0.53372  0.68203  0.39297  Biso   1.000  Zr
  Zr20     1.0000 0.03070  0.07018  0.89258  Biso   1.000  Zr
  Zr21     1.0000 0.03391  0.56727  0.89442  Biso   1.000  Zr
  Zr22     1.0000 0.53346  0.06701  0.88629  Biso   1.000  Zr
  Zr23     1.0000 0.53417  0.56745  0.89052  Biso   1.000  Zr
  Zr24     1.0000 0.46535  0.43237  0.39212  Biso   1.000  Zr
  Zr25     1.0000 0.46770  0.93266  0.39614  Biso   1.000  Zr
  Zr26     1.0000 0.96654  0.43258  0.39258  Biso   1.000  Zr
  Zr27     1.0000 0.97035  0.92977  0.39408  Biso   1.000  Zr
  Zr28     1.0000 0.46543  0.31708  0.89012  Biso   1.000  Zr
  Zr29     1.0000 0.46833  0.81897  0.89826  Biso   1.000  Zr
  Zr30     1.0000 0.96703  0.31957  0.89509  Biso   1.000  Zr
  Zr31     1.0000 0.96484  0.81603  0.88632  Biso   1.000  Zr
  Zr32     1.0000 0.27290  0.12082  0.50183  Biso   1.000  Zr
  Zr33     1.0000 0.26875  0.61567  0.49876  Biso   1.000  Zr
  Zr34     1.0000 0.76669  0.11523  0.49042  Biso   1.000  Zr
  Zr35     1.0000 0.76991  0.61660  0.49441  Biso   1.000  Zr
  Zr36     1.0000 0.27169  0.13223  0.99664  Biso   1.000  Zr
  Zr37     1.0000 0.27079  0.63158  0.99890  Biso   1.000  Zr
  Zr38     1.0000 0.76844  0.13514  0.99019  Biso   1.000  Zr
  Zr39     1.0000 0.76831  0.63419  0.99480  Biso   1.000  Zr
  Zr40     1.0000 0.23064  0.38195  0.99807  Biso   1.000  Zr
  Zr41     1.0000 0.22942  0.88096  0.00583  Biso   1.000  Zr
  Zr42     1.0000 0.72996  0.38427  0.99406  Biso   1.000  Zr
  Zr43     1.0000 0.73305  0.88498  0.99015  Biso   1.000  Zr
  Zr44     1.0000 0.22863  0.36746  0.49748  Biso   1.000  Zr
  Zr45     1.0000 0.23658  0.86257  0.50849  Biso   1.000  Zr
  Zr46     1.0000 0.73152  0.36650  0.49463  Biso   1.000  Zr
  Zr47     1.0000 0.72996  0.86602  0.48930  Biso   1.000  Zr
