data_image0
_cell_length_a       10.1139
_cell_length_b       5.16863
_cell_length_c       10.1139
_cell_angle_alpha    89.9475
_cell_angle_beta     88.8567
_cell_angle_gamma    90.0499

_symmetry_space_group_name_H-M    "P 1"
_symmetry_int_tables_number       1

loop_
  _symmetry_equiv_pos_as_xyz
  'x, y, z'

loop_
  _atom_site_label
  _atom_site_occupancy
  _atom_site_fract_x
  _atom_site_fract_y
  _atom_site_fract_z
  _atom_site_thermal_displace_type
  _atom_site_B_iso_or_equiv
  _atom_site_type_symbol
  Zr1      1.0000 0.12864  0.89228  0.12231  Biso   1.000  Zr
  Zr2      1.0000 0.13718  0.50420  0.38984  Biso   1.000  Zr
  Zr3      1.0000 0.37973  0.50653  0.13144  Biso   1.000  Zr
  Zr4      1.0000 0.38027  0.01383  0.38095  Biso   1.000  Zr
  Zr5      1.0000 0.98991  0.29719  0.99267  Biso   1.000  Zr
  Zr6      1.0000 0.00866  0.12680  0.24225  Biso   1.000  Zr
  Zr7      1.0000 0.01218  0.61696  0.23879  Biso   1.000  Zr
  Zr8      1.0000 0.99064  0.79121  0.98780  Biso   1.000  Zr
  Zr9      1.0000 0.25828  0.29723  0.26106  Biso   1.000  Zr
  Zr10     1.0000 0.23759  0.20092  0.01338  Biso   1.000  Zr
  Zr11     1.0000 0.26800  0.69788  0.98296  Biso   1.000  Zr
  Zr12     1.0000 0.26315  0.79125  0.26033  Biso   1.000  Zr
  Zr13     1.0000 0.12348  0.00141  0.62571  Biso   1.000  Zr
  Zr14     1.0000 0.11953  0.50652  0.87123  Biso   1.000  Zr
  Zr15     1.0000 0.37523  0.51190  0.63352  Biso   1.000  Zr
  Zr16     1.0000 0.36893  0.01194  0.88202  Biso   1.000  Zr
  Zr17     1.0000 0.99561  0.29798  0.49526  Biso   1.000  Zr
  Zr18     1.0000 0.99907  0.21965  0.74561  Biso   1.000  Zr
  Zr19     1.0000 0.99692  0.71929  0.74298  Biso   1.000  Zr
  Zr20     1.0000 0.00758  0.80065  0.49184  Biso   1.000  Zr
  Zr21     1.0000 0.25337  0.29708  0.75695  Biso   1.000  Zr
  Zr22     1.0000 0.25060  0.22025  0.50763  Biso   1.000  Zr
  Zr23     1.0000 0.25808  0.72276  0.50579  Biso   1.000  Zr
  Zr24     1.0000 0.24570  0.80452  0.74925  Biso   1.000  Zr
  Zr25     1.0000 0.62524  0.00141  0.12748  Biso   1.000  Zr
  Zr26     1.0000 0.62814  0.51160  0.37686  Biso   1.000  Zr
  Zr27     1.0000 0.86113  0.50414  0.11379  Biso   1.000  Zr
  Zr28     1.0000 0.87211  0.01335  0.37884  Biso   1.000  Zr
  Zr29     1.0000 0.49402  0.29708  0.99760  Biso   1.000  Zr
  Zr30     1.0000 0.50534  0.21965  0.25189  Biso   1.000  Zr
  Zr31     1.0000 0.50797  0.71930  0.25404  Biso   1.000  Zr
  Zr32     1.0000 0.50171  0.80452  0.00527  Biso   1.000  Zr
  Zr33     1.0000 0.75568  0.29796  0.25535  Biso   1.000  Zr
  Zr34     1.0000 0.74333  0.22022  0.00036  Biso   1.000  Zr
  Zr35     1.0000 0.74517  0.72273  0.99289  Biso   1.000  Zr
  Zr36     1.0000 0.75911  0.80062  0.24339  Biso   1.000  Zr
  Zr37     1.0000 0.62253  0.01714  0.62843  Biso   1.000  Zr
  Zr38     1.0000 0.61746  0.51189  0.87574  Biso   1.000  Zr
  Zr39     1.0000 0.87411  0.51158  0.62283  Biso   1.000  Zr
  Zr40     1.0000 0.87001  0.01381  0.87068  Biso   1.000  Zr
  Zr41     1.0000 0.49871  0.31190  0.50094  Biso   1.000  Zr
  Zr42     1.0000 0.49996  0.22309  0.75101  Biso   1.000  Zr
  Zr43     1.0000 0.49518  0.72463  0.75578  Biso   1.000  Zr
  Zr44     1.0000 0.50614  0.80995  0.50340  Biso   1.000  Zr
  Zr45     1.0000 0.75002  0.31188  0.75225  Biso   1.000  Zr
  Zr46     1.0000 0.74791  0.22141  0.50305  Biso   1.000  Zr
  Zr47     1.0000 0.75669  0.71933  0.49428  Biso   1.000  Zr
  Zr48     1.0000 0.74756  0.80993  0.74483  Biso   1.000  Zr
  Mn1      1.0000 0.11674  0.35796  0.13422  Biso   1.000  Mn
