data_image0
_cell_length_a       4.99455
_cell_length_b       10.4289
_cell_length_c       10.0281
_cell_angle_alpha    90.799
_cell_angle_beta     89.0794
_cell_angle_gamma    90.4609

_symmetry_space_group_name_H-M    "P 1"
_symmetry_int_tables_number       1

loop_
  _symmetry_equiv_pos_as_xyz
  'x, y, z'

loop_
  _atom_site_label
  _atom_site_occupancy
  _atom_site_fract_x
  _atom_site_fract_y
  _atom_site_fract_z
  _atom_site_thermal_displace_type
  _atom_site_B_iso_or_equiv
  _atom_site_type_symbol
  Mn1      1.0000 0.24078  0.03625  0.11096  Biso   1.000  Mn
  Zr1      1.0000 0.26167  0.01451  0.62413  Biso   1.000  Zr
  Zr2      1.0000 0.26708  0.51353  0.12766  Biso   1.000  Zr
  Zr3      1.0000 0.26924  0.51775  0.62456  Biso   1.000  Zr
  Zr4      1.0000 0.26683  0.22829  0.37213  Biso   1.000  Zr
  Zr5      1.0000 0.25864  0.23857  0.87219  Biso   1.000  Zr
  Zr6      1.0000 0.28296  0.73442  0.37724  Biso   1.000  Zr
  Zr7      1.0000 0.26200  0.73949  0.88082  Biso   1.000  Zr
  Zr8      1.0000 0.72883  0.26029  0.12000  Biso   1.000  Zr
  Zr9      1.0000 0.73031  0.26551  0.62315  Biso   1.000  Zr
  Zr10     1.0000 0.74891  0.75945  0.12114  Biso   1.000  Zr
  Zr11     1.0000 0.73863  0.76927  0.62809  Biso   1.000  Zr
  Zr12     1.0000 0.73745  0.48149  0.37547  Biso   1.000  Zr
  Zr13     1.0000 0.72729  0.48857  0.87374  Biso   1.000  Zr
  Zr14     1.0000 0.73820  0.98397  0.37053  Biso   1.000  Zr
  Zr15     1.0000 0.71024  0.98691  0.88184  Biso   1.000  Zr
  Zr16     1.0000 0.06010  0.17832  0.19387  Biso   1.000  Zr
  Zr17     1.0000 0.06489  0.18424  0.69606  Biso   1.000  Zr
  Zr18     1.0000 0.07858  0.68493  0.19976  Biso   1.000  Zr
  Zr19     1.0000 0.06904  0.68441  0.69903  Biso   1.000  Zr
  Zr20     1.0000 0.07074  0.06608  0.44835  Biso   1.000  Zr
  Zr21     1.0000 0.04838  0.07294  0.95939  Biso   1.000  Zr
  Zr22     1.0000 0.07650  0.56556  0.44501  Biso   1.000  Zr
  Zr23     1.0000 0.05617  0.57250  0.95270  Biso   1.000  Zr
  Zr24     1.0000 0.93343  0.42719  0.19511  Biso   1.000  Zr
  Zr25     1.0000 0.92788  0.43445  0.69403  Biso   1.000  Zr
  Zr26     1.0000 0.99922  0.93998  0.18775  Biso   1.000  Zr
  Zr27     1.0000 0.92780  0.93658  0.70240  Biso   1.000  Zr
  Zr28     1.0000 0.93400  0.31454  0.44398  Biso   1.000  Zr
  Zr29     1.0000 0.91794  0.31884  0.94148  Biso   1.000  Zr
  Zr30     1.0000 0.95006  0.82172  0.45167  Biso   1.000  Zr
  Zr31     1.0000 0.90995  0.82027  0.93975  Biso   1.000  Zr
  Zr32     1.0000 0.51076  0.09664  0.23375  Biso   1.000  Zr
  Zr33     1.0000 0.53278  0.11780  0.74707  Biso   1.000  Zr
  Zr34     1.0000 0.54278  0.60460  0.24802  Biso   1.000  Zr
  Zr35     1.0000 0.53472  0.62010  0.75109  Biso   1.000  Zr
  Zr36     1.0000 0.54513  0.13277  0.49115  Biso   1.000  Zr
  Zr37     1.0000 0.50890  0.13653  0.99680  Biso   1.000  Zr
  Zr38     1.0000 0.54775  0.63406  0.50020  Biso   1.000  Zr
  Zr39     1.0000 0.52926  0.63666  0.99988  Biso   1.000  Zr
  Zr40     1.0000 0.46202  0.38176  0.49787  Biso   1.000  Zr
  Zr41     1.0000 0.45463  0.38603  0.99663  Biso   1.000  Zr
  Zr42     1.0000 0.47316  0.88519  0.50287  Biso   1.000  Zr
  Zr43     1.0000 0.43838  0.89460  0.01443  Biso   1.000  Zr
  Zr44     1.0000 0.46545  0.35703  0.24663  Biso   1.000  Zr
  Zr45     1.0000 0.45673  0.36903  0.74721  Biso   1.000  Zr
  Zr46     1.0000 0.53325  0.84584  0.26171  Biso   1.000  Zr
  Zr47     1.0000 0.45541  0.86912  0.75459  Biso   1.000  Zr
