data_image0
_cell_length_a       10.0632
_cell_length_b       5.28286
_cell_length_c       10.1398
_cell_angle_alpha    88.2058
_cell_angle_beta     89.4832
_cell_angle_gamma    90.0145

_symmetry_space_group_name_H-M    "P 1"
_symmetry_int_tables_number       1

loop_
  _symmetry_equiv_pos_as_xyz
  'x, y, z'

loop_
  _atom_site_label
  _atom_site_occupancy
  _atom_site_fract_x
  _atom_site_fract_y
  _atom_site_fract_z
  _atom_site_thermal_displace_type
  _atom_site_B_iso_or_equiv
  _atom_site_type_symbol
  Zr1      1.0000 0.13362  0.09147  0.11889  Biso   1.000  Zr
  Zr2      1.0000 0.13946  0.45634  0.38298  Biso   1.000  Zr
  Zr3      1.0000 0.37348  0.54843  0.12599  Biso   1.000  Zr
  Zr4      1.0000 0.36738  0.95861  0.37549  Biso   1.000  Zr
  Zr5      1.0000 0.02236  0.37820  0.21486  Biso   1.000  Zr
  Zr6      1.0000 0.03946  0.11581  0.44565  Biso   1.000  Zr
  Zr7      1.0000 0.47183  0.86160  0.20422  Biso   1.000  Zr
  Zr8      1.0000 0.46799  0.62193  0.44861  Biso   1.000  Zr
  Zr9      1.0000 0.27618  0.24072  0.24981  Biso   1.000  Zr
  Zr10     1.0000 0.27481  0.24359  0.50346  Biso   1.000  Zr
  Zr11     1.0000 0.23153  0.74567  0.50005  Biso   1.000  Zr
  Zr12     1.0000 0.22923  0.72921  0.24782  Biso   1.000  Zr
  Zr13     1.0000 0.13833  0.00678  0.62518  Biso   1.000  Zr
  Zr14     1.0000 0.10843  0.47471  0.84365  Biso   1.000  Zr
  Zr15     1.0000 0.36949  0.51085  0.62446  Biso   1.000  Zr
  Zr16     1.0000 0.38242  0.96116  0.85889  Biso   1.000  Zr
  Zr17     1.0000 0.02654  0.32325  0.67867  Biso   1.000  Zr
  Zr18     1.0000 0.02150  0.15081  0.94195  Biso   1.000  Zr
  Zr19     1.0000 0.47536  0.83431  0.69212  Biso   1.000  Zr
  Zr20     1.0000 0.47095  0.63623  0.94631  Biso   1.000  Zr
  Zr21     1.0000 0.26009  0.21709  0.75482  Biso   1.000  Zr
  Zr22     1.0000 0.22887  0.39007  0.00618  Biso   1.000  Zr
  Zr23     1.0000 0.24711  0.85475  0.00575  Biso   1.000  Zr
  Zr24     1.0000 0.24256  0.71672  0.74916  Biso   1.000  Zr
  Zr25     1.0000 0.63445  0.03283  0.12732  Biso   1.000  Zr
  Zr26     1.0000 0.63335  0.45753  0.37302  Biso   1.000  Zr
  Zr27     1.0000 0.85556  0.52854  0.12446  Biso   1.000  Zr
  Zr28     1.0000 0.87374  0.95780  0.37112  Biso   1.000  Zr
  Zr29     1.0000 0.53861  0.36345  0.19789  Biso   1.000  Zr
  Zr30     1.0000 0.53297  0.12581  0.44872  Biso   1.000  Zr
  Zr31     1.0000 0.97736  0.85706  0.18965  Biso   1.000  Zr
  Zr32     1.0000 0.97067  0.63089  0.44968  Biso   1.000  Zr
  Zr33     1.0000 0.76993  0.22248  0.24726  Biso   1.000  Zr
  Zr34     1.0000 0.77285  0.25319  0.49521  Biso   1.000  Zr
  Zr35     1.0000 0.73087  0.75408  0.49456  Biso   1.000  Zr
  Zr36     1.0000 0.73423  0.73123  0.24884  Biso   1.000  Zr
  Zr37     1.0000 0.64079  0.02003  0.61998  Biso   1.000  Zr
  Zr38     1.0000 0.63191  0.46081  0.87246  Biso   1.000  Zr
  Zr39     1.0000 0.86114  0.52313  0.61816  Biso   1.000  Zr
  Zr40     1.0000 0.86393  0.96193  0.87401  Biso   1.000  Zr
  Zr41     1.0000 0.52739  0.32720  0.70712  Biso   1.000  Zr
  Zr42     1.0000 0.52339  0.14367  0.95867  Biso   1.000  Zr
  Zr43     1.0000 0.98446  0.80686  0.71727  Biso   1.000  Zr
  Zr44     1.0000 0.97233  0.64906  0.96213  Biso   1.000  Zr
  Zr45     1.0000 0.76959  0.22339  0.74637  Biso   1.000  Zr
  Zr46     1.0000 0.76504  0.26864  0.99550  Biso   1.000  Zr
  Zr47     1.0000 0.72690  0.76927  0.99677  Biso   1.000  Zr
  Zr48     1.0000 0.73284  0.72473  0.74611  Biso   1.000  Zr
  Mn1      1.0000 0.11068  0.63627  0.10051  Biso   1.000  Mn
