data_image0
_cell_length_a       10.0992
_cell_length_b       5.02528
_cell_length_c       10.0995
_cell_angle_alpha    89.9981
_cell_angle_beta     89.9988
_cell_angle_gamma    89.9978

_symmetry_space_group_name_H-M    "P 1"
_symmetry_int_tables_number       1

loop_
  _symmetry_equiv_pos_as_xyz
  'x, y, z'

loop_
  _atom_site_label
  _atom_site_occupancy
  _atom_site_fract_x
  _atom_site_fract_y
  _atom_site_fract_z
  _atom_site_thermal_displace_type
  _atom_site_B_iso_or_equiv
  _atom_site_type_symbol
  Mn1      1.0000 0.12505  0.00174  0.12505  Biso   1.000  Mn
  Zr1      1.0000 0.12509  0.00176  0.62509  Biso   1.000  Zr
  Zr2      1.0000 0.62509  0.00176  0.12509  Biso   1.000  Zr
  Zr3      1.0000 0.62507  0.00177  0.62507  Biso   1.000  Zr
  Zr4      1.0000 0.12509  0.50180  0.37533  Biso   1.000  Zr
  Zr5      1.0000 0.12509  0.50174  0.87485  Biso   1.000  Zr
  Zr6      1.0000 0.62510  0.50177  0.37586  Biso   1.000  Zr
  Zr7      1.0000 0.62509  0.50177  0.87431  Biso   1.000  Zr
  Zr8      1.0000 0.37533  0.50180  0.12509  Biso   1.000  Zr
  Zr9      1.0000 0.37587  0.50178  0.62509  Biso   1.000  Zr
  Zr10     1.0000 0.87486  0.50174  0.12509  Biso   1.000  Zr
  Zr11     1.0000 0.87431  0.50177  0.62509  Biso   1.000  Zr
  Zr12     1.0000 0.37404  0.01220  0.37404  Biso   1.000  Zr
  Zr13     1.0000 0.37405  0.99137  0.87615  Biso   1.000  Zr
  Zr14     1.0000 0.87615  0.99137  0.37405  Biso   1.000  Zr
  Zr15     1.0000 0.87613  0.01216  0.87612  Biso   1.000  Zr
  Zr16     1.0000 0.97500  0.30891  0.97498  Biso   1.000  Zr
  Zr17     1.0000 0.98856  0.26227  0.47924  Biso   1.000  Zr
  Zr18     1.0000 0.47925  0.26230  0.98853  Biso   1.000  Zr
  Zr19     1.0000 0.48878  0.26035  0.48875  Biso   1.000  Zr
  Zr20     1.0000 0.02494  0.20611  0.22525  Biso   1.000  Zr
  Zr21     1.0000 0.00991  0.24874  0.73221  Biso   1.000  Zr
  Zr22     1.0000 0.51796  0.24878  0.24023  Biso   1.000  Zr
  Zr23     1.0000 0.51107  0.24995  0.73908  Biso   1.000  Zr
  Zr24     1.0000 0.97497  0.69448  0.27521  Biso   1.000  Zr
  Zr25     1.0000 0.98855  0.74124  0.77095  Biso   1.000  Zr
  Zr26     1.0000 0.47925  0.74130  0.26164  Biso   1.000  Zr
  Zr27     1.0000 0.48877  0.74318  0.76143  Biso   1.000  Zr
  Zr28     1.0000 0.02491  0.79729  0.02493  Biso   1.000  Zr
  Zr29     1.0000 0.00991  0.75480  0.51797  Biso   1.000  Zr
  Zr30     1.0000 0.51795  0.75481  0.00994  Biso   1.000  Zr
  Zr31     1.0000 0.51106  0.75359  0.51109  Biso   1.000  Zr
  Zr32     1.0000 0.27524  0.30918  0.27526  Biso   1.000  Zr
  Zr33     1.0000 0.26162  0.26223  0.77095  Biso   1.000  Zr
  Zr34     1.0000 0.77094  0.26226  0.26165  Biso   1.000  Zr
  Zr35     1.0000 0.76140  0.26037  0.76143  Biso   1.000  Zr
  Zr36     1.0000 0.22527  0.20611  0.02496  Biso   1.000  Zr
  Zr37     1.0000 0.24026  0.24879  0.51798  Biso   1.000  Zr
  Zr38     1.0000 0.73224  0.24873  0.00994  Biso   1.000  Zr
  Zr39     1.0000 0.73911  0.24995  0.51110  Biso   1.000  Zr
  Zr40     1.0000 0.27520  0.69449  0.97495  Biso   1.000  Zr
  Zr41     1.0000 0.26161  0.74133  0.47924  Biso   1.000  Zr
  Zr42     1.0000 0.77093  0.74121  0.98852  Biso   1.000  Zr
  Zr43     1.0000 0.76140  0.74318  0.48874  Biso   1.000  Zr
  Zr44     1.0000 0.22525  0.79752  0.22523  Biso   1.000  Zr
  Zr45     1.0000 0.24026  0.75475  0.73221  Biso   1.000  Zr
  Zr46     1.0000 0.73223  0.75476  0.24022  Biso   1.000  Zr
  Zr47     1.0000 0.73910  0.75360  0.73907  Biso   1.000  Zr
