data_image0
_cell_length_a       5.09115
_cell_length_b       10.42
_cell_length_c       10.1658
_cell_angle_alpha    89.4054
_cell_angle_beta     88.0268
_cell_angle_gamma    90.7778

_symmetry_space_group_name_H-M    "P 1"
_symmetry_int_tables_number       1

loop_
  _symmetry_equiv_pos_as_xyz
  'x, y, z'

loop_
  _atom_site_label
  _atom_site_occupancy
  _atom_site_fract_x
  _atom_site_fract_y
  _atom_site_fract_z
  _atom_site_thermal_displace_type
  _atom_site_B_iso_or_equiv
  _atom_site_type_symbol
  Zr1      1.0000 0.24699  0.99345  0.10280  Biso   1.000  Zr
  Zr2      1.0000 0.28002  0.24909  0.37453  Biso   1.000  Zr
  Zr3      1.0000 0.74033  0.20941  0.11166  Biso   1.000  Zr
  Zr4      1.0000 0.76641  0.49716  0.35535  Biso   1.000  Zr
  Zr5      1.0000 0.03616  0.15719  0.23800  Biso   1.000  Zr
  Zr6      1.0000 0.04729  0.09772  0.48188  Biso   1.000  Zr
  Zr7      1.0000 0.06587  0.41719  0.25267  Biso   1.000  Zr
  Zr8      1.0000 0.01700  0.34854  0.49592  Biso   1.000  Zr
  Zr9      1.0000 0.51255  0.07773  0.23746  Biso   1.000  Zr
  Zr10     1.0000 0.54508  0.14230  0.48690  Biso   1.000  Zr
  Zr11     1.0000 0.51470  0.39544  0.48765  Biso   1.000  Zr
  Zr12     1.0000 0.56550  0.33847  0.24433  Biso   1.000  Zr
  Zr13     1.0000 0.28227  0.99792  0.60314  Biso   1.000  Zr
  Zr14     1.0000 0.21052  0.24935  0.85393  Biso   1.000  Zr
  Zr15     1.0000 0.74756  0.25523  0.61732  Biso   1.000  Zr
  Zr16     1.0000 0.72968  0.49840  0.86615  Biso   1.000  Zr
  Zr17     1.0000 0.98647  0.14117  0.72912  Biso   1.000  Zr
  Zr18     1.0000 0.96217  0.08697  0.97971  Biso   1.000  Zr
  Zr19     1.0000 0.98368  0.39722  0.73817  Biso   1.000  Zr
  Zr20     1.0000 0.93382  0.34119  0.98099  Biso   1.000  Zr
  Zr21     1.0000 0.49025  0.09876  0.73758  Biso   1.000  Zr
  Zr22     1.0000 0.43414  0.15946  0.99313  Biso   1.000  Zr
  Zr23     1.0000 0.43366  0.41620  0.97510  Biso   1.000  Zr
  Zr24     1.0000 0.48180  0.35035  0.73219  Biso   1.000  Zr
  Zr25     1.0000 0.24204  0.54354  0.10913  Biso   1.000  Zr
  Zr26     1.0000 0.27042  0.74065  0.36505  Biso   1.000  Zr
  Zr27     1.0000 0.74533  0.75942  0.10568  Biso   1.000  Zr
  Zr28     1.0000 0.78226  0.00517  0.36726  Biso   1.000  Zr
  Zr29     1.0000 0.99433  0.66489  0.23649  Biso   1.000  Zr
  Zr30     1.0000 0.01627  0.59754  0.48282  Biso   1.000  Zr
  Zr31     1.0000 0.92751  0.91336  0.20801  Biso   1.000  Zr
  Zr32     1.0000 0.99708  0.84894  0.46841  Biso   1.000  Zr
  Zr33     1.0000 0.52014  0.60279  0.23752  Biso   1.000  Zr
  Zr34     1.0000 0.51507  0.64190  0.48532  Biso   1.000  Zr
  Zr35     1.0000 0.50082  0.89249  0.46766  Biso   1.000  Zr
  Zr36     1.0000 0.42157  0.83611  0.20537  Biso   1.000  Zr
  Zr37     1.0000 0.25399  0.49567  0.61189  Biso   1.000  Zr
  Zr38     1.0000 0.25550  0.75117  0.84717  Biso   1.000  Zr
  Zr39     1.0000 0.77119  0.73872  0.60350  Biso   1.000  Zr
  Zr40     1.0000 0.76661  0.98995  0.84026  Biso   1.000  Zr
  Zr41     1.0000 0.01417  0.64449  0.72770  Biso   1.000  Zr
  Zr42     1.0000 0.96968  0.60686  0.98143  Biso   1.000  Zr
  Zr43     1.0000 0.02058  0.89009  0.71969  Biso   1.000  Zr
  Zr44     1.0000 0.00444  0.84864  0.96936  Biso   1.000  Zr
  Zr45     1.0000 0.50830  0.59900  0.73180  Biso   1.000  Zr
  Zr46     1.0000 0.49203  0.66285  0.97766  Biso   1.000  Zr
  Zr47     1.0000 0.50070  0.90796  0.96950  Biso   1.000  Zr
  Zr48     1.0000 0.52031  0.84924  0.72028  Biso   1.000  Zr
  Mo1      1.0000 0.24440  0.30163  0.11514  Biso   1.000  Mo
