data_image0
_cell_length_a       5.02545
_cell_length_b       10.1685
_cell_length_c       10.0497
_cell_angle_alpha    90
_cell_angle_beta     89.9999
_cell_angle_gamma    89.9996

_symmetry_space_group_name_H-M    "P 1"
_symmetry_int_tables_number       1

loop_
  _symmetry_equiv_pos_as_xyz
  'x, y, z'

loop_
  _atom_site_label
  _atom_site_occupancy
  _atom_site_fract_x
  _atom_site_fract_y
  _atom_site_fract_z
  _atom_site_thermal_displace_type
  _atom_site_B_iso_or_equiv
  _atom_site_type_symbol
  Mo1      1.0000 0.25079  0.00008  0.12540  Biso   1.000  Mo
  Zr1      1.0000 0.25331  0.24932  0.37451  Biso   1.000  Zr
  Zr2      1.0000 0.75079  0.24913  0.12540  Biso   1.000  Zr
  Zr3      1.0000 0.75079  0.00008  0.37444  Biso   1.000  Zr
  Zr4      1.0000 0.98607  0.14306  0.99376  Biso   1.000  Zr
  Zr5      1.0000 0.01442  0.10248  0.24197  Biso   1.000  Zr
  Zr6      1.0000 0.99397  0.35396  0.25457  Biso   1.000  Zr
  Zr7      1.0000 0.00426  0.39455  0.00312  Biso   1.000  Zr
  Zr8      1.0000 0.51552  0.14306  0.25703  Biso   1.000  Zr
  Zr9      1.0000 0.48716  0.10248  0.00883  Biso   1.000  Zr
  Zr10     1.0000 0.50761  0.35396  0.99623  Biso   1.000  Zr
  Zr11     1.0000 0.49733  0.39455  0.24768  Biso   1.000  Zr
  Zr12     1.0000 0.25079  0.00008  0.62540  Biso   1.000  Zr
  Zr13     1.0000 0.24827  0.24932  0.87628  Biso   1.000  Zr
  Zr14     1.0000 0.75080  0.24993  0.62539  Biso   1.000  Zr
  Zr15     1.0000 0.75079  0.00008  0.87636  Biso   1.000  Zr
  Zr16     1.0000 0.98848  0.14451  0.49137  Biso   1.000  Zr
  Zr17     1.0000 0.00622  0.10664  0.74495  Biso   1.000  Zr
  Zr18     1.0000 0.99522  0.35572  0.75441  Biso   1.000  Zr
  Zr19     1.0000 0.00304  0.39414  0.50356  Biso   1.000  Zr
  Zr20     1.0000 0.51312  0.14451  0.75942  Biso   1.000  Zr
  Zr21     1.0000 0.49535  0.10664  0.50584  Biso   1.000  Zr
  Zr22     1.0000 0.50635  0.35572  0.49639  Biso   1.000  Zr
  Zr23     1.0000 0.49856  0.39414  0.74723  Biso   1.000  Zr
  Zr24     1.0000 0.25079  0.50008  0.12540  Biso   1.000  Zr
  Zr25     1.0000 0.24827  0.75083  0.37451  Biso   1.000  Zr
  Zr26     1.0000 0.75079  0.75102  0.12540  Biso   1.000  Zr
  Zr27     1.0000 0.75079  0.50007  0.37614  Biso   1.000  Zr
  Zr28     1.0000 0.99398  0.64619  0.99623  Biso   1.000  Zr
  Zr29     1.0000 0.00426  0.60560  0.24768  Biso   1.000  Zr
  Zr30     1.0000 0.98606  0.85710  0.25703  Biso   1.000  Zr
  Zr31     1.0000 0.01442  0.89767  0.00883  Biso   1.000  Zr
  Zr32     1.0000 0.50761  0.64619  0.25457  Biso   1.000  Zr
  Zr33     1.0000 0.49732  0.60561  0.00311  Biso   1.000  Zr
  Zr34     1.0000 0.51552  0.85709  0.99376  Biso   1.000  Zr
  Zr35     1.0000 0.48717  0.89767  0.24196  Biso   1.000  Zr
  Zr36     1.0000 0.25079  0.50008  0.62540  Biso   1.000  Zr
  Zr37     1.0000 0.25331  0.75083  0.87628  Biso   1.000  Zr
  Zr38     1.0000 0.75079  0.75022  0.62539  Biso   1.000  Zr
  Zr39     1.0000 0.75079  0.50008  0.87465  Biso   1.000  Zr
  Zr40     1.0000 0.99523  0.64443  0.49638  Biso   1.000  Zr
  Zr41     1.0000 0.00303  0.60601  0.74723  Biso   1.000  Zr
  Zr42     1.0000 0.98847  0.85564  0.75942  Biso   1.000  Zr
  Zr43     1.0000 0.00623  0.89351  0.50584  Biso   1.000  Zr
  Zr44     1.0000 0.50636  0.64443  0.75441  Biso   1.000  Zr
  Zr45     1.0000 0.49854  0.60601  0.50356  Biso   1.000  Zr
  Zr46     1.0000 0.51311  0.85564  0.49138  Biso   1.000  Zr
  Zr47     1.0000 0.49537  0.89351  0.74495  Biso   1.000  Zr
