data_image0
_cell_length_a       10.0497
_cell_length_b       10.1684
_cell_length_c       5.02545
_cell_angle_alpha    89.9998
_cell_angle_beta     90
_cell_angle_gamma    90

_symmetry_space_group_name_H-M    "P 1"
_symmetry_int_tables_number       1

loop_
  _symmetry_equiv_pos_as_xyz
  'x, y, z'

loop_
  _atom_site_label
  _atom_site_occupancy
  _atom_site_fract_x
  _atom_site_fract_y
  _atom_site_fract_z
  _atom_site_thermal_displace_type
  _atom_site_B_iso_or_equiv
  _atom_site_type_symbol
  Mo1      1.0000 0.12540  0.00008  0.25079  Biso   1.000  Mo
  Zr1      1.0000 0.12540  0.24913  0.75079  Biso   1.000  Zr
  Zr2      1.0000 0.37451  0.24932  0.25331  Biso   1.000  Zr
  Zr3      1.0000 0.37444  0.00008  0.75079  Biso   1.000  Zr
  Zr4      1.0000 0.99376  0.14306  0.98607  Biso   1.000  Zr
  Zr5      1.0000 0.00883  0.10248  0.48716  Biso   1.000  Zr
  Zr6      1.0000 0.99623  0.35396  0.50761  Biso   1.000  Zr
  Zr7      1.0000 0.00311  0.39454  0.00426  Biso   1.000  Zr
  Zr8      1.0000 0.25703  0.14306  0.51552  Biso   1.000  Zr
  Zr9      1.0000 0.24196  0.10249  0.01442  Biso   1.000  Zr
  Zr10     1.0000 0.25457  0.35396  0.99398  Biso   1.000  Zr
  Zr11     1.0000 0.24768  0.39455  0.49733  Biso   1.000  Zr
  Zr12     1.0000 0.12540  0.50008  0.25079  Biso   1.000  Zr
  Zr13     1.0000 0.12540  0.75102  0.75079  Biso   1.000  Zr
  Zr14     1.0000 0.37451  0.75083  0.24828  Biso   1.000  Zr
  Zr15     1.0000 0.37614  0.50008  0.75079  Biso   1.000  Zr
  Zr16     1.0000 0.99623  0.64619  0.99398  Biso   1.000  Zr
  Zr17     1.0000 0.00312  0.60561  0.49733  Biso   1.000  Zr
  Zr18     1.0000 0.99376  0.85710  0.51552  Biso   1.000  Zr
  Zr19     1.0000 0.00883  0.89767  0.01442  Biso   1.000  Zr
  Zr20     1.0000 0.25456  0.64619  0.50761  Biso   1.000  Zr
  Zr21     1.0000 0.24768  0.60561  0.00426  Biso   1.000  Zr
  Zr22     1.0000 0.25703  0.85710  0.98606  Biso   1.000  Zr
  Zr23     1.0000 0.24196  0.89767  0.48716  Biso   1.000  Zr
  Zr24     1.0000 0.62540  0.00008  0.25079  Biso   1.000  Zr
  Zr25     1.0000 0.62540  0.24993  0.75079  Biso   1.000  Zr
  Zr26     1.0000 0.87628  0.24932  0.24828  Biso   1.000  Zr
  Zr27     1.0000 0.87636  0.00008  0.75079  Biso   1.000  Zr
  Zr28     1.0000 0.49137  0.14451  0.98847  Biso   1.000  Zr
  Zr29     1.0000 0.50585  0.10664  0.49536  Biso   1.000  Zr
  Zr30     1.0000 0.49638  0.35572  0.50636  Biso   1.000  Zr
  Zr31     1.0000 0.50356  0.39414  0.00304  Biso   1.000  Zr
  Zr32     1.0000 0.75942  0.14451  0.51312  Biso   1.000  Zr
  Zr33     1.0000 0.74495  0.10664  0.00623  Biso   1.000  Zr
  Zr34     1.0000 0.75441  0.35572  0.99523  Biso   1.000  Zr
  Zr35     1.0000 0.74723  0.39414  0.49855  Biso   1.000  Zr
  Zr36     1.0000 0.62540  0.50008  0.25079  Biso   1.000  Zr
  Zr37     1.0000 0.62540  0.75023  0.75079  Biso   1.000  Zr
  Zr38     1.0000 0.87628  0.75083  0.25331  Biso   1.000  Zr
  Zr39     1.0000 0.87465  0.50008  0.75079  Biso   1.000  Zr
  Zr40     1.0000 0.49638  0.64443  0.99523  Biso   1.000  Zr
  Zr41     1.0000 0.50356  0.60602  0.49855  Biso   1.000  Zr
  Zr42     1.0000 0.49137  0.85564  0.51311  Biso   1.000  Zr
  Zr43     1.0000 0.50584  0.89351  0.00623  Biso   1.000  Zr
  Zr44     1.0000 0.75441  0.64443  0.50636  Biso   1.000  Zr
  Zr45     1.0000 0.74723  0.60602  0.00304  Biso   1.000  Zr
  Zr46     1.0000 0.75942  0.85564  0.98847  Biso   1.000  Zr
  Zr47     1.0000 0.74495  0.89351  0.49536  Biso   1.000  Zr
