data_image0
_cell_length_a       5.02847
_cell_length_b       10.2299
_cell_length_c       10.1568
_cell_angle_alpha    90.9772
_cell_angle_beta     92.722
_cell_angle_gamma    90.0921

_symmetry_space_group_name_H-M    "P 1"
_symmetry_int_tables_number       1

loop_
  _symmetry_equiv_pos_as_xyz
  'x, y, z'

loop_
  _atom_site_label
  _atom_site_occupancy
  _atom_site_fract_x
  _atom_site_fract_y
  _atom_site_fract_z
  _atom_site_thermal_displace_type
  _atom_site_B_iso_or_equiv
  _atom_site_type_symbol
  Hf1      1.0000 0.30340  0.99024  0.13344  Biso   1.000  Hf
  Hf2      1.0000 0.25411  0.23355  0.36488  Biso   1.000  Hf
  Hf3      1.0000 0.69312  0.27413  0.12295  Biso   1.000  Hf
  Hf4      1.0000 0.75811  0.00933  0.38778  Biso   1.000  Hf
  Hf5      1.0000 0.96331  0.18654  0.97308  Biso   1.000  Hf
  Hf6      1.0000 0.09772  0.05325  0.29781  Biso   1.000  Hf
  Hf7      1.0000 0.92876  0.33104  0.29278  Biso   1.000  Hf
  Hf8      1.0000 0.90141  0.42957  0.04257  Biso   1.000  Hf
  Hf9      1.0000 0.54298  0.14108  0.25388  Biso   1.000  Hf
  Hf10     1.0000 0.50068  0.11184  0.99282  Biso   1.000  Hf
  Hf11     1.0000 0.40560  0.36497  0.00098  Biso   1.000  Hf
  Hf12     1.0000 0.44595  0.39252  0.24937  Biso   1.000  Hf
  Hf13     1.0000 0.25513  0.00158  0.61904  Biso   1.000  Hf
  Hf14     1.0000 0.28258  0.24384  0.85318  Biso   1.000  Hf
  Hf15     1.0000 0.75016  0.26098  0.62282  Biso   1.000  Hf
  Hf16     1.0000 0.75845  0.00157  0.86907  Biso   1.000  Hf
  Hf17     1.0000 0.00374  0.15628  0.50948  Biso   1.000  Hf
  Hf18     1.0000 0.03239  0.10216  0.74959  Biso   1.000  Hf
  Hf19     1.0000 0.97520  0.35499  0.77940  Biso   1.000  Hf
  Hf20     1.0000 0.94610  0.41367  0.53471  Biso   1.000  Hf
  Hf21     1.0000 0.53730  0.14317  0.74525  Biso   1.000  Hf
  Hf22     1.0000 0.50363  0.10898  0.50404  Biso   1.000  Hf
  Hf23     1.0000 0.46192  0.35399  0.50175  Biso   1.000  Hf
  Hf24     1.0000 0.48799  0.39678  0.75105  Biso   1.000  Hf
  Hf25     1.0000 0.24703  0.51626  0.11387  Biso   1.000  Hf
  Hf26     1.0000 0.25047  0.74213  0.37675  Biso   1.000  Hf
  Hf27     1.0000 0.75692  0.73896  0.13255  Biso   1.000  Hf
  Hf28     1.0000 0.73914  0.49260  0.37485  Biso   1.000  Hf
  Hf29     1.0000 0.00826  0.66123  0.99154  Biso   1.000  Hf
  Hf30     1.0000 0.99494  0.59126  0.25569  Biso   1.000  Hf
  Hf31     1.0000 0.10390  0.82287  0.20840  Biso   1.000  Hf
  Hf32     1.0000 0.07490  0.92648  0.97345  Biso   1.000  Hf
  Hf33     1.0000 0.50411  0.63925  0.25115  Biso   1.000  Hf
  Hf34     1.0000 0.50009  0.61417  0.99657  Biso   1.000  Hf
  Hf35     1.0000 0.56160  0.85857  0.99533  Biso   1.000  Hf
  Hf36     1.0000 0.60150  0.88999  0.24580  Biso   1.000  Hf
  Hf37     1.0000 0.25795  0.50775  0.62246  Biso   1.000  Hf
  Hf38     1.0000 0.26551  0.76393  0.87372  Biso   1.000  Hf
  Hf39     1.0000 0.75471  0.74885  0.61977  Biso   1.000  Hf
  Hf40     1.0000 0.76258  0.51388  0.86932  Biso   1.000  Hf
  Hf41     1.0000 0.99647  0.64838  0.49572  Biso   1.000  Hf
  Hf42     1.0000 0.01623  0.60735  0.74928  Biso   1.000  Hf
  Hf43     1.0000 0.99578  0.85582  0.74197  Biso   1.000  Hf
  Hf44     1.0000 0.01201  0.88949  0.49316  Biso   1.000  Hf
  Hf45     1.0000 0.51655  0.65053  0.74838  Biso   1.000  Hf
  Hf46     1.0000 0.49276  0.60507  0.49841  Biso   1.000  Hf
  Hf47     1.0000 0.50995  0.85821  0.49517  Biso   1.000  Hf
  Hf48     1.0000 0.49471  0.89734  0.74776  Biso   1.000  Hf
  N1       1.0000 0.03321  0.15620  0.09771  Biso   1.000  N 
