data_image0
_cell_length_a       10.0745
_cell_length_b       10.1982
_cell_length_c       10.0746
_cell_angle_alpha    89.7732
_cell_angle_beta     89.143
_cell_angle_gamma    89.7801

_symmetry_space_group_name_H-M    "P 1"
_symmetry_int_tables_number       1

loop_
  _symmetry_equiv_pos_as_xyz
  'x, y, z'

loop_
  _atom_site_label
  _atom_site_occupancy
  _atom_site_fract_x
  _atom_site_fract_y
  _atom_site_fract_z
  _atom_site_thermal_displace_type
  _atom_site_B_iso_or_equiv
  _atom_site_type_symbol
  N1       1.0000 0.16089  0.02336  0.16119  Biso   1.000  N 
  Zr1      1.0000 0.11835  0.99510  0.62052  Biso   1.000  Zr
  Zr2      1.0000 0.12280  0.49801  0.12292  Biso   1.000  Zr
  Zr3      1.0000 0.12570  0.50209  0.62415  Biso   1.000  Zr
  Zr4      1.0000 0.62033  0.99505  0.11847  Biso   1.000  Zr
  Zr5      1.0000 0.62754  0.00018  0.62762  Biso   1.000  Zr
  Zr6      1.0000 0.62402  0.50210  0.12582  Biso   1.000  Zr
  Zr7      1.0000 0.62446  0.49945  0.62458  Biso   1.000  Zr
  Zr8      1.0000 0.13193  0.25742  0.37853  Biso   1.000  Zr
  Zr9      1.0000 0.11276  0.25492  0.87372  Biso   1.000  Zr
  Zr10     1.0000 0.11496  0.74945  0.37369  Biso   1.000  Zr
  Zr11     1.0000 0.11876  0.75083  0.87804  Biso   1.000  Zr
  Zr12     1.0000 0.63406  0.24703  0.37295  Biso   1.000  Zr
  Zr13     1.0000 0.62034  0.24518  0.87531  Biso   1.000  Zr
  Zr14     1.0000 0.61989  0.75227  0.36942  Biso   1.000  Zr
  Zr15     1.0000 0.62489  0.74931  0.87360  Biso   1.000  Zr
  Zr16     1.0000 0.37841  0.25739  0.13210  Biso   1.000  Zr
  Zr17     1.0000 0.37287  0.24705  0.63413  Biso   1.000  Zr
  Zr18     1.0000 0.37361  0.74940  0.11504  Biso   1.000  Zr
  Zr19     1.0000 0.36930  0.75224  0.61998  Biso   1.000  Zr
  Zr20     1.0000 0.87359  0.25495  0.11286  Biso   1.000  Zr
  Zr21     1.0000 0.87516  0.24521  0.62048  Biso   1.000  Zr
  Zr22     1.0000 0.87796  0.75080  0.11883  Biso   1.000  Zr
  Zr23     1.0000 0.87352  0.74933  0.62497  Biso   1.000  Zr
  Zr24     1.0000 0.38347  0.01073  0.38359  Biso   1.000  Zr
  Zr25     1.0000 0.37306  0.98925  0.87255  Biso   1.000  Zr
  Zr26     1.0000 0.38117  0.50008  0.38130  Biso   1.000  Zr
  Zr27     1.0000 0.37465  0.49772  0.87258  Biso   1.000  Zr
  Zr28     1.0000 0.87253  0.98930  0.37313  Biso   1.000  Zr
  Zr29     1.0000 0.88099  0.99477  0.88114  Biso   1.000  Zr
  Zr30     1.0000 0.87245  0.49778  0.37476  Biso   1.000  Zr
  Zr31     1.0000 0.86971  0.49960  0.86981  Biso   1.000  Zr
  Zr32     1.0000 0.98075  0.14747  0.98090  Biso   1.000  Zr
  Zr33     1.0000 0.99554  0.14001  0.47958  Biso   1.000  Zr
  Zr34     1.0000 0.99927  0.63742  0.99936  Biso   1.000  Zr
  Zr35     1.0000 0.99521  0.64100  0.49813  Biso   1.000  Zr
  Zr36     1.0000 0.47936  0.13996  0.99562  Biso   1.000  Zr
  Zr37     1.0000 0.49947  0.14660  0.49954  Biso   1.000  Zr
  Zr38     1.0000 0.49804  0.64095  0.99533  Biso   1.000  Zr
  Zr39     1.0000 0.49554  0.64405  0.49565  Biso   1.000  Zr
  Zr40     1.0000 0.07090  0.08891  0.23040  Biso   1.000  Zr
  Zr41     1.0000 0.00256  0.10843  0.73799  Biso   1.000  Zr
  Zr42     1.0000 0.99833  0.59844  0.24886  Biso   1.000  Zr
  Zr43     1.0000 0.99766  0.60710  0.74817  Biso   1.000  Zr
  Zr44     1.0000 0.52764  0.10879  0.25320  Biso   1.000  Zr
  Zr45     1.0000 0.50289  0.10390  0.74830  Biso   1.000  Zr
  Zr46     1.0000 0.49650  0.60927  0.24603  Biso   1.000  Zr
  Zr47     1.0000 0.49859  0.60510  0.74625  Biso   1.000  Zr
  Zr48     1.0000 0.00347  0.34315  0.24594  Biso   1.000  Zr
  Zr49     1.0000 0.99449  0.35735  0.74702  Biso   1.000  Zr
  Zr50     1.0000 0.97584  0.84503  0.26425  Biso   1.000  Zr
  Zr51     1.0000 0.99700  0.85652  0.74916  Biso   1.000  Zr
  Zr52     1.0000 0.50463  0.35978  0.25548  Biso   1.000  Zr
  Zr53     1.0000 0.49557  0.35444  0.75609  Biso   1.000  Zr
  Zr54     1.0000 0.47688  0.85859  0.25703  Biso   1.000  Zr
  Zr55     1.0000 0.49221  0.85410  0.75606  Biso   1.000  Zr
  Zr56     1.0000 0.99737  0.39589  0.99747  Biso   1.000  Zr
  Zr57     1.0000 0.00481  0.39380  0.49770  Biso   1.000  Zr
  Zr58     1.0000 0.99558  0.88212  0.99568  Biso   1.000  Zr
  Zr59     1.0000 0.00180  0.88944  0.50328  Biso   1.000  Zr
  Zr60     1.0000 0.49760  0.39375  0.00498  Biso   1.000  Zr
  Zr61     1.0000 0.50362  0.39242  0.50384  Biso   1.000  Zr
  Zr62     1.0000 0.50318  0.88938  0.00184  Biso   1.000  Zr
  Zr63     1.0000 0.50604  0.89483  0.50610  Biso   1.000  Zr
  Zr64     1.0000 0.29656  0.17457  0.29675  Biso   1.000  Zr
  Zr65     1.0000 0.26109  0.14506  0.79056  Biso   1.000  Zr
  Zr66     1.0000 0.24211  0.66669  0.24222  Biso   1.000  Zr
  Zr67     1.0000 0.24861  0.64425  0.74709  Biso   1.000  Zr
  Zr68     1.0000 0.79041  0.14513  0.26124  Biso   1.000  Zr
  Zr69     1.0000 0.75177  0.14505  0.75191  Biso   1.000  Zr
  Zr70     1.0000 0.74696  0.64429  0.24870  Biso   1.000  Zr
  Zr71     1.0000 0.74897  0.64200  0.74905  Biso   1.000  Zr
  Zr72     1.0000 0.23006  0.08897  0.07126  Biso   1.000  Zr
  Zr73     1.0000 0.25318  0.10873  0.52784  Biso   1.000  Zr
  Zr74     1.0000 0.24877  0.59844  0.99844  Biso   1.000  Zr
  Zr75     1.0000 0.24591  0.60926  0.49660  Biso   1.000  Zr
  Zr76     1.0000 0.73783  0.10843  0.00271  Biso   1.000  Zr
  Zr77     1.0000 0.74825  0.10391  0.50302  Biso   1.000  Zr
  Zr78     1.0000 0.74808  0.60709  0.99775  Biso   1.000  Zr
  Zr79     1.0000 0.74612  0.60513  0.49868  Biso   1.000  Zr
  Zr80     1.0000 0.24586  0.34314  0.00356  Biso   1.000  Zr
  Zr81     1.0000 0.25531  0.35977  0.50475  Biso   1.000  Zr
  Zr82     1.0000 0.26411  0.84509  0.97602  Biso   1.000  Zr
  Zr83     1.0000 0.25698  0.85856  0.47701  Biso   1.000  Zr
  Zr84     1.0000 0.74690  0.35734  0.99458  Biso   1.000  Zr
  Zr85     1.0000 0.75592  0.35447  0.49568  Biso   1.000  Zr
  Zr86     1.0000 0.74903  0.85651  0.99714  Biso   1.000  Zr
  Zr87     1.0000 0.75599  0.85412  0.49233  Biso   1.000  Zr
  Zr88     1.0000 0.25156  0.41052  0.25164  Biso   1.000  Zr
  Zr89     1.0000 0.24489  0.39375  0.75109  Biso   1.000  Zr
  Zr90     1.0000 0.23098  0.93724  0.23129  Biso   1.000  Zr
  Zr91     1.0000 0.24970  0.89614  0.73296  Biso   1.000  Zr
  Zr92     1.0000 0.75100  0.39379  0.24498  Biso   1.000  Zr
  Zr93     1.0000 0.74617  0.39259  0.74626  Biso   1.000  Zr
  Zr94     1.0000 0.73281  0.89623  0.24985  Biso   1.000  Zr
  Zr95     1.0000 0.74797  0.89165  0.74810  Biso   1.000  Zr
