data_image0
_cell_length_a       10.1094
_cell_length_b       5.04654
_cell_length_c       10.1097
_cell_angle_alpha    88.5109
_cell_angle_beta     87.6298
_cell_angle_gamma    88.5126

_symmetry_space_group_name_H-M    "P 1"
_symmetry_int_tables_number       1

loop_
  _symmetry_equiv_pos_as_xyz
  'x, y, z'

loop_
  _atom_site_label
  _atom_site_occupancy
  _atom_site_fract_x
  _atom_site_fract_y
  _atom_site_fract_z
  _atom_site_thermal_displace_type
  _atom_site_B_iso_or_equiv
  _atom_site_type_symbol
  N1       1.0000 0.08872  0.96964  0.07074  Biso   1.000  N 
  Zr1      1.0000 0.13792  0.00916  0.61408  Biso   1.000  Zr
  Zr2      1.0000 0.63206  0.00914  0.11992  Biso   1.000  Zr
  Zr3      1.0000 0.62739  0.00442  0.60940  Biso   1.000  Zr
  Zr4      1.0000 0.14106  0.46856  0.36015  Biso   1.000  Zr
  Zr5      1.0000 0.12427  0.49829  0.85078  Biso   1.000  Zr
  Zr6      1.0000 0.63059  0.51564  0.36606  Biso   1.000  Zr
  Zr7      1.0000 0.61785  0.50040  0.86081  Biso   1.000  Zr
  Zr8      1.0000 0.37815  0.46858  0.12308  Biso   1.000  Zr
  Zr9      1.0000 0.38406  0.51565  0.61260  Biso   1.000  Zr
  Zr10     1.0000 0.86878  0.49828  0.10627  Biso   1.000  Zr
  Zr11     1.0000 0.87881  0.50040  0.59984  Biso   1.000  Zr
  Zr12     1.0000 0.36411  0.97529  0.34613  Biso   1.000  Zr
  Zr13     1.0000 0.36787  0.02570  0.86894  Biso   1.000  Zr
  Zr14     1.0000 0.88691  0.02567  0.34987  Biso   1.000  Zr
  Zr15     1.0000 0.86678  0.98206  0.84879  Biso   1.000  Zr
  Zr16     1.0000 0.98321  0.33274  0.25175  Biso   1.000  Zr
  Zr17     1.0000 0.99279  0.24671  0.75048  Biso   1.000  Zr
  Zr18     1.0000 0.49541  0.24120  0.25405  Biso   1.000  Zr
  Zr19     1.0000 0.48831  0.25687  0.75223  Biso   1.000  Zr
  Zr20     1.0000 0.01600  0.22851  0.49654  Biso   1.000  Zr
  Zr21     1.0000 0.01930  0.15151  0.00133  Biso   1.000  Zr
  Zr22     1.0000 0.52574  0.29429  0.50777  Biso   1.000  Zr
  Zr23     1.0000 0.51452  0.22853  0.99803  Biso   1.000  Zr
  Zr24     1.0000 0.51754  0.73365  0.22267  Biso   1.000  Zr
  Zr25     1.0000 0.51181  0.75057  0.72423  Biso   1.000  Zr
  Zr26     1.0000 0.01851  0.83581  0.16020  Biso   1.000  Zr
  Zr27     1.0000 0.01071  0.74240  0.69895  Biso   1.000  Zr
  Zr28     1.0000 0.49371  0.78153  0.47571  Biso   1.000  Zr
  Zr29     1.0000 0.45576  0.72432  0.97121  Biso   1.000  Zr
  Zr30     1.0000 0.98921  0.72429  0.43775  Biso   1.000  Zr
  Zr31     1.0000 0.95733  0.65257  0.93932  Biso   1.000  Zr
  Zr32     1.0000 0.24595  0.22221  0.22795  Biso   1.000  Zr
  Zr33     1.0000 0.24313  0.25818  0.72141  Biso   1.000  Zr
  Zr34     1.0000 0.73941  0.25815  0.22511  Biso   1.000  Zr
  Zr35     1.0000 0.74050  0.24520  0.72248  Biso   1.000  Zr
  Zr36     1.0000 0.27202  0.24117  0.47742  Biso   1.000  Zr
  Zr37     1.0000 0.26974  0.33276  0.96522  Biso   1.000  Zr
  Zr38     1.0000 0.77020  0.25691  0.47029  Biso   1.000  Zr
  Zr39     1.0000 0.76846  0.24676  0.97476  Biso   1.000  Zr
  Zr40     1.0000 0.24067  0.73363  0.49956  Biso   1.000  Zr
  Zr41     1.0000 0.17819  0.83583  0.00054  Biso   1.000  Zr
  Zr42     1.0000 0.74224  0.75060  0.49382  Biso   1.000  Zr
  Zr43     1.0000 0.71697  0.74245  0.99271  Biso   1.000  Zr
  Zr44     1.0000 0.26632  0.70853  0.24834  Biso   1.000  Zr
  Zr45     1.0000 0.25945  0.75756  0.75691  Biso   1.000  Zr
  Zr46     1.0000 0.77489  0.75752  0.24146  Biso   1.000  Zr
  Zr47     1.0000 0.75924  0.73556  0.74126  Biso   1.000  Zr
