data_image0
_cell_length_a       5.0625
_cell_length_b       10.2749
_cell_length_c       10.1935
_cell_angle_alpha    89.384
_cell_angle_beta     91.768
_cell_angle_gamma    89.821

_symmetry_space_group_name_H-M    "P 1"
_symmetry_int_tables_number       1

loop_
  _symmetry_equiv_pos_as_xyz
  'x, y, z'

loop_
  _atom_site_label
  _atom_site_occupancy
  _atom_site_fract_x
  _atom_site_fract_y
  _atom_site_fract_z
  _atom_site_thermal_displace_type
  _atom_site_B_iso_or_equiv
  _atom_site_type_symbol
  Zr1      1.0000 0.25141  0.00316  0.13492  Biso   1.000  Zr
  Zr2      1.0000 0.24647  0.25939  0.38181  Biso   1.000  Zr
  Zr3      1.0000 0.72104  0.24441  0.15403  Biso   1.000  Zr
  Zr4      1.0000 0.75973  0.99637  0.38728  Biso   1.000  Zr
  Zr5      1.0000 0.98772  0.15557  0.91284  Biso   1.000  Zr
  Zr6      1.0000 0.96963  0.10401  0.25470  Biso   1.000  Zr
  Zr7      1.0000 0.00719  0.36299  0.24125  Biso   1.000  Zr
  Zr8      1.0000 0.09783  0.42956  0.96771  Biso   1.000  Zr
  Zr9      1.0000 0.46246  0.14218  0.25952  Biso   1.000  Zr
  Zr10     1.0000 0.52159  0.11237  0.00966  Biso   1.000  Zr
  Zr11     1.0000 0.58753  0.37177  0.01111  Biso   1.000  Zr
  Zr12     1.0000 0.50068  0.39629  0.26025  Biso   1.000  Zr
  Zr13     1.0000 0.25760  0.00898  0.61722  Biso   1.000  Zr
  Zr14     1.0000 0.32395  0.27230  0.88554  Biso   1.000  Zr
  Zr15     1.0000 0.76542  0.24039  0.63278  Biso   1.000  Zr
  Zr16     1.0000 0.71183  0.99188  0.86732  Biso   1.000  Zr
  Zr17     1.0000 0.01112  0.14629  0.49432  Biso   1.000  Zr
  Zr18     1.0000 0.92318  0.06087  0.70915  Biso   1.000  Zr
  Zr19     1.0000 0.08066  0.32895  0.72518  Biso   1.000  Zr
  Zr20     1.0000 0.00836  0.39609  0.49266  Biso   1.000  Zr
  Zr21     1.0000 0.47891  0.14311  0.75066  Biso   1.000  Zr
  Zr22     1.0000 0.51313  0.10713  0.50079  Biso   1.000  Zr
  Zr23     1.0000 0.50311  0.35173  0.50973  Biso   1.000  Zr
  Zr24     1.0000 0.56586  0.39423  0.75746  Biso   1.000  Zr
  Zr25     1.0000 0.25818  0.51341  0.13242  Biso   1.000  Zr
  Zr26     1.0000 0.26226  0.74813  0.38200  Biso   1.000  Zr
  Zr27     1.0000 0.74666  0.76747  0.12798  Biso   1.000  Zr
  Zr28     1.0000 0.76393  0.50489  0.37528  Biso   1.000  Zr
  Zr29     1.0000 0.00149  0.66272  0.01153  Biso   1.000  Zr
  Zr30     1.0000 0.01009  0.60954  0.25683  Biso   1.000  Zr
  Zr31     1.0000 0.01696  0.85726  0.26114  Biso   1.000  Zr
  Zr32     1.0000 0.94558  0.92667  0.02552  Biso   1.000  Zr
  Zr33     1.0000 0.50734  0.65009  0.25306  Biso   1.000  Zr
  Zr34     1.0000 0.50713  0.61850  0.00505  Biso   1.000  Zr
  Zr35     1.0000 0.45769  0.86111  0.00805  Biso   1.000  Zr
  Zr36     1.0000 0.51492  0.89743  0.25629  Biso   1.000  Zr
  Zr37     1.0000 0.27154  0.48835  0.62890  Biso   1.000  Zr
  Zr38     1.0000 0.25315  0.74221  0.87120  Biso   1.000  Zr
  Zr39     1.0000 0.76569  0.73719  0.62465  Biso   1.000  Zr
  Zr40     1.0000 0.76293  0.51735  0.88993  Biso   1.000  Zr
  Zr41     1.0000 0.02356  0.64097  0.50613  Biso   1.000  Zr
  Zr42     1.0000 0.01560  0.59143  0.74987  Biso   1.000  Zr
  Zr43     1.0000 0.91384  0.82529  0.78857  Biso   1.000  Zr
  Zr44     1.0000 0.00662  0.88527  0.51124  Biso   1.000  Zr
  Zr45     1.0000 0.50440  0.64020  0.75153  Biso   1.000  Zr
  Zr46     1.0000 0.52182  0.60145  0.50295  Biso   1.000  Zr
  Zr47     1.0000 0.50898  0.85516  0.50809  Biso   1.000  Zr
  Zr48     1.0000 0.41891  0.89252  0.75978  Biso   1.000  Zr
  N1       1.0000 0.05089  0.19647  0.03213  Biso   1.000  N 
