data_image0
_cell_length_a       10.0749
_cell_length_b       10.3598
_cell_length_c       5.05844
_cell_angle_alpha    87.6639
_cell_angle_beta     89.423
_cell_angle_gamma    90.6979

_symmetry_space_group_name_H-M    "P 1"
_symmetry_int_tables_number       1

loop_
  _symmetry_equiv_pos_as_xyz
  'x, y, z'

loop_
  _atom_site_label
  _atom_site_occupancy
  _atom_site_fract_x
  _atom_site_fract_y
  _atom_site_fract_z
  _atom_site_thermal_displace_type
  _atom_site_B_iso_or_equiv
  _atom_site_type_symbol
  Hf1      1.0000 0.10499  0.97680  0.25341  Biso   1.000  Hf
  Hf2      1.0000 0.12594  0.25309  0.80806  Biso   1.000  Hf
  Hf3      1.0000 0.40417  0.23767  0.26094  Biso   1.000  Hf
  Hf4      1.0000 0.35651  0.01864  0.77958  Biso   1.000  Hf
  Hf5      1.0000 0.99218  0.13861  0.05868  Biso   1.000  Hf
  Hf6      1.0000 0.02903  0.07738  0.56486  Biso   1.000  Hf
  Hf7      1.0000 0.97484  0.32103  0.57317  Biso   1.000  Hf
  Hf8      1.0000 0.00591  0.38811  0.05107  Biso   1.000  Hf
  Hf9      1.0000 0.27459  0.18083  0.58199  Biso   1.000  Hf
  Hf10     1.0000 0.24532  0.11066  0.07085  Biso   1.000  Hf
  Hf11     1.0000 0.25678  0.36071  0.05498  Biso   1.000  Hf
  Hf12     1.0000 0.21066  0.42483  0.56485  Biso   1.000  Hf
  Hf13     1.0000 0.14228  0.52082  0.22771  Biso   1.000  Hf
  Hf14     1.0000 0.14360  0.76546  0.73441  Biso   1.000  Hf
  Hf15     1.0000 0.39130  0.73743  0.19394  Biso   1.000  Hf
  Hf16     1.0000 0.38389  0.48624  0.74723  Biso   1.000  Hf
  Hf17     1.0000 0.01389  0.63522  0.93666  Biso   1.000  Hf
  Hf18     1.0000 0.97084  0.57553  0.41809  Biso   1.000  Hf
  Hf19     1.0000 0.00365  0.82592  0.45893  Biso   1.000  Hf
  Hf20     1.0000 0.99990  0.88273  0.96660  Biso   1.000  Hf
  Hf21     1.0000 0.22750  0.67400  0.42467  Biso   1.000  Hf
  Hf22     1.0000 0.26311  0.61687  0.94495  Biso   1.000  Hf
  Hf23     1.0000 0.25018  0.86432  0.01463  Biso   1.000  Hf
  Hf24     1.0000 0.24583  0.91866  0.52261  Biso   1.000  Hf
  Hf25     1.0000 0.61162  0.98189  0.23550  Biso   1.000  Hf
  Hf26     1.0000 0.62703  0.25516  0.76491  Biso   1.000  Hf
  Hf27     1.0000 0.84655  0.26222  0.26356  Biso   1.000  Hf
  Hf28     1.0000 0.86624  0.01632  0.78523  Biso   1.000  Hf
  Hf29     1.0000 0.49859  0.13202  0.98475  Biso   1.000  Hf
  Hf30     1.0000 0.50091  0.08672  0.48958  Biso   1.000  Hf
  Hf31     1.0000 0.48032  0.34030  0.55312  Biso   1.000  Hf
  Hf32     1.0000 0.50304  0.38804  0.02783  Biso   1.000  Hf
  Hf33     1.0000 0.76895  0.16052  0.57241  Biso   1.000  Hf
  Hf34     1.0000 0.74713  0.11349  0.05667  Biso   1.000  Hf
  Hf35     1.0000 0.75292  0.37135  0.97731  Biso   1.000  Hf
  Hf36     1.0000 0.74182  0.40973  0.48459  Biso   1.000  Hf
  Hf37     1.0000 0.63472  0.51594  0.21086  Biso   1.000  Hf
  Hf38     1.0000 0.64483  0.76593  0.72617  Biso   1.000  Hf
  Hf39     1.0000 0.88769  0.73138  0.19590  Biso   1.000  Hf
  Hf40     1.0000 0.89623  0.48268  0.74711  Biso   1.000  Hf
  Hf41     1.0000 0.51229  0.63828  0.93214  Biso   1.000  Hf
  Hf42     1.0000 0.46634  0.57638  0.41488  Biso   1.000  Hf
  Hf43     1.0000 0.51031  0.82890  0.44526  Biso   1.000  Hf
  Hf44     1.0000 0.50021  0.88802  0.95095  Biso   1.000  Hf
  Hf45     1.0000 0.72345  0.66749  0.41936  Biso   1.000  Hf
  Hf46     1.0000 0.76372  0.61365  0.93630  Biso   1.000  Hf
  Hf47     1.0000 0.75124  0.86190  0.01468  Biso   1.000  Hf
  Hf48     1.0000 0.74521  0.92006  0.52561  Biso   1.000  Hf
  Na1      1.0000 0.12341  0.24606  0.31571  Biso   1.000  Na
