data_image0
_cell_length_a       10.0635
_cell_length_b       10.1905
_cell_length_c       10.0635
_cell_angle_alpha    89.9988
_cell_angle_beta     90
_cell_angle_gamma    89.9975

_symmetry_space_group_name_H-M    "P 1"
_symmetry_int_tables_number       1

loop_
  _symmetry_equiv_pos_as_xyz
  'x, y, z'

loop_
  _atom_site_label
  _atom_site_occupancy
  _atom_site_fract_x
  _atom_site_fract_y
  _atom_site_fract_z
  _atom_site_thermal_displace_type
  _atom_site_B_iso_or_equiv
  _atom_site_type_symbol
  Na1      1.0000 0.12508  0.99988  0.12508  Biso   1.000  Na
  Zr1      1.0000 0.12508  0.99989  0.62507  Biso   1.000  Zr
  Zr2      1.0000 0.12508  0.49989  0.12508  Biso   1.000  Zr
  Zr3      1.0000 0.12508  0.49988  0.62507  Biso   1.000  Zr
  Zr4      1.0000 0.62507  0.99989  0.12508  Biso   1.000  Zr
  Zr5      1.0000 0.62507  0.99988  0.62507  Biso   1.000  Zr
  Zr6      1.0000 0.62507  0.49988  0.12507  Biso   1.000  Zr
  Zr7      1.0000 0.62508  0.49988  0.62508  Biso   1.000  Zr
  Zr8      1.0000 0.12492  0.24782  0.37224  Biso   1.000  Zr
  Zr9      1.0000 0.12524  0.24782  0.87793  Biso   1.000  Zr
  Zr10     1.0000 0.12524  0.75195  0.37224  Biso   1.000  Zr
  Zr11     1.0000 0.12492  0.75195  0.87792  Biso   1.000  Zr
  Zr12     1.0000 0.62499  0.24914  0.37477  Biso   1.000  Zr
  Zr13     1.0000 0.62517  0.24915  0.87540  Biso   1.000  Zr
  Zr14     1.0000 0.62517  0.75062  0.37477  Biso   1.000  Zr
  Zr15     1.0000 0.62499  0.75062  0.87539  Biso   1.000  Zr
  Zr16     1.0000 0.37224  0.24782  0.12492  Biso   1.000  Zr
  Zr17     1.0000 0.37477  0.24915  0.62499  Biso   1.000  Zr
  Zr18     1.0000 0.37224  0.75196  0.12524  Biso   1.000  Zr
  Zr19     1.0000 0.37477  0.75062  0.62517  Biso   1.000  Zr
  Zr20     1.0000 0.87793  0.24782  0.12524  Biso   1.000  Zr
  Zr21     1.0000 0.87539  0.24915  0.62518  Biso   1.000  Zr
  Zr22     1.0000 0.87792  0.75195  0.12492  Biso   1.000  Zr
  Zr23     1.0000 0.87539  0.75062  0.62499  Biso   1.000  Zr
  Zr24     1.0000 0.37169  0.99838  0.37169  Biso   1.000  Zr
  Zr25     1.0000 0.37169  0.00140  0.87846  Biso   1.000  Zr
  Zr26     1.0000 0.37491  0.49901  0.37491  Biso   1.000  Zr
  Zr27     1.0000 0.37491  0.50077  0.87524  Biso   1.000  Zr
  Zr28     1.0000 0.87846  0.00140  0.37169  Biso   1.000  Zr
  Zr29     1.0000 0.87846  0.99838  0.87846  Biso   1.000  Zr
  Zr30     1.0000 0.87524  0.50077  0.37491  Biso   1.000  Zr
  Zr31     1.0000 0.87524  0.49901  0.87524  Biso   1.000  Zr
  Zr32     1.0000 0.99413  0.14251  0.99413  Biso   1.000  Zr
  Zr33     1.0000 0.00390  0.14195  0.50478  Biso   1.000  Zr
  Zr34     1.0000 0.00338  0.63493  0.00338  Biso   1.000  Zr
  Zr35     1.0000 0.00155  0.64187  0.50265  Biso   1.000  Zr
  Zr36     1.0000 0.50478  0.14195  0.00390  Biso   1.000  Zr
  Zr37     1.0000 0.50320  0.14407  0.50320  Biso   1.000  Zr
  Zr38     1.0000 0.50265  0.64187  0.00155  Biso   1.000  Zr
  Zr39     1.0000 0.50146  0.64317  0.50146  Biso   1.000  Zr
  Zr40     1.0000 0.99202  0.12290  0.25815  Biso   1.000  Zr
  Zr41     1.0000 0.99812  0.10725  0.75036  Biso   1.000  Zr
  Zr42     1.0000 0.99837  0.61129  0.25178  Biso   1.000  Zr
  Zr43     1.0000 0.99895  0.60763  0.75208  Biso   1.000  Zr
  Zr44     1.0000 0.49980  0.10725  0.25205  Biso   1.000  Zr
  Zr45     1.0000 0.49812  0.10619  0.75204  Biso   1.000  Zr
  Zr46     1.0000 0.49806  0.60763  0.25120  Biso   1.000  Zr
  Zr47     1.0000 0.49931  0.60636  0.75084  Biso   1.000  Zr
  Zr48     1.0000 0.00339  0.36484  0.24677  Biso   1.000  Zr
  Zr49     1.0000 0.00155  0.35790  0.74750  Biso   1.000  Zr
  Zr50     1.0000 0.99413  0.85726  0.25602  Biso   1.000  Zr
  Zr51     1.0000 0.00389  0.85783  0.74537  Biso   1.000  Zr
  Zr52     1.0000 0.50265  0.35790  0.24860  Biso   1.000  Zr
  Zr53     1.0000 0.50146  0.35660  0.74869  Biso   1.000  Zr
  Zr54     1.0000 0.50478  0.85782  0.24626  Biso   1.000  Zr
  Zr55     1.0000 0.50320  0.85569  0.74695  Biso   1.000  Zr
  Zr56     1.0000 0.99837  0.38847  0.99837  Biso   1.000  Zr
  Zr57     1.0000 0.99896  0.39214  0.49807  Biso   1.000  Zr
  Zr58     1.0000 0.99201  0.87687  0.99201  Biso   1.000  Zr
  Zr59     1.0000 0.99811  0.89252  0.49979  Biso   1.000  Zr
  Zr60     1.0000 0.49807  0.39214  0.99896  Biso   1.000  Zr
  Zr61     1.0000 0.49931  0.39341  0.49931  Biso   1.000  Zr
  Zr62     1.0000 0.49979  0.89252  0.99812  Biso   1.000  Zr
  Zr63     1.0000 0.49812  0.89357  0.49812  Biso   1.000  Zr
  Zr64     1.0000 0.25603  0.14252  0.25603  Biso   1.000  Zr
  Zr65     1.0000 0.24626  0.14195  0.74538  Biso   1.000  Zr
  Zr66     1.0000 0.24676  0.63493  0.24677  Biso   1.000  Zr
  Zr67     1.0000 0.24860  0.64187  0.74750  Biso   1.000  Zr
  Zr68     1.0000 0.74538  0.14195  0.24626  Biso   1.000  Zr
  Zr69     1.0000 0.74696  0.14407  0.74696  Biso   1.000  Zr
  Zr70     1.0000 0.74750  0.64187  0.24860  Biso   1.000  Zr
  Zr71     1.0000 0.74869  0.64317  0.74869  Biso   1.000  Zr
  Zr72     1.0000 0.25815  0.12290  0.99202  Biso   1.000  Zr
  Zr73     1.0000 0.25204  0.10725  0.49980  Biso   1.000  Zr
  Zr74     1.0000 0.25178  0.61129  0.99837  Biso   1.000  Zr
  Zr75     1.0000 0.25119  0.60763  0.49807  Biso   1.000  Zr
  Zr76     1.0000 0.75036  0.10725  0.99812  Biso   1.000  Zr
  Zr77     1.0000 0.75204  0.10619  0.49812  Biso   1.000  Zr
  Zr78     1.0000 0.75208  0.60763  0.99895  Biso   1.000  Zr
  Zr79     1.0000 0.75084  0.60636  0.49931  Biso   1.000  Zr
  Zr80     1.0000 0.24677  0.36484  0.00339  Biso   1.000  Zr
  Zr81     1.0000 0.24860  0.35790  0.50266  Biso   1.000  Zr
  Zr82     1.0000 0.25602  0.85726  0.99413  Biso   1.000  Zr
  Zr83     1.0000 0.24626  0.85782  0.50478  Biso   1.000  Zr
  Zr84     1.0000 0.74750  0.35790  0.00156  Biso   1.000  Zr
  Zr85     1.0000 0.74869  0.35660  0.50146  Biso   1.000  Zr
  Zr86     1.0000 0.74537  0.85782  0.00390  Biso   1.000  Zr
  Zr87     1.0000 0.74695  0.85569  0.50320  Biso   1.000  Zr
  Zr88     1.0000 0.25178  0.38848  0.25179  Biso   1.000  Zr
  Zr89     1.0000 0.25120  0.39214  0.75209  Biso   1.000  Zr
  Zr90     1.0000 0.25814  0.87687  0.25815  Biso   1.000  Zr
  Zr91     1.0000 0.25204  0.89252  0.75036  Biso   1.000  Zr
  Zr92     1.0000 0.75209  0.39214  0.25120  Biso   1.000  Zr
  Zr93     1.0000 0.75084  0.39341  0.75085  Biso   1.000  Zr
  Zr94     1.0000 0.75036  0.89252  0.25205  Biso   1.000  Zr
  Zr95     1.0000 0.75204  0.89357  0.75204  Biso   1.000  Zr
