data_image0
_cell_length_a       10.1208
_cell_length_b       5.2788
_cell_length_c       10.1443
_cell_angle_alpha    86.5274
_cell_angle_beta     89.705
_cell_angle_gamma    89.6873

_symmetry_space_group_name_H-M    "P 1"
_symmetry_int_tables_number       1

loop_
  _symmetry_equiv_pos_as_xyz
  'x, y, z'

loop_
  _atom_site_label
  _atom_site_occupancy
  _atom_site_fract_x
  _atom_site_fract_y
  _atom_site_fract_z
  _atom_site_thermal_displace_type
  _atom_site_B_iso_or_equiv
  _atom_site_type_symbol
  Zr1      1.0000 0.14472  0.10535  0.12391  Biso   1.000  Zr
  Zr2      1.0000 0.13778  0.46222  0.38230  Biso   1.000  Zr
  Zr3      1.0000 0.37407  0.56770  0.12181  Biso   1.000  Zr
  Zr4      1.0000 0.36478  0.95873  0.37868  Biso   1.000  Zr
  Zr5      1.0000 0.02352  0.37525  0.21003  Biso   1.000  Zr
  Zr6      1.0000 0.04117  0.11407  0.44476  Biso   1.000  Zr
  Zr7      1.0000 0.47351  0.86212  0.21191  Biso   1.000  Zr
  Zr8      1.0000 0.46518  0.62245  0.45315  Biso   1.000  Zr
  Zr9      1.0000 0.27840  0.26090  0.25117  Biso   1.000  Zr
  Zr10     1.0000 0.27325  0.24130  0.50433  Biso   1.000  Zr
  Zr11     1.0000 0.22798  0.73790  0.50339  Biso   1.000  Zr
  Zr12     1.0000 0.22799  0.75196  0.25121  Biso   1.000  Zr
  Zr13     1.0000 0.13962  0.99845  0.62656  Biso   1.000  Zr
  Zr14     1.0000 0.10063  0.46085  0.83432  Biso   1.000  Zr
  Zr15     1.0000 0.36603  0.50701  0.62917  Biso   1.000  Zr
  Zr16     1.0000 0.39296  0.97478  0.85283  Biso   1.000  Zr
  Zr17     1.0000 0.02175  0.30377  0.67563  Biso   1.000  Zr
  Zr18     1.0000 0.03309  0.12060  0.94160  Biso   1.000  Zr
  Zr19     1.0000 0.47997  0.81370  0.69088  Biso   1.000  Zr
  Zr20     1.0000 0.47513  0.63527  0.94485  Biso   1.000  Zr
  Zr21     1.0000 0.25667  0.21652  0.75314  Biso   1.000  Zr
  Zr22     1.0000 0.22895  0.39705  0.00543  Biso   1.000  Zr
  Zr23     1.0000 0.27697  0.89606  0.01401  Biso   1.000  Zr
  Zr24     1.0000 0.24393  0.71376  0.75684  Biso   1.000  Zr
  Zr25     1.0000 0.63466  0.03442  0.13068  Biso   1.000  Zr
  Zr26     1.0000 0.62723  0.46451  0.37254  Biso   1.000  Zr
  Zr27     1.0000 0.84921  0.52684  0.12795  Biso   1.000  Zr
  Zr28     1.0000 0.87944  0.96437  0.36448  Biso   1.000  Zr
  Zr29     1.0000 0.53776  0.37336  0.19432  Biso   1.000  Zr
  Zr30     1.0000 0.53075  0.12856  0.44939  Biso   1.000  Zr
  Zr31     1.0000 0.96600  0.88181  0.18695  Biso   1.000  Zr
  Zr32     1.0000 0.96909  0.62791  0.44731  Biso   1.000  Zr
  Zr33     1.0000 0.76401  0.22999  0.25027  Biso   1.000  Zr
  Zr34     1.0000 0.76682  0.26211  0.49543  Biso   1.000  Zr
  Zr35     1.0000 0.73262  0.76214  0.49351  Biso   1.000  Zr
  Zr36     1.0000 0.73330  0.73237  0.25023  Biso   1.000  Zr
  Zr37     1.0000 0.64141  0.01339  0.61792  Biso   1.000  Zr
  Zr38     1.0000 0.63290  0.45451  0.87258  Biso   1.000  Zr
  Zr39     1.0000 0.85876  0.51921  0.61656  Biso   1.000  Zr
  Zr40     1.0000 0.86782  0.95523  0.87642  Biso   1.000  Zr
  Zr41     1.0000 0.51775  0.29837  0.71750  Biso   1.000  Zr
  Zr42     1.0000 0.52992  0.13922  0.96169  Biso   1.000  Zr
  Zr43     1.0000 0.98708  0.78831  0.71583  Biso   1.000  Zr
  Zr44     1.0000 0.95615  0.61311  0.95111  Biso   1.000  Zr
  Zr45     1.0000 0.76518  0.21258  0.74575  Biso   1.000  Zr
  Zr46     1.0000 0.76783  0.26651  0.99809  Biso   1.000  Zr
  Zr47     1.0000 0.72751  0.77172  0.99970  Biso   1.000  Zr
  Zr48     1.0000 0.73672  0.71615  0.74707  Biso   1.000  Zr
  Na1      1.0000 0.10600  0.66374  0.08255  Biso   1.000  Na
