data_image0
_cell_length_a       10.0996
_cell_length_b       10.236
_cell_length_c       10.0974
_cell_angle_alpha    90.0009
_cell_angle_beta     90.0006
_cell_angle_gamma    90.001

_symmetry_space_group_name_H-M    "P 1"
_symmetry_int_tables_number       1

loop_
  _symmetry_equiv_pos_as_xyz
  'x, y, z'

loop_
  _atom_site_label
  _atom_site_occupancy
  _atom_site_fract_x
  _atom_site_fract_y
  _atom_site_fract_z
  _atom_site_thermal_displace_type
  _atom_site_B_iso_or_equiv
  _atom_site_type_symbol
  Zr1      1.0000 0.12562  0.98402  0.12562  Biso   1.000  Zr
  Zr2      1.0000 0.12560  0.24992  0.39062  Biso   1.000  Zr
  Zr3      1.0000 0.38925  0.24991  0.12560  Biso   1.000  Zr
  Zr4      1.0000 0.37482  0.00421  0.37478  Biso   1.000  Zr
  Zr5      1.0000 0.99230  0.15197  0.99267  Biso   1.000  Zr
  Zr6      1.0000 0.00533  0.09976  0.24610  Biso   1.000  Zr
  Zr7      1.0000 0.99230  0.34787  0.25855  Biso   1.000  Zr
  Zr8      1.0000 0.00533  0.40008  0.00512  Biso   1.000  Zr
  Zr9      1.0000 0.25890  0.15196  0.25854  Biso   1.000  Zr
  Zr10     1.0000 0.24588  0.09976  0.00512  Biso   1.000  Zr
  Zr11     1.0000 0.25891  0.34788  0.99268  Biso   1.000  Zr
  Zr12     1.0000 0.24588  0.40008  0.24610  Biso   1.000  Zr
  Zr13     1.0000 0.12561  0.99584  0.62561  Biso   1.000  Zr
  Zr14     1.0000 0.12561  0.24992  0.86059  Biso   1.000  Zr
  Zr15     1.0000 0.37813  0.24992  0.62561  Biso   1.000  Zr
  Zr16     1.0000 0.37315  0.00108  0.87803  Biso   1.000  Zr
  Zr17     1.0000 0.99545  0.14290  0.49992  Biso   1.000  Zr
  Zr18     1.0000 0.00297  0.10493  0.74754  Biso   1.000  Zr
  Zr19     1.0000 0.99545  0.35694  0.75131  Biso   1.000  Zr
  Zr20     1.0000 0.00297  0.39490  0.50368  Biso   1.000  Zr
  Zr21     1.0000 0.25576  0.14290  0.75130  Biso   1.000  Zr
  Zr22     1.0000 0.24824  0.10493  0.50367  Biso   1.000  Zr
  Zr23     1.0000 0.25576  0.35694  0.49991  Biso   1.000  Zr
  Zr24     1.0000 0.24825  0.39490  0.74754  Biso   1.000  Zr
  Zr25     1.0000 0.12561  0.51582  0.12561  Biso   1.000  Zr
  Zr26     1.0000 0.12561  0.74992  0.37976  Biso   1.000  Zr
  Zr27     1.0000 0.37980  0.74992  0.12561  Biso   1.000  Zr
  Zr28     1.0000 0.37315  0.49876  0.37319  Biso   1.000  Zr
  Zr29     1.0000 0.00153  0.64963  0.00175  Biso   1.000  Zr
  Zr30     1.0000 0.99902  0.60415  0.25262  Biso   1.000  Zr
  Zr31     1.0000 0.00153  0.85022  0.24948  Biso   1.000  Zr
  Zr32     1.0000 0.99902  0.89569  0.99861  Biso   1.000  Zr
  Zr33     1.0000 0.24970  0.64962  0.24948  Biso   1.000  Zr
  Zr34     1.0000 0.25221  0.60415  0.99861  Biso   1.000  Zr
  Zr35     1.0000 0.24970  0.85022  0.00175  Biso   1.000  Zr
  Zr36     1.0000 0.25221  0.89568  0.25262  Biso   1.000  Zr
  Zr37     1.0000 0.12561  0.50400  0.62561  Biso   1.000  Zr
  Zr38     1.0000 0.12561  0.74992  0.87146  Biso   1.000  Zr
  Zr39     1.0000 0.37732  0.74992  0.62561  Biso   1.000  Zr
  Zr40     1.0000 0.37481  0.49563  0.87645  Biso   1.000  Zr
  Zr41     1.0000 0.99975  0.64482  0.50221  Biso   1.000  Zr
  Zr42     1.0000 0.00217  0.60517  0.75280  Biso   1.000  Zr
  Zr43     1.0000 0.99975  0.85502  0.74901  Biso   1.000  Zr
  Zr44     1.0000 0.00217  0.89467  0.49842  Biso   1.000  Zr
  Zr45     1.0000 0.25147  0.64482  0.74902  Biso   1.000  Zr
  Zr46     1.0000 0.24905  0.60516  0.49843  Biso   1.000  Zr
  Zr47     1.0000 0.25147  0.85502  0.50222  Biso   1.000  Zr
  Zr48     1.0000 0.24905  0.89467  0.75280  Biso   1.000  Zr
  Zr49     1.0000 0.62561  0.99606  0.12562  Biso   1.000  Zr
  Zr50     1.0000 0.62560  0.24992  0.37830  Biso   1.000  Zr
  Zr51     1.0000 0.86196  0.24992  0.12561  Biso   1.000  Zr
  Zr52     1.0000 0.87807  0.00108  0.37320  Biso   1.000  Zr
  Zr53     1.0000 0.50020  0.14378  0.99699  Biso   1.000  Zr
  Zr54     1.0000 0.50418  0.10476  0.24899  Biso   1.000  Zr
  Zr55     1.0000 0.50019  0.35606  0.25422  Biso   1.000  Zr
  Zr56     1.0000 0.50418  0.39508  0.00223  Biso   1.000  Zr
  Zr57     1.0000 0.75102  0.14377  0.25422  Biso   1.000  Zr
  Zr58     1.0000 0.74704  0.10476  0.00223  Biso   1.000  Zr
  Zr59     1.0000 0.75102  0.35606  0.99700  Biso   1.000  Zr
  Zr60     1.0000 0.74703  0.39508  0.24899  Biso   1.000  Zr
  Zr61     1.0000 0.62561  0.99822  0.62561  Biso   1.000  Zr
  Zr62     1.0000 0.62561  0.24992  0.87292  Biso   1.000  Zr
  Zr63     1.0000 0.87308  0.24992  0.62561  Biso   1.000  Zr
  Zr64     1.0000 0.87641  0.00421  0.87645  Biso   1.000  Zr
  Zr65     1.0000 0.49833  0.14643  0.49879  Biso   1.000  Zr
  Zr66     1.0000 0.50224  0.10328  0.75006  Biso   1.000  Zr
  Zr67     1.0000 0.49833  0.35341  0.75243  Biso   1.000  Zr
  Zr68     1.0000 0.50224  0.39655  0.50116  Biso   1.000  Zr
  Zr69     1.0000 0.75288  0.14643  0.75243  Biso   1.000  Zr
  Zr70     1.0000 0.74897  0.10328  0.50116  Biso   1.000  Zr
  Zr71     1.0000 0.75288  0.35341  0.49879  Biso   1.000  Zr
  Zr72     1.0000 0.74898  0.39656  0.75006  Biso   1.000  Zr
  Zr73     1.0000 0.62561  0.50378  0.12561  Biso   1.000  Zr
  Zr74     1.0000 0.62561  0.74992  0.37728  Biso   1.000  Zr
  Zr75     1.0000 0.87142  0.74992  0.12561  Biso   1.000  Zr
  Zr76     1.0000 0.87641  0.49563  0.37477  Biso   1.000  Zr
  Zr77     1.0000 0.50186  0.64491  0.99971  Biso   1.000  Zr
  Zr78     1.0000 0.49882  0.60503  0.24911  Biso   1.000  Zr
  Zr79     1.0000 0.50186  0.85493  0.25151  Biso   1.000  Zr
  Zr80     1.0000 0.49882  0.89481  0.00211  Biso   1.000  Zr
  Zr81     1.0000 0.74936  0.64491  0.25152  Biso   1.000  Zr
  Zr82     1.0000 0.75240  0.60503  0.00212  Biso   1.000  Zr
  Zr83     1.0000 0.74936  0.85493  0.99971  Biso   1.000  Zr
  Zr84     1.0000 0.75240  0.89481  0.24911  Biso   1.000  Zr
  Zr85     1.0000 0.62561  0.50161  0.62561  Biso   1.000  Zr
  Zr86     1.0000 0.62561  0.74992  0.87394  Biso   1.000  Zr
  Zr87     1.0000 0.87390  0.74992  0.62561  Biso   1.000  Zr
  Zr88     1.0000 0.87807  0.49876  0.87803  Biso   1.000  Zr
  Zr89     1.0000 0.49966  0.64640  0.49974  Biso   1.000  Zr
  Zr90     1.0000 0.50090  0.60290  0.75041  Biso   1.000  Zr
  Zr91     1.0000 0.49966  0.85343  0.75149  Biso   1.000  Zr
  Zr92     1.0000 0.50090  0.89693  0.50081  Biso   1.000  Zr
  Zr93     1.0000 0.75156  0.64641  0.75149  Biso   1.000  Zr
  Zr94     1.0000 0.75033  0.60290  0.50081  Biso   1.000  Zr
  Zr95     1.0000 0.75156  0.85343  0.49973  Biso   1.000  Zr
  Zr96     1.0000 0.75032  0.89693  0.75041  Biso   1.000  Zr
  Na1      1.0000 0.12560  0.24992  0.12561  Biso   1.000  Na
