data_image0
_cell_length_a       10.0175
_cell_length_b       10.4048
_cell_length_c       10.0635
_cell_angle_alpha    89.8273
_cell_angle_beta     89.9149
_cell_angle_gamma    89.7237

_symmetry_space_group_name_H-M    "P 1"
_symmetry_int_tables_number       1

loop_
  _symmetry_equiv_pos_as_xyz
  'x, y, z'

loop_
  _atom_site_label
  _atom_site_occupancy
  _atom_site_fract_x
  _atom_site_fract_y
  _atom_site_fract_z
  _atom_site_thermal_displace_type
  _atom_site_B_iso_or_equiv
  _atom_site_type_symbol
  Hf1      1.0000 0.12889  0.01291  0.12317  Biso   1.000  Hf
  Hf2      1.0000 0.13204  0.22876  0.38399  Biso   1.000  Hf
  Hf3      1.0000 0.38124  0.27134  0.11979  Biso   1.000  Hf
  Hf4      1.0000 0.36742  0.48407  0.37428  Biso   1.000  Hf
  Hf5      1.0000 0.99792  0.15981  0.23502  Biso   1.000  Hf
  Hf6      1.0000 0.03776  0.06043  0.45556  Biso   1.000  Hf
  Hf7      1.0000 0.46970  0.43645  0.19684  Biso   1.000  Hf
  Hf8      1.0000 0.46703  0.31821  0.44658  Biso   1.000  Hf
  Hf9      1.0000 0.26076  0.11652  0.24888  Biso   1.000  Hf
  Hf10     1.0000 0.27389  0.13050  0.50071  Biso   1.000  Hf
  Hf11     1.0000 0.23229  0.38385  0.49853  Biso   1.000  Hf
  Hf12     1.0000 0.23690  0.36708  0.24828  Biso   1.000  Hf
  Hf13     1.0000 0.13498  0.01041  0.62655  Biso   1.000  Hf
  Hf14     1.0000 0.13468  0.23352  0.85334  Biso   1.000  Hf
  Hf15     1.0000 0.37084  0.26674  0.62177  Biso   1.000  Hf
  Hf16     1.0000 0.37062  0.48848  0.87079  Biso   1.000  Hf
  Hf17     1.0000 0.03173  0.17592  0.68873  Biso   1.000  Hf
  Hf18     1.0000 0.03189  0.06595  0.94410  Biso   1.000  Hf
  Hf19     1.0000 0.46906  0.43309  0.69370  Biso   1.000  Hf
  Hf20     1.0000 0.46981  0.32068  0.94125  Biso   1.000  Hf
  Hf21     1.0000 0.27089  0.11442  0.74722  Biso   1.000  Hf
  Hf22     1.0000 0.25747  0.14900  0.00139  Biso   1.000  Hf
  Hf23     1.0000 0.23871  0.39736  0.99514  Biso   1.000  Hf
  Hf24     1.0000 0.23672  0.36827  0.74414  Biso   1.000  Hf
  Hf25     1.0000 0.13764  0.53181  0.12134  Biso   1.000  Hf
  Hf26     1.0000 0.13475  0.73414  0.37666  Biso   1.000  Hf
  Hf27     1.0000 0.36743  0.76884  0.12520  Biso   1.000  Hf
  Hf28     1.0000 0.36410  0.98537  0.37486  Biso   1.000  Hf
  Hf29     1.0000 0.03109  0.68330  0.20216  Biso   1.000  Hf
  Hf30     1.0000 0.03527  0.56724  0.44685  Biso   1.000  Hf
  Hf31     1.0000 0.46175  0.93451  0.19651  Biso   1.000  Hf
  Hf32     1.0000 0.46758  0.81838  0.44631  Biso   1.000  Hf
  Hf33     1.0000 0.27501  0.62179  0.24879  Biso   1.000  Hf
  Hf34     1.0000 0.27098  0.63252  0.49842  Biso   1.000  Hf
  Hf35     1.0000 0.23262  0.88121  0.49898  Biso   1.000  Hf
  Hf36     1.0000 0.22913  0.86672  0.24917  Biso   1.000  Hf
  Hf37     1.0000 0.13431  0.51533  0.62399  Biso   1.000  Hf
  Hf38     1.0000 0.13192  0.73650  0.87113  Biso   1.000  Hf
  Hf39     1.0000 0.36885  0.76492  0.62345  Biso   1.000  Hf
  Hf40     1.0000 0.36760  0.98385  0.87421  Biso   1.000  Hf
  Hf41     1.0000 0.03565  0.68170  0.69359  Biso   1.000  Hf
  Hf42     1.0000 0.03373  0.57033  0.94603  Biso   1.000  Hf
  Hf43     1.0000 0.46752  0.93198  0.69779  Biso   1.000  Hf
  Hf44     1.0000 0.46837  0.82024  0.94649  Biso   1.000  Hf
  Hf45     1.0000 0.26953  0.61642  0.74628  Biso   1.000  Hf
  Hf46     1.0000 0.27030  0.64350  0.99482  Biso   1.000  Hf
  Hf47     1.0000 0.23197  0.88849  0.99771  Biso   1.000  Hf
  Hf48     1.0000 0.23449  0.86448  0.74844  Biso   1.000  Hf
  Hf49     1.0000 0.62995  0.01093  0.12464  Biso   1.000  Hf
  Hf50     1.0000 0.63273  0.23103  0.37781  Biso   1.000  Hf
  Hf51     1.0000 0.84697  0.25931  0.12792  Biso   1.000  Hf
  Hf52     1.0000 0.86953  0.48052  0.37504  Biso   1.000  Hf
  Hf53     1.0000 0.53370  0.17978  0.20096  Biso   1.000  Hf
  Hf54     1.0000 0.53331  0.06657  0.44821  Biso   1.000  Hf
  Hf55     1.0000 0.97309  0.42111  0.19854  Biso   1.000  Hf
  Hf56     1.0000 0.96787  0.32040  0.45493  Biso   1.000  Hf
  Hf57     1.0000 0.75545  0.10966  0.25021  Biso   1.000  Hf
  Hf58     1.0000 0.77159  0.13422  0.49789  Biso   1.000  Hf
  Hf59     1.0000 0.73210  0.38347  0.50047  Biso   1.000  Hf
  Hf60     1.0000 0.72744  0.36802  0.25327  Biso   1.000  Hf
  Hf61     1.0000 0.63540  0.01366  0.62303  Biso   1.000  Hf
  Hf62     1.0000 0.63457  0.23213  0.87218  Biso   1.000  Hf
  Hf63     1.0000 0.86438  0.26619  0.62559  Biso   1.000  Hf
  Hf64     1.0000 0.86691  0.48213  0.87745  Biso   1.000  Hf
  Hf65     1.0000 0.53701  0.18203  0.69508  Biso   1.000  Hf
  Hf66     1.0000 0.52793  0.07221  0.94965  Biso   1.000  Hf
  Hf67     1.0000 0.97122  0.42790  0.70448  Biso   1.000  Hf
  Hf68     1.0000 0.96766  0.31526  0.95293  Biso   1.000  Hf
  Hf69     1.0000 0.77002  0.11437  0.74772  Biso   1.000  Hf
  Hf70     1.0000 0.76564  0.12864  0.99773  Biso   1.000  Hf
  Hf71     1.0000 0.72706  0.38201  0.99999  Biso   1.000  Hf
  Hf72     1.0000 0.73211  0.36702  0.75052  Biso   1.000  Hf
  Hf73     1.0000 0.63532  0.51899  0.12603  Biso   1.000  Hf
  Hf74     1.0000 0.63513  0.73441  0.37516  Biso   1.000  Hf
  Hf75     1.0000 0.86409  0.76387  0.12561  Biso   1.000  Hf
  Hf76     1.0000 0.87289  0.98782  0.36974  Biso   1.000  Hf
  Hf77     1.0000 0.53742  0.68599  0.19493  Biso   1.000  Hf
  Hf78     1.0000 0.53519  0.56777  0.44572  Biso   1.000  Hf
  Hf79     1.0000 0.96166  0.92656  0.19250  Biso   1.000  Hf
  Hf80     1.0000 0.96669  0.81797  0.44551  Biso   1.000  Hf
  Hf81     1.0000 0.77206  0.61437  0.24872  Biso   1.000  Hf
  Hf82     1.0000 0.77046  0.63321  0.49817  Biso   1.000  Hf
  Hf83     1.0000 0.73428  0.88552  0.49590  Biso   1.000  Hf
  Hf84     1.0000 0.72903  0.86409  0.24732  Biso   1.000  Hf
  Hf85     1.0000 0.63628  0.51699  0.62415  Biso   1.000  Hf
  Hf86     1.0000 0.63521  0.73364  0.87439  Biso   1.000  Hf
  Hf87     1.0000 0.86733  0.76592  0.62245  Biso   1.000  Hf
  Hf88     1.0000 0.86701  0.98116  0.87471  Biso   1.000  Hf
  Hf89     1.0000 0.53594  0.68216  0.69685  Biso   1.000  Hf
  Hf90     1.0000 0.53530  0.56994  0.94722  Biso   1.000  Hf
  Hf91     1.0000 0.96854  0.92732  0.70004  Biso   1.000  Hf
  Hf92     1.0000 0.96549  0.81568  0.94796  Biso   1.000  Hf
  Hf93     1.0000 0.77220  0.61504  0.74868  Biso   1.000  Hf
  Hf94     1.0000 0.77041  0.63162  0.99784  Biso   1.000  Hf
  Hf95     1.0000 0.72918  0.88135  0.99713  Biso   1.000  Hf
  Hf96     1.0000 0.73130  0.86477  0.74643  Biso   1.000  Hf
  Nb1      1.0000 0.10971  0.28012  0.10916  Biso   1.000  Nb
