data_image0
_cell_length_a       9.94599
_cell_length_b       10.3533
_cell_length_c       4.99313
_cell_angle_alpha    89.9466
_cell_angle_beta     89.9475
_cell_angle_gamma    89.9949

_symmetry_space_group_name_H-M    "P 1"
_symmetry_int_tables_number       1

loop_
  _symmetry_equiv_pos_as_xyz
  'x, y, z'

loop_
  _atom_site_label
  _atom_site_occupancy
  _atom_site_fract_x
  _atom_site_fract_y
  _atom_site_fract_z
  _atom_site_thermal_displace_type
  _atom_site_B_iso_or_equiv
  _atom_site_type_symbol
  Nb1      1.0000 0.13417  0.01931  0.25626  Biso   1.000  Nb
  Hf1      1.0000 0.13353  0.23252  0.75301  Biso   1.000  Hf
  Hf2      1.0000 0.36627  0.26707  0.25011  Biso   1.000  Hf
  Hf3      1.0000 0.36556  0.48386  0.75108  Biso   1.000  Hf
  Hf4      1.0000 0.03587  0.18217  0.39708  Biso   1.000  Hf
  Hf5      1.0000 0.03442  0.06653  0.91231  Biso   1.000  Hf
  Hf6      1.0000 0.46302  0.43470  0.38614  Biso   1.000  Hf
  Hf7      1.0000 0.46285  0.31530  0.88534  Biso   1.000  Hf
  Hf8      1.0000 0.27230  0.11856  0.49275  Biso   1.000  Hf
  Hf9      1.0000 0.26949  0.13038  0.99823  Biso   1.000  Hf
  Hf10     1.0000 0.22912  0.38180  0.99947  Biso   1.000  Hf
  Hf11     1.0000 0.22909  0.36749  0.49993  Biso   1.000  Hf
  Hf12     1.0000 0.13382  0.51614  0.25196  Biso   1.000  Hf
  Hf13     1.0000 0.13358  0.73383  0.75180  Biso   1.000  Hf
  Hf14     1.0000 0.36520  0.76711  0.25154  Biso   1.000  Hf
  Hf15     1.0000 0.36386  0.98283  0.75186  Biso   1.000  Hf
  Hf16     1.0000 0.03635  0.68391  0.38669  Biso   1.000  Hf
  Hf17     1.0000 0.03611  0.56550  0.88793  Biso   1.000  Hf
  Hf18     1.0000 0.46364  0.93396  0.38883  Biso   1.000  Hf
  Hf19     1.0000 0.46204  0.81565  0.88733  Biso   1.000  Hf
  Hf20     1.0000 0.27050  0.61830  0.49924  Biso   1.000  Hf
  Hf21     1.0000 0.27048  0.63225  0.99922  Biso   1.000  Hf
  Hf22     1.0000 0.22520  0.88315  0.00257  Biso   1.000  Hf
  Hf23     1.0000 0.22810  0.86861  0.49829  Biso   1.000  Hf
  Hf24     1.0000 0.63360  0.01602  0.24967  Biso   1.000  Hf
  Hf25     1.0000 0.63344  0.23284  0.75032  Biso   1.000  Hf
  Hf26     1.0000 0.86539  0.26549  0.25133  Biso   1.000  Hf
  Hf27     1.0000 0.86572  0.48329  0.75128  Biso   1.000  Hf
  Hf28     1.0000 0.53712  0.18470  0.38511  Biso   1.000  Hf
  Hf29     1.0000 0.53507  0.06534  0.88640  Biso   1.000  Hf
  Hf30     1.0000 0.96375  0.43295  0.38896  Biso   1.000  Hf
  Hf31     1.0000 0.96417  0.31568  0.89083  Biso   1.000  Hf
  Hf32     1.0000 0.77081  0.11685  0.49752  Biso   1.000  Hf
  Hf33     1.0000 0.77020  0.13205  0.99705  Biso   1.000  Hf
  Hf34     1.0000 0.72914  0.38177  0.99918  Biso   1.000  Hf
  Hf35     1.0000 0.72916  0.36744  0.49884  Biso   1.000  Hf
  Hf36     1.0000 0.63401  0.51666  0.25086  Biso   1.000  Hf
  Hf37     1.0000 0.63383  0.73407  0.74956  Biso   1.000  Hf
  Hf38     1.0000 0.86670  0.76644  0.24883  Biso   1.000  Hf
  Hf39     1.0000 0.86786  0.98381  0.75039  Biso   1.000  Hf
  Hf40     1.0000 0.53618  0.68470  0.38667  Biso   1.000  Hf
  Hf41     1.0000 0.53658  0.56565  0.88602  Biso   1.000  Hf
  Hf42     1.0000 0.96721  0.93429  0.38346  Biso   1.000  Hf
  Hf43     1.0000 0.96220  0.81523  0.88323  Biso   1.000  Hf
  Hf44     1.0000 0.77051  0.61757  0.49859  Biso   1.000  Hf
  Hf45     1.0000 0.77029  0.63242  0.99842  Biso   1.000  Hf
  Hf46     1.0000 0.72906  0.88286  0.99519  Biso   1.000  Hf
  Hf47     1.0000 0.73104  0.86793  0.49609  Biso   1.000  Hf
