data_image0
_cell_length_a       5.12831
_cell_length_b       10.1379
_cell_length_c       10.1176
_cell_angle_alpha    89.9998
_cell_angle_beta     90.0012
_cell_angle_gamma    89.9995

_symmetry_space_group_name_H-M    "P 1"
_symmetry_int_tables_number       1

loop_
  _symmetry_equiv_pos_as_xyz
  'x, y, z'

loop_
  _atom_site_label
  _atom_site_occupancy
  _atom_site_fract_x
  _atom_site_fract_y
  _atom_site_fract_z
  _atom_site_thermal_displace_type
  _atom_site_B_iso_or_equiv
  _atom_site_type_symbol
  Zr1      1.0000 0.25080  0.98346  0.12540  Biso   1.000  Zr
  Zr2      1.0000 0.25079  0.25009  0.39748  Biso   1.000  Zr
  Zr3      1.0000 0.75079  0.25008  0.12540  Biso   1.000  Zr
  Zr4      1.0000 0.75082  0.00087  0.37293  Biso   1.000  Zr
  Zr5      1.0000 0.99113  0.12912  0.00429  Biso   1.000  Zr
  Zr6      1.0000 0.02232  0.12211  0.25185  Biso   1.000  Zr
  Zr7      1.0000 0.99113  0.37105  0.24650  Biso   1.000  Zr
  Zr8      1.0000 0.02230  0.37807  0.99893  Biso   1.000  Zr
  Zr9      1.0000 0.51045  0.12912  0.24650  Biso   1.000  Zr
  Zr10     1.0000 0.47926  0.12211  0.99894  Biso   1.000  Zr
  Zr11     1.0000 0.51044  0.37105  0.00429  Biso   1.000  Zr
  Zr12     1.0000 0.47926  0.37807  0.25186  Biso   1.000  Zr
  Zr13     1.0000 0.25079  0.00165  0.62540  Biso   1.000  Zr
  Zr14     1.0000 0.25080  0.25009  0.85331  Biso   1.000  Zr
  Zr15     1.0000 0.75079  0.25008  0.62540  Biso   1.000  Zr
  Zr16     1.0000 0.75077  0.00088  0.87788  Biso   1.000  Zr
  Zr17     1.0000 0.96805  0.13040  0.50133  Biso   1.000  Zr
  Zr18     1.0000 0.02017  0.11118  0.75462  Biso   1.000  Zr
  Zr19     1.0000 0.96806  0.36979  0.74945  Biso   1.000  Zr
  Zr20     1.0000 0.02017  0.38901  0.49616  Biso   1.000  Zr
  Zr21     1.0000 0.53353  0.13039  0.74946  Biso   1.000  Zr
  Zr22     1.0000 0.48141  0.11116  0.49616  Biso   1.000  Zr
  Zr23     1.0000 0.53353  0.36977  0.50133  Biso   1.000  Zr
  Zr24     1.0000 0.48142  0.38900  0.75462  Biso   1.000  Zr
  Zr25     1.0000 0.25080  0.51672  0.12540  Biso   1.000  Zr
  Zr26     1.0000 0.25080  0.75009  0.38053  Biso   1.000  Zr
  Zr27     1.0000 0.75080  0.75008  0.12540  Biso   1.000  Zr
  Zr28     1.0000 0.75076  0.49929  0.37292  Biso   1.000  Zr
  Zr29     1.0000 0.97168  0.62915  0.00599  Biso   1.000  Zr
  Zr30     1.0000 0.02713  0.62305  0.25932  Biso   1.000  Zr
  Zr31     1.0000 0.97168  0.87103  0.24479  Biso   1.000  Zr
  Zr32     1.0000 0.02714  0.87712  0.99147  Biso   1.000  Zr
  Zr33     1.0000 0.52991  0.62915  0.24480  Biso   1.000  Zr
  Zr34     1.0000 0.47446  0.62305  0.99147  Biso   1.000  Zr
  Zr35     1.0000 0.52993  0.87103  0.00600  Biso   1.000  Zr
  Zr36     1.0000 0.47447  0.87712  0.25933  Biso   1.000  Zr
  Zr37     1.0000 0.25079  0.49852  0.62540  Biso   1.000  Zr
  Zr38     1.0000 0.25079  0.75008  0.87026  Biso   1.000  Zr
  Zr39     1.0000 0.75079  0.75007  0.62541  Biso   1.000  Zr
  Zr40     1.0000 0.75082  0.49927  0.87790  Biso   1.000  Zr
  Zr41     1.0000 0.96631  0.63326  0.50411  Biso   1.000  Zr
  Zr42     1.0000 0.03678  0.61434  0.75900  Biso   1.000  Zr
  Zr43     1.0000 0.96629  0.86694  0.74667  Biso   1.000  Zr
  Zr44     1.0000 0.03681  0.88586  0.49177  Biso   1.000  Zr
  Zr45     1.0000 0.53526  0.63324  0.74668  Biso   1.000  Zr
  Zr46     1.0000 0.46480  0.61432  0.49178  Biso   1.000  Zr
  Zr47     1.0000 0.53529  0.86692  0.50412  Biso   1.000  Zr
  Zr48     1.0000 0.46477  0.88584  0.75902  Biso   1.000  Zr
  Nb1      1.0000 0.25079  0.25009  0.12539  Biso   1.000  Nb
