data_image0
_cell_length_a       5.00189
_cell_length_b       10.4138
_cell_length_c       10.0579
_cell_angle_alpha    89.9038
_cell_angle_beta     89.9006
_cell_angle_gamma    90.0064

_symmetry_space_group_name_H-M    "P 1"
_symmetry_int_tables_number       1

loop_
  _symmetry_equiv_pos_as_xyz
  'x, y, z'

loop_
  _atom_site_label
  _atom_site_occupancy
  _atom_site_fract_x
  _atom_site_fract_y
  _atom_site_fract_z
  _atom_site_thermal_displace_type
  _atom_site_B_iso_or_equiv
  _atom_site_type_symbol
  Nb1      1.0000 0.27513  0.01809  0.12432  Biso   1.000  Nb
  Zr1      1.0000 0.26773  0.01550  0.62576  Biso   1.000  Zr
  Zr2      1.0000 0.26933  0.51634  0.12633  Biso   1.000  Zr
  Zr3      1.0000 0.26712  0.51567  0.62513  Biso   1.000  Zr
  Zr4      1.0000 0.26665  0.23372  0.37533  Biso   1.000  Zr
  Zr5      1.0000 0.26703  0.23348  0.87677  Biso   1.000  Zr
  Zr6      1.0000 0.26981  0.73535  0.37441  Biso   1.000  Zr
  Zr7      1.0000 0.26564  0.73337  0.87538  Biso   1.000  Zr
  Zr8      1.0000 0.73337  0.26563  0.12524  Biso   1.000  Zr
  Zr9      1.0000 0.73159  0.26531  0.62599  Biso   1.000  Zr
  Zr10     1.0000 0.73369  0.76795  0.12409  Biso   1.000  Zr
  Zr11     1.0000 0.73217  0.76612  0.62540  Biso   1.000  Zr
  Zr12     1.0000 0.73226  0.48448  0.37577  Biso   1.000  Zr
  Zr13     1.0000 0.73072  0.48422  0.87552  Biso   1.000  Zr
  Zr14     1.0000 0.73468  0.98479  0.37397  Biso   1.000  Zr
  Zr15     1.0000 0.73132  0.98359  0.87649  Biso   1.000  Zr
  Zr16     1.0000 0.07443  0.18066  0.19404  Biso   1.000  Zr
  Zr17     1.0000 0.06874  0.18247  0.69807  Biso   1.000  Zr
  Zr18     1.0000 0.07169  0.68422  0.19337  Biso   1.000  Zr
  Zr19     1.0000 0.07048  0.68356  0.69391  Biso   1.000  Zr
  Zr20     1.0000 0.06779  0.06760  0.44757  Biso   1.000  Zr
  Zr21     1.0000 0.07181  0.06458  0.95315  Biso   1.000  Zr
  Zr22     1.0000 0.07243  0.56692  0.44329  Biso   1.000  Zr
  Zr23     1.0000 0.07120  0.56500  0.94431  Biso   1.000  Zr
  Zr24     1.0000 0.93046  0.43233  0.19455  Biso   1.000  Zr
  Zr25     1.0000 0.92704  0.43367  0.69380  Biso   1.000  Zr
  Zr26     1.0000 0.94468  0.93517  0.19194  Biso   1.000  Zr
  Zr27     1.0000 0.92894  0.93376  0.69585  Biso   1.000  Zr
  Zr28     1.0000 0.92890  0.31655  0.44497  Biso   1.000  Zr
  Zr29     1.0000 0.92651  0.31507  0.94379  Biso   1.000  Zr
  Zr30     1.0000 0.93059  0.81731  0.44394  Biso   1.000  Zr
  Zr31     1.0000 0.92041  0.81475  0.94189  Biso   1.000  Zr
  Zr32     1.0000 0.53739  0.11688  0.24750  Biso   1.000  Zr
  Zr33     1.0000 0.53817  0.11663  0.74956  Biso   1.000  Zr
  Zr34     1.0000 0.54117  0.61851  0.24920  Biso   1.000  Zr
  Zr35     1.0000 0.53821  0.61684  0.74906  Biso   1.000  Zr
  Zr36     1.0000 0.53950  0.13285  0.49824  Biso   1.000  Zr
  Zr37     1.0000 0.54061  0.13057  0.99964  Biso   1.000  Zr
  Zr38     1.0000 0.53996  0.63333  0.49899  Biso   1.000  Zr
  Zr39     1.0000 0.53932  0.63253  0.99942  Biso   1.000  Zr
  Zr40     1.0000 0.46008  0.38276  0.49939  Biso   1.000  Zr
  Zr41     1.0000 0.45929  0.38182  0.99977  Biso   1.000  Zr
  Zr42     1.0000 0.46187  0.88360  0.49806  Biso   1.000  Zr
  Zr43     1.0000 0.44658  0.88314  0.99942  Biso   1.000  Zr
  Zr44     1.0000 0.46181  0.36741  0.24960  Biso   1.000  Zr
  Zr45     1.0000 0.45903  0.36642  0.74963  Biso   1.000  Zr
  Zr46     1.0000 0.46145  0.87084  0.24701  Biso   1.000  Zr
  Zr47     1.0000 0.46051  0.86669  0.74912  Biso   1.000  Zr
