data_image0
_cell_length_a       10.058
_cell_length_b       5.09089
_cell_length_c       10.058
_cell_angle_alpha    89.9996
_cell_angle_beta     90.0015
_cell_angle_gamma    89.9996

_symmetry_space_group_name_H-M    "P 1"
_symmetry_int_tables_number       1

loop_
  _symmetry_equiv_pos_as_xyz
  'x, y, z'

loop_
  _atom_site_label
  _atom_site_occupancy
  _atom_site_fract_x
  _atom_site_fract_y
  _atom_site_fract_z
  _atom_site_thermal_displace_type
  _atom_site_B_iso_or_equiv
  _atom_site_type_symbol
  Nb1      1.0000 0.12503  0.00043  0.12504  Biso   1.000  Nb
  Zr1      1.0000 0.12504  0.00043  0.62503  Biso   1.000  Zr
  Zr2      1.0000 0.62503  0.00043  0.12504  Biso   1.000  Zr
  Zr3      1.0000 0.62503  0.00043  0.62503  Biso   1.000  Zr
  Zr4      1.0000 0.12504  0.50042  0.37474  Biso   1.000  Zr
  Zr5      1.0000 0.12504  0.50042  0.87534  Biso   1.000  Zr
  Zr6      1.0000 0.62504  0.50043  0.37503  Biso   1.000  Zr
  Zr7      1.0000 0.62504  0.50043  0.87506  Biso   1.000  Zr
  Zr8      1.0000 0.37474  0.50042  0.12504  Biso   1.000  Zr
  Zr9      1.0000 0.37503  0.50043  0.62504  Biso   1.000  Zr
  Zr10     1.0000 0.87534  0.50042  0.12504  Biso   1.000  Zr
  Zr11     1.0000 0.87506  0.50043  0.62504  Biso   1.000  Zr
  Zr12     1.0000 0.37521  0.00199  0.37521  Biso   1.000  Zr
  Zr13     1.0000 0.37522  0.99885  0.87485  Biso   1.000  Zr
  Zr14     1.0000 0.87485  0.99885  0.37522  Biso   1.000  Zr
  Zr15     1.0000 0.87485  0.00200  0.87485  Biso   1.000  Zr
  Zr16     1.0000 0.99580  0.29238  0.99580  Biso   1.000  Zr
  Zr17     1.0000 0.99607  0.29044  0.49442  Biso   1.000  Zr
  Zr18     1.0000 0.49442  0.29044  0.99607  Biso   1.000  Zr
  Zr19     1.0000 0.49657  0.29007  0.49657  Biso   1.000  Zr
  Zr20     1.0000 0.00524  0.20299  0.24483  Biso   1.000  Zr
  Zr21     1.0000 0.00187  0.21134  0.74667  Biso   1.000  Zr
  Zr22     1.0000 0.50341  0.21135  0.24821  Biso   1.000  Zr
  Zr23     1.0000 0.50209  0.21103  0.74799  Biso   1.000  Zr
  Zr24     1.0000 0.99579  0.70846  0.25428  Biso   1.000  Zr
  Zr25     1.0000 0.99607  0.71042  0.75566  Biso   1.000  Zr
  Zr26     1.0000 0.49442  0.71042  0.25400  Biso   1.000  Zr
  Zr27     1.0000 0.49657  0.71079  0.75351  Biso   1.000  Zr
  Zr28     1.0000 0.00525  0.79786  0.00524  Biso   1.000  Zr
  Zr29     1.0000 0.00187  0.78950  0.50340  Biso   1.000  Zr
  Zr30     1.0000 0.50341  0.78950  0.00187  Biso   1.000  Zr
  Zr31     1.0000 0.50209  0.78982  0.50209  Biso   1.000  Zr
  Zr32     1.0000 0.25428  0.29239  0.25428  Biso   1.000  Zr
  Zr33     1.0000 0.25401  0.29044  0.75566  Biso   1.000  Zr
  Zr34     1.0000 0.75566  0.29045  0.25401  Biso   1.000  Zr
  Zr35     1.0000 0.75352  0.29009  0.75352  Biso   1.000  Zr
  Zr36     1.0000 0.24483  0.20299  0.00524  Biso   1.000  Zr
  Zr37     1.0000 0.24821  0.21135  0.50341  Biso   1.000  Zr
  Zr38     1.0000 0.74667  0.21134  0.00187  Biso   1.000  Zr
  Zr39     1.0000 0.74798  0.21103  0.50209  Biso   1.000  Zr
  Zr40     1.0000 0.25429  0.70846  0.99579  Biso   1.000  Zr
  Zr41     1.0000 0.25401  0.71042  0.49442  Biso   1.000  Zr
  Zr42     1.0000 0.75566  0.71042  0.99607  Biso   1.000  Zr
  Zr43     1.0000 0.75351  0.71079  0.49657  Biso   1.000  Zr
  Zr44     1.0000 0.24483  0.79786  0.24483  Biso   1.000  Zr
  Zr45     1.0000 0.24821  0.78951  0.74667  Biso   1.000  Zr
  Zr46     1.0000 0.74667  0.78951  0.24821  Biso   1.000  Zr
  Zr47     1.0000 0.74798  0.78984  0.74799  Biso   1.000  Zr
