data_image0
_cell_length_a       10.0832
_cell_length_b       10.1922
_cell_length_c       10.0073
_cell_angle_alpha    90.0625
_cell_angle_beta     92.5259
_cell_angle_gamma    90.698

_symmetry_space_group_name_H-M    "P 1"
_symmetry_int_tables_number       1

loop_
  _symmetry_equiv_pos_as_xyz
  'x, y, z'

loop_
  _atom_site_label
  _atom_site_occupancy
  _atom_site_fract_x
  _atom_site_fract_y
  _atom_site_fract_z
  _atom_site_thermal_displace_type
  _atom_site_B_iso_or_equiv
  _atom_site_type_symbol
  Ni1      1.0000 0.13596  0.04029  0.13802  Biso   1.000  Ni
  Hf1      1.0000 0.11768  0.99540  0.63481  Biso   1.000  Hf
  Hf2      1.0000 0.13515  0.49200  0.12057  Biso   1.000  Hf
  Hf3      1.0000 0.10533  0.51910  0.62431  Biso   1.000  Hf
  Hf4      1.0000 0.64626  0.02204  0.12559  Biso   1.000  Hf
  Hf5      1.0000 0.61558  0.99328  0.63620  Biso   1.000  Hf
  Hf6      1.0000 0.63416  0.49134  0.11579  Biso   1.000  Hf
  Hf7      1.0000 0.60580  0.51542  0.62304  Biso   1.000  Hf
  Hf8      1.0000 0.12019  0.24440  0.38234  Biso   1.000  Hf
  Hf9      1.0000 0.10803  0.26074  0.85391  Biso   1.000  Hf
  Hf10     1.0000 0.12628  0.74490  0.36543  Biso   1.000  Hf
  Hf11     1.0000 0.14092  0.75152  0.88734  Biso   1.000  Hf
  Hf12     1.0000 0.62097  0.24198  0.37994  Biso   1.000  Hf
  Hf13     1.0000 0.61014  0.25526  0.85838  Biso   1.000  Hf
  Hf14     1.0000 0.62436  0.74367  0.37039  Biso   1.000  Hf
  Hf15     1.0000 0.64643  0.76199  0.89544  Biso   1.000  Hf
  Hf16     1.0000 0.38215  0.24790  0.11562  Biso   1.000  Hf
  Hf17     1.0000 0.35616  0.23097  0.62501  Biso   1.000  Hf
  Hf18     1.0000 0.39589  0.72755  0.12199  Biso   1.000  Hf
  Hf19     1.0000 0.36576  0.75641  0.62966  Biso   1.000  Hf
  Hf20     1.0000 0.88407  0.25837  0.11733  Biso   1.000  Hf
  Hf21     1.0000 0.85316  0.23674  0.62362  Biso   1.000  Hf
  Hf22     1.0000 0.89711  0.73503  0.13138  Biso   1.000  Hf
  Hf23     1.0000 0.86392  0.75832  0.63561  Biso   1.000  Hf
  Hf24     1.0000 0.36832  0.00129  0.36679  Biso   1.000  Hf
  Hf25     1.0000 0.38967  0.98382  0.89506  Biso   1.000  Hf
  Hf26     1.0000 0.37300  0.50675  0.37924  Biso   1.000  Hf
  Hf27     1.0000 0.36502  0.49051  0.85983  Biso   1.000  Hf
  Hf28     1.0000 0.87258  0.00350  0.37516  Biso   1.000  Hf
  Hf29     1.0000 0.90593  0.99180  0.90461  Biso   1.000  Hf
  Hf30     1.0000 0.87254  0.50958  0.38096  Biso   1.000  Hf
  Hf31     1.0000 0.86002  0.49730  0.86115  Biso   1.000  Hf
  Hf32     1.0000 0.03395  0.14559  0.00993  Biso   1.000  Hf
  Hf33     1.0000 0.98860  0.15345  0.49974  Biso   1.000  Hf
  Hf34     1.0000 0.02323  0.64802  0.00805  Biso   1.000  Hf
  Hf35     1.0000 0.99112  0.65980  0.50238  Biso   1.000  Hf
  Hf36     1.0000 0.51738  0.14077  0.99631  Biso   1.000  Hf
  Hf37     1.0000 0.48817  0.15202  0.49685  Biso   1.000  Hf
  Hf38     1.0000 0.52212  0.63805  0.99672  Biso   1.000  Hf
  Hf39     1.0000 0.48962  0.65583  0.49737  Biso   1.000  Hf
  Hf40     1.0000 0.00335  0.09132  0.25093  Biso   1.000  Hf
  Hf41     1.0000 0.97820  0.11157  0.75737  Biso   1.000  Hf
  Hf42     1.0000 0.01220  0.59279  0.25041  Biso   1.000  Hf
  Hf43     1.0000 0.97816  0.61058  0.74734  Biso   1.000  Hf
  Hf44     1.0000 0.50083  0.09562  0.24881  Biso   1.000  Hf
  Hf45     1.0000 0.47752  0.10154  0.75037  Biso   1.000  Hf
  Hf46     1.0000 0.51248  0.58997  0.24698  Biso   1.000  Hf
  Hf47     1.0000 0.47084  0.60110  0.73524  Biso   1.000  Hf
  Hf48     1.0000 0.04732  0.33666  0.21828  Biso   1.000  Hf
  Hf49     1.0000 0.98563  0.36420  0.72509  Biso   1.000  Hf
  Hf50     1.0000 0.96106  0.83813  0.29348  Biso   1.000  Hf
  Hf51     1.0000 0.00446  0.85655  0.77771  Biso   1.000  Hf
  Hf52     1.0000 0.55039  0.33265  0.21355  Biso   1.000  Hf
  Hf53     1.0000 0.48859  0.35566  0.72692  Biso   1.000  Hf
  Hf54     1.0000 0.46028  0.83649  0.28289  Biso   1.000  Hf
  Hf55     1.0000 0.50643  0.84768  0.76886  Biso   1.000  Hf
  Hf56     1.0000 0.99752  0.39803  0.97985  Biso   1.000  Hf
  Hf57     1.0000 0.03046  0.41039  0.46773  Biso   1.000  Hf
  Hf58     1.0000 0.03786  0.90423  0.03801  Biso   1.000  Hf
  Hf59     1.0000 0.95053  0.91535  0.54162  Biso   1.000  Hf
  Hf60     1.0000 0.49699  0.39239  0.98062  Biso   1.000  Hf
  Hf61     1.0000 0.53089  0.40792  0.46602  Biso   1.000  Hf
  Hf62     1.0000 0.52709  0.88797  0.02401  Biso   1.000  Hf
  Hf63     1.0000 0.45259  0.91218  0.53051  Biso   1.000  Hf
  Hf64     1.0000 0.24665  0.15563  0.24536  Biso   1.000  Hf
  Hf65     1.0000 0.22644  0.14318  0.74951  Biso   1.000  Hf
  Hf66     1.0000 0.25520  0.64874  0.24624  Biso   1.000  Hf
  Hf67     1.0000 0.23095  0.64523  0.74840  Biso   1.000  Hf
  Hf68     1.0000 0.76290  0.15764  0.25060  Biso   1.000  Hf
  Hf69     1.0000 0.72013  0.14928  0.73752  Biso   1.000  Hf
  Hf70     1.0000 0.75611  0.65176  0.25166  Biso   1.000  Hf
  Hf71     1.0000 0.72871  0.64658  0.75358  Biso   1.000  Hf
  Hf72     1.0000 0.27908  0.07549  0.02777  Biso   1.000  Hf
  Hf73     1.0000 0.23479  0.09578  0.49999  Biso   1.000  Hf
  Hf74     1.0000 0.26642  0.58959  0.99798  Biso   1.000  Hf
  Hf75     1.0000 0.24368  0.60212  0.49775  Biso   1.000  Hf
  Hf76     1.0000 0.77693  0.11062  0.00076  Biso   1.000  Hf
  Hf77     1.0000 0.73477  0.09427  0.49870  Biso   1.000  Hf
  Hf78     1.0000 0.77045  0.60904  0.00114  Biso   1.000  Hf
  Hf79     1.0000 0.74553  0.60205  0.50258  Biso   1.000  Hf
  Hf80     1.0000 0.25056  0.33639  0.97994  Biso   1.000  Hf
  Hf81     1.0000 0.28022  0.34285  0.47005  Biso   1.000  Hf
  Hf82     1.0000 0.28854  0.83286  0.99221  Biso   1.000  Hf
  Hf83     1.0000 0.20611  0.84694  0.51843  Biso   1.000  Hf
  Hf84     1.0000 0.74657  0.35477  0.98128  Biso   1.000  Hf
  Hf85     1.0000 0.77862  0.34528  0.46932  Biso   1.000  Hf
  Hf86     1.0000 0.77870  0.86287  0.02356  Biso   1.000  Hf
  Hf87     1.0000 0.70263  0.83958  0.53304  Biso   1.000  Hf
  Hf88     1.0000 0.29944  0.40718  0.21694  Biso   1.000  Hf
  Hf89     1.0000 0.23550  0.39158  0.72911  Biso   1.000  Hf
  Hf90     1.0000 0.21168  0.91603  0.25618  Biso   1.000  Hf
  Hf91     1.0000 0.25551  0.89772  0.75616  Biso   1.000  Hf
  Hf92     1.0000 0.80019  0.41359  0.21623  Biso   1.000  Hf
  Hf93     1.0000 0.73768  0.39528  0.72972  Biso   1.000  Hf
  Hf94     1.0000 0.71224  0.90895  0.27958  Biso   1.000  Hf
  Hf95     1.0000 0.75758  0.90239  0.77333  Biso   1.000  Hf
