data_image0
_cell_length_a       10.112
_cell_length_b       10.3287
_cell_length_c       5.07962
_cell_angle_alpha    90.333
_cell_angle_beta     90.1123
_cell_angle_gamma    90.9719

_symmetry_space_group_name_H-M    "P 1"
_symmetry_int_tables_number       1

loop_
  _symmetry_equiv_pos_as_xyz
  'x, y, z'

loop_
  _atom_site_label
  _atom_site_occupancy
  _atom_site_fract_x
  _atom_site_fract_y
  _atom_site_fract_z
  _atom_site_thermal_displace_type
  _atom_site_B_iso_or_equiv
  _atom_site_type_symbol
  Zr1      1.0000 0.13578  0.99284  0.28065  Biso   1.000  Zr
  Zr2      1.0000 0.11769  0.26017  0.67650  Biso   1.000  Zr
  Zr3      1.0000 0.37068  0.24224  0.25222  Biso   1.000  Zr
  Zr4      1.0000 0.37956  0.99884  0.76835  Biso   1.000  Zr
  Zr5      1.0000 0.98803  0.16532  0.95125  Biso   1.000  Zr
  Zr6      1.0000 0.99489  0.10517  0.47365  Biso   1.000  Zr
  Zr7      1.0000 0.99935  0.36126  0.42142  Biso   1.000  Zr
  Zr8      1.0000 0.02601  0.42471  0.91258  Biso   1.000  Zr
  Zr9      1.0000 0.25802  0.13692  0.53854  Biso   1.000  Zr
  Zr10     1.0000 0.26571  0.08411  0.04621  Biso   1.000  Zr
  Zr11     1.0000 0.26389  0.32869  0.95899  Biso   1.000  Zr
  Zr12     1.0000 0.25460  0.40138  0.47697  Biso   1.000  Zr
  Zr13     1.0000 0.11775  0.52185  0.25111  Biso   1.000  Zr
  Zr14     1.0000 0.12926  0.74832  0.75560  Biso   1.000  Zr
  Zr15     1.0000 0.37935  0.74394  0.25526  Biso   1.000  Zr
  Zr16     1.0000 0.37637  0.48928  0.75445  Biso   1.000  Zr
  Zr17     1.0000 0.00329  0.66203  0.02284  Biso   1.000  Zr
  Zr18     1.0000 0.99385  0.61366  0.51185  Biso   1.000  Zr
  Zr19     1.0000 0.00161  0.85835  0.53311  Biso   1.000  Zr
  Zr20     1.0000 0.99467  0.91139  0.03573  Biso   1.000  Zr
  Zr21     1.0000 0.24521  0.64662  0.49727  Biso   1.000  Zr
  Zr22     1.0000 0.25615  0.59728  0.99498  Biso   1.000  Zr
  Zr23     1.0000 0.24464  0.84283  0.03080  Biso   1.000  Zr
  Zr24     1.0000 0.25343  0.89016  0.52910  Biso   1.000  Zr
  Zr25     1.0000 0.62330  0.99429  0.26680  Biso   1.000  Zr
  Zr26     1.0000 0.62062  0.24882  0.75524  Biso   1.000  Zr
  Zr27     1.0000 0.85727  0.23701  0.24603  Biso   1.000  Zr
  Zr28     1.0000 0.87998  0.00304  0.76262  Biso   1.000  Zr
  Zr29     1.0000 0.50458  0.14346  0.00912  Biso   1.000  Zr
  Zr30     1.0000 0.50152  0.09854  0.51040  Biso   1.000  Zr
  Zr31     1.0000 0.50022  0.34828  0.50799  Biso   1.000  Zr
  Zr32     1.0000 0.50480  0.39357  0.00605  Biso   1.000  Zr
  Zr33     1.0000 0.74751  0.14236  0.52058  Biso   1.000  Zr
  Zr34     1.0000 0.74748  0.09718  0.01757  Biso   1.000  Zr
  Zr35     1.0000 0.75736  0.35347  0.99022  Biso   1.000  Zr
  Zr36     1.0000 0.75004  0.39396  0.49554  Biso   1.000  Zr
  Zr37     1.0000 0.62355  0.49939  0.25949  Biso   1.000  Zr
  Zr38     1.0000 0.62542  0.74843  0.76246  Biso   1.000  Zr
  Zr39     1.0000 0.87481  0.75887  0.26831  Biso   1.000  Zr
  Zr40     1.0000 0.86595  0.50584  0.75136  Biso   1.000  Zr
  Zr41     1.0000 0.50444  0.64259  0.00961  Biso   1.000  Zr
  Zr42     1.0000 0.49662  0.59806  0.50451  Biso   1.000  Zr
  Zr43     1.0000 0.50312  0.84854  0.51225  Biso   1.000  Zr
  Zr44     1.0000 0.49861  0.89033  0.01611  Biso   1.000  Zr
  Zr45     1.0000 0.74625  0.64711  0.51049  Biso   1.000  Zr
  Zr46     1.0000 0.75296  0.60310  0.01508  Biso   1.000  Zr
  Zr47     1.0000 0.74977  0.85145  0.00528  Biso   1.000  Zr
  Zr48     1.0000 0.75377  0.89676  0.50508  Biso   1.000  Zr
  Ni1      1.0000 0.10622  0.28712  0.15274  Biso   1.000  Ni
