data_image0
_cell_length_a       10.0888
_cell_length_b       10.2615
_cell_length_c       10.0889
_cell_angle_alpha    90.136
_cell_angle_beta     89.989
_cell_angle_gamma    90.1349

_symmetry_space_group_name_H-M    "P 1"
_symmetry_int_tables_number       1

loop_
  _symmetry_equiv_pos_as_xyz
  'x, y, z'

loop_
  _atom_site_label
  _atom_site_occupancy
  _atom_site_fract_x
  _atom_site_fract_y
  _atom_site_fract_z
  _atom_site_thermal_displace_type
  _atom_site_B_iso_or_equiv
  _atom_site_type_symbol
  Zr1      1.0000 0.12754  0.00014  0.12748  Biso   1.000  Zr
  Zr2      1.0000 0.12616  0.24855  0.37541  Biso   1.000  Zr
  Zr3      1.0000 0.37547  0.24853  0.12612  Biso   1.000  Zr
  Zr4      1.0000 0.37611  0.99868  0.37606  Biso   1.000  Zr
  Zr5      1.0000 0.99590  0.15241  0.99585  Biso   1.000  Zr
  Zr6      1.0000 0.00122  0.09915  0.25278  Biso   1.000  Zr
  Zr7      1.0000 0.99963  0.34907  0.24994  Biso   1.000  Zr
  Zr8      1.0000 0.99873  0.40931  0.99854  Biso   1.000  Zr
  Zr9      1.0000 0.26112  0.14345  0.26107  Biso   1.000  Zr
  Zr10     1.0000 0.25284  0.09915  0.00118  Biso   1.000  Zr
  Zr11     1.0000 0.25003  0.34906  0.99959  Biso   1.000  Zr
  Zr12     1.0000 0.25182  0.40062  0.25180  Biso   1.000  Zr
  Zr13     1.0000 0.12763  0.99773  0.62507  Biso   1.000  Zr
  Zr14     1.0000 0.12626  0.24840  0.85998  Biso   1.000  Zr
  Zr15     1.0000 0.37590  0.24899  0.62258  Biso   1.000  Zr
  Zr16     1.0000 0.37743  0.99874  0.87641  Biso   1.000  Zr
  Zr17     1.0000 0.00060  0.14540  0.50033  Biso   1.000  Zr
  Zr18     1.0000 0.00388  0.10307  0.74866  Biso   1.000  Zr
  Zr19     1.0000 0.99796  0.35489  0.74650  Biso   1.000  Zr
  Zr20     1.0000 0.00061  0.39651  0.49839  Biso   1.000  Zr
  Zr21     1.0000 0.25641  0.14271  0.75026  Biso   1.000  Zr
  Zr22     1.0000 0.25176  0.10184  0.50384  Biso   1.000  Zr
  Zr23     1.0000 0.25106  0.35266  0.50104  Biso   1.000  Zr
  Zr24     1.0000 0.24850  0.39519  0.74955  Biso   1.000  Zr
  Zr25     1.0000 0.12654  0.51265  0.12646  Biso   1.000  Zr
  Zr26     1.0000 0.12505  0.75023  0.37664  Biso   1.000  Zr
  Zr27     1.0000 0.37671  0.75023  0.12498  Biso   1.000  Zr
  Zr28     1.0000 0.37587  0.49924  0.37580  Biso   1.000  Zr
  Zr29     1.0000 0.00318  0.65411  0.00311  Biso   1.000  Zr
  Zr30     1.0000 0.99899  0.60494  0.25368  Biso   1.000  Zr
  Zr31     1.0000 0.00029  0.85227  0.25248  Biso   1.000  Zr
  Zr32     1.0000 0.00178  0.90107  0.00173  Biso   1.000  Zr
  Zr33     1.0000 0.25019  0.64904  0.25012  Biso   1.000  Zr
  Zr34     1.0000 0.25375  0.60494  0.99893  Biso   1.000  Zr
  Zr35     1.0000 0.25254  0.85227  0.00022  Biso   1.000  Zr
  Zr36     1.0000 0.25094  0.89589  0.25087  Biso   1.000  Zr
  Zr37     1.0000 0.12401  0.50098  0.62409  Biso   1.000  Zr
  Zr38     1.0000 0.12705  0.75145  0.87478  Biso   1.000  Zr
  Zr39     1.0000 0.37626  0.74890  0.62598  Biso   1.000  Zr
  Zr40     1.0000 0.37549  0.49857  0.87429  Biso   1.000  Zr
  Zr41     1.0000 0.00118  0.64594  0.50244  Biso   1.000  Zr
  Zr42     1.0000 0.00045  0.60440  0.75117  Biso   1.000  Zr
  Zr43     1.0000 0.00028  0.85408  0.75218  Biso   1.000  Zr
  Zr44     1.0000 0.00196  0.89498  0.50182  Biso   1.000  Zr
  Zr45     1.0000 0.25019  0.64545  0.74961  Biso   1.000  Zr
  Zr46     1.0000 0.25070  0.60284  0.49991  Biso   1.000  Zr
  Zr47     1.0000 0.25222  0.85243  0.50061  Biso   1.000  Zr
  Zr48     1.0000 0.25135  0.89501  0.75059  Biso   1.000  Zr
  Zr49     1.0000 0.62511  0.99771  0.12758  Biso   1.000  Zr
  Zr50     1.0000 0.62262  0.24899  0.37586  Biso   1.000  Zr
  Zr51     1.0000 0.86003  0.24836  0.12623  Biso   1.000  Zr
  Zr52     1.0000 0.87646  0.99873  0.37739  Biso   1.000  Zr
  Zr53     1.0000 0.50038  0.14540  0.00056  Biso   1.000  Zr
  Zr54     1.0000 0.50389  0.10183  0.25171  Biso   1.000  Zr
  Zr55     1.0000 0.50108  0.35266  0.25101  Biso   1.000  Zr
  Zr56     1.0000 0.49849  0.39651  0.00055  Biso   1.000  Zr
  Zr57     1.0000 0.75030  0.14269  0.25636  Biso   1.000  Zr
  Zr58     1.0000 0.74871  0.10306  0.00382  Biso   1.000  Zr
  Zr59     1.0000 0.74662  0.35488  0.99791  Biso   1.000  Zr
  Zr60     1.0000 0.74959  0.39517  0.24845  Biso   1.000  Zr
  Zr61     1.0000 0.62683  0.99759  0.62679  Biso   1.000  Zr
  Zr62     1.0000 0.62292  0.24869  0.87374  Biso   1.000  Zr
  Zr63     1.0000 0.87378  0.24868  0.62286  Biso   1.000  Zr
  Zr64     1.0000 0.87694  0.00144  0.87688  Biso   1.000  Zr
  Zr65     1.0000 0.50100  0.14517  0.50096  Biso   1.000  Zr
  Zr66     1.0000 0.50442  0.10159  0.75159  Biso   1.000  Zr
  Zr67     1.0000 0.49854  0.35201  0.75048  Biso   1.000  Zr
  Zr68     1.0000 0.50066  0.39522  0.50060  Biso   1.000  Zr
  Zr69     1.0000 0.75435  0.14742  0.75430  Biso   1.000  Zr
  Zr70     1.0000 0.75164  0.10159  0.50436  Biso   1.000  Zr
  Zr71     1.0000 0.75052  0.35201  0.49849  Biso   1.000  Zr
  Zr72     1.0000 0.74877  0.39666  0.74872  Biso   1.000  Zr
  Zr73     1.0000 0.62416  0.50098  0.12395  Biso   1.000  Zr
  Zr74     1.0000 0.62604  0.74890  0.37620  Biso   1.000  Zr
  Zr75     1.0000 0.87485  0.75146  0.12698  Biso   1.000  Zr
  Zr76     1.0000 0.87435  0.49858  0.37541  Biso   1.000  Zr
  Zr77     1.0000 0.50251  0.64594  0.00112  Biso   1.000  Zr
  Zr78     1.0000 0.49998  0.60283  0.25063  Biso   1.000  Zr
  Zr79     1.0000 0.50068  0.85242  0.25215  Biso   1.000  Zr
  Zr80     1.0000 0.50188  0.89498  0.00189  Biso   1.000  Zr
  Zr81     1.0000 0.74968  0.64544  0.25012  Biso   1.000  Zr
  Zr82     1.0000 0.75124  0.60439  0.00039  Biso   1.000  Zr
  Zr83     1.0000 0.75223  0.85407  0.00021  Biso   1.000  Zr
  Zr84     1.0000 0.75066  0.89501  0.25128  Biso   1.000  Zr
  Zr85     1.0000 0.62524  0.49986  0.62517  Biso   1.000  Zr
  Zr86     1.0000 0.62696  0.74985  0.87665  Biso   1.000  Zr
  Zr87     1.0000 0.87672  0.74985  0.62690  Biso   1.000  Zr
  Zr88     1.0000 0.87361  0.50073  0.87354  Biso   1.000  Zr
  Zr89     1.0000 0.50174  0.64590  0.50167  Biso   1.000  Zr
  Zr90     1.0000 0.49996  0.60141  0.75091  Biso   1.000  Zr
  Zr91     1.0000 0.50109  0.85117  0.75205  Biso   1.000  Zr
  Zr92     1.0000 0.50242  0.89533  0.50235  Biso   1.000  Zr
  Zr93     1.0000 0.74939  0.64716  0.74932  Biso   1.000  Zr
  Zr94     1.0000 0.75097  0.60141  0.49990  Biso   1.000  Zr
  Zr95     1.0000 0.75212  0.85117  0.50102  Biso   1.000  Zr
  Zr96     1.0000 0.75167  0.89706  0.75160  Biso   1.000  Zr
  Ni1      1.0000 0.10246  0.27237  0.10241  Biso   1.000  Ni
