data_image0
_cell_length_a       10.0141
_cell_length_b       5.20844
_cell_length_c       10.0232
_cell_angle_alpha    92.2275
_cell_angle_beta     89.0713
_cell_angle_gamma    90.245

_symmetry_space_group_name_H-M    "P 1"
_symmetry_int_tables_number       1

loop_
  _symmetry_equiv_pos_as_xyz
  'x, y, z'

loop_
  _atom_site_label
  _atom_site_occupancy
  _atom_site_fract_x
  _atom_site_fract_y
  _atom_site_fract_z
  _atom_site_thermal_displace_type
  _atom_site_B_iso_or_equiv
  _atom_site_type_symbol
  Ni1      1.0000 0.11922  0.07268  0.10648  Biso   1.000  Ni
  Zr1      1.0000 0.13764  0.03792  0.63243  Biso   1.000  Zr
  Zr2      1.0000 0.63974  0.04583  0.12629  Biso   1.000  Zr
  Zr3      1.0000 0.62070  0.01997  0.60990  Biso   1.000  Zr
  Zr4      1.0000 0.13894  0.43801  0.37094  Biso   1.000  Zr
  Zr5      1.0000 0.12993  0.48524  0.88898  Biso   1.000  Zr
  Zr6      1.0000 0.63933  0.47674  0.37880  Biso   1.000  Zr
  Zr7      1.0000 0.63590  0.47088  0.86340  Biso   1.000  Zr
  Zr8      1.0000 0.39276  0.52399  0.10677  Biso   1.000  Zr
  Zr9      1.0000 0.36337  0.54227  0.63172  Biso   1.000  Zr
  Zr10     1.0000 0.87002  0.54252  0.11776  Biso   1.000  Zr
  Zr11     1.0000 0.87665  0.52112  0.61392  Biso   1.000  Zr
  Zr12     1.0000 0.36181  0.94149  0.36920  Biso   1.000  Zr
  Zr13     1.0000 0.35443  0.98555  0.88809  Biso   1.000  Zr
  Zr14     1.0000 0.87479  0.97633  0.37025  Biso   1.000  Zr
  Zr15     1.0000 0.86201  0.97251  0.86447  Biso   1.000  Zr
  Zr16     1.0000 0.04154  0.36749  0.18071  Biso   1.000  Zr
  Zr17     1.0000 0.03078  0.36426  0.71116  Biso   1.000  Zr
  Zr18     1.0000 0.54266  0.37840  0.20426  Biso   1.000  Zr
  Zr19     1.0000 0.53088  0.36714  0.69152  Biso   1.000  Zr
  Zr20     1.0000 0.02483  0.15055  0.46788  Biso   1.000  Zr
  Zr21     1.0000 0.03199  0.13208  0.94683  Biso   1.000  Zr
  Zr22     1.0000 0.53339  0.14094  0.43496  Biso   1.000  Zr
  Zr23     1.0000 0.51321  0.18790  0.96609  Biso   1.000  Zr
  Zr24     1.0000 0.46992  0.87656  0.18751  Biso   1.000  Zr
  Zr25     1.0000 0.45866  0.88244  0.70504  Biso   1.000  Zr
  Zr26     1.0000 0.98070  0.87893  0.18357  Biso   1.000  Zr
  Zr27     1.0000 0.96786  0.86103  0.69012  Biso   1.000  Zr
  Zr28     1.0000 0.48073  0.66105  0.46715  Biso   1.000  Zr
  Zr29     1.0000 0.46128  0.66114  0.93020  Biso   1.000  Zr
  Zr30     1.0000 0.96918  0.63207  0.43048  Biso   1.000  Zr
  Zr31     1.0000 0.95455  0.63854  0.93694  Biso   1.000  Zr
  Zr32     1.0000 0.21561  0.09938  0.26097  Biso   1.000  Zr
  Zr33     1.0000 0.26872  0.25284  0.76151  Biso   1.000  Zr
  Zr34     1.0000 0.77961  0.24438  0.24477  Biso   1.000  Zr
  Zr35     1.0000 0.75975  0.21536  0.74070  Biso   1.000  Zr
  Zr36     1.0000 0.27381  0.25590  0.50113  Biso   1.000  Zr
  Zr37     1.0000 0.25130  0.26960  0.02087  Biso   1.000  Zr
  Zr38     1.0000 0.76515  0.26840  0.49418  Biso   1.000  Zr
  Zr39     1.0000 0.76464  0.27525  0.99217  Biso   1.000  Zr
  Zr40     1.0000 0.22690  0.75497  0.50456  Biso   1.000  Zr
  Zr41     1.0000 0.22097  0.78934  0.01999  Biso   1.000  Zr
  Zr42     1.0000 0.74298  0.77373  0.49261  Biso   1.000  Zr
  Zr43     1.0000 0.72344  0.77757  0.99012  Biso   1.000  Zr
  Zr44     1.0000 0.28568  0.60526  0.27016  Biso   1.000  Zr
  Zr45     1.0000 0.22428  0.74657  0.76065  Biso   1.000  Zr
  Zr46     1.0000 0.73718  0.74507  0.24273  Biso   1.000  Zr
  Zr47     1.0000 0.73379  0.71775  0.73794  Biso   1.000  Zr
