data_image0
_cell_length_a       9.94382
_cell_length_b       10.3254
_cell_length_c       4.9877
_cell_angle_alpha    89.7681
_cell_angle_beta     89.875
_cell_angle_gamma    90.0788

_symmetry_space_group_name_H-M    "P 1"
_symmetry_int_tables_number       1

loop_
  _symmetry_equiv_pos_as_xyz
  'x, y, z'

loop_
  _atom_site_label
  _atom_site_occupancy
  _atom_site_fract_x
  _atom_site_fract_y
  _atom_site_fract_z
  _atom_site_thermal_displace_type
  _atom_site_B_iso_or_equiv
  _atom_site_type_symbol
  Os1      1.0000 0.13805  0.02128  0.24580  Biso   1.000  Os
  Hf1      1.0000 0.13396  0.23182  0.75586  Biso   1.000  Hf
  Hf2      1.0000 0.36628  0.26759  0.25193  Biso   1.000  Hf
  Hf3      1.0000 0.36587  0.48473  0.75208  Biso   1.000  Hf
  Hf4      1.0000 0.03228  0.17493  0.41154  Biso   1.000  Hf
  Hf5      1.0000 0.03372  0.06723  0.93024  Biso   1.000  Hf
  Hf6      1.0000 0.46288  0.43548  0.38603  Biso   1.000  Hf
  Hf7      1.0000 0.46117  0.31459  0.88525  Biso   1.000  Hf
  Hf8      1.0000 0.26825  0.11742  0.49472  Biso   1.000  Hf
  Hf9      1.0000 0.27204  0.12742  0.00149  Biso   1.000  Hf
  Hf10     1.0000 0.22876  0.38125  0.00130  Biso   1.000  Hf
  Hf11     1.0000 0.22918  0.36731  0.50275  Biso   1.000  Hf
  Hf12     1.0000 0.13423  0.51641  0.25271  Biso   1.000  Hf
  Hf13     1.0000 0.13281  0.73476  0.75063  Biso   1.000  Hf
  Hf14     1.0000 0.36444  0.76843  0.25215  Biso   1.000  Hf
  Hf15     1.0000 0.36448  0.98232  0.75140  Biso   1.000  Hf
  Hf16     1.0000 0.03656  0.68228  0.38750  Biso   1.000  Hf
  Hf17     1.0000 0.03621  0.56557  0.88897  Biso   1.000  Hf
  Hf18     1.0000 0.46429  0.93381  0.38890  Biso   1.000  Hf
  Hf19     1.0000 0.46107  0.81487  0.88508  Biso   1.000  Hf
  Hf20     1.0000 0.27117  0.62010  0.49953  Biso   1.000  Hf
  Hf21     1.0000 0.27069  0.63250  0.99876  Biso   1.000  Hf
  Hf22     1.0000 0.22460  0.88292  0.00540  Biso   1.000  Hf
  Hf23     1.0000 0.22587  0.87328  0.49764  Biso   1.000  Hf
  Hf24     1.0000 0.63391  0.01604  0.24766  Biso   1.000  Hf
  Hf25     1.0000 0.63323  0.23336  0.75074  Biso   1.000  Hf
  Hf26     1.0000 0.86653  0.26373  0.25308  Biso   1.000  Hf
  Hf27     1.0000 0.86570  0.48336  0.75182  Biso   1.000  Hf
  Hf28     1.0000 0.53565  0.18466  0.38602  Biso   1.000  Hf
  Hf29     1.0000 0.53548  0.06522  0.88570  Biso   1.000  Hf
  Hf30     1.0000 0.96527  0.43051  0.39048  Biso   1.000  Hf
  Hf31     1.0000 0.96445  0.31492  0.89175  Biso   1.000  Hf
  Hf32     1.0000 0.76780  0.11729  0.49782  Biso   1.000  Hf
  Hf33     1.0000 0.77023  0.13304  0.99625  Biso   1.000  Hf
  Hf34     1.0000 0.72918  0.38177  0.99975  Biso   1.000  Hf
  Hf35     1.0000 0.72982  0.36754  0.49859  Biso   1.000  Hf
  Hf36     1.0000 0.63504  0.51760  0.25114  Biso   1.000  Hf
  Hf37     1.0000 0.63502  0.73465  0.74844  Biso   1.000  Hf
  Hf38     1.0000 0.86949  0.76881  0.24781  Biso   1.000  Hf
  Hf39     1.0000 0.87048  0.98572  0.74502  Biso   1.000  Hf
  Hf40     1.0000 0.53709  0.68578  0.38492  Biso   1.000  Hf
  Hf41     1.0000 0.53755  0.56549  0.88469  Biso   1.000  Hf
  Hf42     1.0000 0.97180  0.93328  0.38729  Biso   1.000  Hf
  Hf43     1.0000 0.96243  0.81587  0.88231  Biso   1.000  Hf
  Hf44     1.0000 0.77149  0.61816  0.49850  Biso   1.000  Hf
  Hf45     1.0000 0.77113  0.63295  0.99819  Biso   1.000  Hf
  Hf46     1.0000 0.72987  0.88389  0.99182  Biso   1.000  Hf
  Hf47     1.0000 0.73382  0.86913  0.49409  Biso   1.000  Hf
