data_image0
_cell_length_a       10.0252
_cell_length_b       10.4253
_cell_length_c       10.0649
_cell_angle_alpha    90.0677
_cell_angle_beta     89.6328
_cell_angle_gamma    89.9237

_symmetry_space_group_name_H-M    "P 1"
_symmetry_int_tables_number       1

loop_
  _symmetry_equiv_pos_as_xyz
  'x, y, z'

loop_
  _atom_site_label
  _atom_site_occupancy
  _atom_site_fract_x
  _atom_site_fract_y
  _atom_site_fract_z
  _atom_site_thermal_displace_type
  _atom_site_B_iso_or_equiv
  _atom_site_type_symbol
  P1       1.0000 0.08350  0.03613  0.10788  Biso   1.000  P 
  Zr1      1.0000 0.13483  0.01583  0.62872  Biso   1.000  Zr
  Zr2      1.0000 0.13472  0.51551  0.12713  Biso   1.000  Zr
  Zr3      1.0000 0.13473  0.51764  0.62584  Biso   1.000  Zr
  Zr4      1.0000 0.63476  0.01689  0.12523  Biso   1.000  Zr
  Zr5      1.0000 0.62732  0.01301  0.62160  Biso   1.000  Zr
  Zr6      1.0000 0.63221  0.51710  0.12768  Biso   1.000  Zr
  Zr7      1.0000 0.63401  0.51562  0.62392  Biso   1.000  Zr
  Zr8      1.0000 0.14315  0.23148  0.37656  Biso   1.000  Zr
  Zr9      1.0000 0.13786  0.23872  0.87718  Biso   1.000  Zr
  Zr10     1.0000 0.13806  0.73490  0.37739  Biso   1.000  Zr
  Zr11     1.0000 0.13513  0.73529  0.87988  Biso   1.000  Zr
  Zr12     1.0000 0.63330  0.23413  0.37491  Biso   1.000  Zr
  Zr13     1.0000 0.63097  0.23234  0.87362  Biso   1.000  Zr
  Zr14     1.0000 0.63526  0.73630  0.37343  Biso   1.000  Zr
  Zr15     1.0000 0.63036  0.73353  0.87495  Biso   1.000  Zr
  Zr16     1.0000 0.36507  0.26286  0.12721  Biso   1.000  Zr
  Zr17     1.0000 0.36669  0.26627  0.62748  Biso   1.000  Zr
  Zr18     1.0000 0.36260  0.76685  0.12717  Biso   1.000  Zr
  Zr19     1.0000 0.36637  0.76848  0.62870  Biso   1.000  Zr
  Zr20     1.0000 0.85902  0.26961  0.12197  Biso   1.000  Zr
  Zr21     1.0000 0.86731  0.26373  0.62385  Biso   1.000  Zr
  Zr22     1.0000 0.86874  0.76136  0.11886  Biso   1.000  Zr
  Zr23     1.0000 0.86784  0.76437  0.62275  Biso   1.000  Zr
  Zr24     1.0000 0.36732  0.48438  0.37605  Biso   1.000  Zr
  Zr25     1.0000 0.36693  0.48545  0.87663  Biso   1.000  Zr
  Zr26     1.0000 0.36239  0.98352  0.37222  Biso   1.000  Zr
  Zr27     1.0000 0.35832  0.98417  0.88559  Biso   1.000  Zr
  Zr28     1.0000 0.86840  0.48292  0.37560  Biso   1.000  Zr
  Zr29     1.0000 0.86649  0.48378  0.87313  Biso   1.000  Zr
  Zr30     1.0000 0.86750  0.98739  0.37802  Biso   1.000  Zr
  Zr31     1.0000 0.85704  0.98061  0.86897  Biso   1.000  Zr
  Zr32     1.0000 0.04271  0.17092  0.17982  Biso   1.000  Zr
  Zr33     1.0000 0.03094  0.17950  0.70490  Biso   1.000  Zr
  Zr34     1.0000 0.03611  0.68588  0.19417  Biso   1.000  Zr
  Zr35     1.0000 0.03614  0.68430  0.69329  Biso   1.000  Zr
  Zr36     1.0000 0.54348  0.18738  0.19012  Biso   1.000  Zr
  Zr37     1.0000 0.53507  0.18377  0.69254  Biso   1.000  Zr
  Zr38     1.0000 0.53675  0.68471  0.19580  Biso   1.000  Zr
  Zr39     1.0000 0.53475  0.68242  0.69597  Biso   1.000  Zr
  Zr40     1.0000 0.03714  0.06737  0.44466  Biso   1.000  Zr
  Zr41     1.0000 0.02905  0.06310  0.96078  Biso   1.000  Zr
  Zr42     1.0000 0.03652  0.56531  0.44513  Biso   1.000  Zr
  Zr43     1.0000 0.03295  0.56695  0.94680  Biso   1.000  Zr
  Zr44     1.0000 0.53604  0.06673  0.44131  Biso   1.000  Zr
  Zr45     1.0000 0.53236  0.06678  0.94731  Biso   1.000  Zr
  Zr46     1.0000 0.53780  0.56663  0.44245  Biso   1.000  Zr
  Zr47     1.0000 0.53580  0.56576  0.94587  Biso   1.000  Zr
  Zr48     1.0000 0.46377  0.43301  0.19504  Biso   1.000  Zr
  Zr49     1.0000 0.46422  0.43486  0.69388  Biso   1.000  Zr
  Zr50     1.0000 0.47106  0.93213  0.19699  Biso   1.000  Zr
  Zr51     1.0000 0.46222  0.93483  0.70067  Biso   1.000  Zr
  Zr52     1.0000 0.96628  0.42657  0.19490  Biso   1.000  Zr
  Zr53     1.0000 0.96585  0.43182  0.69344  Biso   1.000  Zr
  Zr54     1.0000 0.97498  0.94477  0.17544  Biso   1.000  Zr
  Zr55     1.0000 0.96259  0.93362  0.69289  Biso   1.000  Zr
  Zr56     1.0000 0.46571  0.31677  0.44636  Biso   1.000  Zr
  Zr57     1.0000 0.46288  0.31590  0.94086  Biso   1.000  Zr
  Zr58     1.0000 0.47104  0.81904  0.45314  Biso   1.000  Zr
  Zr59     1.0000 0.46213  0.81682  0.94524  Biso   1.000  Zr
  Zr60     1.0000 0.96673  0.31345  0.44194  Biso   1.000  Zr
  Zr61     1.0000 0.96469  0.31574  0.94527  Biso   1.000  Zr
  Zr62     1.0000 0.96584  0.81863  0.43989  Biso   1.000  Zr
  Zr63     1.0000 0.95934  0.81548  0.93723  Biso   1.000  Zr
  Zr64     1.0000 0.28671  0.13018  0.26062  Biso   1.000  Zr
  Zr65     1.0000 0.26806  0.11806  0.75376  Biso   1.000  Zr
  Zr66     1.0000 0.26892  0.61325  0.24993  Biso   1.000  Zr
  Zr67     1.0000 0.26895  0.61874  0.75127  Biso   1.000  Zr
  Zr68     1.0000 0.77628  0.11861  0.24673  Biso   1.000  Zr
  Zr69     1.0000 0.76464  0.11341  0.74478  Biso   1.000  Zr
  Zr70     1.0000 0.77256  0.61558  0.24696  Biso   1.000  Zr
  Zr71     1.0000 0.76978  0.61553  0.74730  Biso   1.000  Zr
  Zr72     1.0000 0.26826  0.13208  0.50647  Biso   1.000  Zr
  Zr73     1.0000 0.26362  0.13543  0.00142  Biso   1.000  Zr
  Zr74     1.0000 0.27261  0.63270  0.50081  Biso   1.000  Zr
  Zr75     1.0000 0.26975  0.63067  0.00110  Biso   1.000  Zr
  Zr76     1.0000 0.77027  0.13239  0.49675  Biso   1.000  Zr
  Zr77     1.0000 0.77003  0.13201  0.99481  Biso   1.000  Zr
  Zr78     1.0000 0.76983  0.63392  0.49706  Biso   1.000  Zr
  Zr79     1.0000 0.76840  0.63271  0.99770  Biso   1.000  Zr
  Zr80     1.0000 0.23109  0.38148  0.49979  Biso   1.000  Zr
  Zr81     1.0000 0.23075  0.38420  0.00001  Biso   1.000  Zr
  Zr82     1.0000 0.23040  0.88258  0.50439  Biso   1.000  Zr
  Zr83     1.0000 0.22479  0.87881  0.00439  Biso   1.000  Zr
  Zr84     1.0000 0.73244  0.38255  0.49854  Biso   1.000  Zr
  Zr85     1.0000 0.72993  0.38212  0.99903  Biso   1.000  Zr
  Zr86     1.0000 0.73317  0.88440  0.49719  Biso   1.000  Zr
  Zr87     1.0000 0.72716  0.88224  0.99635  Biso   1.000  Zr
  Zr88     1.0000 0.22740  0.36842  0.24893  Biso   1.000  Zr
  Zr89     1.0000 0.22989  0.36848  0.75029  Biso   1.000  Zr
  Zr90     1.0000 0.24445  0.85668  0.26118  Biso   1.000  Zr
  Zr91     1.0000 0.22747  0.86974  0.75319  Biso   1.000  Zr
  Zr92     1.0000 0.72925  0.36912  0.24906  Biso   1.000  Zr
  Zr93     1.0000 0.73129  0.36488  0.74813  Biso   1.000  Zr
  Zr94     1.0000 0.74364  0.86779  0.24644  Biso   1.000  Zr
  Zr95     1.0000 0.72865  0.86452  0.74629  Biso   1.000  Zr
