data_image0
_cell_length_a       10.0074
_cell_length_b       5.2074
_cell_length_c       10.0592
_cell_angle_alpha    90.1589
_cell_angle_beta     89.1777
_cell_angle_gamma    89.8865

_symmetry_space_group_name_H-M    "P 1"
_symmetry_int_tables_number       1

loop_
  _symmetry_equiv_pos_as_xyz
  'x, y, z'

loop_
  _atom_site_label
  _atom_site_occupancy
  _atom_site_fract_x
  _atom_site_fract_y
  _atom_site_fract_z
  _atom_site_thermal_displace_type
  _atom_site_B_iso_or_equiv
  _atom_site_type_symbol
  P1       1.0000 0.08908  0.06759  0.10673  Biso   1.000  P 
  Zr1      1.0000 0.13619  0.03609  0.62996  Biso   1.000  Zr
  Zr2      1.0000 0.63336  0.03565  0.12720  Biso   1.000  Zr
  Zr3      1.0000 0.62782  0.02642  0.61898  Biso   1.000  Zr
  Zr4      1.0000 0.14720  0.46398  0.37820  Biso   1.000  Zr
  Zr5      1.0000 0.13763  0.47847  0.88216  Biso   1.000  Zr
  Zr6      1.0000 0.63440  0.47335  0.37236  Biso   1.000  Zr
  Zr7      1.0000 0.62724  0.46420  0.87319  Biso   1.000  Zr
  Zr8      1.0000 0.36028  0.52909  0.13012  Biso   1.000  Zr
  Zr9      1.0000 0.36679  0.53823  0.63123  Biso   1.000  Zr
  Zr10     1.0000 0.86244  0.52940  0.11560  Biso   1.000  Zr
  Zr11     1.0000 0.86921  0.52416  0.61965  Biso   1.000  Zr
  Zr12     1.0000 0.36270  0.96749  0.37322  Biso   1.000  Zr
  Zr13     1.0000 0.35894  0.97030  0.88698  Biso   1.000  Zr
  Zr14     1.0000 0.87153  0.97394  0.37586  Biso   1.000  Zr
  Zr15     1.0000 0.85738  0.96005  0.86583  Biso   1.000  Zr
  Zr16     1.0000 0.04235  0.33894  0.17901  Biso   1.000  Zr
  Zr17     1.0000 0.03136  0.36031  0.70381  Biso   1.000  Zr
  Zr18     1.0000 0.54342  0.37593  0.19167  Biso   1.000  Zr
  Zr19     1.0000 0.53449  0.36553  0.69408  Biso   1.000  Zr
  Zr20     1.0000 0.03758  0.13400  0.44848  Biso   1.000  Zr
  Zr21     1.0000 0.02831  0.12366  0.96116  Biso   1.000  Zr
  Zr22     1.0000 0.53804  0.13571  0.43951  Biso   1.000  Zr
  Zr23     1.0000 0.53193  0.13266  0.94883  Biso   1.000  Zr
  Zr24     1.0000 0.47125  0.86126  0.19862  Biso   1.000  Zr
  Zr25     1.0000 0.46278  0.87147  0.70121  Biso   1.000  Zr
  Zr26     1.0000 0.98016  0.88042  0.17618  Biso   1.000  Zr
  Zr27     1.0000 0.96452  0.86163  0.69163  Biso   1.000  Zr
  Zr28     1.0000 0.47171  0.64000  0.45483  Biso   1.000  Zr
  Zr29     1.0000 0.45959  0.63189  0.94335  Biso   1.000  Zr
  Zr30     1.0000 0.96772  0.63041  0.43389  Biso   1.000  Zr
  Zr31     1.0000 0.95935  0.62974  0.93867  Biso   1.000  Zr
  Zr32     1.0000 0.28364  0.24889  0.25959  Biso   1.000  Zr
  Zr33     1.0000 0.26827  0.24040  0.75706  Biso   1.000  Zr
  Zr34     1.0000 0.77833  0.23461  0.24402  Biso   1.000  Zr
  Zr35     1.0000 0.76508  0.22377  0.74264  Biso   1.000  Zr
  Zr36     1.0000 0.27199  0.26320  0.50839  Biso   1.000  Zr
  Zr37     1.0000 0.26009  0.26475  0.00627  Biso   1.000  Zr
  Zr38     1.0000 0.77047  0.26754  0.49381  Biso   1.000  Zr
  Zr39     1.0000 0.76880  0.26481  0.99329  Biso   1.000  Zr
  Zr40     1.0000 0.23054  0.76118  0.50589  Biso   1.000  Zr
  Zr41     1.0000 0.22275  0.76251  0.00709  Biso   1.000  Zr
  Zr42     1.0000 0.73600  0.76932  0.49574  Biso   1.000  Zr
  Zr43     1.0000 0.72696  0.76254  0.99614  Biso   1.000  Zr
  Zr44     1.0000 0.23985  0.72336  0.26017  Biso   1.000  Zr
  Zr45     1.0000 0.22732  0.74258  0.75543  Biso   1.000  Zr
  Zr46     1.0000 0.74328  0.73923  0.24528  Biso   1.000  Zr
  Zr47     1.0000 0.73019  0.72421  0.74511  Biso   1.000  Zr
