data_image0
_cell_length_a       10.1565
_cell_length_b       5.27392
_cell_length_c       10.2678
_cell_angle_alpha    83.8429
_cell_angle_beta     91.9467
_cell_angle_gamma    93.2818

_symmetry_space_group_name_H-M    "P 1"
_symmetry_int_tables_number       1

loop_
  _symmetry_equiv_pos_as_xyz
  'x, y, z'

loop_
  _atom_site_label
  _atom_site_occupancy
  _atom_site_fract_x
  _atom_site_fract_y
  _atom_site_fract_z
  _atom_site_thermal_displace_type
  _atom_site_B_iso_or_equiv
  _atom_site_type_symbol
  Hf1      1.0000 0.14423  0.97817  0.10524  Biso   1.000  Hf
  Hf2      1.0000 0.11646  0.50606  0.40126  Biso   1.000  Hf
  Hf3      1.0000 0.35281  0.49380  0.12947  Biso   1.000  Hf
  Hf4      1.0000 0.39176  0.99643  0.35640  Biso   1.000  Hf
  Hf5      1.0000 0.95406  0.41911  0.27885  Biso   1.000  Hf
  Hf6      1.0000 0.05149  0.14304  0.44589  Biso   1.000  Hf
  Hf7      1.0000 0.44913  0.84889  0.18458  Biso   1.000  Hf
  Hf8      1.0000 0.47605  0.65784  0.44506  Biso   1.000  Hf
  Hf9      1.0000 0.24931  0.17527  0.23739  Biso   1.000  Hf
  Hf10     1.0000 0.28023  0.29468  0.48852  Biso   1.000  Hf
  Hf11     1.0000 0.25020  0.79482  0.48507  Biso   1.000  Hf
  Hf12     1.0000 0.20504  0.66080  0.23084  Biso   1.000  Hf
  Hf13     1.0000 0.15192  0.01679  0.60884  Biso   1.000  Hf
  Hf14     1.0000 0.15843  0.41179  0.83838  Biso   1.000  Hf
  Hf15     1.0000 0.37786  0.52620  0.60979  Biso   1.000  Hf
  Hf16     1.0000 0.37607  0.92920  0.87422  Biso   1.000  Hf
  Hf17     1.0000 0.07422  0.37474  0.65166  Biso   1.000  Hf
  Hf18     1.0000 0.05844  0.06512  0.91427  Biso   1.000  Hf
  Hf19     1.0000 0.50142  0.80150  0.72769  Biso   1.000  Hf
  Hf20     1.0000 0.46777  0.60921  0.96450  Biso   1.000  Hf
  Hf21     1.0000 0.28891  0.20286  0.73810  Biso   1.000  Hf
  Hf22     1.0000 0.28790  0.21363  0.98925  Biso   1.000  Hf
  Hf23     1.0000 0.22967  0.71602  0.98341  Biso   1.000  Hf
  Hf24     1.0000 0.25700  0.71453  0.73353  Biso   1.000  Hf
  Hf25     1.0000 0.62262  0.07730  0.12681  Biso   1.000  Hf
  Hf26     1.0000 0.63646  0.47528  0.40693  Biso   1.000  Hf
  Hf27     1.0000 0.81230  0.61381  0.16331  Biso   1.000  Hf
  Hf28     1.0000 0.87656  0.03529  0.37652  Biso   1.000  Hf
  Hf29     1.0000 0.49712  0.31838  0.23439  Biso   1.000  Hf
  Hf30     1.0000 0.53953  0.13373  0.47042  Biso   1.000  Hf
  Hf31     1.0000 0.96050  0.93727  0.20902  Biso   1.000  Hf
  Hf32     1.0000 0.97348  0.69332  0.46727  Biso   1.000  Hf
  Hf33     1.0000 0.73022  0.27200  0.26945  Biso   1.000  Hf
  Hf34     1.0000 0.78579  0.28487  0.51565  Biso   1.000  Hf
  Hf35     1.0000 0.74026  0.77350  0.51545  Biso   1.000  Hf
  Hf36     1.0000 0.69801  0.79123  0.27145  Biso   1.000  Hf
  Hf37     1.0000 0.65807  0.01676  0.63757  Biso   1.000  Hf
  Hf38     1.0000 0.60482  0.47572  0.85586  Biso   1.000  Hf
  Hf39     1.0000 0.88967  0.54093  0.64377  Biso   1.000  Hf
  Hf40     1.0000 0.88696  0.90889  0.86501  Biso   1.000  Hf
  Hf41     1.0000 0.54389  0.33888  0.68177  Biso   1.000  Hf
  Hf42     1.0000 0.53552  0.12395  0.93986  Biso   1.000  Hf
  Hf43     1.0000 0.97204  0.90365  0.67684  Biso   1.000  Hf
  Hf44     1.0000 0.97650  0.55304  0.84613  Biso   1.000  Hf
  Hf45     1.0000 0.78258  0.20440  0.76682  Biso   1.000  Hf
  Hf46     1.0000 0.71823  0.41084  0.02711  Biso   1.000  Hf
  Hf47     1.0000 0.76358  0.90718  0.02237  Biso   1.000  Hf
  Hf48     1.0000 0.74637  0.70661  0.76046  Biso   1.000  Hf
  Pb1      1.0000 0.03387  0.45499  0.07426  Biso   1.000  Pb
