data_image0
_cell_length_a       10.0433
_cell_length_b       10.4413
_cell_length_c       10.0774
_cell_angle_alpha    90.0308
_cell_angle_beta     89.9486
_cell_angle_gamma    89.9632

_symmetry_space_group_name_H-M    "P 1"
_symmetry_int_tables_number       1

loop_
  _symmetry_equiv_pos_as_xyz
  'x, y, z'

loop_
  _atom_site_label
  _atom_site_occupancy
  _atom_site_fract_x
  _atom_site_fract_y
  _atom_site_fract_z
  _atom_site_thermal_displace_type
  _atom_site_B_iso_or_equiv
  _atom_site_type_symbol
  Pb1      1.0000 0.13023  0.01587  0.12161  Biso   1.000  Pb
  Zr1      1.0000 0.13340  0.01587  0.62657  Biso   1.000  Zr
  Zr2      1.0000 0.13374  0.51562  0.12601  Biso   1.000  Zr
  Zr3      1.0000 0.13372  0.51602  0.62551  Biso   1.000  Zr
  Zr4      1.0000 0.63416  0.01527  0.12636  Biso   1.000  Zr
  Zr5      1.0000 0.63369  0.01603  0.62536  Biso   1.000  Zr
  Zr6      1.0000 0.63397  0.51549  0.12610  Biso   1.000  Zr
  Zr7      1.0000 0.63371  0.51573  0.62543  Biso   1.000  Zr
  Zr8      1.0000 0.13468  0.23431  0.37741  Biso   1.000  Zr
  Zr9      1.0000 0.13395  0.23706  0.87306  Biso   1.000  Zr
  Zr10     1.0000 0.13384  0.73419  0.37619  Biso   1.000  Zr
  Zr11     1.0000 0.13324  0.73383  0.87576  Biso   1.000  Zr
  Zr12     1.0000 0.63362  0.23419  0.37540  Biso   1.000  Zr
  Zr13     1.0000 0.63424  0.23413  0.87569  Biso   1.000  Zr
  Zr14     1.0000 0.63408  0.73436  0.37615  Biso   1.000  Zr
  Zr15     1.0000 0.63307  0.73374  0.87548  Biso   1.000  Zr
  Zr16     1.0000 0.36673  0.26695  0.12589  Biso   1.000  Zr
  Zr17     1.0000 0.36684  0.26568  0.62528  Biso   1.000  Zr
  Zr18     1.0000 0.36790  0.76389  0.12613  Biso   1.000  Zr
  Zr19     1.0000 0.36568  0.76580  0.62605  Biso   1.000  Zr
  Zr20     1.0000 0.86410  0.26649  0.12546  Biso   1.000  Zr
  Zr21     1.0000 0.86616  0.26618  0.62516  Biso   1.000  Zr
  Zr22     1.0000 0.86541  0.76356  0.12499  Biso   1.000  Zr
  Zr23     1.0000 0.86621  0.76543  0.62527  Biso   1.000  Zr
  Zr24     1.0000 0.36606  0.48440  0.37591  Biso   1.000  Zr
  Zr25     1.0000 0.36645  0.48474  0.87551  Biso   1.000  Zr
  Zr26     1.0000 0.36632  0.98366  0.37633  Biso   1.000  Zr
  Zr27     1.0000 0.36802  0.98552  0.87417  Biso   1.000  Zr
  Zr28     1.0000 0.86649  0.48421  0.37574  Biso   1.000  Zr
  Zr29     1.0000 0.86609  0.48418  0.87549  Biso   1.000  Zr
  Zr30     1.0000 0.86563  0.98492  0.37763  Biso   1.000  Zr
  Zr31     1.0000 0.86359  0.98272  0.87427  Biso   1.000  Zr
  Zr32     1.0000 0.03332  0.18826  0.19727  Biso   1.000  Zr
  Zr33     1.0000 0.03718  0.18616  0.69093  Biso   1.000  Zr
  Zr34     1.0000 0.03587  0.68422  0.19452  Biso   1.000  Zr
  Zr35     1.0000 0.03537  0.68384  0.69473  Biso   1.000  Zr
  Zr36     1.0000 0.53631  0.18437  0.19336  Biso   1.000  Zr
  Zr37     1.0000 0.53579  0.18382  0.69476  Biso   1.000  Zr
  Zr38     1.0000 0.53686  0.68338  0.19537  Biso   1.000  Zr
  Zr39     1.0000 0.53492  0.68339  0.69491  Biso   1.000  Zr
  Zr40     1.0000 0.03581  0.06586  0.44431  Biso   1.000  Zr
  Zr41     1.0000 0.03471  0.06739  0.93130  Biso   1.000  Zr
  Zr42     1.0000 0.03553  0.56581  0.44491  Biso   1.000  Zr
  Zr43     1.0000 0.03483  0.56661  0.94491  Biso   1.000  Zr
  Zr44     1.0000 0.53591  0.06627  0.44441  Biso   1.000  Zr
  Zr45     1.0000 0.53730  0.06566  0.94357  Biso   1.000  Zr
  Zr46     1.0000 0.53563  0.56615  0.44460  Biso   1.000  Zr
  Zr47     1.0000 0.53476  0.56670  0.94574  Biso   1.000  Zr
  Zr48     1.0000 0.46471  0.43407  0.19480  Biso   1.000  Zr
  Zr49     1.0000 0.46488  0.43374  0.69450  Biso   1.000  Zr
  Zr50     1.0000 0.46566  0.93329  0.19465  Biso   1.000  Zr
  Zr51     1.0000 0.46440  0.93397  0.69377  Biso   1.000  Zr
  Zr52     1.0000 0.96377  0.43433  0.19435  Biso   1.000  Zr
  Zr53     1.0000 0.96475  0.43398  0.69510  Biso   1.000  Zr
  Zr54     1.0000 0.95698  0.93255  0.19470  Biso   1.000  Zr
  Zr55     1.0000 0.96284  0.93382  0.69245  Biso   1.000  Zr
  Zr56     1.0000 0.46425  0.31606  0.44419  Biso   1.000  Zr
  Zr57     1.0000 0.46485  0.31654  0.94401  Biso   1.000  Zr
  Zr58     1.0000 0.46501  0.81612  0.44565  Biso   1.000  Zr
  Zr59     1.0000 0.46333  0.81609  0.94338  Biso   1.000  Zr
  Zr60     1.0000 0.96425  0.31665  0.44449  Biso   1.000  Zr
  Zr61     1.0000 0.96452  0.31675  0.94483  Biso   1.000  Zr
  Zr62     1.0000 0.96438  0.81606  0.44479  Biso   1.000  Zr
  Zr63     1.0000 0.96431  0.81669  0.94487  Biso   1.000  Zr
  Zr64     1.0000 0.27269  0.11939  0.25093  Biso   1.000  Zr
  Zr65     1.0000 0.27047  0.11762  0.74780  Biso   1.000  Zr
  Zr66     1.0000 0.26967  0.61535  0.24916  Biso   1.000  Zr
  Zr67     1.0000 0.26913  0.61697  0.74920  Biso   1.000  Zr
  Zr68     1.0000 0.76838  0.11712  0.25016  Biso   1.000  Zr
  Zr69     1.0000 0.76959  0.11710  0.74869  Biso   1.000  Zr
  Zr70     1.0000 0.76976  0.61649  0.24910  Biso   1.000  Zr
  Zr71     1.0000 0.76914  0.61682  0.74896  Biso   1.000  Zr
  Zr72     1.0000 0.27009  0.13268  0.49942  Biso   1.000  Zr
  Zr73     1.0000 0.27194  0.13560  0.99543  Biso   1.000  Zr
  Zr74     1.0000 0.26953  0.63318  0.49939  Biso   1.000  Zr
  Zr75     1.0000 0.26918  0.63304  0.99916  Biso   1.000  Zr
  Zr76     1.0000 0.76927  0.13336  0.49944  Biso   1.000  Zr
  Zr77     1.0000 0.77055  0.13232  0.99932  Biso   1.000  Zr
  Zr78     1.0000 0.76947  0.63306  0.49898  Biso   1.000  Zr
  Zr79     1.0000 0.76883  0.63205  0.99856  Biso   1.000  Zr
  Zr80     1.0000 0.23067  0.38314  0.49938  Biso   1.000  Zr
  Zr81     1.0000 0.23077  0.38404  0.99872  Biso   1.000  Zr
  Zr82     1.0000 0.23031  0.88328  0.50032  Biso   1.000  Zr
  Zr83     1.0000 0.23295  0.88085  0.99861  Biso   1.000  Zr
  Zr84     1.0000 0.73042  0.38309  0.49903  Biso   1.000  Zr
  Zr85     1.0000 0.73003  0.38288  0.99895  Biso   1.000  Zr
  Zr86     1.0000 0.73025  0.88306  0.49954  Biso   1.000  Zr
  Zr87     1.0000 0.72889  0.88142  0.99926  Biso   1.000  Zr
  Zr88     1.0000 0.23045  0.36738  0.24957  Biso   1.000  Zr
  Zr89     1.0000 0.23131  0.36788  0.74827  Biso   1.000  Zr
  Zr90     1.0000 0.23550  0.86165  0.25229  Biso   1.000  Zr
  Zr91     1.0000 0.23038  0.86712  0.74980  Biso   1.000  Zr
  Zr92     1.0000 0.72991  0.36736  0.24928  Biso   1.000  Zr
  Zr93     1.0000 0.73063  0.36693  0.74913  Biso   1.000  Zr
  Zr94     1.0000 0.73102  0.86654  0.24972  Biso   1.000  Zr
  Zr95     1.0000 0.72960  0.86655  0.74879  Biso   1.000  Zr
