data_image0
_cell_length_a       10.0556
_cell_length_b       10.4569
_cell_length_c       5.04647
_cell_angle_alpha    90.0812
_cell_angle_beta     89.9129
_cell_angle_gamma    89.9308

_symmetry_space_group_name_H-M    "P 1"
_symmetry_int_tables_number       1

loop_
  _symmetry_equiv_pos_as_xyz
  'x, y, z'

loop_
  _atom_site_label
  _atom_site_occupancy
  _atom_site_fract_x
  _atom_site_fract_y
  _atom_site_fract_z
  _atom_site_thermal_displace_type
  _atom_site_B_iso_or_equiv
  _atom_site_type_symbol
  Pb1      1.0000 0.12967  0.01569  0.24466  Biso   1.000  Pb
  Zr1      1.0000 0.13362  0.51582  0.25166  Biso   1.000  Zr
  Zr2      1.0000 0.63391  0.01554  0.25213  Biso   1.000  Zr
  Zr3      1.0000 0.63383  0.51537  0.25175  Biso   1.000  Zr
  Zr4      1.0000 0.13482  0.23693  0.74951  Biso   1.000  Zr
  Zr5      1.0000 0.13325  0.73367  0.75261  Biso   1.000  Zr
  Zr6      1.0000 0.63396  0.23399  0.75077  Biso   1.000  Zr
  Zr7      1.0000 0.63334  0.73370  0.75218  Biso   1.000  Zr
  Zr8      1.0000 0.36734  0.26681  0.25056  Biso   1.000  Zr
  Zr9      1.0000 0.36759  0.76377  0.25293  Biso   1.000  Zr
  Zr10     1.0000 0.86414  0.26683  0.24980  Biso   1.000  Zr
  Zr11     1.0000 0.86544  0.76318  0.24956  Biso   1.000  Zr
  Zr12     1.0000 0.36635  0.48476  0.75142  Biso   1.000  Zr
  Zr13     1.0000 0.36816  0.98483  0.74932  Biso   1.000  Zr
  Zr14     1.0000 0.86647  0.48399  0.75121  Biso   1.000  Zr
  Zr15     1.0000 0.86286  0.98331  0.75274  Biso   1.000  Zr
  Zr16     1.0000 0.03467  0.19034  0.38872  Biso   1.000  Zr
  Zr17     1.0000 0.03540  0.68403  0.39037  Biso   1.000  Zr
  Zr18     1.0000 0.53613  0.18413  0.38790  Biso   1.000  Zr
  Zr19     1.0000 0.53604  0.68273  0.39228  Biso   1.000  Zr
  Zr20     1.0000 0.03406  0.06757  0.86474  Biso   1.000  Zr
  Zr21     1.0000 0.03455  0.56633  0.89140  Biso   1.000  Zr
  Zr22     1.0000 0.53745  0.06571  0.88735  Biso   1.000  Zr
  Zr23     1.0000 0.53460  0.56673  0.89236  Biso   1.000  Zr
  Zr24     1.0000 0.46537  0.43378  0.39015  Biso   1.000  Zr
  Zr25     1.0000 0.46582  0.93325  0.38836  Biso   1.000  Zr
  Zr26     1.0000 0.96436  0.43425  0.39051  Biso   1.000  Zr
  Zr27     1.0000 0.95563  0.93240  0.38744  Biso   1.000  Zr
  Zr28     1.0000 0.46497  0.31656  0.88802  Biso   1.000  Zr
  Zr29     1.0000 0.46422  0.81609  0.88975  Biso   1.000  Zr
  Zr30     1.0000 0.96460  0.31737  0.89037  Biso   1.000  Zr
  Zr31     1.0000 0.96465  0.81677  0.89181  Biso   1.000  Zr
  Zr32     1.0000 0.27316  0.11954  0.49818  Biso   1.000  Zr
  Zr33     1.0000 0.26915  0.61503  0.49845  Biso   1.000  Zr
  Zr34     1.0000 0.76829  0.11709  0.49954  Biso   1.000  Zr
  Zr35     1.0000 0.76926  0.61614  0.49804  Biso   1.000  Zr
  Zr36     1.0000 0.27265  0.13549  0.99040  Biso   1.000  Zr
  Zr37     1.0000 0.26905  0.63323  0.99884  Biso   1.000  Zr
  Zr38     1.0000 0.76990  0.13276  0.99948  Biso   1.000  Zr
  Zr39     1.0000 0.76870  0.63210  0.99706  Biso   1.000  Zr
  Zr40     1.0000 0.23109  0.38424  0.99797  Biso   1.000  Zr
  Zr41     1.0000 0.23299  0.88114  0.99946  Biso   1.000  Zr
  Zr42     1.0000 0.73012  0.38300  0.99768  Biso   1.000  Zr
  Zr43     1.0000 0.72882  0.88141  0.99984  Biso   1.000  Zr
  Zr44     1.0000 0.23144  0.36795  0.49754  Biso   1.000  Zr
  Zr45     1.0000 0.23576  0.86124  0.50608  Biso   1.000  Zr
  Zr46     1.0000 0.73021  0.36709  0.49846  Biso   1.000  Zr
  Zr47     1.0000 0.73023  0.86597  0.49919  Biso   1.000  Zr
