data_image0
_cell_length_a       4.9742
_cell_length_b       10.3835
_cell_length_c       10.0163
_cell_angle_alpha    90.3635
_cell_angle_beta     89.1569
_cell_angle_gamma    90.3727

_symmetry_space_group_name_H-M    "P 1"
_symmetry_int_tables_number       1

loop_
  _symmetry_equiv_pos_as_xyz
  'x, y, z'

loop_
  _atom_site_label
  _atom_site_occupancy
  _atom_site_fract_x
  _atom_site_fract_y
  _atom_site_fract_z
  _atom_site_thermal_displace_type
  _atom_site_B_iso_or_equiv
  _atom_site_type_symbol
  Pt1      1.0000 0.25244  0.04079  0.10277  Biso   1.000  Pt
  Hf1      1.0000 0.27003  0.22883  0.37784  Biso   1.000  Hf
  Hf2      1.0000 0.72526  0.26859  0.12564  Biso   1.000  Hf
  Hf3      1.0000 0.73454  0.48278  0.37700  Biso   1.000  Hf
  Hf4      1.0000 0.06465  0.18602  0.19260  Biso   1.000  Hf
  Hf5      1.0000 0.07308  0.06561  0.44856  Biso   1.000  Hf
  Hf6      1.0000 0.92890  0.43104  0.19527  Biso   1.000  Hf
  Hf7      1.0000 0.92806  0.31393  0.44244  Biso   1.000  Hf
  Hf8      1.0000 0.51894  0.10587  0.24758  Biso   1.000  Hf
  Hf9      1.0000 0.54625  0.13193  0.49711  Biso   1.000  Hf
  Hf10     1.0000 0.45928  0.38096  0.50056  Biso   1.000  Hf
  Hf11     1.0000 0.45744  0.36274  0.25050  Biso   1.000  Hf
  Hf12     1.0000 0.26563  0.01528  0.62463  Biso   1.000  Hf
  Hf13     1.0000 0.26097  0.23900  0.87042  Biso   1.000  Hf
  Hf14     1.0000 0.73182  0.26566  0.62380  Biso   1.000  Hf
  Hf15     1.0000 0.72925  0.48710  0.87532  Biso   1.000  Hf
  Hf16     1.0000 0.07199  0.18619  0.69307  Biso   1.000  Hf
  Hf17     1.0000 0.06578  0.06273  0.93036  Biso   1.000  Hf
  Hf18     1.0000 0.92855  0.43330  0.69609  Biso   1.000  Hf
  Hf19     1.0000 0.92026  0.31551  0.94420  Biso   1.000  Hf
  Hf20     1.0000 0.53822  0.11835  0.74830  Biso   1.000  Hf
  Hf21     1.0000 0.53300  0.13639  0.99648  Biso   1.000  Hf
  Hf22     1.0000 0.45616  0.38476  0.99947  Biso   1.000  Hf
  Hf23     1.0000 0.45842  0.36897  0.74900  Biso   1.000  Hf
  Hf24     1.0000 0.26929  0.51653  0.12861  Biso   1.000  Hf
  Hf25     1.0000 0.27842  0.73396  0.37695  Biso   1.000  Hf
  Hf26     1.0000 0.74787  0.76612  0.12570  Biso   1.000  Hf
  Hf27     1.0000 0.74014  0.98094  0.37165  Biso   1.000  Hf
  Hf28     1.0000 0.07831  0.68385  0.19837  Biso   1.000  Hf
  Hf29     1.0000 0.07429  0.56399  0.44660  Biso   1.000  Hf
  Hf30     1.0000 0.95720  0.93885  0.19207  Biso   1.000  Hf
  Hf31     1.0000 0.94149  0.81673  0.45038  Biso   1.000  Hf
  Hf32     1.0000 0.54429  0.60798  0.24958  Biso   1.000  Hf
  Hf33     1.0000 0.54444  0.63234  0.50078  Biso   1.000  Hf
  Hf34     1.0000 0.46601  0.88298  0.50395  Biso   1.000  Hf
  Hf35     1.0000 0.51405  0.84916  0.26224  Biso   1.000  Hf
  Hf36     1.0000 0.26777  0.51766  0.62566  Biso   1.000  Hf
  Hf37     1.0000 0.26161  0.73485  0.87941  Biso   1.000  Hf
  Hf38     1.0000 0.73589  0.76698  0.62620  Biso   1.000  Hf
  Hf39     1.0000 0.71582  0.98148  0.87394  Biso   1.000  Hf
  Hf40     1.0000 0.06920  0.68301  0.69907  Biso   1.000  Hf
  Hf41     1.0000 0.06534  0.56740  0.94943  Biso   1.000  Hf
  Hf42     1.0000 0.92412  0.93453  0.69505  Biso   1.000  Hf
  Hf43     1.0000 0.91436  0.81729  0.94000  Biso   1.000  Hf
  Hf44     1.0000 0.53678  0.61787  0.75154  Biso   1.000  Hf
  Hf45     1.0000 0.53567  0.63685  0.00105  Biso   1.000  Hf
  Hf46     1.0000 0.44711  0.89145  0.01019  Biso   1.000  Hf
  Hf47     1.0000 0.45433  0.86653  0.75322  Biso   1.000  Hf
