data_image0
_cell_length_a       10.1356
_cell_length_b       5.27726
_cell_length_c       10.1869
_cell_angle_alpha    91.6182
_cell_angle_beta     88.9317
_cell_angle_gamma    90.5184

_symmetry_space_group_name_H-M    "P 1"
_symmetry_int_tables_number       1

loop_
  _symmetry_equiv_pos_as_xyz
  'x, y, z'

loop_
  _atom_site_label
  _atom_site_occupancy
  _atom_site_fract_x
  _atom_site_fract_y
  _atom_site_fract_z
  _atom_site_thermal_displace_type
  _atom_site_B_iso_or_equiv
  _atom_site_type_symbol
  Zr1      1.0000 0.11721  0.08939  0.10752  Biso   1.000  Zr
  Zr2      1.0000 0.14223  0.43979  0.39233  Biso   1.000  Zr
  Zr3      1.0000 0.39116  0.51141  0.10808  Biso   1.000  Zr
  Zr4      1.0000 0.37054  0.94453  0.37411  Biso   1.000  Zr
  Zr5      1.0000 0.00252  0.35673  0.22804  Biso   1.000  Zr
  Zr6      1.0000 0.03402  0.12646  0.45817  Biso   1.000  Zr
  Zr7      1.0000 0.46985  0.86375  0.18956  Biso   1.000  Zr
  Zr8      1.0000 0.48057  0.64165  0.46388  Biso   1.000  Zr
  Zr9      1.0000 0.23891  0.13504  0.26020  Biso   1.000  Zr
  Zr10     1.0000 0.27877  0.25279  0.50426  Biso   1.000  Zr
  Zr11     1.0000 0.23436  0.75706  0.50688  Biso   1.000  Zr
  Zr12     1.0000 0.29171  0.61451  0.28131  Biso   1.000  Zr
  Zr13     1.0000 0.13692  0.02717  0.62851  Biso   1.000  Zr
  Zr14     1.0000 0.12820  0.47885  0.86870  Biso   1.000  Zr
  Zr15     1.0000 0.36963  0.53274  0.62938  Biso   1.000  Zr
  Zr16     1.0000 0.36802  0.97941  0.87534  Biso   1.000  Zr
  Zr17     1.0000 0.03897  0.37636  0.68833  Biso   1.000  Zr
  Zr18     1.0000 0.02716  0.14561  0.93020  Biso   1.000  Zr
  Zr19     1.0000 0.46714  0.87306  0.70015  Biso   1.000  Zr
  Zr20     1.0000 0.47099  0.65793  0.93708  Biso   1.000  Zr
  Zr21     1.0000 0.26653  0.23739  0.74973  Biso   1.000  Zr
  Zr22     1.0000 0.27288  0.26868  0.98748  Biso   1.000  Zr
  Zr23     1.0000 0.23161  0.78475  0.00854  Biso   1.000  Zr
  Zr24     1.0000 0.23311  0.73952  0.75507  Biso   1.000  Zr
  Zr25     1.0000 0.63458  0.03351  0.12647  Biso   1.000  Zr
  Zr26     1.0000 0.63872  0.46706  0.37781  Biso   1.000  Zr
  Zr27     1.0000 0.85518  0.53990  0.11278  Biso   1.000  Zr
  Zr28     1.0000 0.87082  0.97538  0.37200  Biso   1.000  Zr
  Zr29     1.0000 0.53364  0.35860  0.20695  Biso   1.000  Zr
  Zr30     1.0000 0.53845  0.13004  0.44295  Biso   1.000  Zr
  Zr31     1.0000 0.95225  0.88970  0.18422  Biso   1.000  Zr
  Zr32     1.0000 0.97410  0.64158  0.44601  Biso   1.000  Zr
  Zr33     1.0000 0.76410  0.22981  0.24690  Biso   1.000  Zr
  Zr34     1.0000 0.77087  0.27235  0.49516  Biso   1.000  Zr
  Zr35     1.0000 0.74131  0.77283  0.49372  Biso   1.000  Zr
  Zr36     1.0000 0.72909  0.72959  0.24593  Biso   1.000  Zr
  Zr37     1.0000 0.63102  0.02573  0.61545  Biso   1.000  Zr
  Zr38     1.0000 0.63687  0.46755  0.86634  Biso   1.000  Zr
  Zr39     1.0000 0.87369  0.53660  0.61756  Biso   1.000  Zr
  Zr40     1.0000 0.85770  0.96769  0.86499  Biso   1.000  Zr
  Zr41     1.0000 0.53166  0.35986  0.69833  Biso   1.000  Zr
  Zr42     1.0000 0.52427  0.17052  0.96014  Biso   1.000  Zr
  Zr43     1.0000 0.96606  0.87207  0.69302  Biso   1.000  Zr
  Zr44     1.0000 0.94631  0.63534  0.92031  Biso   1.000  Zr
  Zr45     1.0000 0.76470  0.22759  0.74174  Biso   1.000  Zr
  Zr46     1.0000 0.76411  0.26660  0.99307  Biso   1.000  Zr
  Zr47     1.0000 0.72318  0.76872  0.99411  Biso   1.000  Zr
  Zr48     1.0000 0.72907  0.73035  0.73989  Biso   1.000  Zr
  Pt1      1.0000 0.11922  0.59465  0.13908  Biso   1.000  Pt
