data_image0
_cell_length_a       10.1043
_cell_length_b       5.22592
_cell_length_c       10.095
_cell_angle_alpha    90.2752
_cell_angle_beta     89.5701
_cell_angle_gamma    90.0097

_symmetry_space_group_name_H-M    "P 1"
_symmetry_int_tables_number       1

loop_
  _symmetry_equiv_pos_as_xyz
  'x, y, z'

loop_
  _atom_site_label
  _atom_site_occupancy
  _atom_site_fract_x
  _atom_site_fract_y
  _atom_site_fract_z
  _atom_site_thermal_displace_type
  _atom_site_B_iso_or_equiv
  _atom_site_type_symbol
  Rb1      1.0000 0.09034  0.97695  0.14901  Biso   1.000  Rb
  Hf1      1.0000 0.13891  0.03630  0.62374  Biso   1.000  Hf
  Hf2      1.0000 0.63020  0.03506  0.11365  Biso   1.000  Hf
  Hf3      1.0000 0.63083  0.03022  0.62490  Biso   1.000  Hf
  Hf4      1.0000 0.14119  0.47593  0.37774  Biso   1.000  Hf
  Hf5      1.0000 0.14474  0.46559  0.87690  Biso   1.000  Hf
  Hf6      1.0000 0.63344  0.45498  0.37518  Biso   1.000  Hf
  Hf7      1.0000 0.62955  0.47242  0.86633  Biso   1.000  Hf
  Hf8      1.0000 0.36661  0.51430  0.12412  Biso   1.000  Hf
  Hf9      1.0000 0.36818  0.53850  0.62417  Biso   1.000  Hf
  Hf10     1.0000 0.88782  0.47973  0.08081  Biso   1.000  Hf
  Hf11     1.0000 0.87466  0.54130  0.62440  Biso   1.000  Hf
  Hf12     1.0000 0.37177  0.96595  0.37007  Biso   1.000  Hf
  Hf13     1.0000 0.36261  0.96054  0.88060  Biso   1.000  Hf
  Hf14     1.0000 0.86700  0.99056  0.39280  Biso   1.000  Hf
  Hf15     1.0000 0.86331  0.97628  0.86708  Biso   1.000  Hf
  Hf16     1.0000 0.03691  0.45639  0.20628  Biso   1.000  Hf
  Hf17     1.0000 0.03993  0.37230  0.69305  Biso   1.000  Hf
  Hf18     1.0000 0.54093  0.35643  0.19767  Biso   1.000  Hf
  Hf19     1.0000 0.53487  0.36524  0.69165  Biso   1.000  Hf
  Hf20     1.0000 0.03984  0.14121  0.44214  Biso   1.000  Hf
  Hf21     1.0000 0.99765  0.22191  0.94980  Biso   1.000  Hf
  Hf22     1.0000 0.54138  0.12899  0.44551  Biso   1.000  Hf
  Hf23     1.0000 0.53065  0.13950  0.94019  Biso   1.000  Hf
  Hf24     1.0000 0.47148  0.86014  0.19337  Biso   1.000  Hf
  Hf25     1.0000 0.46877  0.86318  0.70003  Biso   1.000  Hf
  Hf26     1.0000 0.84007  0.72201  0.24112  Biso   1.000  Hf
  Hf27     1.0000 0.96675  0.87996  0.69320  Biso   1.000  Hf
  Hf28     1.0000 0.47694  0.63325  0.45240  Biso   1.000  Hf
  Hf29     1.0000 0.47769  0.64513  0.94996  Biso   1.000  Hf
  Hf30     1.0000 0.97930  0.65886  0.45654  Biso   1.000  Hf
  Hf31     1.0000 0.98578  0.69546  0.94212  Biso   1.000  Hf
  Hf32     1.0000 0.28590  0.23786  0.25664  Biso   1.000  Hf
  Hf33     1.0000 0.27160  0.23540  0.74937  Biso   1.000  Hf
  Hf34     1.0000 0.78216  0.20887  0.23873  Biso   1.000  Hf
  Hf35     1.0000 0.76990  0.23776  0.74035  Biso   1.000  Hf
  Hf36     1.0000 0.27438  0.26868  0.50234  Biso   1.000  Hf
  Hf37     1.0000 0.27344  0.25261  0.99385  Biso   1.000  Hf
  Hf38     1.0000 0.77270  0.27856  0.49713  Biso   1.000  Hf
  Hf39     1.0000 0.75448  0.25755  0.98659  Biso   1.000  Hf
  Hf40     1.0000 0.23950  0.77510  0.50146  Biso   1.000  Hf
  Hf41     1.0000 0.24517  0.72927  0.99532  Biso   1.000  Hf
  Hf42     1.0000 0.73689  0.77135  0.49832  Biso   1.000  Hf
  Hf43     1.0000 0.74418  0.75655  0.99655  Biso   1.000  Hf
  Hf44     1.0000 0.25964  0.70160  0.26430  Biso   1.000  Hf
  Hf45     1.0000 0.23056  0.74116  0.74778  Biso   1.000  Hf
  Hf46     1.0000 0.69773  0.74603  0.24192  Biso   1.000  Hf
  Hf47     1.0000 0.73293  0.73696  0.74570  Biso   1.000  Hf
