data_image0
_cell_length_a       5.11074
_cell_length_b       10.3614
_cell_length_c       10.2342
_cell_angle_alpha    91.1172
_cell_angle_beta     90.1631
_cell_angle_gamma    95.6882

_symmetry_space_group_name_H-M    "P 1"
_symmetry_int_tables_number       1

loop_
  _symmetry_equiv_pos_as_xyz
  'x, y, z'

loop_
  _atom_site_label
  _atom_site_occupancy
  _atom_site_fract_x
  _atom_site_fract_y
  _atom_site_fract_z
  _atom_site_thermal_displace_type
  _atom_site_B_iso_or_equiv
  _atom_site_type_symbol
  Hf1      1.0000 0.24783  0.97057  0.11059  Biso   1.000  Hf
  Hf2      1.0000 0.31687  0.24569  0.39751  Biso   1.000  Hf
  Hf3      1.0000 0.86311  0.22632  0.10490  Biso   1.000  Hf
  Hf4      1.0000 0.77433  0.01870  0.35092  Biso   1.000  Hf
  Hf5      1.0000 0.09858  0.11945  0.98041  Biso   1.000  Hf
  Hf6      1.0000 0.08522  0.11616  0.23775  Biso   1.000  Hf
  Hf7      1.0000 0.92176  0.38944  0.22372  Biso   1.000  Hf
  Hf8      1.0000 0.07500  0.38575  0.98843  Biso   1.000  Hf
  Hf9      1.0000 0.63835  0.18684  0.28771  Biso   1.000  Hf
  Hf10     1.0000 0.60469  0.06215  0.05194  Biso   1.000  Hf
  Hf11     1.0000 0.63562  0.28269  0.92876  Biso   1.000  Hf
  Hf12     1.0000 0.41241  0.43257  0.30321  Biso   1.000  Hf
  Hf13     1.0000 0.24198  0.99649  0.62263  Biso   1.000  Hf
  Hf14     1.0000 0.24950  0.26240  0.83586  Biso   1.000  Hf
  Hf15     1.0000 0.78791  0.22990  0.60694  Biso   1.000  Hf
  Hf16     1.0000 0.76656  0.99568  0.87997  Biso   1.000  Hf
  Hf17     1.0000 0.03473  0.12987  0.49524  Biso   1.000  Hf
  Hf18     1.0000 0.96361  0.10837  0.74151  Biso   1.000  Hf
  Hf19     1.0000 0.97661  0.36347  0.73466  Biso   1.000  Hf
  Hf20     1.0000 0.04050  0.37928  0.48947  Biso   1.000  Hf
  Hf21     1.0000 0.45370  0.16536  0.71033  Biso   1.000  Hf
  Hf22     1.0000 0.52064  0.08979  0.49372  Biso   1.000  Hf
  Hf23     1.0000 0.55018  0.34871  0.52256  Biso   1.000  Hf
  Hf24     1.0000 0.45154  0.43364  0.77174  Biso   1.000  Hf
  Hf25     1.0000 0.19910  0.53042  0.15333  Biso   1.000  Hf
  Hf26     1.0000 0.18905  0.77552  0.36919  Biso   1.000  Hf
  Hf27     1.0000 0.72735  0.72696  0.11037  Biso   1.000  Hf
  Hf28     1.0000 0.76608  0.48456  0.39360  Biso   1.000  Hf
  Hf29     1.0000 0.01748  0.63222  0.00397  Biso   1.000  Hf
  Hf30     1.0000 0.92741  0.62807  0.26273  Biso   1.000  Hf
  Hf31     1.0000 0.94320  0.86810  0.23550  Biso   1.000  Hf
  Hf32     1.0000 0.95791  0.87128  0.98850  Biso   1.000  Hf
  Hf33     1.0000 0.42235  0.68405  0.24065  Biso   1.000  Hf
  Hf34     1.0000 0.54363  0.54788  0.03610  Biso   1.000  Hf
  Hf35     1.0000 0.44371  0.81871  0.01464  Biso   1.000  Hf
  Hf36     1.0000 0.43104  0.92765  0.28032  Biso   1.000  Hf
  Hf37     1.0000 0.22879  0.51732  0.63640  Biso   1.000  Hf
  Hf38     1.0000 0.19145  0.75976  0.85604  Biso   1.000  Hf
  Hf39     1.0000 0.72375  0.74152  0.60436  Biso   1.000  Hf
  Hf40     1.0000 0.77829  0.47312  0.89002  Biso   1.000  Hf
  Hf41     1.0000 0.00997  0.63843  0.50578  Biso   1.000  Hf
  Hf42     1.0000 0.95180  0.60775  0.75329  Biso   1.000  Hf
  Hf43     1.0000 0.94638  0.86080  0.74081  Biso   1.000  Hf
  Hf44     1.0000 0.94048  0.88954  0.48674  Biso   1.000  Hf
  Hf45     1.0000 0.44511  0.67994  0.73967  Biso   1.000  Hf
  Hf46     1.0000 0.51815  0.58970  0.50923  Biso   1.000  Hf
  Hf47     1.0000 0.41889  0.84099  0.53334  Biso   1.000  Hf
  Hf48     1.0000 0.42284  0.93371  0.79037  Biso   1.000  Hf
  Rb1      1.0000 0.38915  0.28435  0.12119  Biso   1.000  Rb
