data_image0
_cell_length_a       10.2342
_cell_length_b       10.3613
_cell_length_c       5.11074
_cell_angle_alpha    84.3117
_cell_angle_beta     89.8365
_cell_angle_gamma    91.116

_symmetry_space_group_name_H-M    "P 1"
_symmetry_int_tables_number       1

loop_
  _symmetry_equiv_pos_as_xyz
  'x, y, z'

loop_
  _atom_site_label
  _atom_site_occupancy
  _atom_site_fract_x
  _atom_site_fract_y
  _atom_site_fract_z
  _atom_site_thermal_displace_type
  _atom_site_B_iso_or_equiv
  _atom_site_type_symbol
  Hf1      1.0000 0.09675  0.96967  0.19910  Biso   1.000  Hf
  Hf2      1.0000 0.14517  0.27377  0.86310  Biso   1.000  Hf
  Hf3      1.0000 0.41422  0.23769  0.24944  Biso   1.000  Hf
  Hf4      1.0000 0.36006  0.02697  0.77827  Biso   1.000  Hf
  Hf5      1.0000 0.02637  0.11064  0.92172  Biso   1.000  Hf
  Hf6      1.0000 0.94688  0.06751  0.41238  Biso   1.000  Hf
  Hf7      1.0000 0.96236  0.31324  0.63834  Biso   1.000  Hf
  Hf8      1.0000 0.01232  0.38392  0.08519  Biso   1.000  Hf
  Hf9      1.0000 0.32132  0.21740  0.63560  Biso   1.000  Hf
  Hf10     1.0000 0.26166  0.11434  0.07499  Biso   1.000  Hf
  Hf11     1.0000 0.26966  0.38063  0.09855  Biso   1.000  Hf
  Hf12     1.0000 0.19811  0.43794  0.60467  Biso   1.000  Hf
  Hf13     1.0000 0.13948  0.52952  0.24781  Biso   1.000  Hf
  Hf14     1.0000 0.13971  0.77313  0.72734  Biso   1.000  Hf
  Hf15     1.0000 0.39403  0.74032  0.19143  Biso   1.000  Hf
  Hf16     1.0000 0.37009  0.50440  0.76653  Biso   1.000  Hf
  Hf17     1.0000 0.01457  0.63199  0.94317  Biso   1.000  Hf
  Hf18     1.0000 0.96975  0.57244  0.43101  Biso   1.000  Hf
  Hf19     1.0000 0.00943  0.81604  0.42234  Biso   1.000  Hf
  Hf20     1.0000 0.98735  0.87202  0.92741  Biso   1.000  Hf
  Hf21     1.0000 0.23543  0.68137  0.44370  Biso   1.000  Hf
  Hf22     1.0000 0.26157  0.62881  0.95789  Biso   1.000  Hf
  Hf23     1.0000 0.24612  0.86788  0.01748  Biso   1.000  Hf
  Hf24     1.0000 0.21399  0.95220  0.54361  Biso   1.000  Hf
  Hf25     1.0000 0.61368  0.98277  0.22876  Biso   1.000  Hf
  Hf26     1.0000 0.64314  0.27019  0.78788  Biso   1.000  Hf
  Hf27     1.0000 0.85256  0.25441  0.31684  Biso   1.000  Hf
  Hf28     1.0000 0.85648  0.01553  0.76605  Biso   1.000  Hf
  Hf29     1.0000 0.51543  0.13661  0.97658  Biso   1.000  Hf
  Hf30     1.0000 0.47833  0.06644  0.45149  Biso   1.000  Hf
  Hf31     1.0000 0.53975  0.33472  0.45364  Biso   1.000  Hf
  Hf32     1.0000 0.50855  0.39170  0.96357  Biso   1.000  Hf
  Hf33     1.0000 0.72752  0.15138  0.55014  Biso   1.000  Hf
  Hf34     1.0000 0.76062  0.12082  0.04046  Biso   1.000  Hf
  Hf35     1.0000 0.75483  0.37022  0.03470  Biso   1.000  Hf
  Hf36     1.0000 0.75636  0.41030  0.52061  Biso   1.000  Hf
  Hf37     1.0000 0.62744  0.50360  0.24196  Biso   1.000  Hf
  Hf38     1.0000 0.64570  0.75859  0.72376  Biso   1.000  Hf
  Hf39     1.0000 0.88089  0.72457  0.18904  Biso   1.000  Hf
  Hf40     1.0000 0.89915  0.48140  0.77430  Biso   1.000  Hf
  Hf41     1.0000 0.50925  0.63928  0.94635  Biso   1.000  Hf
  Hf42     1.0000 0.45969  0.56636  0.42280  Biso   1.000  Hf
  Hf43     1.0000 0.51041  0.82013  0.44506  Biso   1.000  Hf
  Hf44     1.0000 0.49680  0.89232  0.95172  Biso   1.000  Hf
  Hf45     1.0000 0.71673  0.65910  0.41888  Biso   1.000  Hf
  Hf46     1.0000 0.76333  0.61056  0.94046  Biso   1.000  Hf
  Hf47     1.0000 0.74431  0.86167  0.00995  Biso   1.000  Hf
  Hf48     1.0000 0.74083  0.91040  0.51815  Biso   1.000  Hf
  Rb1      1.0000 0.12889  0.21575  0.38914  Biso   1.000  Rb
