data_image0
_cell_length_a       5.08275
_cell_length_b       10.4947
_cell_length_c       10.2197
_cell_angle_alpha    89.6697
_cell_angle_beta     92.6424
_cell_angle_gamma    92.2192

_symmetry_space_group_name_H-M    "P 1"
_symmetry_int_tables_number       1

loop_
  _symmetry_equiv_pos_as_xyz
  'x, y, z'

loop_
  _atom_site_label
  _atom_site_occupancy
  _atom_site_fract_x
  _atom_site_fract_y
  _atom_site_fract_z
  _atom_site_thermal_displace_type
  _atom_site_B_iso_or_equiv
  _atom_site_type_symbol
  Zr1      1.0000 0.27887  0.97651  0.09814  Biso   1.000  Zr
  Zr2      1.0000 0.24373  0.22836  0.41000  Biso   1.000  Zr
  Zr3      1.0000 0.61407  0.26191  0.16698  Biso   1.000  Zr
  Zr4      1.0000 0.73520  0.48564  0.37765  Biso   1.000  Zr
  Zr5      1.0000 0.88289  0.18379  0.29273  Biso   1.000  Zr
  Zr6      1.0000 0.08447  0.05188  0.46131  Biso   1.000  Zr
  Zr7      1.0000 0.87170  0.42971  0.19815  Biso   1.000  Zr
  Zr8      1.0000 0.98352  0.34830  0.48136  Biso   1.000  Zr
  Zr9      1.0000 0.39531  0.10972  0.24999  Biso   1.000  Zr
  Zr10     1.0000 0.56746  0.13665  0.50552  Biso   1.000  Zr
  Zr11     1.0000 0.49585  0.38379  0.50351  Biso   1.000  Zr
  Zr12     1.0000 0.36673  0.37438  0.26027  Biso   1.000  Zr
  Zr13     1.0000 0.30425  0.00575  0.62402  Biso   1.000  Zr
  Zr14     1.0000 0.30816  0.22830  0.84944  Biso   1.000  Zr
  Zr15     1.0000 0.77680  0.27853  0.64113  Biso   1.000  Zr
  Zr16     1.0000 0.73074  0.48246  0.87006  Biso   1.000  Zr
  Zr17     1.0000 0.12514  0.18078  0.66682  Biso   1.000  Zr
  Zr18     1.0000 0.10588  0.06273  0.92777  Biso   1.000  Zr
  Zr19     1.0000 0.91879  0.46331  0.68666  Biso   1.000  Zr
  Zr20     1.0000 0.92282  0.30354  0.85292  Biso   1.000  Zr
  Zr21     1.0000 0.57138  0.11276  0.75366  Biso   1.000  Zr
  Zr22     1.0000 0.55832  0.12407  0.01244  Biso   1.000  Zr
  Zr23     1.0000 0.46768  0.37652  0.99848  Biso   1.000  Zr
  Zr24     1.0000 0.45857  0.37237  0.74152  Biso   1.000  Zr
  Zr25     1.0000 0.26640  0.52728  0.12876  Biso   1.000  Zr
  Zr26     1.0000 0.27812  0.74338  0.37736  Biso   1.000  Zr
  Zr27     1.0000 0.74858  0.76323  0.13036  Biso   1.000  Zr
  Zr28     1.0000 0.74448  0.00321  0.36499  Biso   1.000  Zr
  Zr29     1.0000 0.08162  0.68396  0.19676  Biso   1.000  Zr
  Zr30     1.0000 0.06897  0.58116  0.43941  Biso   1.000  Zr
  Zr31     1.0000 0.93698  0.94408  0.19026  Biso   1.000  Zr
  Zr32     1.0000 0.94122  0.82138  0.43982  Biso   1.000  Zr
  Zr33     1.0000 0.54701  0.62380  0.25320  Biso   1.000  Zr
  Zr34     1.0000 0.53687  0.63681  0.49897  Biso   1.000  Zr
  Zr35     1.0000 0.48795  0.88812  0.49331  Biso   1.000  Zr
  Zr36     1.0000 0.48259  0.86432  0.24131  Biso   1.000  Zr
  Zr37     1.0000 0.26454  0.51221  0.61060  Biso   1.000  Zr
  Zr38     1.0000 0.28704  0.72686  0.86748  Biso   1.000  Zr
  Zr39     1.0000 0.75862  0.76636  0.61660  Biso   1.000  Zr
  Zr40     1.0000 0.76481  0.97734  0.86980  Biso   1.000  Zr
  Zr41     1.0000 0.09056  0.68865  0.69067  Biso   1.000  Zr
  Zr42     1.0000 0.07044  0.56468  0.94843  Biso   1.000  Zr
  Zr43     1.0000 0.96710  0.92863  0.70478  Biso   1.000  Zr
  Zr44     1.0000 0.00171  0.82432  0.96834  Biso   1.000  Zr
  Zr45     1.0000 0.54329  0.61452  0.75042  Biso   1.000  Zr
  Zr46     1.0000 0.54700  0.62901  0.00257  Biso   1.000  Zr
  Zr47     1.0000 0.51355  0.86920  0.98793  Biso   1.000  Zr
  Zr48     1.0000 0.49947  0.85987  0.74393  Biso   1.000  Zr
  Rb1      1.0000 0.07065  0.24495  0.08117  Biso   1.000  Rb
