data_image0
_cell_length_a       10.0849
_cell_length_b       10.4563
_cell_length_c       10.1822
_cell_angle_alpha    89.4772
_cell_angle_beta     90.9005
_cell_angle_gamma    91.0999

_symmetry_space_group_name_H-M    "P 1"
_symmetry_int_tables_number       1

loop_
  _symmetry_equiv_pos_as_xyz
  'x, y, z'

loop_
  _atom_site_label
  _atom_site_occupancy
  _atom_site_fract_x
  _atom_site_fract_y
  _atom_site_fract_z
  _atom_site_thermal_displace_type
  _atom_site_B_iso_or_equiv
  _atom_site_type_symbol
  Zr1      1.0000 0.14456  0.98126  0.10351  Biso   1.000  Zr
  Zr2      1.0000 0.12504  0.23315  0.39359  Biso   1.000  Zr
  Zr3      1.0000 0.36817  0.26548  0.12215  Biso   1.000  Zr
  Zr4      1.0000 0.36723  0.48571  0.37231  Biso   1.000  Zr
  Zr5      1.0000 0.94443  0.18270  0.28225  Biso   1.000  Zr
  Zr6      1.0000 0.04125  0.05860  0.45540  Biso   1.000  Zr
  Zr7      1.0000 0.45870  0.43561  0.19120  Biso   1.000  Zr
  Zr8      1.0000 0.47297  0.33202  0.46058  Biso   1.000  Zr
  Zr9      1.0000 0.22101  0.10592  0.24244  Biso   1.000  Zr
  Zr10     1.0000 0.27648  0.13950  0.49293  Biso   1.000  Zr
  Zr11     1.0000 0.23719  0.38769  0.49581  Biso   1.000  Zr
  Zr12     1.0000 0.22278  0.36004  0.24754  Biso   1.000  Zr
  Zr13     1.0000 0.14385  0.00697  0.61964  Biso   1.000  Zr
  Zr14     1.0000 0.14356  0.22787  0.84499  Biso   1.000  Zr
  Zr15     1.0000 0.37737  0.26736  0.62534  Biso   1.000  Zr
  Zr16     1.0000 0.36640  0.48322  0.87416  Biso   1.000  Zr
  Zr17     1.0000 0.05286  0.18192  0.67031  Biso   1.000  Zr
  Zr18     1.0000 0.05084  0.05660  0.92625  Biso   1.000  Zr
  Zr19     1.0000 0.46997  0.43518  0.70211  Biso   1.000  Zr
  Zr20     1.0000 0.46768  0.31689  0.94686  Biso   1.000  Zr
  Zr21     1.0000 0.28019  0.11284  0.74184  Biso   1.000  Zr
  Zr22     1.0000 0.27785  0.12293  0.99505  Biso   1.000  Zr
  Zr23     1.0000 0.22793  0.38426  0.99230  Biso   1.000  Zr
  Zr24     1.0000 0.23696  0.36675  0.73939  Biso   1.000  Zr
  Zr25     1.0000 0.13191  0.52040  0.12724  Biso   1.000  Zr
  Zr26     1.0000 0.13621  0.74106  0.37383  Biso   1.000  Zr
  Zr27     1.0000 0.37385  0.75681  0.12235  Biso   1.000  Zr
  Zr28     1.0000 0.37265  0.00176  0.35884  Biso   1.000  Zr
  Zr29     1.0000 0.03886  0.68529  0.19278  Biso   1.000  Zr
  Zr30     1.0000 0.03626  0.57550  0.43741  Biso   1.000  Zr
  Zr31     1.0000 0.46382  0.93229  0.18918  Biso   1.000  Zr
  Zr32     1.0000 0.47133  0.82527  0.43853  Biso   1.000  Zr
  Zr33     1.0000 0.27050  0.61512  0.24691  Biso   1.000  Zr
  Zr34     1.0000 0.27036  0.63761  0.49434  Biso   1.000  Zr
  Zr35     1.0000 0.24069  0.88896  0.48880  Biso   1.000  Zr
  Zr36     1.0000 0.23895  0.85766  0.23823  Biso   1.000  Zr
  Zr37     1.0000 0.13425  0.51606  0.61418  Biso   1.000  Zr
  Zr38     1.0000 0.13784  0.72835  0.86566  Biso   1.000  Zr
  Zr39     1.0000 0.37584  0.76789  0.61498  Biso   1.000  Zr
  Zr40     1.0000 0.37694  0.98051  0.86847  Biso   1.000  Zr
  Zr41     1.0000 0.04116  0.68867  0.68785  Biso   1.000  Zr
  Zr42     1.0000 0.03504  0.56414  0.94709  Biso   1.000  Zr
  Zr43     1.0000 0.47933  0.92792  0.70171  Biso   1.000  Zr
  Zr44     1.0000 0.48321  0.82104  0.95421  Biso   1.000  Zr
  Zr45     1.0000 0.27003  0.61261  0.74484  Biso   1.000  Zr
  Zr46     1.0000 0.27064  0.62939  0.99676  Biso   1.000  Zr
  Zr47     1.0000 0.24724  0.86886  0.98583  Biso   1.000  Zr
  Zr48     1.0000 0.24304  0.86156  0.74142  Biso   1.000  Zr
  Zr49     1.0000 0.63194  0.99811  0.11081  Biso   1.000  Zr
  Zr50     1.0000 0.62320  0.22864  0.39946  Biso   1.000  Zr
  Zr51     1.0000 0.80888  0.26017  0.15436  Biso   1.000  Zr
  Zr52     1.0000 0.86714  0.48496  0.38037  Biso   1.000  Zr
  Zr53     1.0000 0.47450  0.16969  0.25357  Biso   1.000  Zr
  Zr54     1.0000 0.52787  0.06835  0.47252  Biso   1.000  Zr
  Zr55     1.0000 0.95348  0.42892  0.19549  Biso   1.000  Zr
  Zr56     1.0000 0.97858  0.33627  0.47087  Biso   1.000  Zr
  Zr57     1.0000 0.71583  0.10848  0.25798  Biso   1.000  Zr
  Zr58     1.0000 0.77588  0.13950  0.50760  Biso   1.000  Zr
  Zr59     1.0000 0.73764  0.38451  0.50700  Biso   1.000  Zr
  Zr60     1.0000 0.70033  0.37202  0.26529  Biso   1.000  Zr
  Zr61     1.0000 0.64653  0.01603  0.63117  Biso   1.000  Zr
  Zr62     1.0000 0.64078  0.23566  0.88125  Biso   1.000  Zr
  Zr63     1.0000 0.87565  0.27586  0.64172  Biso   1.000  Zr
  Zr64     1.0000 0.86753  0.48560  0.86994  Biso   1.000  Zr
  Zr65     1.0000 0.54202  0.18391  0.70184  Biso   1.000  Zr
  Zr66     1.0000 0.54186  0.06775  0.94336  Biso   1.000  Zr
  Zr67     1.0000 0.95907  0.45667  0.68344  Biso   1.000  Zr
  Zr68     1.0000 0.96087  0.30714  0.86707  Biso   1.000  Zr
  Zr69     1.0000 0.77732  0.11915  0.75759  Biso   1.000  Zr
  Zr70     1.0000 0.78490  0.12711  0.00714  Biso   1.000  Zr
  Zr71     1.0000 0.73901  0.38452  0.00494  Biso   1.000  Zr
  Zr72     1.0000 0.72642  0.37248  0.75291  Biso   1.000  Zr
  Zr73     1.0000 0.63185  0.52028  0.12545  Biso   1.000  Zr
  Zr74     1.0000 0.63874  0.74013  0.37684  Biso   1.000  Zr
  Zr75     1.0000 0.86890  0.76343  0.12572  Biso   1.000  Zr
  Zr76     1.0000 0.87282  0.00228  0.36366  Biso   1.000  Zr
  Zr77     1.0000 0.54007  0.68312  0.19796  Biso   1.000  Zr
  Zr78     1.0000 0.53318  0.57427  0.44668  Biso   1.000  Zr
  Zr79     1.0000 0.96801  0.94335  0.18582  Biso   1.000  Zr
  Zr80     1.0000 0.96900  0.82333  0.43891  Biso   1.000  Zr
  Zr81     1.0000 0.77203  0.61629  0.24893  Biso   1.000  Zr
  Zr82     1.0000 0.77162  0.63616  0.49730  Biso   1.000  Zr
  Zr83     1.0000 0.73703  0.89084  0.49645  Biso   1.000  Zr
  Zr84     1.0000 0.73862  0.86448  0.24482  Biso   1.000  Zr
  Zr85     1.0000 0.63518  0.51546  0.62388  Biso   1.000  Zr
  Zr86     1.0000 0.63881  0.73310  0.87072  Biso   1.000  Zr
  Zr87     1.0000 0.87259  0.77074  0.61798  Biso   1.000  Zr
  Zr88     1.0000 0.87501  0.98161  0.87360  Biso   1.000  Zr
  Zr89     1.0000 0.53809  0.68306  0.69409  Biso   1.000  Zr
  Zr90     1.0000 0.53409  0.57057  0.94859  Biso   1.000  Zr
  Zr91     1.0000 0.97454  0.93229  0.69800  Biso   1.000  Zr
  Zr92     1.0000 0.98194  0.81701  0.95362  Biso   1.000  Zr
  Zr93     1.0000 0.77194  0.61900  0.74761  Biso   1.000  Zr
  Zr94     1.0000 0.77058  0.63430  0.99835  Biso   1.000  Zr
  Zr95     1.0000 0.74186  0.87868  0.99492  Biso   1.000  Zr
  Zr96     1.0000 0.74189  0.86584  0.74732  Biso   1.000  Zr
  Rb1      1.0000 0.05946  0.23705  0.09015  Biso   1.000  Rb
