data_image0
_cell_length_a       10.0719
_cell_length_b       5.3129
_cell_length_c       10.2483
_cell_angle_alpha    87.3058
_cell_angle_beta     90.5257
_cell_angle_gamma    90.6344

_symmetry_space_group_name_H-M    "P 1"
_symmetry_int_tables_number       1

loop_
  _symmetry_equiv_pos_as_xyz
  'x, y, z'

loop_
  _atom_site_label
  _atom_site_occupancy
  _atom_site_fract_x
  _atom_site_fract_y
  _atom_site_fract_z
  _atom_site_thermal_displace_type
  _atom_site_B_iso_or_equiv
  _atom_site_type_symbol
  Zr1      1.0000 0.14349  0.08750  0.14547  Biso   1.000  Zr
  Zr2      1.0000 0.13376  0.46137  0.38868  Biso   1.000  Zr
  Zr3      1.0000 0.37251  0.56164  0.13003  Biso   1.000  Zr
  Zr4      1.0000 0.36727  0.95739  0.38174  Biso   1.000  Zr
  Zr5      1.0000 0.02909  0.37782  0.21007  Biso   1.000  Zr
  Zr6      1.0000 0.05620  0.09990  0.42277  Biso   1.000  Zr
  Zr7      1.0000 0.47484  0.87222  0.21509  Biso   1.000  Zr
  Zr8      1.0000 0.46168  0.61966  0.45651  Biso   1.000  Zr
  Zr9      1.0000 0.27873  0.26002  0.26019  Biso   1.000  Zr
  Zr10     1.0000 0.27715  0.23787  0.50563  Biso   1.000  Zr
  Zr11     1.0000 0.23238  0.73677  0.50487  Biso   1.000  Zr
  Zr12     1.0000 0.22789  0.74641  0.25510  Biso   1.000  Zr
  Zr13     1.0000 0.13554  0.99607  0.61422  Biso   1.000  Zr
  Zr14     1.0000 0.11915  0.36867  0.82950  Biso   1.000  Zr
  Zr15     1.0000 0.36569  0.50445  0.63422  Biso   1.000  Zr
  Zr16     1.0000 0.39582  0.95657  0.86545  Biso   1.000  Zr
  Zr17     1.0000 0.05548  0.36267  0.63324  Biso   1.000  Zr
  Zr18     1.0000 0.01875  0.12998  0.95911  Biso   1.000  Zr
  Zr19     1.0000 0.46830  0.82428  0.69220  Biso   1.000  Zr
  Zr20     1.0000 0.48369  0.63078  0.95458  Biso   1.000  Zr
  Zr21     1.0000 0.27054  0.18467  0.74798  Biso   1.000  Zr
  Zr22     1.0000 0.24419  0.35812  0.01172  Biso   1.000  Zr
  Zr23     1.0000 0.28218  0.88348  0.02220  Biso   1.000  Zr
  Zr24     1.0000 0.23217  0.69000  0.76101  Biso   1.000  Zr
  Zr25     1.0000 0.64173  0.04355  0.13708  Biso   1.000  Zr
  Zr26     1.0000 0.62534  0.46264  0.38766  Biso   1.000  Zr
  Zr27     1.0000 0.84701  0.53907  0.16439  Biso   1.000  Zr
  Zr28     1.0000 0.87294  0.96003  0.39076  Biso   1.000  Zr
  Zr29     1.0000 0.53954  0.37363  0.20269  Biso   1.000  Zr
  Zr30     1.0000 0.53202  0.12644  0.45642  Biso   1.000  Zr
  Zr31     1.0000 0.96127  0.87913  0.20654  Biso   1.000  Zr
  Zr32     1.0000 0.95261  0.60510  0.43182  Biso   1.000  Zr
  Zr33     1.0000 0.76582  0.23367  0.27153  Biso   1.000  Zr
  Zr34     1.0000 0.76525  0.26192  0.51123  Biso   1.000  Zr
  Zr35     1.0000 0.72370  0.74947  0.50699  Biso   1.000  Zr
  Zr36     1.0000 0.72358  0.74558  0.26611  Biso   1.000  Zr
  Zr37     1.0000 0.63641  0.02025  0.62787  Biso   1.000  Zr
  Zr38     1.0000 0.64289  0.45860  0.88510  Biso   1.000  Zr
  Zr39     1.0000 0.86725  0.52966  0.62579  Biso   1.000  Zr
  Zr40     1.0000 0.87122  0.94359  0.84819  Biso   1.000  Zr
  Zr41     1.0000 0.52433  0.31329  0.71979  Biso   1.000  Zr
  Zr42     1.0000 0.54374  0.12748  0.96135  Biso   1.000  Zr
  Zr43     1.0000 0.93796  0.90320  0.63380  Biso   1.000  Zr
  Zr44     1.0000 0.94758  0.58729  0.81920  Biso   1.000  Zr
  Zr45     1.0000 0.76863  0.22585  0.75771  Biso   1.000  Zr
  Zr46     1.0000 0.76663  0.30835  0.02495  Biso   1.000  Zr
  Zr47     1.0000 0.76451  0.78798  0.00954  Biso   1.000  Zr
  Zr48     1.0000 0.71732  0.73120  0.75273  Biso   1.000  Zr
  Rb1      1.0000 0.06820  0.67240  0.01974  Biso   1.000  Rb
