data_image0
_cell_length_a       5.10385
_cell_length_b       10.5511
_cell_length_c       10.1393
_cell_angle_alpha    87.8552
_cell_angle_beta     88.0554
_cell_angle_gamma    91.7753

_symmetry_space_group_name_H-M    "P 1"
_symmetry_int_tables_number       1

loop_
  _symmetry_equiv_pos_as_xyz
  'x, y, z'

loop_
  _atom_site_label
  _atom_site_occupancy
  _atom_site_fract_x
  _atom_site_fract_y
  _atom_site_fract_z
  _atom_site_thermal_displace_type
  _atom_site_B_iso_or_equiv
  _atom_site_type_symbol
  Zr1      1.0000 0.27865  0.93986  0.13258  Biso   1.000  Zr
  Zr2      1.0000 0.28915  0.25450  0.37793  Biso   1.000  Zr
  Zr3      1.0000 0.74393  0.28219  0.11666  Biso   1.000  Zr
  Zr4      1.0000 0.76425  0.00557  0.38591  Biso   1.000  Zr
  Zr5      1.0000 0.94801  0.15939  0.99027  Biso   1.000  Zr
  Zr6      1.0000 0.06034  0.05975  0.25542  Biso   1.000  Zr
  Zr7      1.0000 0.05750  0.31791  0.23014  Biso   1.000  Zr
  Zr8      1.0000 0.97185  0.41200  0.98531  Biso   1.000  Zr
  Zr9      1.0000 0.55754  0.15117  0.25486  Biso   1.000  Zr
  Zr10     1.0000 0.46435  0.07607  0.99950  Biso   1.000  Zr
  Zr11     1.0000 0.43042  0.33032  0.00356  Biso   1.000  Zr
  Zr12     1.0000 0.52047  0.40029  0.25485  Biso   1.000  Zr
  Zr13     1.0000 0.22944  0.01865  0.63622  Biso   1.000  Zr
  Zr14     1.0000 0.19078  0.27519  0.85544  Biso   1.000  Zr
  Zr15     1.0000 0.74727  0.24672  0.60966  Biso   1.000  Zr
  Zr16     1.0000 0.74625  0.99424  0.89356  Biso   1.000  Zr
  Zr17     1.0000 0.00543  0.14558  0.49700  Biso   1.000  Zr
  Zr18     1.0000 0.94081  0.11694  0.74613  Biso   1.000  Zr
  Zr19     1.0000 0.93072  0.37243  0.73628  Biso   1.000  Zr
  Zr20     1.0000 0.99593  0.38795  0.47752  Biso   1.000  Zr
  Zr21     1.0000 0.42657  0.18608  0.72639  Biso   1.000  Zr
  Zr22     1.0000 0.50905  0.11304  0.49903  Biso   1.000  Zr
  Zr23     1.0000 0.48970  0.36983  0.51078  Biso   1.000  Zr
  Zr24     1.0000 0.42216  0.44013  0.76684  Biso   1.000  Zr
  Zr25     1.0000 0.24536  0.49530  0.11828  Biso   1.000  Zr
  Zr26     1.0000 0.30494  0.76073  0.39656  Biso   1.000  Zr
  Zr27     1.0000 0.78004  0.72172  0.12809  Biso   1.000  Zr
  Zr28     1.0000 0.71722  0.51230  0.38931  Biso   1.000  Zr
  Zr29     1.0000 0.06761  0.64877  0.00296  Biso   1.000  Zr
  Zr30     1.0000 0.95823  0.56081  0.23309  Biso   1.000  Zr
  Zr31     1.0000 0.05352  0.80199  0.24824  Biso   1.000  Zr
  Zr32     1.0000 0.00131  0.88782  0.00103  Biso   1.000  Zr
  Zr33     1.0000 0.48970  0.64156  0.26673  Biso   1.000  Zr
  Zr34     1.0000 0.56941  0.57517  0.02440  Biso   1.000  Zr
  Zr35     1.0000 0.51795  0.82595  0.00633  Biso   1.000  Zr
  Zr36     1.0000 0.55786  0.88690  0.26538  Biso   1.000  Zr
  Zr37     1.0000 0.19805  0.49922  0.61001  Biso   1.000  Zr
  Zr38     1.0000 0.24462  0.76957  0.86209  Biso   1.000  Zr
  Zr39     1.0000 0.78684  0.75221  0.61768  Biso   1.000  Zr
  Zr40     1.0000 0.74064  0.52235  0.85319  Biso   1.000  Zr
  Zr41     1.0000 0.99844  0.64392  0.48262  Biso   1.000  Zr
  Zr42     1.0000 0.04495  0.62732  0.74383  Biso   1.000  Zr
  Zr43     1.0000 0.97905  0.87337  0.74806  Biso   1.000  Zr
  Zr44     1.0000 0.03445  0.89761  0.49611  Biso   1.000  Zr
  Zr45     1.0000 0.56379  0.68815  0.77813  Biso   1.000  Zr
  Zr46     1.0000 0.49549  0.62007  0.52269  Biso   1.000  Zr
  Zr47     1.0000 0.52984  0.87005  0.52072  Biso   1.000  Zr
  Zr48     1.0000 0.45575  0.93634  0.77274  Biso   1.000  Zr
  Re1      1.0000 0.25155  0.18126  0.12211  Biso   1.000  Re
