data_image0
_cell_length_a       10.0632
_cell_length_b       5.23274
_cell_length_c       10.1094
_cell_angle_alpha    91.8472
_cell_angle_beta     89.2542
_cell_angle_gamma    90.1355

_symmetry_space_group_name_H-M    "P 1"
_symmetry_int_tables_number       1

loop_
  _symmetry_equiv_pos_as_xyz
  'x, y, z'

loop_
  _atom_site_label
  _atom_site_occupancy
  _atom_site_fract_x
  _atom_site_fract_y
  _atom_site_fract_z
  _atom_site_thermal_displace_type
  _atom_site_B_iso_or_equiv
  _atom_site_type_symbol
  Hf1      1.0000 0.11747  0.09396  0.10885  Biso   1.000  Hf
  Hf2      1.0000 0.13945  0.43554  0.39043  Biso   1.000  Hf
  Hf3      1.0000 0.39228  0.52368  0.10540  Biso   1.000  Hf
  Hf4      1.0000 0.36878  0.94095  0.37534  Biso   1.000  Hf
  Hf5      1.0000 0.00208  0.35196  0.22726  Biso   1.000  Hf
  Hf6      1.0000 0.03215  0.12490  0.46052  Biso   1.000  Hf
  Hf7      1.0000 0.46772  0.86983  0.18932  Biso   1.000  Hf
  Hf8      1.0000 0.47671  0.63561  0.46039  Biso   1.000  Hf
  Hf9      1.0000 0.23560  0.13092  0.26457  Biso   1.000  Hf
  Hf10     1.0000 0.27876  0.24988  0.50554  Biso   1.000  Hf
  Hf11     1.0000 0.23108  0.75433  0.50526  Biso   1.000  Hf
  Hf12     1.0000 0.28809  0.60755  0.27565  Biso   1.000  Hf
  Hf13     1.0000 0.13653  0.03040  0.63003  Biso   1.000  Hf
  Hf14     1.0000 0.13116  0.48369  0.87262  Biso   1.000  Hf
  Hf15     1.0000 0.36839  0.53408  0.62866  Biso   1.000  Hf
  Hf16     1.0000 0.36681  0.98195  0.87513  Biso   1.000  Hf
  Hf17     1.0000 0.03959  0.37758  0.69094  Biso   1.000  Hf
  Hf18     1.0000 0.02811  0.15049  0.92947  Biso   1.000  Hf
  Hf19     1.0000 0.46549  0.87530  0.69721  Biso   1.000  Hf
  Hf20     1.0000 0.47209  0.66024  0.93285  Biso   1.000  Hf
  Hf21     1.0000 0.26906  0.24265  0.75192  Biso   1.000  Hf
  Hf22     1.0000 0.27152  0.27730  0.99273  Biso   1.000  Hf
  Hf23     1.0000 0.23411  0.78960  0.00583  Biso   1.000  Hf
  Hf24     1.0000 0.23185  0.74352  0.75439  Biso   1.000  Hf
  Hf25     1.0000 0.63373  0.03421  0.12500  Biso   1.000  Hf
  Hf26     1.0000 0.63740  0.46289  0.37764  Biso   1.000  Hf
  Hf27     1.0000 0.85458  0.53554  0.11641  Biso   1.000  Hf
  Hf28     1.0000 0.86981  0.96946  0.37345  Biso   1.000  Hf
  Hf29     1.0000 0.53629  0.36384  0.20307  Biso   1.000  Hf
  Hf30     1.0000 0.53802  0.12703  0.44107  Biso   1.000  Hf
  Hf31     1.0000 0.95631  0.87594  0.18102  Biso   1.000  Hf
  Hf32     1.0000 0.97013  0.63835  0.44529  Biso   1.000  Hf
  Hf33     1.0000 0.76498  0.22389  0.24724  Biso   1.000  Hf
  Hf34     1.0000 0.77084  0.26778  0.49569  Biso   1.000  Hf
  Hf35     1.0000 0.73847  0.76951  0.49485  Biso   1.000  Hf
  Hf36     1.0000 0.72847  0.72822  0.24740  Biso   1.000  Hf
  Hf37     1.0000 0.63082  0.02785  0.61653  Biso   1.000  Hf
  Hf38     1.0000 0.63804  0.46747  0.86589  Biso   1.000  Hf
  Hf39     1.0000 0.87355  0.53496  0.61805  Biso   1.000  Hf
  Hf40     1.0000 0.85983  0.96674  0.86706  Biso   1.000  Hf
  Hf41     1.0000 0.53393  0.36346  0.69532  Biso   1.000  Hf
  Hf42     1.0000 0.52561  0.17017  0.95715  Biso   1.000  Hf
  Hf43     1.0000 0.96655  0.86919  0.69487  Biso   1.000  Hf
  Hf44     1.0000 0.95273  0.64014  0.93111  Biso   1.000  Hf
  Hf45     1.0000 0.76700  0.22820  0.74265  Biso   1.000  Hf
  Hf46     1.0000 0.76564  0.26412  0.99355  Biso   1.000  Hf
  Hf47     1.0000 0.72345  0.76632  0.99456  Biso   1.000  Hf
  Hf48     1.0000 0.73016  0.73108  0.74162  Biso   1.000  Hf
  Rh1      1.0000 0.11984  0.61228  0.14870  Biso   1.000  Rh
