data_image0
_cell_length_a       9.94703
_cell_length_b       5.20347
_cell_length_c       10.0129
_cell_angle_alpha    88.436
_cell_angle_beta     89.4215
_cell_angle_gamma    89.8688

_symmetry_space_group_name_H-M    "P 1"
_symmetry_int_tables_number       1

loop_
  _symmetry_equiv_pos_as_xyz
  'x, y, z'

loop_
  _atom_site_label
  _atom_site_occupancy
  _atom_site_fract_x
  _atom_site_fract_y
  _atom_site_fract_z
  _atom_site_thermal_displace_type
  _atom_site_B_iso_or_equiv
  _atom_site_type_symbol
  Rh1      1.0000 0.11885  0.92639  0.12434  Biso   1.000  Rh
  Hf1      1.0000 0.13687  0.55827  0.39576  Biso   1.000  Hf
  Hf2      1.0000 0.38518  0.46039  0.12990  Biso   1.000  Hf
  Hf3      1.0000 0.36405  0.05901  0.39300  Biso   1.000  Hf
  Hf4      1.0000 0.95772  0.36226  0.95863  Biso   1.000  Hf
  Hf5      1.0000 0.97386  0.12227  0.20607  Biso   1.000  Hf
  Hf6      1.0000 0.03477  0.62220  0.20851  Biso   1.000  Hf
  Hf7      1.0000 0.03560  0.86690  0.94619  Biso   1.000  Hf
  Hf8      1.0000 0.27288  0.37552  0.28649  Biso   1.000  Hf
  Hf9      1.0000 0.22660  0.21844  0.03118  Biso   1.000  Hf
  Hf10     1.0000 0.26053  0.72416  0.02983  Biso   1.000  Hf
  Hf11     1.0000 0.22378  0.88156  0.28321  Biso   1.000  Hf
  Hf12     1.0000 0.13605  0.96225  0.64940  Biso   1.000  Hf
  Hf13     1.0000 0.13178  0.51545  0.89878  Biso   1.000  Hf
  Hf14     1.0000 0.36484  0.46183  0.64821  Biso   1.000  Hf
  Hf15     1.0000 0.35990  0.01862  0.90000  Biso   1.000  Hf
  Hf16     1.0000 0.96479  0.37136  0.45352  Biso   1.000  Hf
  Hf17     1.0000 0.96395  0.13148  0.70857  Biso   1.000  Hf
  Hf18     1.0000 0.03779  0.62195  0.71531  Biso   1.000  Hf
  Hf19     1.0000 0.02984  0.86675  0.47749  Biso   1.000  Hf
  Hf20     1.0000 0.22687  0.25337  0.77548  Biso   1.000  Hf
  Hf21     1.0000 0.22625  0.24445  0.52382  Biso   1.000  Hf
  Hf22     1.0000 0.27558  0.74475  0.52079  Biso   1.000  Hf
  Hf23     1.0000 0.27147  0.75034  0.77568  Biso   1.000  Hf
  Hf24     1.0000 0.63807  0.95742  0.14441  Biso   1.000  Hf
  Hf25     1.0000 0.63696  0.53158  0.39638  Biso   1.000  Hf
  Hf26     1.0000 0.86649  0.45860  0.13964  Biso   1.000  Hf
  Hf27     1.0000 0.87014  0.02966  0.39233  Biso   1.000  Hf
  Hf28     1.0000 0.46308  0.34845  0.94982  Biso   1.000  Hf
  Hf29     1.0000 0.46819  0.12192  0.20856  Biso   1.000  Hf
  Hf30     1.0000 0.53831  0.62641  0.21903  Biso   1.000  Hf
  Hf31     1.0000 0.52599  0.83795  0.97334  Biso   1.000  Hf
  Hf32     1.0000 0.73317  0.25955  0.26466  Biso   1.000  Hf
  Hf33     1.0000 0.72459  0.22929  0.01343  Biso   1.000  Hf
  Hf34     1.0000 0.76990  0.73055  0.01414  Biso   1.000  Hf
  Hf35     1.0000 0.77603  0.76077  0.26553  Biso   1.000  Hf
  Hf36     1.0000 0.62752  0.97081  0.63602  Biso   1.000  Hf
  Hf37     1.0000 0.63640  0.53157  0.88707  Biso   1.000  Hf
  Hf38     1.0000 0.87135  0.46926  0.63671  Biso   1.000  Hf
  Hf39     1.0000 0.86155  0.03222  0.88640  Biso   1.000  Hf
  Hf40     1.0000 0.47364  0.36107  0.47726  Biso   1.000  Hf
  Hf41     1.0000 0.46031  0.12072  0.71708  Biso   1.000  Hf
  Hf42     1.0000 0.53472  0.63089  0.71139  Biso   1.000  Hf
  Hf43     1.0000 0.53664  0.86916  0.45667  Biso   1.000  Hf
  Hf44     1.0000 0.72986  0.27004  0.76163  Biso   1.000  Hf
  Hf45     1.0000 0.73593  0.23145  0.51448  Biso   1.000  Hf
  Hf46     1.0000 0.76824  0.73403  0.51535  Biso   1.000  Hf
  Hf47     1.0000 0.76673  0.77077  0.76302  Biso   1.000  Hf
