data_image0
_cell_length_a       10.0087
_cell_length_b       10.2108
_cell_length_c       10.0087
_cell_angle_alpha    89.9974
_cell_angle_beta     90.7404
_cell_angle_gamma    90.0008

_symmetry_space_group_name_H-M    "P 1"
_symmetry_int_tables_number       1

loop_
  _symmetry_equiv_pos_as_xyz
  'x, y, z'

loop_
  _atom_site_label
  _atom_site_occupancy
  _atom_site_fract_x
  _atom_site_fract_y
  _atom_site_fract_z
  _atom_site_thermal_displace_type
  _atom_site_B_iso_or_equiv
  _atom_site_type_symbol
  Rh1      1.0000 0.12489  0.03031  0.12491  Biso   1.000  Rh
  Hf1      1.0000 0.12329  0.25040  0.37897  Biso   1.000  Hf
  Hf2      1.0000 0.37898  0.25039  0.12328  Biso   1.000  Hf
  Hf3      1.0000 0.36704  0.99663  0.36706  Biso   1.000  Hf
  Hf4      1.0000 0.00688  0.14911  0.00688  Biso   1.000  Hf
  Hf5      1.0000 0.99608  0.09401  0.25372  Biso   1.000  Hf
  Hf6      1.0000 0.00407  0.34699  0.24574  Biso   1.000  Hf
  Hf7      1.0000 0.99701  0.39700  0.99695  Biso   1.000  Hf
  Hf8      1.0000 0.24293  0.14911  0.24293  Biso   1.000  Hf
  Hf9      1.0000 0.25371  0.09402  0.99609  Biso   1.000  Hf
  Hf10     1.0000 0.24581  0.34700  0.00401  Biso   1.000  Hf
  Hf11     1.0000 0.25287  0.39700  0.25281  Biso   1.000  Hf
  Hf12     1.0000 0.12492  0.00688  0.62489  Biso   1.000  Hf
  Hf13     1.0000 0.12655  0.25038  0.87084  Biso   1.000  Hf
  Hf14     1.0000 0.37811  0.24950  0.62371  Biso   1.000  Hf
  Hf15     1.0000 0.37954  0.99372  0.87027  Biso   1.000  Hf
  Hf16     1.0000 0.99505  0.14897  0.50029  Biso   1.000  Hf
  Hf17     1.0000 0.00498  0.10320  0.75498  Biso   1.000  Hf
  Hf18     1.0000 0.99987  0.35297  0.74677  Biso   1.000  Hf
  Hf19     1.0000 0.00220  0.39804  0.49583  Biso   1.000  Hf
  Hf20     1.0000 0.25480  0.14894  0.74951  Biso   1.000  Hf
  Hf21     1.0000 0.24487  0.10323  0.49483  Biso   1.000  Hf
  Hf22     1.0000 0.25000  0.35299  0.50300  Biso   1.000  Hf
  Hf23     1.0000 0.24766  0.39801  0.75393  Biso   1.000  Hf
  Hf24     1.0000 0.12492  0.49256  0.12489  Biso   1.000  Hf
  Hf25     1.0000 0.12138  0.74674  0.37122  Biso   1.000  Hf
  Hf26     1.0000 0.37128  0.74673  0.12133  Biso   1.000  Hf
  Hf27     1.0000 0.37597  0.50205  0.37597  Biso   1.000  Hf
  Hf28     1.0000 0.00015  0.64859  0.00012  Biso   1.000  Hf
  Hf29     1.0000 0.00103  0.59626  0.24879  Biso   1.000  Hf
  Hf30     1.0000 0.97236  0.84027  0.27746  Biso   1.000  Hf
  Hf31     1.0000 0.01846  0.90355  0.01855  Biso   1.000  Hf
  Hf32     1.0000 0.24971  0.64859  0.24968  Biso   1.000  Hf
  Hf33     1.0000 0.24882  0.59626  0.00100  Biso   1.000  Hf
  Hf34     1.0000 0.27738  0.84031  0.97244  Biso   1.000  Hf
  Hf35     1.0000 0.23126  0.90354  0.23136  Biso   1.000  Hf
  Hf36     1.0000 0.12491  0.50045  0.62490  Biso   1.000  Hf
  Hf37     1.0000 0.12848  0.74674  0.87854  Biso   1.000  Hf
  Hf38     1.0000 0.37208  0.75214  0.62101  Biso   1.000  Hf
  Hf39     1.0000 0.37675  0.50216  0.87307  Biso   1.000  Hf
  Hf40     1.0000 0.99973  0.64828  0.50130  Biso   1.000  Hf
  Hf41     1.0000 0.99981  0.60218  0.74947  Biso   1.000  Hf
  Hf42     1.0000 0.99696  0.85223  0.76652  Biso   1.000  Hf
  Hf43     1.0000 0.99535  0.89921  0.51665  Biso   1.000  Hf
  Hf44     1.0000 0.25007  0.64825  0.74849  Biso   1.000  Hf
  Hf45     1.0000 0.24999  0.60219  0.50030  Biso   1.000  Hf
  Hf46     1.0000 0.25275  0.85227  0.48339  Biso   1.000  Hf
  Hf47     1.0000 0.25436  0.89916  0.73326  Biso   1.000  Hf
  Hf48     1.0000 0.62490  0.00688  0.12491  Biso   1.000  Hf
  Hf49     1.0000 0.62372  0.24951  0.37812  Biso   1.000  Hf
  Hf50     1.0000 0.87085  0.25039  0.12654  Biso   1.000  Hf
  Hf51     1.0000 0.87024  0.99373  0.37957  Biso   1.000  Hf
  Hf52     1.0000 0.50030  0.14895  0.99504  Biso   1.000  Hf
  Hf53     1.0000 0.49482  0.10321  0.24487  Biso   1.000  Hf
  Hf54     1.0000 0.50305  0.35298  0.24996  Biso   1.000  Hf
  Hf55     1.0000 0.49589  0.39802  0.00216  Biso   1.000  Hf
  Hf56     1.0000 0.74952  0.14896  0.25479  Biso   1.000  Hf
  Hf57     1.0000 0.75497  0.10322  0.00497  Biso   1.000  Hf
  Hf58     1.0000 0.74682  0.35299  0.99983  Biso   1.000  Hf
  Hf59     1.0000 0.75399  0.39804  0.24763  Biso   1.000  Hf
  Hf60     1.0000 0.62488  0.99637  0.62490  Biso   1.000  Hf
  Hf61     1.0000 0.62611  0.24949  0.87172  Biso   1.000  Hf
  Hf62     1.0000 0.87172  0.24949  0.62610  Biso   1.000  Hf
  Hf63     1.0000 0.88273  0.99665  0.88274  Biso   1.000  Hf
  Hf64     1.0000 0.49357  0.14771  0.49357  Biso   1.000  Hf
  Hf65     1.0000 0.50424  0.10325  0.74561  Biso   1.000  Hf
  Hf66     1.0000 0.49878  0.35416  0.75105  Biso   1.000  Hf
  Hf67     1.0000 0.50097  0.39770  0.50094  Biso   1.000  Hf
  Hf68     1.0000 0.75630  0.14772  0.75629  Biso   1.000  Hf
  Hf69     1.0000 0.74560  0.10326  0.50425  Biso   1.000  Hf
  Hf70     1.0000 0.75108  0.35416  0.49875  Biso   1.000  Hf
  Hf71     1.0000 0.74889  0.39769  0.74886  Biso   1.000  Hf
  Hf72     1.0000 0.62493  0.50045  0.12490  Biso   1.000  Hf
  Hf73     1.0000 0.62102  0.75213  0.37207  Biso   1.000  Hf
  Hf74     1.0000 0.87860  0.74675  0.12843  Biso   1.000  Hf
  Hf75     1.0000 0.87308  0.50220  0.37674  Biso   1.000  Hf
  Hf76     1.0000 0.50133  0.64825  0.99973  Biso   1.000  Hf
  Hf77     1.0000 0.50034  0.60218  0.24999  Biso   1.000  Hf
  Hf78     1.0000 0.48330  0.85224  0.25284  Biso   1.000  Hf
  Hf79     1.0000 0.51657  0.89917  0.99544  Biso   1.000  Hf
  Hf80     1.0000 0.74852  0.64828  0.25007  Biso   1.000  Hf
  Hf81     1.0000 0.74952  0.60219  0.99982  Biso   1.000  Hf
  Hf82     1.0000 0.76644  0.85226  0.99704  Biso   1.000  Hf
  Hf83     1.0000 0.73317  0.89920  0.25445  Biso   1.000  Hf
  Hf84     1.0000 0.62491  0.50441  0.62491  Biso   1.000  Hf
  Hf85     1.0000 0.62881  0.75215  0.87773  Biso   1.000  Hf
  Hf86     1.0000 0.87774  0.75214  0.62880  Biso   1.000  Hf
  Hf87     1.0000 0.87385  0.50204  0.87384  Biso   1.000  Hf
  Hf88     1.0000 0.49952  0.64865  0.49953  Biso   1.000  Hf
  Hf89     1.0000 0.50016  0.60350  0.74964  Biso   1.000  Hf
  Hf90     1.0000 0.50126  0.85103  0.74854  Biso   1.000  Hf
  Hf91     1.0000 0.49803  0.89934  0.49810  Biso   1.000  Hf
  Hf92     1.0000 0.75027  0.64865  0.75028  Biso   1.000  Hf
  Hf93     1.0000 0.74964  0.60350  0.50016  Biso   1.000  Hf
  Hf94     1.0000 0.74848  0.85103  0.50132  Biso   1.000  Hf
  Hf95     1.0000 0.75170  0.89935  0.75177  Biso   1.000  Hf
