data_image0
_cell_length_a       10.0635
_cell_length_b       10.224
_cell_length_c       5.03222
_cell_angle_alpha    89.9998
_cell_angle_beta     88.723
_cell_angle_gamma    89.9971

_symmetry_space_group_name_H-M    "P 1"
_symmetry_int_tables_number       1

loop_
  _symmetry_equiv_pos_as_xyz
  'x, y, z'

loop_
  _atom_site_label
  _atom_site_occupancy
  _atom_site_fract_x
  _atom_site_fract_y
  _atom_site_fract_z
  _atom_site_thermal_displace_type
  _atom_site_B_iso_or_equiv
  _atom_site_type_symbol
  Rh1      1.0000 0.12536  0.96816  0.25011  Biso   1.000  Rh
  Zr1      1.0000 0.12535  0.50534  0.25017  Biso   1.000  Zr
  Zr2      1.0000 0.62537  0.99966  0.25015  Biso   1.000  Zr
  Zr3      1.0000 0.62533  0.49472  0.25018  Biso   1.000  Zr
  Zr4      1.0000 0.12536  0.25579  0.75018  Biso   1.000  Zr
  Zr5      1.0000 0.12534  0.75153  0.75017  Biso   1.000  Zr
  Zr6      1.0000 0.62535  0.24662  0.75015  Biso   1.000  Zr
  Zr7      1.0000 0.62534  0.75015  0.75023  Biso   1.000  Zr
  Zr8      1.0000 0.36956  0.24955  0.26366  Biso   1.000  Zr
  Zr9      1.0000 0.38224  0.74901  0.25567  Biso   1.000  Zr
  Zr10     1.0000 0.88115  0.24957  0.23666  Biso   1.000  Zr
  Zr11     1.0000 0.86843  0.74896  0.24477  Biso   1.000  Zr
  Zr12     1.0000 0.37319  0.00514  0.77337  Biso   1.000  Zr
  Zr13     1.0000 0.37744  0.49677  0.75340  Biso   1.000  Zr
  Zr14     1.0000 0.87753  0.00514  0.72689  Biso   1.000  Zr
  Zr15     1.0000 0.87323  0.49676  0.74694  Biso   1.000  Zr
  Zr16     1.0000 0.97413  0.15967  0.92647  Biso   1.000  Zr
  Zr17     1.0000 0.00139  0.65161  0.00745  Biso   1.000  Zr
  Zr18     1.0000 0.48908  0.14490  0.00587  Biso   1.000  Zr
  Zr19     1.0000 0.50036  0.64251  0.99986  Biso   1.000  Zr
  Zr20     1.0000 0.01533  0.09589  0.44293  Biso   1.000  Zr
  Zr21     1.0000 0.00109  0.60448  0.51013  Biso   1.000  Zr
  Zr22     1.0000 0.51281  0.10128  0.51546  Biso   1.000  Zr
  Zr23     1.0000 0.50064  0.60330  0.49880  Biso   1.000  Zr
  Zr24     1.0000 0.99884  0.35268  0.49540  Biso   1.000  Zr
  Zr25     1.0000 0.00121  0.85150  0.48052  Biso   1.000  Zr
  Zr26     1.0000 0.49918  0.35228  0.50009  Biso   1.000  Zr
  Zr27     1.0000 0.49307  0.85275  0.52049  Biso   1.000  Zr
  Zr28     1.0000 0.00307  0.40245  0.99925  Biso   1.000  Zr
  Zr29     1.0000 0.00665  0.90766  0.97643  Biso   1.000  Zr
  Zr30     1.0000 0.50300  0.39364  0.99714  Biso   1.000  Zr
  Zr31     1.0000 0.50286  0.89260  0.01441  Biso   1.000  Zr
  Zr32     1.0000 0.27654  0.15964  0.57377  Biso   1.000  Zr
  Zr33     1.0000 0.24926  0.65158  0.49280  Biso   1.000  Zr
  Zr34     1.0000 0.76161  0.14489  0.49435  Biso   1.000  Zr
  Zr35     1.0000 0.75029  0.64250  0.50053  Biso   1.000  Zr
  Zr36     1.0000 0.23536  0.09590  0.05729  Biso   1.000  Zr
  Zr37     1.0000 0.24955  0.60448  0.99013  Biso   1.000  Zr
  Zr38     1.0000 0.73788  0.10127  0.98478  Biso   1.000  Zr
  Zr39     1.0000 0.75003  0.60329  0.00158  Biso   1.000  Zr
  Zr40     1.0000 0.25187  0.35269  0.00493  Biso   1.000  Zr
  Zr41     1.0000 0.24952  0.85151  0.01967  Biso   1.000  Zr
  Zr42     1.0000 0.75152  0.35228  0.00019  Biso   1.000  Zr
  Zr43     1.0000 0.75765  0.85274  0.97990  Biso   1.000  Zr
  Zr44     1.0000 0.24762  0.40244  0.50110  Biso   1.000  Zr
  Zr45     1.0000 0.24413  0.90761  0.52370  Biso   1.000  Zr
  Zr46     1.0000 0.74769  0.39363  0.50315  Biso   1.000  Zr
  Zr47     1.0000 0.74785  0.89258  0.48597  Biso   1.000  Zr
