data_image0
_cell_length_a       10.0872
_cell_length_b       5.24444
_cell_length_c       10.0237
_cell_angle_alpha    90.4193
_cell_angle_beta     90.2787
_cell_angle_gamma    90.2268

_symmetry_space_group_name_H-M    "P 1"
_symmetry_int_tables_number       1

loop_
  _symmetry_equiv_pos_as_xyz
  'x, y, z'

loop_
  _atom_site_label
  _atom_site_occupancy
  _atom_site_fract_x
  _atom_site_fract_y
  _atom_site_fract_z
  _atom_site_thermal_displace_type
  _atom_site_B_iso_or_equiv
  _atom_site_type_symbol
  Hf1      1.0000 0.12249  0.89068  0.12545  Biso   1.000  Hf
  Hf2      1.0000 0.10420  0.46614  0.40223  Biso   1.000  Hf
  Hf3      1.0000 0.36589  0.53487  0.10716  Biso   1.000  Hf
  Hf4      1.0000 0.35783  0.03673  0.38615  Biso   1.000  Hf
  Hf5      1.0000 0.97274  0.31737  0.00849  Biso   1.000  Hf
  Hf6      1.0000 0.03969  0.10328  0.29577  Biso   1.000  Hf
  Hf7      1.0000 0.00470  0.63543  0.24322  Biso   1.000  Hf
  Hf8      1.0000 0.98193  0.79580  0.98709  Biso   1.000  Hf
  Hf9      1.0000 0.27750  0.36713  0.27845  Biso   1.000  Hf
  Hf10     1.0000 0.23240  0.20606  0.01141  Biso   1.000  Hf
  Hf11     1.0000 0.24867  0.73767  0.96273  Biso   1.000  Hf
  Hf12     1.0000 0.30432  0.86188  0.21432  Biso   1.000  Hf
  Hf13     1.0000 0.10642  0.97162  0.62069  Biso   1.000  Hf
  Hf14     1.0000 0.11428  0.47693  0.88088  Biso   1.000  Hf
  Hf15     1.0000 0.35971  0.53826  0.61445  Biso   1.000  Hf
  Hf16     1.0000 0.36075  0.03514  0.87684  Biso   1.000  Hf
  Hf17     1.0000 0.97989  0.26700  0.52677  Biso   1.000  Hf
  Hf18     1.0000 0.03740  0.14064  0.78554  Biso   1.000  Hf
  Hf19     1.0000 0.03425  0.64480  0.71936  Biso   1.000  Hf
  Hf20     1.0000 0.98102  0.77025  0.49073  Biso   1.000  Hf
  Hf21     1.0000 0.28991  0.36559  0.77868  Biso   1.000  Hf
  Hf22     1.0000 0.23306  0.23752  0.52148  Biso   1.000  Hf
  Hf23     1.0000 0.23305  0.73725  0.47826  Biso   1.000  Hf
  Hf24     1.0000 0.28883  0.86886  0.70858  Biso   1.000  Hf
  Hf25     1.0000 0.60485  0.97571  0.11472  Biso   1.000  Hf
  Hf26     1.0000 0.60886  0.46825  0.38019  Biso   1.000  Hf
  Hf27     1.0000 0.84279  0.54529  0.11535  Biso   1.000  Hf
  Hf28     1.0000 0.85737  0.02880  0.38315  Biso   1.000  Hf
  Hf29     1.0000 0.48443  0.26950  0.01175  Biso   1.000  Hf
  Hf30     1.0000 0.52927  0.14317  0.28045  Biso   1.000  Hf
  Hf31     1.0000 0.54407  0.63386  0.21066  Biso   1.000  Hf
  Hf32     1.0000 0.48758  0.77219  0.97686  Biso   1.000  Hf
  Hf33     1.0000 0.78253  0.35928  0.28249  Biso   1.000  Hf
  Hf34     1.0000 0.73009  0.23836  0.01800  Biso   1.000  Hf
  Hf35     1.0000 0.73194  0.74344  0.97589  Biso   1.000  Hf
  Hf36     1.0000 0.77791  0.87452  0.21578  Biso   1.000  Hf
  Hf37     1.0000 0.60966  0.97215  0.61308  Biso   1.000  Hf
  Hf38     1.0000 0.60849  0.47198  0.87854  Biso   1.000  Hf
  Hf39     1.0000 0.85520  0.53967  0.61885  Biso   1.000  Hf
  Hf40     1.0000 0.85906  0.04284  0.88422  Biso   1.000  Hf
  Hf41     1.0000 0.48255  0.27292  0.51493  Biso   1.000  Hf
  Hf42     1.0000 0.53897  0.13934  0.77861  Biso   1.000  Hf
  Hf43     1.0000 0.53795  0.63892  0.71127  Biso   1.000  Hf
  Hf44     1.0000 0.48375  0.77304  0.47659  Biso   1.000  Hf
  Hf45     1.0000 0.78522  0.37169  0.78398  Biso   1.000  Hf
  Hf46     1.0000 0.73257  0.23488  0.51716  Biso   1.000  Hf
  Hf47     1.0000 0.73359  0.73303  0.47999  Biso   1.000  Hf
  Hf48     1.0000 0.78600  0.87333  0.71578  Biso   1.000  Hf
  Ru1      1.0000 0.11857  0.37684  0.14775  Biso   1.000  Ru
