data_image0
_cell_length_a       9.9665
_cell_length_b       10.3779
_cell_length_c       10.0075
_cell_angle_alpha    90.0313
_cell_angle_beta     89.9341
_cell_angle_gamma    89.9673

_symmetry_space_group_name_H-M    "P 1"
_symmetry_int_tables_number       1

loop_
  _symmetry_equiv_pos_as_xyz
  'x, y, z'

loop_
  _atom_site_label
  _atom_site_occupancy
  _atom_site_fract_x
  _atom_site_fract_y
  _atom_site_fract_z
  _atom_site_thermal_displace_type
  _atom_site_B_iso_or_equiv
  _atom_site_type_symbol
  Sb1      1.0000 0.12662  0.01893  0.11941  Biso   1.000  Sb
  Hf1      1.0000 0.13618  0.23351  0.37718  Biso   1.000  Hf
  Hf2      1.0000 0.36633  0.26703  0.12707  Biso   1.000  Hf
  Hf3      1.0000 0.36607  0.48363  0.37628  Biso   1.000  Hf
  Hf4      1.0000 0.03632  0.18710  0.19397  Biso   1.000  Hf
  Hf5      1.0000 0.03688  0.06549  0.44346  Biso   1.000  Hf
  Hf6      1.0000 0.46400  0.43416  0.19490  Biso   1.000  Hf
  Hf7      1.0000 0.46372  0.31555  0.44449  Biso   1.000  Hf
  Hf8      1.0000 0.27670  0.12297  0.25372  Biso   1.000  Hf
  Hf9      1.0000 0.27040  0.13187  0.50176  Biso   1.000  Hf
  Hf10     1.0000 0.22981  0.38215  0.50015  Biso   1.000  Hf
  Hf11     1.0000 0.22874  0.36877  0.25009  Biso   1.000  Hf
  Hf12     1.0000 0.13405  0.01632  0.62664  Biso   1.000  Hf
  Hf13     1.0000 0.13440  0.23664  0.87395  Biso   1.000  Hf
  Hf14     1.0000 0.36659  0.26633  0.62603  Biso   1.000  Hf
  Hf15     1.0000 0.36634  0.48392  0.87620  Biso   1.000  Hf
  Hf16     1.0000 0.03658  0.18496  0.69359  Biso   1.000  Hf
  Hf17     1.0000 0.03452  0.06702  0.93968  Biso   1.000  Hf
  Hf18     1.0000 0.46404  0.43426  0.69440  Biso   1.000  Hf
  Hf19     1.0000 0.46356  0.31571  0.94357  Biso   1.000  Hf
  Hf20     1.0000 0.27071  0.11811  0.75019  Biso   1.000  Hf
  Hf21     1.0000 0.27025  0.13416  0.99835  Biso   1.000  Hf
  Hf22     1.0000 0.22960  0.38312  0.99970  Biso   1.000  Hf
  Hf23     1.0000 0.22994  0.36846  0.74930  Biso   1.000  Hf
  Hf24     1.0000 0.13382  0.51649  0.12634  Biso   1.000  Hf
  Hf25     1.0000 0.13491  0.73333  0.37674  Biso   1.000  Hf
  Hf26     1.0000 0.36683  0.76519  0.12670  Biso   1.000  Hf
  Hf27     1.0000 0.36553  0.98287  0.37557  Biso   1.000  Hf
  Hf28     1.0000 0.03669  0.68541  0.19417  Biso   1.000  Hf
  Hf29     1.0000 0.03662  0.56503  0.44447  Biso   1.000  Hf
  Hf30     1.0000 0.46500  0.93417  0.19401  Biso   1.000  Hf
  Hf31     1.0000 0.46560  0.81624  0.44697  Biso   1.000  Hf
  Hf32     1.0000 0.27040  0.61554  0.24981  Biso   1.000  Hf
  Hf33     1.0000 0.27122  0.63227  0.50023  Biso   1.000  Hf
  Hf34     1.0000 0.22945  0.88225  0.50150  Biso   1.000  Hf
  Hf35     1.0000 0.23673  0.86137  0.25486  Biso   1.000  Hf
  Hf36     1.0000 0.13397  0.51673  0.62577  Biso   1.000  Hf
  Hf37     1.0000 0.13369  0.73292  0.87612  Biso   1.000  Hf
  Hf38     1.0000 0.36588  0.76671  0.62654  Biso   1.000  Hf
  Hf39     1.0000 0.36692  0.98380  0.87581  Biso   1.000  Hf
  Hf40     1.0000 0.03643  0.68438  0.69387  Biso   1.000  Hf
  Hf41     1.0000 0.03549  0.56605  0.94438  Biso   1.000  Hf
  Hf42     1.0000 0.46357  0.93449  0.69482  Biso   1.000  Hf
  Hf43     1.0000 0.46340  0.81568  0.94366  Biso   1.000  Hf
  Hf44     1.0000 0.27026  0.61759  0.75006  Biso   1.000  Hf
  Hf45     1.0000 0.27030  0.63195  0.00005  Biso   1.000  Hf
  Hf46     1.0000 0.23063  0.87993  0.99930  Biso   1.000  Hf
  Hf47     1.0000 0.22907  0.86791  0.75051  Biso   1.000  Hf
  Hf48     1.0000 0.63439  0.01636  0.12652  Biso   1.000  Hf
  Hf49     1.0000 0.63375  0.23345  0.37571  Biso   1.000  Hf
  Hf50     1.0000 0.86378  0.26739  0.12557  Biso   1.000  Hf
  Hf51     1.0000 0.86655  0.48322  0.37618  Biso   1.000  Hf
  Hf52     1.0000 0.53855  0.18542  0.19245  Biso   1.000  Hf
  Hf53     1.0000 0.53680  0.06568  0.44367  Biso   1.000  Hf
  Hf54     1.0000 0.96307  0.43426  0.19396  Biso   1.000  Hf
  Hf55     1.0000 0.96406  0.31555  0.44408  Biso   1.000  Hf
  Hf56     1.0000 0.77075  0.11818  0.25038  Biso   1.000  Hf
  Hf57     1.0000 0.77051  0.13249  0.49985  Biso   1.000  Hf
  Hf58     1.0000 0.72973  0.38224  0.49985  Biso   1.000  Hf
  Hf59     1.0000 0.72906  0.36820  0.25015  Biso   1.000  Hf
  Hf60     1.0000 0.63318  0.01636  0.62515  Biso   1.000  Hf
  Hf61     1.0000 0.63375  0.23328  0.87591  Biso   1.000  Hf
  Hf62     1.0000 0.86604  0.26643  0.62550  Biso   1.000  Hf
  Hf63     1.0000 0.86581  0.48338  0.87564  Biso   1.000  Hf
  Hf64     1.0000 0.53641  0.18420  0.69424  Biso   1.000  Hf
  Hf65     1.0000 0.53686  0.06552  0.94408  Biso   1.000  Hf
  Hf66     1.0000 0.96411  0.43408  0.69452  Biso   1.000  Hf
  Hf67     1.0000 0.96361  0.31609  0.94430  Biso   1.000  Hf
  Hf68     1.0000 0.76995  0.11719  0.74917  Biso   1.000  Hf
  Hf69     1.0000 0.77109  0.13178  0.99946  Biso   1.000  Hf
  Hf70     1.0000 0.72908  0.38209  0.99992  Biso   1.000  Hf
  Hf71     1.0000 0.72963  0.36730  0.74986  Biso   1.000  Hf
  Hf72     1.0000 0.63393  0.51638  0.12675  Biso   1.000  Hf
  Hf73     1.0000 0.63426  0.73368  0.37657  Biso   1.000  Hf
  Hf74     1.0000 0.86525  0.76440  0.12535  Biso   1.000  Hf
  Hf75     1.0000 0.86566  0.98429  0.37744  Biso   1.000  Hf
  Hf76     1.0000 0.53700  0.68387  0.19550  Biso   1.000  Hf
  Hf77     1.0000 0.53668  0.56550  0.44434  Biso   1.000  Hf
  Hf78     1.0000 0.95679  0.93531  0.19157  Biso   1.000  Hf
  Hf79     1.0000 0.96400  0.81598  0.44374  Biso   1.000  Hf
  Hf80     1.0000 0.77100  0.61715  0.24980  Biso   1.000  Hf
  Hf81     1.0000 0.77074  0.63235  0.49971  Biso   1.000  Hf
  Hf82     1.0000 0.73003  0.88250  0.50024  Biso   1.000  Hf
  Hf83     1.0000 0.73009  0.86723  0.25031  Biso   1.000  Hf
  Hf84     1.0000 0.63397  0.51629  0.62575  Biso   1.000  Hf
  Hf85     1.0000 0.63321  0.73286  0.87577  Biso   1.000  Hf
  Hf86     1.0000 0.86637  0.76624  0.62534  Biso   1.000  Hf
  Hf87     1.0000 0.86263  0.98189  0.87462  Biso   1.000  Hf
  Hf88     1.0000 0.53595  0.68371  0.69482  Biso   1.000  Hf
  Hf89     1.0000 0.53591  0.56579  0.94545  Biso   1.000  Hf
  Hf90     1.0000 0.96283  0.93435  0.69365  Biso   1.000  Hf
  Hf91     1.0000 0.96361  0.81650  0.94433  Biso   1.000  Hf
  Hf92     1.0000 0.77057  0.61736  0.74951  Biso   1.000  Hf
  Hf93     1.0000 0.76999  0.63165  0.99940  Biso   1.000  Hf
  Hf94     1.0000 0.72800  0.88116  0.99964  Biso   1.000  Hf
  Hf95     1.0000 0.72885  0.86704  0.74948  Biso   1.000  Hf
