data_image0
_cell_length_a       10.0518
_cell_length_b       10.6086
_cell_length_c       5.09711
_cell_angle_alpha    88.4114
_cell_angle_beta     92.3007
_cell_angle_gamma    90.7343

_symmetry_space_group_name_H-M    "P 1"
_symmetry_int_tables_number       1

loop_
  _symmetry_equiv_pos_as_xyz
  'x, y, z'

loop_
  _atom_site_label
  _atom_site_occupancy
  _atom_site_fract_x
  _atom_site_fract_y
  _atom_site_fract_z
  _atom_site_thermal_displace_type
  _atom_site_B_iso_or_equiv
  _atom_site_type_symbol
  Hf1      1.0000 0.11176  0.97519  0.21689  Biso   1.000  Hf
  Hf2      1.0000 0.14144  0.19539  0.63194  Biso   1.000  Hf
  Hf3      1.0000 0.37211  0.26253  0.21756  Biso   1.000  Hf
  Hf4      1.0000 0.37998  0.47703  0.72576  Biso   1.000  Hf
  Hf5      1.0000 0.00948  0.13844  0.32405  Biso   1.000  Hf
  Hf6      1.0000 0.04090  0.05881  0.85955  Biso   1.000  Hf
  Hf7      1.0000 0.47147  0.42476  0.39311  Biso   1.000  Hf
  Hf8      1.0000 0.48477  0.32060  0.91072  Biso   1.000  Hf
  Hf9      1.0000 0.26389  0.08957  0.40542  Biso   1.000  Hf
  Hf10     1.0000 0.30550  0.14527  0.88608  Biso   1.000  Hf
  Hf11     1.0000 0.26580  0.42895  0.04239  Biso   1.000  Hf
  Hf12     1.0000 0.24163  0.35540  0.52727  Biso   1.000  Hf
  Hf13     1.0000 0.12648  0.53576  0.27416  Biso   1.000  Hf
  Hf14     1.0000 0.13220  0.74515  0.75972  Biso   1.000  Hf
  Hf15     1.0000 0.37380  0.77106  0.25220  Biso   1.000  Hf
  Hf16     1.0000 0.37630  0.98798  0.72516  Biso   1.000  Hf
  Hf17     1.0000 0.02831  0.68494  0.42751  Biso   1.000  Hf
  Hf18     1.0000 0.02967  0.57177  0.90300  Biso   1.000  Hf
  Hf19     1.0000 0.47681  0.92774  0.39834  Biso   1.000  Hf
  Hf20     1.0000 0.46977  0.81877  0.90315  Biso   1.000  Hf
  Hf21     1.0000 0.26429  0.61388  0.54998  Biso   1.000  Hf
  Hf22     1.0000 0.24079  0.66498  0.05630  Biso   1.000  Hf
  Hf23     1.0000 0.24429  0.89776  0.97417  Biso   1.000  Hf
  Hf24     1.0000 0.23547  0.85577  0.48478  Biso   1.000  Hf
  Hf25     1.0000 0.63762  0.01765  0.26390  Biso   1.000  Hf
  Hf26     1.0000 0.63791  0.22973  0.77426  Biso   1.000  Hf
  Hf27     1.0000 0.85079  0.27538  0.31930  Biso   1.000  Hf
  Hf28     1.0000 0.86964  0.48510  0.74893  Biso   1.000  Hf
  Hf29     1.0000 0.52915  0.17442  0.41313  Biso   1.000  Hf
  Hf30     1.0000 0.54622  0.06208  0.90472  Biso   1.000  Hf
  Hf31     1.0000 0.93448  0.46924  0.37447  Biso   1.000  Hf
  Hf32     1.0000 0.95970  0.29953  0.68271  Biso   1.000  Hf
  Hf33     1.0000 0.76589  0.11467  0.53389  Biso   1.000  Hf
  Hf34     1.0000 0.77456  0.13969  0.03665  Biso   1.000  Hf
  Hf35     1.0000 0.74651  0.38315  0.01817  Biso   1.000  Hf
  Hf36     1.0000 0.71320  0.37054  0.52258  Biso   1.000  Hf
  Hf37     1.0000 0.63558  0.51560  0.25863  Biso   1.000  Hf
  Hf38     1.0000 0.62865  0.73277  0.76642  Biso   1.000  Hf
  Hf39     1.0000 0.85713  0.76254  0.28656  Biso   1.000  Hf
  Hf40     1.0000 0.86224  0.98112  0.77296  Biso   1.000  Hf
  Hf41     1.0000 0.52982  0.67352  0.41357  Biso   1.000  Hf
  Hf42     1.0000 0.52987  0.57105  0.91556  Biso   1.000  Hf
  Hf43     1.0000 0.96853  0.91202  0.46395  Biso   1.000  Hf
  Hf44     1.0000 0.98610  0.83154  0.98382  Biso   1.000  Hf
  Hf45     1.0000 0.76072  0.61948  0.53061  Biso   1.000  Hf
  Hf46     1.0000 0.76441  0.64038  0.02209  Biso   1.000  Hf
  Hf47     1.0000 0.73752  0.88519  0.02837  Biso   1.000  Hf
  Hf48     1.0000 0.73079  0.86559  0.52657  Biso   1.000  Hf
  Sb1      1.0000 0.09133  0.29171  0.08240  Biso   1.000  Sb
