data_image0
_cell_length_a       5.01326
_cell_length_b       10.2202
_cell_length_c       10.0244
_cell_angle_alpha    90
_cell_angle_beta     90
_cell_angle_gamma    90.0001

_symmetry_space_group_name_H-M    "P 1"
_symmetry_int_tables_number       1

loop_
  _symmetry_equiv_pos_as_xyz
  'x, y, z'

loop_
  _atom_site_label
  _atom_site_occupancy
  _atom_site_fract_x
  _atom_site_fract_y
  _atom_site_fract_z
  _atom_site_thermal_displace_type
  _atom_site_B_iso_or_equiv
  _atom_site_type_symbol
  Sb1      1.0000 0.24982  0.00005  0.12491  Biso   1.000  Sb
  Hf1      1.0000 0.25146  0.25132  0.37558  Biso   1.000  Hf
  Hf2      1.0000 0.74982  0.25220  0.12491  Biso   1.000  Hf
  Hf3      1.0000 0.74982  0.00005  0.37521  Biso   1.000  Hf
  Hf4      1.0000 0.99246  0.14875  0.99690  Biso   1.000  Hf
  Hf5      1.0000 0.99905  0.10552  0.25141  Biso   1.000  Hf
  Hf6      1.0000 0.00468  0.35312  0.24902  Biso   1.000  Hf
  Hf7      1.0000 0.99660  0.39819  0.99991  Biso   1.000  Hf
  Hf8      1.0000 0.50717  0.14875  0.25292  Biso   1.000  Hf
  Hf9      1.0000 0.50058  0.10552  0.99841  Biso   1.000  Hf
  Hf10     1.0000 0.49495  0.35312  0.00080  Biso   1.000  Hf
  Hf11     1.0000 0.50303  0.39819  0.24990  Biso   1.000  Hf
  Hf12     1.0000 0.24982  0.00005  0.62491  Biso   1.000  Hf
  Hf13     1.0000 0.24818  0.25132  0.87424  Biso   1.000  Hf
  Hf14     1.0000 0.74982  0.24858  0.62491  Biso   1.000  Hf
  Hf15     1.0000 0.74982  0.00006  0.87461  Biso   1.000  Hf
  Hf16     1.0000 0.00273  0.14845  0.50014  Biso   1.000  Hf
  Hf17     1.0000 0.99732  0.10182  0.74852  Biso   1.000  Hf
  Hf18     1.0000 0.99765  0.35241  0.74920  Biso   1.000  Hf
  Hf19     1.0000 0.00217  0.39804  0.49902  Biso   1.000  Hf
  Hf20     1.0000 0.49690  0.14845  0.74967  Biso   1.000  Hf
  Hf21     1.0000 0.50232  0.10182  0.50130  Biso   1.000  Hf
  Hf22     1.0000 0.50198  0.35241  0.50062  Biso   1.000  Hf
  Hf23     1.0000 0.49746  0.39804  0.75080  Biso   1.000  Hf
  Hf24     1.0000 0.24981  0.50006  0.12491  Biso   1.000  Hf
  Hf25     1.0000 0.24818  0.74879  0.37558  Biso   1.000  Hf
  Hf26     1.0000 0.74982  0.74790  0.12491  Biso   1.000  Hf
  Hf27     1.0000 0.74982  0.50005  0.37566  Biso   1.000  Hf
  Hf28     1.0000 0.00468  0.64699  0.00080  Biso   1.000  Hf
  Hf29     1.0000 0.99660  0.60192  0.24991  Biso   1.000  Hf
  Hf30     1.0000 0.99246  0.85135  0.25292  Biso   1.000  Hf
  Hf31     1.0000 0.99905  0.89458  0.99841  Biso   1.000  Hf
  Hf32     1.0000 0.49496  0.64699  0.24902  Biso   1.000  Hf
  Hf33     1.0000 0.50303  0.60192  0.99991  Biso   1.000  Hf
  Hf34     1.0000 0.50717  0.85135  0.99690  Biso   1.000  Hf
  Hf35     1.0000 0.50058  0.89458  0.25141  Biso   1.000  Hf
  Hf36     1.0000 0.24982  0.50006  0.62491  Biso   1.000  Hf
  Hf37     1.0000 0.25146  0.74879  0.87424  Biso   1.000  Hf
  Hf38     1.0000 0.74982  0.75153  0.62491  Biso   1.000  Hf
  Hf39     1.0000 0.74982  0.50005  0.87415  Biso   1.000  Hf
  Hf40     1.0000 0.99765  0.64770  0.50062  Biso   1.000  Hf
  Hf41     1.0000 0.00217  0.60207  0.75080  Biso   1.000  Hf
  Hf42     1.0000 0.00273  0.85166  0.74967  Biso   1.000  Hf
  Hf43     1.0000 0.99732  0.89829  0.50130  Biso   1.000  Hf
  Hf44     1.0000 0.50198  0.64770  0.74920  Biso   1.000  Hf
  Hf45     1.0000 0.49746  0.60207  0.49901  Biso   1.000  Hf
  Hf46     1.0000 0.49691  0.85166  0.50014  Biso   1.000  Hf
  Hf47     1.0000 0.50232  0.89829  0.74852  Biso   1.000  Hf
