data_image0
_cell_length_a       10.4845
_cell_length_b       10.5177
_cell_length_c       5.15634
_cell_angle_alpha    98.3393
_cell_angle_beta     93.9286
_cell_angle_gamma    89.0681

_symmetry_space_group_name_H-M    "P 1"
_symmetry_int_tables_number       1

loop_
  _symmetry_equiv_pos_as_xyz
  'x, y, z'

loop_
  _atom_site_label
  _atom_site_occupancy
  _atom_site_fract_x
  _atom_site_fract_y
  _atom_site_fract_z
  _atom_site_thermal_displace_type
  _atom_site_B_iso_or_equiv
  _atom_site_type_symbol
  Zr1      1.0000 0.11148  0.96295  0.38829  Biso   1.000  Zr
  Zr2      1.0000 0.13685  0.28261  0.59431  Biso   1.000  Zr
  Zr3      1.0000 0.39273  0.27881  0.15223  Biso   1.000  Zr
  Zr4      1.0000 0.40461  0.02523  0.70848  Biso   1.000  Zr
  Zr5      1.0000 0.92779  0.18700  0.97051  Biso   1.000  Zr
  Zr6      1.0000 0.99726  0.12738  0.49459  Biso   1.000  Zr
  Zr7      1.0000 0.99076  0.37886  0.39140  Biso   1.000  Zr
  Zr8      1.0000 0.04265  0.41323  0.88078  Biso   1.000  Zr
  Zr9      1.0000 0.24079  0.11315  0.52677  Biso   1.000  Zr
  Zr10     1.0000 0.32261  0.09708  0.04247  Biso   1.000  Zr
  Zr11     1.0000 0.29857  0.34699  0.84267  Biso   1.000  Zr
  Zr12     1.0000 0.25260  0.39646  0.38785  Biso   1.000  Zr
  Zr13     1.0000 0.10974  0.51338  0.22573  Biso   1.000  Zr
  Zr14     1.0000 0.13876  0.74200  0.78002  Biso   1.000  Zr
  Zr15     1.0000 0.35787  0.73188  0.27218  Biso   1.000  Zr
  Zr16     1.0000 0.38392  0.50910  0.71948  Biso   1.000  Zr
  Zr17     1.0000 0.00546  0.65905  0.02162  Biso   1.000  Zr
  Zr18     1.0000 0.00350  0.62053  0.50898  Biso   1.000  Zr
  Zr19     1.0000 0.99891  0.85849  0.60198  Biso   1.000  Zr
  Zr20     1.0000 0.94839  0.90168  0.12663  Biso   1.000  Zr
  Zr21     1.0000 0.24739  0.63374  0.50213  Biso   1.000  Zr
  Zr22     1.0000 0.24487  0.59426  0.98917  Biso   1.000  Zr
  Zr23     1.0000 0.21551  0.84217  0.11873  Biso   1.000  Zr
  Zr24     1.0000 0.25540  0.87419  0.61716  Biso   1.000  Zr
  Zr25     1.0000 0.63316  0.98132  0.29226  Biso   1.000  Zr
  Zr26     1.0000 0.61626  0.26915  0.72053  Biso   1.000  Zr
  Zr27     1.0000 0.84371  0.22994  0.30674  Biso   1.000  Zr
  Zr28     1.0000 0.87745  0.00605  0.81586  Biso   1.000  Zr
  Zr29     1.0000 0.51993  0.17371  0.94186  Biso   1.000  Zr
  Zr30     1.0000 0.50423  0.11908  0.45502  Biso   1.000  Zr
  Zr31     1.0000 0.50729  0.37357  0.46944  Biso   1.000  Zr
  Zr32     1.0000 0.51300  0.43214  0.98282  Biso   1.000  Zr
  Zr33     1.0000 0.74600  0.13421  0.57022  Biso   1.000  Zr
  Zr34     1.0000 0.75160  0.06295  0.08435  Biso   1.000  Zr
  Zr35     1.0000 0.71903  0.32387  0.07911  Biso   1.000  Zr
  Zr36     1.0000 0.75631  0.39035  0.56802  Biso   1.000  Zr
  Zr37     1.0000 0.65306  0.49187  0.28359  Biso   1.000  Zr
  Zr38     1.0000 0.59994  0.76421  0.73687  Biso   1.000  Zr
  Zr39     1.0000 0.86492  0.74678  0.28757  Biso   1.000  Zr
  Zr40     1.0000 0.89618  0.52012  0.73815  Biso   1.000  Zr
  Zr41     1.0000 0.46374  0.67970  0.94412  Biso   1.000  Zr
  Zr42     1.0000 0.49979  0.61415  0.46242  Biso   1.000  Zr
  Zr43     1.0000 0.49271  0.86372  0.45131  Biso   1.000  Zr
  Zr44     1.0000 0.52251  0.92677  0.94396  Biso   1.000  Zr
  Zr45     1.0000 0.75142  0.64099  0.55682  Biso   1.000  Zr
  Zr46     1.0000 0.79215  0.56321  0.07277  Biso   1.000  Zr
  Zr47     1.0000 0.71029  0.79988  0.08004  Biso   1.000  Zr
  Zr48     1.0000 0.74526  0.88720  0.56784  Biso   1.000  Zr
  Sb1      1.0000 0.12702  0.13721  0.01485  Biso   1.000  Sb
