data_image0
_cell_length_a       5.02538
_cell_length_b       10.4476
_cell_length_c       10.0881
_cell_angle_alpha    90.0447
_cell_angle_beta     89.8186
_cell_angle_gamma    89.9524

_symmetry_space_group_name_H-M    "P 1"
_symmetry_int_tables_number       1

loop_
  _symmetry_equiv_pos_as_xyz
  'x, y, z'

loop_
  _atom_site_label
  _atom_site_occupancy
  _atom_site_fract_x
  _atom_site_fract_y
  _atom_site_fract_z
  _atom_site_thermal_displace_type
  _atom_site_B_iso_or_equiv
  _atom_site_type_symbol
  Sb1      1.0000 0.25394  0.01902  0.11919  Biso   1.000  Sb
  Zr1      1.0000 0.26600  0.01527  0.62483  Biso   1.000  Zr
  Zr2      1.0000 0.26746  0.51574  0.12623  Biso   1.000  Zr
  Zr3      1.0000 0.26723  0.51592  0.62450  Biso   1.000  Zr
  Zr4      1.0000 0.27101  0.23411  0.37631  Biso   1.000  Zr
  Zr5      1.0000 0.26701  0.23730  0.87281  Biso   1.000  Zr
  Zr6      1.0000 0.27011  0.73476  0.37585  Biso   1.000  Zr
  Zr7      1.0000 0.26497  0.73315  0.87513  Biso   1.000  Zr
  Zr8      1.0000 0.72887  0.26684  0.12517  Biso   1.000  Zr
  Zr9      1.0000 0.73360  0.26558  0.62466  Biso   1.000  Zr
  Zr10     1.0000 0.73364  0.76297  0.12492  Biso   1.000  Zr
  Zr11     1.0000 0.73291  0.76568  0.62501  Biso   1.000  Zr
  Zr12     1.0000 0.73413  0.48418  0.37537  Biso   1.000  Zr
  Zr13     1.0000 0.73253  0.48486  0.87497  Biso   1.000  Zr
  Zr14     1.0000 0.73208  0.98452  0.37586  Biso   1.000  Zr
  Zr15     1.0000 0.72710  0.98293  0.87368  Biso   1.000  Zr
  Zr16     1.0000 0.07163  0.18457  0.19458  Biso   1.000  Zr
  Zr17     1.0000 0.06956  0.18347  0.69496  Biso   1.000  Zr
  Zr18     1.0000 0.07231  0.68335  0.19594  Biso   1.000  Zr
  Zr19     1.0000 0.06883  0.68271  0.69551  Biso   1.000  Zr
  Zr20     1.0000 0.07168  0.06673  0.44459  Biso   1.000  Zr
  Zr21     1.0000 0.06381  0.06837  0.94359  Biso   1.000  Zr
  Zr22     1.0000 0.07135  0.56608  0.44506  Biso   1.000  Zr
  Zr23     1.0000 0.06730  0.56725  0.94642  Biso   1.000  Zr
  Zr24     1.0000 0.93033  0.43233  0.19526  Biso   1.000  Zr
  Zr25     1.0000 0.93169  0.43301  0.69551  Biso   1.000  Zr
  Zr26     1.0000 0.92587  0.93217  0.19407  Biso   1.000  Zr
  Zr27     1.0000 0.92828  0.93350  0.69536  Biso   1.000  Zr
  Zr28     1.0000 0.93140  0.31676  0.44555  Biso   1.000  Zr
  Zr29     1.0000 0.92934  0.31729  0.94433  Biso   1.000  Zr
  Zr30     1.0000 0.93471  0.81738  0.44759  Biso   1.000  Zr
  Zr31     1.0000 0.92862  0.81744  0.94451  Biso   1.000  Zr
  Zr32     1.0000 0.54780  0.12118  0.25170  Biso   1.000  Zr
  Zr33     1.0000 0.53633  0.11648  0.74815  Biso   1.000  Zr
  Zr34     1.0000 0.54001  0.61440  0.24832  Biso   1.000  Zr
  Zr35     1.0000 0.53737  0.61631  0.74835  Biso   1.000  Zr
  Zr36     1.0000 0.53850  0.13323  0.50000  Biso   1.000  Zr
  Zr37     1.0000 0.53617  0.13474  0.99675  Biso   1.000  Zr
  Zr38     1.0000 0.53986  0.63352  0.49858  Biso   1.000  Zr
  Zr39     1.0000 0.53682  0.63261  0.99818  Biso   1.000  Zr
  Zr40     1.0000 0.46302  0.38323  0.49874  Biso   1.000  Zr
  Zr41     1.0000 0.46074  0.38399  0.99825  Biso   1.000  Zr
  Zr42     1.0000 0.46339  0.88364  0.49998  Biso   1.000  Zr
  Zr43     1.0000 0.45981  0.88117  0.99799  Biso   1.000  Zr
  Zr44     1.0000 0.45986  0.36773  0.24881  Biso   1.000  Zr
  Zr45     1.0000 0.46275  0.36710  0.74794  Biso   1.000  Zr
  Zr46     1.0000 0.47709  0.86135  0.25295  Biso   1.000  Zr
  Zr47     1.0000 0.45924  0.86617  0.74856  Biso   1.000  Zr
