data_image0
_cell_length_a       10.1825
_cell_length_b       10.3366
_cell_length_c       10.1825
_cell_angle_alpha    89.5655
_cell_angle_beta     86.8656
_cell_angle_gamma    89.5677

_symmetry_space_group_name_H-M    "P 1"
_symmetry_int_tables_number       1

loop_
  _symmetry_equiv_pos_as_xyz
  'x, y, z'

loop_
  _atom_site_label
  _atom_site_occupancy
  _atom_site_fract_x
  _atom_site_fract_y
  _atom_site_fract_z
  _atom_site_thermal_displace_type
  _atom_site_B_iso_or_equiv
  _atom_site_type_symbol
  Zr1      1.0000 0.12348  0.88980  0.12353  Biso   1.000  Zr
  Zr2      1.0000 0.14871  0.27383  0.40390  Biso   1.000  Zr
  Zr3      1.0000 0.40385  0.27382  0.14876  Biso   1.000  Zr
  Zr4      1.0000 0.37525  0.02701  0.37531  Biso   1.000  Zr
  Zr5      1.0000 0.94423  0.16674  0.94430  Biso   1.000  Zr
  Zr6      1.0000 0.99151  0.05394  0.19316  Biso   1.000  Zr
  Zr7      1.0000 0.01292  0.34079  0.25980  Biso   1.000  Zr
  Zr8      1.0000 0.00425  0.41274  0.00431  Biso   1.000  Zr
  Zr9      1.0000 0.33882  0.22104  0.33888  Biso   1.000  Zr
  Zr10     1.0000 0.19310  0.05394  0.99157  Biso   1.000  Zr
  Zr11     1.0000 0.25975  0.34079  0.01298  Biso   1.000  Zr
  Zr12     1.0000 0.26292  0.43545  0.26300  Biso   1.000  Zr
  Zr13     1.0000 0.10780  0.99104  0.60330  Biso   1.000  Zr
  Zr14     1.0000 0.11851  0.25503  0.88489  Biso   1.000  Zr
  Zr15     1.0000 0.37929  0.24601  0.63783  Biso   1.000  Zr
  Zr16     1.0000 0.35330  0.99514  0.86902  Biso   1.000  Zr
  Zr17     1.0000 0.00547  0.14185  0.47053  Biso   1.000  Zr
  Zr18     1.0000 0.99091  0.09847  0.72110  Biso   1.000  Zr
  Zr19     1.0000 0.99755  0.35102  0.74769  Biso   1.000  Zr
  Zr20     1.0000 0.01076  0.39679  0.50935  Biso   1.000  Zr
  Zr21     1.0000 0.26200  0.15577  0.77694  Biso   1.000  Zr
  Zr22     1.0000 0.25017  0.11447  0.52925  Biso   1.000  Zr
  Zr23     1.0000 0.26177  0.37454  0.53177  Biso   1.000  Zr
  Zr24     1.0000 0.24177  0.40201  0.77404  Biso   1.000  Zr
  Zr25     1.0000 0.12860  0.50801  0.12866  Biso   1.000  Zr
  Zr26     1.0000 0.10722  0.73977  0.39374  Biso   1.000  Zr
  Zr27     1.0000 0.39369  0.73977  0.10728  Biso   1.000  Zr
  Zr28     1.0000 0.39478  0.49753  0.39484  Biso   1.000  Zr
  Zr29     1.0000 0.04775  0.68272  0.04780  Biso   1.000  Zr
  Zr30     1.0000 0.02760  0.58312  0.29075  Biso   1.000  Zr
  Zr31     1.0000 0.97288  0.82337  0.26077  Biso   1.000  Zr
  Zr32     1.0000 0.98074  0.89276  0.98079  Biso   1.000  Zr
  Zr33     1.0000 0.22640  0.73922  0.22646  Biso   1.000  Zr
  Zr34     1.0000 0.29070  0.58311  0.02768  Biso   1.000  Zr
  Zr35     1.0000 0.26071  0.82337  0.97293  Biso   1.000  Zr
  Zr36     1.0000 0.24171  0.99374  0.24177  Biso   1.000  Zr
  Zr37     1.0000 0.12849  0.50489  0.64148  Biso   1.000  Zr
  Zr38     1.0000 0.10982  0.75566  0.85526  Biso   1.000  Zr
  Zr39     1.0000 0.36007  0.76183  0.60654  Biso   1.000  Zr
  Zr40     1.0000 0.38061  0.48415  0.87983  Biso   1.000  Zr
  Zr41     1.0000 0.00670  0.64417  0.54594  Biso   1.000  Zr
  Zr42     1.0000 0.01651  0.59383  0.79721  Biso   1.000  Zr
  Zr43     1.0000 0.98539  0.85016  0.73503  Biso   1.000  Zr
  Zr44     1.0000 0.98642  0.88964  0.48962  Biso   1.000  Zr
  Zr45     1.0000 0.25218  0.64959  0.74084  Biso   1.000  Zr
  Zr46     1.0000 0.25044  0.61486  0.48791  Biso   1.000  Zr
  Zr47     1.0000 0.24260  0.86399  0.48241  Biso   1.000  Zr
  Zr48     1.0000 0.23383  0.90197  0.73482  Biso   1.000  Zr
  Zr49     1.0000 0.60324  0.99104  0.10786  Biso   1.000  Zr
  Zr50     1.0000 0.63780  0.24602  0.37933  Biso   1.000  Zr
  Zr51     1.0000 0.88484  0.25504  0.11857  Biso   1.000  Zr
  Zr52     1.0000 0.86896  0.99513  0.35335  Biso   1.000  Zr
  Zr53     1.0000 0.47047  0.14185  0.00552  Biso   1.000  Zr
  Zr54     1.0000 0.52918  0.11448  0.25022  Biso   1.000  Zr
  Zr55     1.0000 0.53170  0.37454  0.26183  Biso   1.000  Zr
  Zr56     1.0000 0.50929  0.39678  0.01083  Biso   1.000  Zr
  Zr57     1.0000 0.77686  0.15575  0.26203  Biso   1.000  Zr
  Zr58     1.0000 0.72103  0.09846  0.99094  Biso   1.000  Zr
  Zr59     1.0000 0.74763  0.35101  0.99762  Biso   1.000  Zr
  Zr60     1.0000 0.77396  0.40199  0.24186  Biso   1.000  Zr
  Zr61     1.0000 0.61634  0.99939  0.61639  Biso   1.000  Zr
  Zr62     1.0000 0.61957  0.23955  0.88074  Biso   1.000  Zr
  Zr63     1.0000 0.88070  0.23955  0.61962  Biso   1.000  Zr
  Zr64     1.0000 0.86364  0.00487  0.86369  Biso   1.000  Zr
  Zr65     1.0000 0.51094  0.14650  0.51099  Biso   1.000  Zr
  Zr66     1.0000 0.49988  0.09537  0.75637  Biso   1.000  Zr
  Zr67     1.0000 0.49504  0.34543  0.76241  Biso   1.000  Zr
  Zr68     1.0000 0.51299  0.39328  0.51305  Biso   1.000  Zr
  Zr69     1.0000 0.74429  0.14270  0.74433  Biso   1.000  Zr
  Zr70     1.0000 0.75632  0.09537  0.49992  Biso   1.000  Zr
  Zr71     1.0000 0.76235  0.34542  0.49511  Biso   1.000  Zr
  Zr72     1.0000 0.74550  0.38461  0.74558  Biso   1.000  Zr
  Zr73     1.0000 0.64142  0.50488  0.12855  Biso   1.000  Zr
  Zr74     1.0000 0.60647  0.76182  0.36013  Biso   1.000  Zr
  Zr75     1.0000 0.85521  0.75565  0.10988  Biso   1.000  Zr
  Zr76     1.0000 0.87976  0.48416  0.38068  Biso   1.000  Zr
  Zr77     1.0000 0.54589  0.64418  0.00678  Biso   1.000  Zr
  Zr78     1.0000 0.48785  0.61486  0.25051  Biso   1.000  Zr
  Zr79     1.0000 0.48235  0.86399  0.24266  Biso   1.000  Zr
  Zr80     1.0000 0.48957  0.88964  0.98648  Biso   1.000  Zr
  Zr81     1.0000 0.74079  0.64958  0.25225  Biso   1.000  Zr
  Zr82     1.0000 0.79717  0.59382  0.01658  Biso   1.000  Zr
  Zr83     1.0000 0.73499  0.85015  0.98545  Biso   1.000  Zr
  Zr84     1.0000 0.73476  0.90195  0.23388  Biso   1.000  Zr
  Zr85     1.0000 0.63124  0.49767  0.63132  Biso   1.000  Zr
  Zr86     1.0000 0.61346  0.75603  0.85267  Biso   1.000  Zr
  Zr87     1.0000 0.85261  0.75602  0.61352  Biso   1.000  Zr
  Zr88     1.0000 0.86757  0.47867  0.86763  Biso   1.000  Zr
  Zr89     1.0000 0.50204  0.64747  0.50212  Biso   1.000  Zr
  Zr90     1.0000 0.50841  0.59660  0.76029  Biso   1.000  Zr
  Zr91     1.0000 0.48337  0.84910  0.73810  Biso   1.000  Zr
  Zr92     1.0000 0.49206  0.90194  0.49211  Biso   1.000  Zr
  Zr93     1.0000 0.75714  0.63771  0.75721  Biso   1.000  Zr
  Zr94     1.0000 0.76022  0.59659  0.50848  Biso   1.000  Zr
  Zr95     1.0000 0.73803  0.84909  0.48343  Biso   1.000  Zr
  Zr96     1.0000 0.73678  0.89197  0.73684  Biso   1.000  Zr
  Sb1      1.0000 0.14553  0.17644  0.14559  Biso   1.000  Sb
