data_image0
_cell_length_a       10.0475
_cell_length_b       10.1885
_cell_length_c       5.02143
_cell_angle_alpha    89.9978
_cell_angle_beta     90.0001
_cell_angle_gamma    89.997

_symmetry_space_group_name_H-M    "P 1"
_symmetry_int_tables_number       1

loop_
  _symmetry_equiv_pos_as_xyz
  'x, y, z'

loop_
  _atom_site_label
  _atom_site_occupancy
  _atom_site_fract_x
  _atom_site_fract_y
  _atom_site_fract_z
  _atom_site_thermal_displace_type
  _atom_site_B_iso_or_equiv
  _atom_site_type_symbol
  Sc1      1.0000 0.12486  0.00007  0.25062  Biso   1.000  Sc
  Zr1      1.0000 0.12486  0.50007  0.25062  Biso   1.000  Zr
  Zr2      1.0000 0.62486  0.00007  0.25062  Biso   1.000  Zr
  Zr3      1.0000 0.62486  0.50006  0.25063  Biso   1.000  Zr
  Zr4      1.0000 0.12487  0.24774  0.75064  Biso   1.000  Zr
  Zr5      1.0000 0.12487  0.75239  0.75064  Biso   1.000  Zr
  Zr6      1.0000 0.62487  0.24955  0.75064  Biso   1.000  Zr
  Zr7      1.0000 0.62487  0.75058  0.75064  Biso   1.000  Zr
  Zr8      1.0000 0.37318  0.24870  0.25025  Biso   1.000  Zr
  Zr9      1.0000 0.37318  0.75144  0.25103  Biso   1.000  Zr
  Zr10     1.0000 0.87656  0.24869  0.25103  Biso   1.000  Zr
  Zr11     1.0000 0.87656  0.75144  0.25025  Biso   1.000  Zr
  Zr12     1.0000 0.37075  0.00007  0.75062  Biso   1.000  Zr
  Zr13     1.0000 0.37461  0.50007  0.75062  Biso   1.000  Zr
  Zr14     1.0000 0.87897  0.00007  0.75062  Biso   1.000  Zr
  Zr15     1.0000 0.87512  0.50007  0.75062  Biso   1.000  Zr
  Zr16     1.0000 0.99759  0.14222  0.99592  Biso   1.000  Zr
  Zr17     1.0000 0.99967  0.64162  0.00029  Biso   1.000  Zr
  Zr18     1.0000 0.49979  0.14385  0.00171  Biso   1.000  Zr
  Zr19     1.0000 0.49941  0.64385  0.00046  Biso   1.000  Zr
  Zr20     1.0000 0.00022  0.10968  0.49925  Biso   1.000  Zr
  Zr21     1.0000 0.00016  0.60785  0.50029  Biso   1.000  Zr
  Zr22     1.0000 0.50049  0.10618  0.50190  Biso   1.000  Zr
  Zr23     1.0000 0.50019  0.60623  0.50095  Biso   1.000  Zr
  Zr24     1.0000 0.99967  0.35851  0.50096  Biso   1.000  Zr
  Zr25     1.0000 0.99759  0.85791  0.50534  Biso   1.000  Zr
  Zr26     1.0000 0.49941  0.35629  0.50081  Biso   1.000  Zr
  Zr27     1.0000 0.49978  0.85629  0.49956  Biso   1.000  Zr
  Zr28     1.0000 0.00016  0.39228  0.00098  Biso   1.000  Zr
  Zr29     1.0000 0.00021  0.89046  0.00202  Biso   1.000  Zr
  Zr30     1.0000 0.50019  0.39390  0.00032  Biso   1.000  Zr
  Zr31     1.0000 0.50049  0.89396  0.99937  Biso   1.000  Zr
  Zr32     1.0000 0.25214  0.14223  0.50534  Biso   1.000  Zr
  Zr33     1.0000 0.25006  0.64162  0.50097  Biso   1.000  Zr
  Zr34     1.0000 0.74994  0.14384  0.49955  Biso   1.000  Zr
  Zr35     1.0000 0.75032  0.64384  0.50081  Biso   1.000  Zr
  Zr36     1.0000 0.24952  0.10968  0.00202  Biso   1.000  Zr
  Zr37     1.0000 0.24957  0.60786  0.00098  Biso   1.000  Zr
  Zr38     1.0000 0.74924  0.10618  0.99936  Biso   1.000  Zr
  Zr39     1.0000 0.74954  0.60623  0.00031  Biso   1.000  Zr
  Zr40     1.0000 0.25006  0.35852  0.00030  Biso   1.000  Zr
  Zr41     1.0000 0.25214  0.85791  0.99592  Biso   1.000  Zr
  Zr42     1.0000 0.75031  0.35629  0.00046  Biso   1.000  Zr
  Zr43     1.0000 0.74994  0.85629  0.00170  Biso   1.000  Zr
  Zr44     1.0000 0.24957  0.39228  0.50029  Biso   1.000  Zr
  Zr45     1.0000 0.24952  0.89046  0.49925  Biso   1.000  Zr
  Zr46     1.0000 0.74954  0.39390  0.50095  Biso   1.000  Zr
  Zr47     1.0000 0.74924  0.89395  0.50190  Biso   1.000  Zr
