data_image0
_cell_length_a       10.0552
_cell_length_b       10.2147
_cell_length_c       10.0551
_cell_angle_alpha    89.998
_cell_angle_beta     90.0017
_cell_angle_gamma    90.0016

_symmetry_space_group_name_H-M    "P 1"
_symmetry_int_tables_number       1

loop_
  _symmetry_equiv_pos_as_xyz
  'x, y, z'

loop_
  _atom_site_label
  _atom_site_occupancy
  _atom_site_fract_x
  _atom_site_fract_y
  _atom_site_fract_z
  _atom_site_thermal_displace_type
  _atom_site_B_iso_or_equiv
  _atom_site_type_symbol
  Sc1      1.0000 0.12490  0.99986  0.12491  Biso   1.000  Sc
  Zr1      1.0000 0.12491  0.99985  0.62491  Biso   1.000  Zr
  Zr2      1.0000 0.12490  0.49985  0.12491  Biso   1.000  Zr
  Zr3      1.0000 0.12490  0.49985  0.62491  Biso   1.000  Zr
  Zr4      1.0000 0.62490  0.99986  0.12491  Biso   1.000  Zr
  Zr5      1.0000 0.62491  0.99985  0.62491  Biso   1.000  Zr
  Zr6      1.0000 0.62490  0.49985  0.12491  Biso   1.000  Zr
  Zr7      1.0000 0.62490  0.49985  0.62491  Biso   1.000  Zr
  Zr8      1.0000 0.12494  0.24904  0.37326  Biso   1.000  Zr
  Zr9      1.0000 0.12488  0.24904  0.87655  Biso   1.000  Zr
  Zr10     1.0000 0.12488  0.75067  0.37326  Biso   1.000  Zr
  Zr11     1.0000 0.12494  0.75066  0.87655  Biso   1.000  Zr
  Zr12     1.0000 0.62490  0.24959  0.37485  Biso   1.000  Zr
  Zr13     1.0000 0.62492  0.24959  0.87496  Biso   1.000  Zr
  Zr14     1.0000 0.62492  0.75012  0.37485  Biso   1.000  Zr
  Zr15     1.0000 0.62490  0.75012  0.87496  Biso   1.000  Zr
  Zr16     1.0000 0.37327  0.24904  0.12493  Biso   1.000  Zr
  Zr17     1.0000 0.37486  0.24958  0.62489  Biso   1.000  Zr
  Zr18     1.0000 0.37327  0.75066  0.12487  Biso   1.000  Zr
  Zr19     1.0000 0.37486  0.75012  0.62491  Biso   1.000  Zr
  Zr20     1.0000 0.87656  0.24904  0.12487  Biso   1.000  Zr
  Zr21     1.0000 0.87497  0.24958  0.62491  Biso   1.000  Zr
  Zr22     1.0000 0.87656  0.75067  0.12494  Biso   1.000  Zr
  Zr23     1.0000 0.87497  0.75012  0.62489  Biso   1.000  Zr
  Zr24     1.0000 0.37247  0.99868  0.37247  Biso   1.000  Zr
  Zr25     1.0000 0.37247  0.00102  0.87734  Biso   1.000  Zr
  Zr26     1.0000 0.37483  0.49939  0.37484  Biso   1.000  Zr
  Zr27     1.0000 0.37483  0.50032  0.87498  Biso   1.000  Zr
  Zr28     1.0000 0.87734  0.00102  0.37248  Biso   1.000  Zr
  Zr29     1.0000 0.87734  0.99869  0.87734  Biso   1.000  Zr
  Zr30     1.0000 0.87498  0.50032  0.37483  Biso   1.000  Zr
  Zr31     1.0000 0.87498  0.49939  0.87498  Biso   1.000  Zr
  Zr32     1.0000 0.99661  0.14498  0.99661  Biso   1.000  Zr
  Zr33     1.0000 0.00053  0.14540  0.49957  Biso   1.000  Zr
  Zr34     1.0000 0.99990  0.64387  0.99990  Biso   1.000  Zr
  Zr35     1.0000 0.99979  0.64583  0.49966  Biso   1.000  Zr
  Zr36     1.0000 0.49957  0.14540  0.00053  Biso   1.000  Zr
  Zr37     1.0000 0.50070  0.14557  0.50070  Biso   1.000  Zr
  Zr38     1.0000 0.49966  0.64583  0.99979  Biso   1.000  Zr
  Zr39     1.0000 0.49995  0.64527  0.49995  Biso   1.000  Zr
  Zr40     1.0000 0.00057  0.10712  0.24925  Biso   1.000  Zr
  Zr41     1.0000 0.99920  0.10411  0.74873  Biso   1.000  Zr
  Zr42     1.0000 0.00021  0.60498  0.24962  Biso   1.000  Zr
  Zr43     1.0000 0.99972  0.60401  0.74981  Biso   1.000  Zr
  Zr44     1.0000 0.50108  0.10412  0.25062  Biso   1.000  Zr
  Zr45     1.0000 0.49932  0.10430  0.75050  Biso   1.000  Zr
  Zr46     1.0000 0.50001  0.60401  0.25010  Biso   1.000  Zr
  Zr47     1.0000 0.49997  0.60435  0.74984  Biso   1.000  Zr
  Zr48     1.0000 0.99990  0.35584  0.24992  Biso   1.000  Zr
  Zr49     1.0000 0.99979  0.35388  0.75016  Biso   1.000  Zr
  Zr50     1.0000 0.99661  0.85473  0.25321  Biso   1.000  Zr
  Zr51     1.0000 0.00053  0.85431  0.75025  Biso   1.000  Zr
  Zr52     1.0000 0.49966  0.35387  0.25002  Biso   1.000  Zr
  Zr53     1.0000 0.49995  0.35444  0.74987  Biso   1.000  Zr
  Zr54     1.0000 0.49957  0.85431  0.24929  Biso   1.000  Zr
  Zr55     1.0000 0.50070  0.85413  0.74912  Biso   1.000  Zr
  Zr56     1.0000 0.00020  0.39472  0.00020  Biso   1.000  Zr
  Zr57     1.0000 0.99972  0.39569  0.50000  Biso   1.000  Zr
  Zr58     1.0000 0.00057  0.89258  0.00057  Biso   1.000  Zr
  Zr59     1.0000 0.99920  0.89559  0.50108  Biso   1.000  Zr
  Zr60     1.0000 0.50000  0.39569  0.99972  Biso   1.000  Zr
  Zr61     1.0000 0.49997  0.39535  0.49997  Biso   1.000  Zr
  Zr62     1.0000 0.50109  0.89559  0.99919  Biso   1.000  Zr
  Zr63     1.0000 0.49932  0.89541  0.49932  Biso   1.000  Zr
  Zr64     1.0000 0.25320  0.14498  0.25321  Biso   1.000  Zr
  Zr65     1.0000 0.24929  0.14540  0.75025  Biso   1.000  Zr
  Zr66     1.0000 0.24992  0.64387  0.24992  Biso   1.000  Zr
  Zr67     1.0000 0.25003  0.64583  0.75016  Biso   1.000  Zr
  Zr68     1.0000 0.75025  0.14540  0.24929  Biso   1.000  Zr
  Zr69     1.0000 0.74912  0.14557  0.74912  Biso   1.000  Zr
  Zr70     1.0000 0.75016  0.64583  0.25003  Biso   1.000  Zr
  Zr71     1.0000 0.74987  0.64527  0.74987  Biso   1.000  Zr
  Zr72     1.0000 0.24925  0.10712  0.00057  Biso   1.000  Zr
  Zr73     1.0000 0.25062  0.10411  0.50108  Biso   1.000  Zr
  Zr74     1.0000 0.24962  0.60498  0.00020  Biso   1.000  Zr
  Zr75     1.0000 0.25010  0.60401  0.50001  Biso   1.000  Zr
  Zr76     1.0000 0.74874  0.10412  0.99920  Biso   1.000  Zr
  Zr77     1.0000 0.75050  0.10430  0.49932  Biso   1.000  Zr
  Zr78     1.0000 0.74982  0.60401  0.99972  Biso   1.000  Zr
  Zr79     1.0000 0.74985  0.60435  0.49997  Biso   1.000  Zr
  Zr80     1.0000 0.24991  0.35584  0.99990  Biso   1.000  Zr
  Zr81     1.0000 0.25002  0.35387  0.49966  Biso   1.000  Zr
  Zr82     1.0000 0.25321  0.85472  0.99660  Biso   1.000  Zr
  Zr83     1.0000 0.24929  0.85431  0.49956  Biso   1.000  Zr
  Zr84     1.0000 0.75015  0.35388  0.99979  Biso   1.000  Zr
  Zr85     1.0000 0.74986  0.35444  0.49995  Biso   1.000  Zr
  Zr86     1.0000 0.75025  0.85431  0.00053  Biso   1.000  Zr
  Zr87     1.0000 0.74912  0.85414  0.50070  Biso   1.000  Zr
  Zr88     1.0000 0.24962  0.39473  0.24961  Biso   1.000  Zr
  Zr89     1.0000 0.25010  0.39569  0.74981  Biso   1.000  Zr
  Zr90     1.0000 0.24925  0.89258  0.24924  Biso   1.000  Zr
  Zr91     1.0000 0.25062  0.89559  0.74872  Biso   1.000  Zr
  Zr92     1.0000 0.74981  0.39570  0.25010  Biso   1.000  Zr
  Zr93     1.0000 0.74985  0.39535  0.74984  Biso   1.000  Zr
  Zr94     1.0000 0.74873  0.89559  0.25062  Biso   1.000  Zr
  Zr95     1.0000 0.75050  0.89541  0.75050  Biso   1.000  Zr
