data_image0
_cell_length_a       5.11151
_cell_length_b       10.1304
_cell_length_c       10.1304
_cell_angle_alpha    90
_cell_angle_beta     90.0001
_cell_angle_gamma    90.0004

_symmetry_space_group_name_H-M    "P 1"
_symmetry_int_tables_number       1

loop_
  _symmetry_equiv_pos_as_xyz
  'x, y, z'

loop_
  _atom_site_label
  _atom_site_occupancy
  _atom_site_fract_x
  _atom_site_fract_y
  _atom_site_fract_z
  _atom_site_thermal_displace_type
  _atom_site_B_iso_or_equiv
  _atom_site_type_symbol
  Zr1      1.0000 0.25079  0.98234  0.12543  Biso   1.000  Zr
  Zr2      1.0000 0.25079  0.25007  0.39316  Biso   1.000  Zr
  Zr3      1.0000 0.75079  0.25008  0.12543  Biso   1.000  Zr
  Zr4      1.0000 0.74849  0.00539  0.37012  Biso   1.000  Zr
  Zr5      1.0000 0.98758  0.12710  0.00246  Biso   1.000  Zr
  Zr6      1.0000 0.02645  0.12194  0.25357  Biso   1.000  Zr
  Zr7      1.0000 0.98759  0.37305  0.24840  Biso   1.000  Zr
  Zr8      1.0000 0.02645  0.37821  0.99729  Biso   1.000  Zr
  Zr9      1.0000 0.51400  0.12710  0.24840  Biso   1.000  Zr
  Zr10     1.0000 0.47513  0.12194  0.99729  Biso   1.000  Zr
  Zr11     1.0000 0.51400  0.37305  0.00246  Biso   1.000  Zr
  Zr12     1.0000 0.47514  0.37820  0.25357  Biso   1.000  Zr
  Zr13     1.0000 0.25079  0.99522  0.62543  Biso   1.000  Zr
  Zr14     1.0000 0.25079  0.25007  0.85770  Biso   1.000  Zr
  Zr15     1.0000 0.75079  0.25008  0.62543  Biso   1.000  Zr
  Zr16     1.0000 0.75309  0.00539  0.88074  Biso   1.000  Zr
  Zr17     1.0000 0.96788  0.12983  0.50247  Biso   1.000  Zr
  Zr18     1.0000 0.02915  0.11722  0.75016  Biso   1.000  Zr
  Zr19     1.0000 0.96788  0.37032  0.74839  Biso   1.000  Zr
  Zr20     1.0000 0.02916  0.38293  0.50070  Biso   1.000  Zr
  Zr21     1.0000 0.53371  0.12983  0.74839  Biso   1.000  Zr
  Zr22     1.0000 0.47243  0.11722  0.50070  Biso   1.000  Zr
  Zr23     1.0000 0.53371  0.37032  0.50247  Biso   1.000  Zr
  Zr24     1.0000 0.47243  0.38293  0.75016  Biso   1.000  Zr
  Zr25     1.0000 0.25080  0.51781  0.12543  Biso   1.000  Zr
  Zr26     1.0000 0.25079  0.75007  0.38030  Biso   1.000  Zr
  Zr27     1.0000 0.75079  0.75008  0.12543  Biso   1.000  Zr
  Zr28     1.0000 0.75310  0.49476  0.37012  Biso   1.000  Zr
  Zr29     1.0000 0.96787  0.62710  0.00518  Biso   1.000  Zr
  Zr30     1.0000 0.02917  0.62536  0.25827  Biso   1.000  Zr
  Zr31     1.0000 0.96786  0.87305  0.24568  Biso   1.000  Zr
  Zr32     1.0000 0.02917  0.87479  0.99259  Biso   1.000  Zr
  Zr33     1.0000 0.53372  0.62710  0.24568  Biso   1.000  Zr
  Zr34     1.0000 0.47242  0.62536  0.99259  Biso   1.000  Zr
  Zr35     1.0000 0.53372  0.87305  0.00518  Biso   1.000  Zr
  Zr36     1.0000 0.47241  0.87479  0.25827  Biso   1.000  Zr
  Zr37     1.0000 0.25079  0.50493  0.62543  Biso   1.000  Zr
  Zr38     1.0000 0.25079  0.75007  0.87056  Biso   1.000  Zr
  Zr39     1.0000 0.75079  0.75007  0.62543  Biso   1.000  Zr
  Zr40     1.0000 0.74849  0.49476  0.88074  Biso   1.000  Zr
  Zr41     1.0000 0.96371  0.62888  0.50423  Biso   1.000  Zr
  Zr42     1.0000 0.03851  0.61884  0.75667  Biso   1.000  Zr
  Zr43     1.0000 0.96371  0.87126  0.74663  Biso   1.000  Zr
  Zr44     1.0000 0.03851  0.88132  0.49419  Biso   1.000  Zr
  Zr45     1.0000 0.53788  0.62888  0.74663  Biso   1.000  Zr
  Zr46     1.0000 0.46307  0.61883  0.49419  Biso   1.000  Zr
  Zr47     1.0000 0.53788  0.87127  0.50423  Biso   1.000  Zr
  Zr48     1.0000 0.46307  0.88131  0.75667  Biso   1.000  Zr
  Sc1      1.0000 0.25079  0.25007  0.12543  Biso   1.000  Sc
