data_image0
_cell_length_a       10.1304
_cell_length_b       5.11152
_cell_length_c       10.1304
_cell_angle_alpha    89.9998
_cell_angle_beta     90.0003
_cell_angle_gamma    90.0003

_symmetry_space_group_name_H-M    "P 1"
_symmetry_int_tables_number       1

loop_
  _symmetry_equiv_pos_as_xyz
  'x, y, z'

loop_
  _atom_site_label
  _atom_site_occupancy
  _atom_site_fract_x
  _atom_site_fract_y
  _atom_site_fract_z
  _atom_site_thermal_displace_type
  _atom_site_B_iso_or_equiv
  _atom_site_type_symbol
  Zr1      1.0000 0.12513  0.99995  0.10657  Biso   1.000  Zr
  Zr2      1.0000 0.12513  0.49995  0.37431  Biso   1.000  Zr
  Zr3      1.0000 0.39287  0.49995  0.10657  Biso   1.000  Zr
  Zr4      1.0000 0.36982  0.00224  0.35125  Biso   1.000  Zr
  Zr5      1.0000 0.99700  0.27562  0.23472  Biso   1.000  Zr
  Zr6      1.0000 0.00488  0.21704  0.48362  Biso   1.000  Zr
  Zr7      1.0000 0.50216  0.78285  0.22681  Biso   1.000  Zr
  Zr8      1.0000 0.49391  0.71223  0.47533  Biso   1.000  Zr
  Zr9      1.0000 0.24811  0.23672  0.22953  Biso   1.000  Zr
  Zr10     1.0000 0.25798  0.27829  0.48185  Biso   1.000  Zr
  Zr11     1.0000 0.24539  0.78284  0.48363  Biso   1.000  Zr
  Zr12     1.0000 0.25327  0.72427  0.23473  Biso   1.000  Zr
  Zr13     1.0000 0.12514  0.99996  0.60657  Biso   1.000  Zr
  Zr14     1.0000 0.12513  0.49996  0.83884  Biso   1.000  Zr
  Zr15     1.0000 0.38000  0.49996  0.60657  Biso   1.000  Zr
  Zr16     1.0000 0.36982  0.99766  0.86188  Biso   1.000  Zr
  Zr17     1.0000 0.99229  0.27834  0.73130  Biso   1.000  Zr
  Zr18     1.0000 0.00216  0.23672  0.98361  Biso   1.000  Zr
  Zr19     1.0000 0.50393  0.78705  0.72776  Biso   1.000  Zr
  Zr20     1.0000 0.50042  0.72157  0.97372  Biso   1.000  Zr
  Zr21     1.0000 0.24539  0.21705  0.72953  Biso   1.000  Zr
  Zr22     1.0000 0.25326  0.27562  0.97843  Biso   1.000  Zr
  Zr23     1.0000 0.24812  0.76318  0.98362  Biso   1.000  Zr
  Zr24     1.0000 0.25798  0.72159  0.73131  Biso   1.000  Zr
  Zr25     1.0000 0.62514  0.99996  0.10658  Biso   1.000  Zr
  Zr26     1.0000 0.62513  0.49994  0.36143  Biso   1.000  Zr
  Zr27     1.0000 0.85740  0.49997  0.10657  Biso   1.000  Zr
  Zr28     1.0000 0.88045  0.99765  0.35126  Biso   1.000  Zr
  Zr29     1.0000 0.50041  0.27831  0.23942  Biso   1.000  Zr
  Zr30     1.0000 0.50394  0.21288  0.48538  Biso   1.000  Zr
  Zr31     1.0000 0.00216  0.76317  0.22954  Biso   1.000  Zr
  Zr32     1.0000 0.99229  0.72159  0.48184  Biso   1.000  Zr
  Zr33     1.0000 0.74810  0.21704  0.22682  Biso   1.000  Zr
  Zr34     1.0000 0.75637  0.28766  0.47533  Biso   1.000  Zr
  Zr35     1.0000 0.74633  0.78703  0.48538  Biso   1.000  Zr
  Zr36     1.0000 0.74986  0.72159  0.23943  Biso   1.000  Zr
  Zr37     1.0000 0.62513  0.99994  0.60656  Biso   1.000  Zr
  Zr38     1.0000 0.62513  0.49996  0.85171  Biso   1.000  Zr
  Zr39     1.0000 0.87028  0.49995  0.60658  Biso   1.000  Zr
  Zr40     1.0000 0.88044  0.00227  0.86188  Biso   1.000  Zr
  Zr41     1.0000 0.49390  0.28768  0.73781  Biso   1.000  Zr
  Zr42     1.0000 0.50216  0.21702  0.98633  Biso   1.000  Zr
  Zr43     1.0000 0.00488  0.78288  0.72953  Biso   1.000  Zr
  Zr44     1.0000 0.99701  0.72427  0.97843  Biso   1.000  Zr
  Zr45     1.0000 0.74634  0.21284  0.72776  Biso   1.000  Zr
  Zr46     1.0000 0.74985  0.27834  0.97372  Biso   1.000  Zr
  Zr47     1.0000 0.74811  0.78290  0.98633  Biso   1.000  Zr
  Zr48     1.0000 0.75637  0.71221  0.73781  Biso   1.000  Zr
  Sc1      1.0000 0.12513  0.49994  0.10658  Biso   1.000  Sc
