data_image0
_cell_length_a       10.0499
_cell_length_b       5.19091
_cell_length_c       10.0815
_cell_angle_alpha    90.0151
_cell_angle_beta     89.9695
_cell_angle_gamma    90.0501

_symmetry_space_group_name_H-M    "P 1"
_symmetry_int_tables_number       1

loop_
  _symmetry_equiv_pos_as_xyz
  'x, y, z'

loop_
  _atom_site_label
  _atom_site_occupancy
  _atom_site_fract_x
  _atom_site_fract_y
  _atom_site_fract_z
  _atom_site_thermal_displace_type
  _atom_site_B_iso_or_equiv
  _atom_site_type_symbol
  Sc1      1.0000 0.13659  0.03242  0.12354  Biso   1.000  Sc
  Zr1      1.0000 0.13415  0.03265  0.62651  Biso   1.000  Zr
  Zr2      1.0000 0.63349  0.03115  0.12458  Biso   1.000  Zr
  Zr3      1.0000 0.63358  0.03054  0.62423  Biso   1.000  Zr
  Zr4      1.0000 0.13518  0.46812  0.37408  Biso   1.000  Zr
  Zr5      1.0000 0.13530  0.46678  0.87796  Biso   1.000  Zr
  Zr6      1.0000 0.63346  0.46924  0.37462  Biso   1.000  Zr
  Zr7      1.0000 0.63382  0.46960  0.87465  Biso   1.000  Zr
  Zr8      1.0000 0.36256  0.52975  0.12639  Biso   1.000  Zr
  Zr9      1.0000 0.36552  0.53292  0.62588  Biso   1.000  Zr
  Zr10     1.0000 0.86641  0.53209  0.12498  Biso   1.000  Zr
  Zr11     1.0000 0.86640  0.53081  0.62446  Biso   1.000  Zr
  Zr12     1.0000 0.36322  0.97000  0.37385  Biso   1.000  Zr
  Zr13     1.0000 0.36355  0.96713  0.87791  Biso   1.000  Zr
  Zr14     1.0000 0.86794  0.96916  0.37384  Biso   1.000  Zr
  Zr15     1.0000 0.86659  0.97045  0.87481  Biso   1.000  Zr
  Zr16     1.0000 0.03167  0.36236  0.19786  Biso   1.000  Zr
  Zr17     1.0000 0.03547  0.36897  0.69508  Biso   1.000  Zr
  Zr18     1.0000 0.53489  0.36672  0.19438  Biso   1.000  Zr
  Zr19     1.0000 0.53511  0.36720  0.69406  Biso   1.000  Zr
  Zr20     1.0000 0.03428  0.13446  0.44764  Biso   1.000  Zr
  Zr21     1.0000 0.03420  0.13509  0.94313  Biso   1.000  Zr
  Zr22     1.0000 0.53406  0.13357  0.44434  Biso   1.000  Zr
  Zr23     1.0000 0.53497  0.13343  0.94416  Biso   1.000  Zr
  Zr24     1.0000 0.46578  0.86541  0.19532  Biso   1.000  Zr
  Zr25     1.0000 0.46490  0.86720  0.69587  Biso   1.000  Zr
  Zr26     1.0000 0.96810  0.86190  0.19646  Biso   1.000  Zr
  Zr27     1.0000 0.96432  0.86790  0.69411  Biso   1.000  Zr
  Zr28     1.0000 0.46549  0.63460  0.44608  Biso   1.000  Zr
  Zr29     1.0000 0.46561  0.63395  0.94528  Biso   1.000  Zr
  Zr30     1.0000 0.96550  0.63367  0.44509  Biso   1.000  Zr
  Zr31     1.0000 0.96443  0.63340  0.94409  Biso   1.000  Zr
  Zr32     1.0000 0.27044  0.23641  0.24961  Biso   1.000  Zr
  Zr33     1.0000 0.27007  0.23553  0.74934  Biso   1.000  Zr
  Zr34     1.0000 0.76892  0.23221  0.24762  Biso   1.000  Zr
  Zr35     1.0000 0.76921  0.23374  0.74749  Biso   1.000  Zr
  Zr36     1.0000 0.26921  0.26652  0.49949  Biso   1.000  Zr
  Zr37     1.0000 0.27099  0.26286  0.99873  Biso   1.000  Zr
  Zr38     1.0000 0.76875  0.26752  0.49750  Biso   1.000  Zr
  Zr39     1.0000 0.76921  0.26732  0.99766  Biso   1.000  Zr
  Zr40     1.0000 0.23032  0.76675  0.49968  Biso   1.000  Zr
  Zr41     1.0000 0.23004  0.76104  0.99976  Biso   1.000  Zr
  Zr42     1.0000 0.73120  0.76762  0.49725  Biso   1.000  Zr
  Zr43     1.0000 0.73049  0.76741  0.99770  Biso   1.000  Zr
  Zr44     1.0000 0.23206  0.73184  0.25046  Biso   1.000  Zr
  Zr45     1.0000 0.23002  0.73552  0.74948  Biso   1.000  Zr
  Zr46     1.0000 0.73060  0.73317  0.24761  Biso   1.000  Zr
  Zr47     1.0000 0.73028  0.73351  0.74731  Biso   1.000  Zr
