data_image0
_cell_length_a       9.92422
_cell_length_b       10.3805
_cell_length_c       9.97296
_cell_angle_alpha    90.6528
_cell_angle_beta     89.5598
_cell_angle_gamma    90.1703

_symmetry_space_group_name_H-M    "P 1"
_symmetry_int_tables_number       1

loop_
  _symmetry_equiv_pos_as_xyz
  'x, y, z'

loop_
  _atom_site_label
  _atom_site_occupancy
  _atom_site_fract_x
  _atom_site_fract_y
  _atom_site_fract_z
  _atom_site_thermal_displace_type
  _atom_site_B_iso_or_equiv
  _atom_site_type_symbol
  Si1      1.0000 0.11905  0.03538  0.10888  Biso   1.000  Si
  Hf1      1.0000 0.13360  0.22567  0.36817  Biso   1.000  Hf
  Hf2      1.0000 0.37181  0.26598  0.11801  Biso   1.000  Hf
  Hf3      1.0000 0.36800  0.48032  0.37525  Biso   1.000  Hf
  Hf4      1.0000 0.03794  0.17855  0.17900  Biso   1.000  Hf
  Hf5      1.0000 0.03515  0.06659  0.45181  Biso   1.000  Hf
  Hf6      1.0000 0.46685  0.43274  0.19168  Biso   1.000  Hf
  Hf7      1.0000 0.46665  0.31657  0.44618  Biso   1.000  Hf
  Hf8      1.0000 0.23930  0.08210  0.24012  Biso   1.000  Hf
  Hf9      1.0000 0.27265  0.13243  0.49372  Biso   1.000  Hf
  Hf10     1.0000 0.22821  0.37986  0.49690  Biso   1.000  Hf
  Hf11     1.0000 0.23587  0.35372  0.24598  Biso   1.000  Hf
  Hf12     1.0000 0.13543  0.01813  0.62834  Biso   1.000  Hf
  Hf13     1.0000 0.13240  0.23852  0.87604  Biso   1.000  Hf
  Hf14     1.0000 0.36551  0.26683  0.62393  Biso   1.000  Hf
  Hf15     1.0000 0.36614  0.48889  0.87374  Biso   1.000  Hf
  Hf16     1.0000 0.03330  0.18373  0.70005  Biso   1.000  Hf
  Hf17     1.0000 0.03477  0.06521  0.95456  Biso   1.000  Hf
  Hf18     1.0000 0.46267  0.43570  0.69298  Biso   1.000  Hf
  Hf19     1.0000 0.46237  0.31873  0.93981  Biso   1.000  Hf
  Hf20     1.0000 0.27115  0.12039  0.75197  Biso   1.000  Hf
  Hf21     1.0000 0.25647  0.13652  0.00569  Biso   1.000  Hf
  Hf22     1.0000 0.23092  0.38697  0.99637  Biso   1.000  Hf
  Hf23     1.0000 0.22820  0.36928  0.74836  Biso   1.000  Hf
  Hf24     1.0000 0.13326  0.51370  0.12444  Biso   1.000  Hf
  Hf25     1.0000 0.13638  0.72872  0.37913  Biso   1.000  Hf
  Hf26     1.0000 0.36809  0.76290  0.12780  Biso   1.000  Hf
  Hf27     1.0000 0.36207  0.97853  0.37200  Biso   1.000  Hf
  Hf28     1.0000 0.03829  0.68274  0.19523  Biso   1.000  Hf
  Hf29     1.0000 0.03611  0.56184  0.44633  Biso   1.000  Hf
  Hf30     1.0000 0.47161  0.93031  0.19730  Biso   1.000  Hf
  Hf31     1.0000 0.47100  0.81898  0.45530  Biso   1.000  Hf
  Hf32     1.0000 0.26899  0.60231  0.24831  Biso   1.000  Hf
  Hf33     1.0000 0.27448  0.63093  0.50113  Biso   1.000  Hf
  Hf34     1.0000 0.22922  0.88162  0.50829  Biso   1.000  Hf
  Hf35     1.0000 0.25398  0.83991  0.26894  Biso   1.000  Hf
  Hf36     1.0000 0.13547  0.51594  0.62520  Biso   1.000  Hf
  Hf37     1.0000 0.13135  0.73635  0.87878  Biso   1.000  Hf
  Hf38     1.0000 0.36627  0.76996  0.63050  Biso   1.000  Hf
  Hf39     1.0000 0.35800  0.98737  0.88663  Biso   1.000  Hf
  Hf40     1.0000 0.03669  0.68510  0.69544  Biso   1.000  Hf
  Hf41     1.0000 0.03338  0.56772  0.94554  Biso   1.000  Hf
  Hf42     1.0000 0.46228  0.93657  0.70289  Biso   1.000  Hf
  Hf43     1.0000 0.45670  0.82007  0.94424  Biso   1.000  Hf
  Hf44     1.0000 0.26910  0.62021  0.75110  Biso   1.000  Hf
  Hf45     1.0000 0.26674  0.63786  0.99969  Biso   1.000  Hf
  Hf46     1.0000 0.21680  0.90268  0.02567  Biso   1.000  Hf
  Hf47     1.0000 0.22750  0.87122  0.76087  Biso   1.000  Hf
  Hf48     1.0000 0.63442  0.01721  0.12589  Biso   1.000  Hf
  Hf49     1.0000 0.63498  0.23154  0.37761  Biso   1.000  Hf
  Hf50     1.0000 0.86480  0.26670  0.12291  Biso   1.000  Hf
  Hf51     1.0000 0.86617  0.48228  0.37573  Biso   1.000  Hf
  Hf52     1.0000 0.52986  0.18101  0.20124  Biso   1.000  Hf
  Hf53     1.0000 0.53589  0.06484  0.44292  Biso   1.000  Hf
  Hf54     1.0000 0.96649  0.42959  0.19610  Biso   1.000  Hf
  Hf55     1.0000 0.96367  0.31078  0.43866  Biso   1.000  Hf
  Hf56     1.0000 0.77269  0.11744  0.24672  Biso   1.000  Hf
  Hf57     1.0000 0.77164  0.13113  0.49719  Biso   1.000  Hf
  Hf58     1.0000 0.73109  0.38205  0.49965  Biso   1.000  Hf
  Hf59     1.0000 0.72849  0.36650  0.24881  Biso   1.000  Hf
  Hf60     1.0000 0.62946  0.01386  0.62189  Biso   1.000  Hf
  Hf61     1.0000 0.63359  0.23424  0.87194  Biso   1.000  Hf
  Hf62     1.0000 0.86665  0.26506  0.62309  Biso   1.000  Hf
  Hf63     1.0000 0.86393  0.48624  0.87349  Biso   1.000  Hf
  Hf64     1.0000 0.53597  0.18531  0.69179  Biso   1.000  Hf
  Hf65     1.0000 0.52812  0.07345  0.95205  Biso   1.000  Hf
  Hf66     1.0000 0.96347  0.43425  0.69202  Biso   1.000  Hf
  Hf67     1.0000 0.96165  0.31863  0.94220  Biso   1.000  Hf
  Hf68     1.0000 0.76765  0.11619  0.74681  Biso   1.000  Hf
  Hf69     1.0000 0.76767  0.13488  0.99623  Biso   1.000  Hf
  Hf70     1.0000 0.72832  0.38435  0.99827  Biso   1.000  Hf
  Hf71     1.0000 0.72900  0.36793  0.74782  Biso   1.000  Hf
  Hf72     1.0000 0.63681  0.51860  0.12762  Biso   1.000  Hf
  Hf73     1.0000 0.63729  0.73584  0.37612  Biso   1.000  Hf
  Hf74     1.0000 0.87597  0.76907  0.12280  Biso   1.000  Hf
  Hf75     1.0000 0.87288  0.98513  0.37197  Biso   1.000  Hf
  Hf76     1.0000 0.53783  0.68468  0.19834  Biso   1.000  Hf
  Hf77     1.0000 0.53888  0.56627  0.44222  Biso   1.000  Hf
  Hf78     1.0000 0.99241  0.94180  0.18539  Biso   1.000  Hf
  Hf79     1.0000 0.96592  0.81637  0.44175  Biso   1.000  Hf
  Hf80     1.0000 0.77496  0.61698  0.24975  Biso   1.000  Hf
  Hf81     1.0000 0.77083  0.63354  0.49999  Biso   1.000  Hf
  Hf82     1.0000 0.73506  0.88452  0.49680  Biso   1.000  Hf
  Hf83     1.0000 0.74247  0.86792  0.24609  Biso   1.000  Hf
  Hf84     1.0000 0.63358  0.51778  0.62422  Biso   1.000  Hf
  Hf85     1.0000 0.63206  0.73668  0.87669  Biso   1.000  Hf
  Hf86     1.0000 0.86786  0.76769  0.62446  Biso   1.000  Hf
  Hf87     1.0000 0.86459  0.98618  0.87354  Biso   1.000  Hf
  Hf88     1.0000 0.53446  0.68372  0.69740  Biso   1.000  Hf
  Hf89     1.0000 0.53441  0.57006  0.94792  Biso   1.000  Hf
  Hf90     1.0000 0.96560  0.93492  0.69526  Biso   1.000  Hf
  Hf91     1.0000 0.95933  0.81742  0.93909  Biso   1.000  Hf
  Hf92     1.0000 0.76904  0.61893  0.74988  Biso   1.000  Hf
  Hf93     1.0000 0.77031  0.63680  0.00044  Biso   1.000  Hf
  Hf94     1.0000 0.72738  0.88622  0.99701  Biso   1.000  Hf
  Hf95     1.0000 0.72883  0.86722  0.74742  Biso   1.000  Hf
