data_image0
_cell_length_a       9.9976
_cell_length_b       10.1746
_cell_length_c       9.9976
_cell_angle_alpha    90.0001
_cell_angle_beta     90
_cell_angle_gamma    90

_symmetry_space_group_name_H-M    "P 1"
_symmetry_int_tables_number       1

loop_
  _symmetry_equiv_pos_as_xyz
  'x, y, z'

loop_
  _atom_site_label
  _atom_site_occupancy
  _atom_site_fract_x
  _atom_site_fract_y
  _atom_site_fract_z
  _atom_site_thermal_displace_type
  _atom_site_B_iso_or_equiv
  _atom_site_type_symbol
  Si1      1.0000 0.12491  0.00005  0.12491  Biso   1.000  Si
  Hf1      1.0000 0.12911  0.25245  0.37496  Biso   1.000  Hf
  Hf2      1.0000 0.37496  0.25245  0.12911  Biso   1.000  Hf
  Hf3      1.0000 0.37231  0.00348  0.37231  Biso   1.000  Hf
  Hf4      1.0000 0.97482  0.15862  0.97482  Biso   1.000  Hf
  Hf5      1.0000 0.02463  0.08819  0.22519  Biso   1.000  Hf
  Hf6      1.0000 0.00122  0.34644  0.24860  Biso   1.000  Hf
  Hf7      1.0000 0.99969  0.40241  0.99970  Biso   1.000  Hf
  Hf8      1.0000 0.27500  0.15862  0.27500  Biso   1.000  Hf
  Hf9      1.0000 0.22519  0.08819  0.02463  Biso   1.000  Hf
  Hf10     1.0000 0.24860  0.34644  0.00122  Biso   1.000  Hf
  Hf11     1.0000 0.25012  0.40241  0.25012  Biso   1.000  Hf
  Hf12     1.0000 0.12491  0.00005  0.62491  Biso   1.000  Hf
  Hf13     1.0000 0.12071  0.25246  0.87486  Biso   1.000  Hf
  Hf14     1.0000 0.37415  0.24741  0.62782  Biso   1.000  Hf
  Hf15     1.0000 0.37231  0.99663  0.87750  Biso   1.000  Hf
  Hf16     1.0000 0.99162  0.14494  0.48029  Biso   1.000  Hf
  Hf17     1.0000 0.00188  0.10599  0.73687  Biso   1.000  Hf
  Hf18     1.0000 0.99704  0.35527  0.74914  Biso   1.000  Hf
  Hf19     1.0000 0.00238  0.39506  0.49954  Biso   1.000  Hf
  Hf20     1.0000 0.25820  0.14493  0.76953  Biso   1.000  Hf
  Hf21     1.0000 0.24794  0.10599  0.51294  Biso   1.000  Hf
  Hf22     1.0000 0.25278  0.35527  0.50068  Biso   1.000  Hf
  Hf23     1.0000 0.24744  0.39506  0.75028  Biso   1.000  Hf
  Hf24     1.0000 0.12491  0.50005  0.12491  Biso   1.000  Hf
  Hf25     1.0000 0.12070  0.74765  0.37496  Biso   1.000  Hf
  Hf26     1.0000 0.37496  0.74765  0.12071  Biso   1.000  Hf
  Hf27     1.0000 0.37748  0.50119  0.37748  Biso   1.000  Hf
  Hf28     1.0000 0.00122  0.65366  0.00122  Biso   1.000  Hf
  Hf29     1.0000 0.99970  0.59770  0.25012  Biso   1.000  Hf
  Hf30     1.0000 0.97482  0.84148  0.27500  Biso   1.000  Hf
  Hf31     1.0000 0.02463  0.91191  0.02463  Biso   1.000  Hf
  Hf32     1.0000 0.24860  0.65366  0.24860  Biso   1.000  Hf
  Hf33     1.0000 0.25012  0.59770  0.99970  Biso   1.000  Hf
  Hf34     1.0000 0.27500  0.84148  0.97482  Biso   1.000  Hf
  Hf35     1.0000 0.22519  0.91191  0.22519  Biso   1.000  Hf
  Hf36     1.0000 0.12491  0.50005  0.62491  Biso   1.000  Hf
  Hf37     1.0000 0.12911  0.74765  0.87486  Biso   1.000  Hf
  Hf38     1.0000 0.37415  0.75270  0.62200  Biso   1.000  Hf
  Hf39     1.0000 0.37748  0.49891  0.87234  Biso   1.000  Hf
  Hf40     1.0000 0.99704  0.64484  0.50068  Biso   1.000  Hf
  Hf41     1.0000 0.00238  0.60505  0.75028  Biso   1.000  Hf
  Hf42     1.0000 0.99162  0.85517  0.76953  Biso   1.000  Hf
  Hf43     1.0000 0.00188  0.89412  0.51294  Biso   1.000  Hf
  Hf44     1.0000 0.25278  0.64484  0.74914  Biso   1.000  Hf
  Hf45     1.0000 0.24744  0.60505  0.49954  Biso   1.000  Hf
  Hf46     1.0000 0.25820  0.85517  0.48029  Biso   1.000  Hf
  Hf47     1.0000 0.24794  0.89412  0.73687  Biso   1.000  Hf
  Hf48     1.0000 0.62491  0.00005  0.12491  Biso   1.000  Hf
  Hf49     1.0000 0.62782  0.24741  0.37415  Biso   1.000  Hf
  Hf50     1.0000 0.87485  0.25245  0.12071  Biso   1.000  Hf
  Hf51     1.0000 0.87751  0.99662  0.37231  Biso   1.000  Hf
  Hf52     1.0000 0.48029  0.14493  0.99162  Biso   1.000  Hf
  Hf53     1.0000 0.51294  0.10599  0.24794  Biso   1.000  Hf
  Hf54     1.0000 0.50067  0.35527  0.25278  Biso   1.000  Hf
  Hf55     1.0000 0.49954  0.39506  0.00238  Biso   1.000  Hf
  Hf56     1.0000 0.76953  0.14493  0.25820  Biso   1.000  Hf
  Hf57     1.0000 0.73687  0.10599  0.00188  Biso   1.000  Hf
  Hf58     1.0000 0.74914  0.35527  0.99704  Biso   1.000  Hf
  Hf59     1.0000 0.75028  0.39506  0.24744  Biso   1.000  Hf
  Hf60     1.0000 0.62491  0.00005  0.62491  Biso   1.000  Hf
  Hf61     1.0000 0.62200  0.24741  0.87567  Biso   1.000  Hf
  Hf62     1.0000 0.87567  0.24741  0.62200  Biso   1.000  Hf
  Hf63     1.0000 0.87750  0.00348  0.87750  Biso   1.000  Hf
  Hf64     1.0000 0.49325  0.14641  0.49325  Biso   1.000  Hf
  Hf65     1.0000 0.50331  0.10366  0.74651  Biso   1.000  Hf
  Hf66     1.0000 0.49694  0.35400  0.75288  Biso   1.000  Hf
  Hf67     1.0000 0.50201  0.39514  0.50201  Biso   1.000  Hf
  Hf68     1.0000 0.75657  0.14641  0.75657  Biso   1.000  Hf
  Hf69     1.0000 0.74651  0.10366  0.50331  Biso   1.000  Hf
  Hf70     1.0000 0.75288  0.35400  0.49694  Biso   1.000  Hf
  Hf71     1.0000 0.74781  0.39514  0.74780  Biso   1.000  Hf
  Hf72     1.0000 0.62491  0.50005  0.12491  Biso   1.000  Hf
  Hf73     1.0000 0.62200  0.75270  0.37415  Biso   1.000  Hf
  Hf74     1.0000 0.87486  0.74766  0.12911  Biso   1.000  Hf
  Hf75     1.0000 0.87234  0.49891  0.37748  Biso   1.000  Hf
  Hf76     1.0000 0.50067  0.64484  0.99704  Biso   1.000  Hf
  Hf77     1.0000 0.49954  0.60505  0.24744  Biso   1.000  Hf
  Hf78     1.0000 0.48029  0.85517  0.25820  Biso   1.000  Hf
  Hf79     1.0000 0.51294  0.89412  0.00188  Biso   1.000  Hf
  Hf80     1.0000 0.74914  0.64484  0.25278  Biso   1.000  Hf
  Hf81     1.0000 0.75028  0.60505  0.00238  Biso   1.000  Hf
  Hf82     1.0000 0.76953  0.85517  0.99162  Biso   1.000  Hf
  Hf83     1.0000 0.73687  0.89412  0.24794  Biso   1.000  Hf
  Hf84     1.0000 0.62491  0.50005  0.62491  Biso   1.000  Hf
  Hf85     1.0000 0.62782  0.75270  0.87567  Biso   1.000  Hf
  Hf86     1.0000 0.87567  0.75270  0.62782  Biso   1.000  Hf
  Hf87     1.0000 0.87234  0.50120  0.87234  Biso   1.000  Hf
  Hf88     1.0000 0.49694  0.64611  0.49694  Biso   1.000  Hf
  Hf89     1.0000 0.50201  0.60497  0.74780  Biso   1.000  Hf
  Hf90     1.0000 0.49325  0.85370  0.75657  Biso   1.000  Hf
  Hf91     1.0000 0.50331  0.89645  0.50331  Biso   1.000  Hf
  Hf92     1.0000 0.75288  0.64611  0.75288  Biso   1.000  Hf
  Hf93     1.0000 0.74781  0.60497  0.50201  Biso   1.000  Hf
  Hf94     1.0000 0.75657  0.85370  0.49325  Biso   1.000  Hf
  Hf95     1.0000 0.74651  0.89645  0.74651  Biso   1.000  Hf
