data_image0
_cell_length_a       10.0865
_cell_length_b       10.0863
_cell_length_c       10.0867
_cell_angle_alpha    90.0003
_cell_angle_beta     89.999
_cell_angle_gamma    89.9982

_symmetry_space_group_name_H-M    "P 1"
_symmetry_int_tables_number       1

loop_
  _symmetry_equiv_pos_as_xyz
  'x, y, z'

loop_
  _atom_site_label
  _atom_site_occupancy
  _atom_site_fract_x
  _atom_site_fract_y
  _atom_site_fract_z
  _atom_site_thermal_displace_type
  _atom_site_B_iso_or_equiv
  _atom_site_type_symbol
  Si1      1.0000 0.12523  0.00010  0.12521  Biso   1.000  Si
  Zr1      1.0000 0.12522  0.00011  0.62521  Biso   1.000  Zr
  Zr2      1.0000 0.12522  0.50011  0.12522  Biso   1.000  Zr
  Zr3      1.0000 0.12522  0.50010  0.62522  Biso   1.000  Zr
  Zr4      1.0000 0.62523  0.00010  0.12521  Biso   1.000  Zr
  Zr5      1.0000 0.62522  0.00010  0.62522  Biso   1.000  Zr
  Zr6      1.0000 0.62522  0.50011  0.12522  Biso   1.000  Zr
  Zr7      1.0000 0.62522  0.50010  0.62522  Biso   1.000  Zr
  Zr8      1.0000 0.12902  0.25015  0.37527  Biso   1.000  Zr
  Zr9      1.0000 0.12143  0.25015  0.87516  Biso   1.000  Zr
  Zr10     1.0000 0.12143  0.75006  0.37527  Biso   1.000  Zr
  Zr11     1.0000 0.12901  0.75006  0.87517  Biso   1.000  Zr
  Zr12     1.0000 0.62710  0.25000  0.37512  Biso   1.000  Zr
  Zr13     1.0000 0.62336  0.25000  0.87532  Biso   1.000  Zr
  Zr14     1.0000 0.62335  0.75021  0.37512  Biso   1.000  Zr
  Zr15     1.0000 0.62709  0.75021  0.87532  Biso   1.000  Zr
  Zr16     1.0000 0.37528  0.25015  0.12902  Biso   1.000  Zr
  Zr17     1.0000 0.37513  0.25001  0.62709  Biso   1.000  Zr
  Zr18     1.0000 0.37527  0.75007  0.12143  Biso   1.000  Zr
  Zr19     1.0000 0.37512  0.75021  0.62336  Biso   1.000  Zr
  Zr20     1.0000 0.87518  0.25015  0.12143  Biso   1.000  Zr
  Zr21     1.0000 0.87532  0.25000  0.62336  Biso   1.000  Zr
  Zr22     1.0000 0.87517  0.75006  0.12901  Biso   1.000  Zr
  Zr23     1.0000 0.87532  0.75020  0.62709  Biso   1.000  Zr
  Zr24     1.0000 0.37527  0.00389  0.37527  Biso   1.000  Zr
  Zr25     1.0000 0.37526  0.99633  0.87518  Biso   1.000  Zr
  Zr26     1.0000 0.37511  0.50198  0.37511  Biso   1.000  Zr
  Zr27     1.0000 0.37512  0.49823  0.87533  Biso   1.000  Zr
  Zr28     1.0000 0.87517  0.99631  0.37527  Biso   1.000  Zr
  Zr29     1.0000 0.87518  0.00389  0.87518  Biso   1.000  Zr
  Zr30     1.0000 0.87533  0.49823  0.37511  Biso   1.000  Zr
  Zr31     1.0000 0.87533  0.50198  0.87533  Biso   1.000  Zr
  Zr32     1.0000 0.97268  0.15265  0.97266  Biso   1.000  Zr
  Zr33     1.0000 0.98907  0.13624  0.47807  Biso   1.000  Zr
  Zr34     1.0000 0.98905  0.64723  0.98903  Biso   1.000  Zr
  Zr35     1.0000 0.98919  0.63567  0.48960  Biso   1.000  Zr
  Zr36     1.0000 0.47810  0.13626  0.98904  Biso   1.000  Zr
  Zr37     1.0000 0.48964  0.13610  0.48961  Biso   1.000  Zr
  Zr38     1.0000 0.48962  0.63568  0.98917  Biso   1.000  Zr
  Zr39     1.0000 0.48952  0.63578  0.48949  Biso   1.000  Zr
  Zr40     1.0000 0.02929  0.09606  0.22113  Biso   1.000  Zr
  Zr41     1.0000 0.00772  0.11764  0.73306  Biso   1.000  Zr
  Zr42     1.0000 0.00771  0.60799  0.24270  Biso   1.000  Zr
  Zr43     1.0000 0.00861  0.61640  0.74145  Biso   1.000  Zr
  Zr44     1.0000 0.51736  0.11764  0.24270  Biso   1.000  Zr
  Zr45     1.0000 0.50896  0.11675  0.74146  Biso   1.000  Zr
  Zr46     1.0000 0.50896  0.61640  0.24180  Biso   1.000  Zr
  Zr47     1.0000 0.50862  0.61674  0.74179  Biso   1.000  Zr
  Zr48     1.0000 0.98905  0.35298  0.26141  Biso   1.000  Zr
  Zr49     1.0000 0.98920  0.36454  0.76084  Biso   1.000  Zr
  Zr50     1.0000 0.97268  0.84757  0.27777  Biso   1.000  Zr
  Zr51     1.0000 0.98907  0.86396  0.77236  Biso   1.000  Zr
  Zr52     1.0000 0.48963  0.36453  0.26128  Biso   1.000  Zr
  Zr53     1.0000 0.48953  0.36443  0.76095  Biso   1.000  Zr
  Zr54     1.0000 0.47809  0.86395  0.26141  Biso   1.000  Zr
  Zr55     1.0000 0.48964  0.86411  0.76084  Biso   1.000  Zr
  Zr56     1.0000 0.00772  0.39222  0.00774  Biso   1.000  Zr
  Zr57     1.0000 0.00861  0.38381  0.50898  Biso   1.000  Zr
  Zr58     1.0000 0.02928  0.90416  0.02928  Biso   1.000  Zr
  Zr59     1.0000 0.00771  0.88257  0.51737  Biso   1.000  Zr
  Zr60     1.0000 0.50896  0.38381  0.00864  Biso   1.000  Zr
  Zr61     1.0000 0.50863  0.38347  0.50866  Biso   1.000  Zr
  Zr62     1.0000 0.51735  0.88257  0.00774  Biso   1.000  Zr
  Zr63     1.0000 0.50895  0.88346  0.50899  Biso   1.000  Zr
  Zr64     1.0000 0.27777  0.15263  0.27777  Biso   1.000  Zr
  Zr65     1.0000 0.26139  0.13625  0.77236  Biso   1.000  Zr
  Zr66     1.0000 0.26140  0.64722  0.26141  Biso   1.000  Zr
  Zr67     1.0000 0.26125  0.63567  0.76084  Biso   1.000  Zr
  Zr68     1.0000 0.77236  0.13626  0.26141  Biso   1.000  Zr
  Zr69     1.0000 0.76081  0.13611  0.76084  Biso   1.000  Zr
  Zr70     1.0000 0.76082  0.63568  0.26127  Biso   1.000  Zr
  Zr71     1.0000 0.76092  0.63578  0.76095  Biso   1.000  Zr
  Zr72     1.0000 0.22118  0.09604  0.02928  Biso   1.000  Zr
  Zr73     1.0000 0.24273  0.11765  0.51737  Biso   1.000  Zr
  Zr74     1.0000 0.24273  0.60799  0.00774  Biso   1.000  Zr
  Zr75     1.0000 0.24183  0.61640  0.50899  Biso   1.000  Zr
  Zr76     1.0000 0.73310  0.11764  0.00775  Biso   1.000  Zr
  Zr77     1.0000 0.74149  0.11674  0.50899  Biso   1.000  Zr
  Zr78     1.0000 0.74149  0.61640  0.00864  Biso   1.000  Zr
  Zr79     1.0000 0.74182  0.61674  0.50866  Biso   1.000  Zr
  Zr80     1.0000 0.26141  0.35297  0.98902  Biso   1.000  Zr
  Zr81     1.0000 0.26125  0.36454  0.48960  Biso   1.000  Zr
  Zr82     1.0000 0.27778  0.84756  0.97265  Biso   1.000  Zr
  Zr83     1.0000 0.26138  0.86397  0.47807  Biso   1.000  Zr
  Zr84     1.0000 0.76083  0.36453  0.98916  Biso   1.000  Zr
  Zr85     1.0000 0.76093  0.36442  0.48949  Biso   1.000  Zr
  Zr86     1.0000 0.77235  0.86396  0.98904  Biso   1.000  Zr
  Zr87     1.0000 0.76081  0.86410  0.48961  Biso   1.000  Zr
  Zr88     1.0000 0.24273  0.39222  0.24270  Biso   1.000  Zr
  Zr89     1.0000 0.24184  0.38381  0.74145  Biso   1.000  Zr
  Zr90     1.0000 0.22117  0.90414  0.22113  Biso   1.000  Zr
  Zr91     1.0000 0.24273  0.88258  0.73306  Biso   1.000  Zr
  Zr92     1.0000 0.74149  0.38381  0.24179  Biso   1.000  Zr
  Zr93     1.0000 0.74183  0.38347  0.74178  Biso   1.000  Zr
  Zr94     1.0000 0.73309  0.88257  0.24271  Biso   1.000  Zr
  Zr95     1.0000 0.74149  0.88346  0.74146  Biso   1.000  Zr
