data_image0
_cell_length_a       5.00842
_cell_length_b       10.211
_cell_length_c       10.0167
_cell_angle_alpha    90
_cell_angle_beta     90
_cell_angle_gamma    90

_symmetry_space_group_name_H-M    "P 1"
_symmetry_int_tables_number       1

loop_
  _symmetry_equiv_pos_as_xyz
  'x, y, z'

loop_
  _atom_site_label
  _atom_site_occupancy
  _atom_site_fract_x
  _atom_site_fract_y
  _atom_site_fract_z
  _atom_site_thermal_displace_type
  _atom_site_B_iso_or_equiv
  _atom_site_type_symbol
  Sn1      1.0000 0.24982  0.00005  0.12491  Biso   1.000  Sn
  Hf1      1.0000 0.25321  0.25081  0.37497  Biso   1.000  Hf
  Hf2      1.0000 0.74982  0.25214  0.12491  Biso   1.000  Hf
  Hf3      1.0000 0.74982  0.00005  0.37538  Biso   1.000  Hf
  Hf4      1.0000 0.97201  0.15101  0.98787  Biso   1.000  Hf
  Hf5      1.0000 0.01533  0.10243  0.24482  Biso   1.000  Hf
  Hf6      1.0000 0.99937  0.35197  0.25159  Biso   1.000  Hf
  Hf7      1.0000 0.00011  0.39884  0.00119  Biso   1.000  Hf
  Hf8      1.0000 0.52762  0.15101  0.26195  Biso   1.000  Hf
  Hf9      1.0000 0.48430  0.10243  0.00499  Biso   1.000  Hf
  Hf10     1.0000 0.50027  0.35197  0.99823  Biso   1.000  Hf
  Hf11     1.0000 0.49952  0.39884  0.24862  Biso   1.000  Hf
  Hf12     1.0000 0.24982  0.00005  0.62491  Biso   1.000  Hf
  Hf13     1.0000 0.24643  0.25082  0.87484  Biso   1.000  Hf
  Hf14     1.0000 0.74982  0.24883  0.62491  Biso   1.000  Hf
  Hf15     1.0000 0.74982  0.00005  0.87444  Biso   1.000  Hf
  Hf16     1.0000 0.98829  0.14766  0.49142  Biso   1.000  Hf
  Hf17     1.0000 0.00375  0.10306  0.74378  Biso   1.000  Hf
  Hf18     1.0000 0.99480  0.35316  0.75121  Biso   1.000  Hf
  Hf19     1.0000 0.00320  0.39708  0.50093  Biso   1.000  Hf
  Hf20     1.0000 0.51134  0.14766  0.75840  Biso   1.000  Hf
  Hf21     1.0000 0.49589  0.10306  0.50604  Biso   1.000  Hf
  Hf22     1.0000 0.50483  0.35315  0.49860  Biso   1.000  Hf
  Hf23     1.0000 0.49644  0.39708  0.74888  Biso   1.000  Hf
  Hf24     1.0000 0.24982  0.50005  0.12491  Biso   1.000  Hf
  Hf25     1.0000 0.24643  0.74929  0.37497  Biso   1.000  Hf
  Hf26     1.0000 0.74982  0.74797  0.12491  Biso   1.000  Hf
  Hf27     1.0000 0.74982  0.50006  0.37617  Biso   1.000  Hf
  Hf28     1.0000 0.99937  0.64814  0.99823  Biso   1.000  Hf
  Hf29     1.0000 0.00011  0.60127  0.24862  Biso   1.000  Hf
  Hf30     1.0000 0.97201  0.84910  0.26195  Biso   1.000  Hf
  Hf31     1.0000 0.01533  0.89768  0.00499  Biso   1.000  Hf
  Hf32     1.0000 0.50027  0.64814  0.25158  Biso   1.000  Hf
  Hf33     1.0000 0.49952  0.60127  0.00120  Biso   1.000  Hf
  Hf34     1.0000 0.52762  0.84910  0.98787  Biso   1.000  Hf
  Hf35     1.0000 0.48430  0.89768  0.24482  Biso   1.000  Hf
  Hf36     1.0000 0.24982  0.50005  0.62491  Biso   1.000  Hf
  Hf37     1.0000 0.25321  0.74929  0.87484  Biso   1.000  Hf
  Hf38     1.0000 0.74982  0.75128  0.62491  Biso   1.000  Hf
  Hf39     1.0000 0.74982  0.50005  0.87365  Biso   1.000  Hf
  Hf40     1.0000 0.99480  0.64695  0.49860  Biso   1.000  Hf
  Hf41     1.0000 0.00320  0.60302  0.74888  Biso   1.000  Hf
  Hf42     1.0000 0.98829  0.85244  0.75840  Biso   1.000  Hf
  Hf43     1.0000 0.00375  0.89705  0.50604  Biso   1.000  Hf
  Hf44     1.0000 0.50483  0.64695  0.75121  Biso   1.000  Hf
  Hf45     1.0000 0.49644  0.60302  0.50094  Biso   1.000  Hf
  Hf46     1.0000 0.51134  0.85244  0.49142  Biso   1.000  Hf
  Hf47     1.0000 0.49588  0.89705  0.74378  Biso   1.000  Hf
