data_image0
_cell_length_a       9.95588
_cell_length_b       10.3678
_cell_length_c       9.99994
_cell_angle_alpha    90.0453
_cell_angle_beta     89.9037
_cell_angle_gamma    89.9942

_symmetry_space_group_name_H-M    "P 1"
_symmetry_int_tables_number       1

loop_
  _symmetry_equiv_pos_as_xyz
  'x, y, z'

loop_
  _atom_site_label
  _atom_site_occupancy
  _atom_site_fract_x
  _atom_site_fract_y
  _atom_site_fract_z
  _atom_site_thermal_displace_type
  _atom_site_B_iso_or_equiv
  _atom_site_type_symbol
  Sn1      1.0000 0.13135  0.01814  0.12124  Biso   1.000  Sn
  Hf1      1.0000 0.13451  0.23272  0.37635  Biso   1.000  Hf
  Hf2      1.0000 0.36634  0.26656  0.12614  Biso   1.000  Hf
  Hf3      1.0000 0.36624  0.48353  0.37627  Biso   1.000  Hf
  Hf4      1.0000 0.03587  0.18422  0.19446  Biso   1.000  Hf
  Hf5      1.0000 0.03671  0.06559  0.44547  Biso   1.000  Hf
  Hf6      1.0000 0.46386  0.43432  0.19413  Biso   1.000  Hf
  Hf7      1.0000 0.46381  0.31573  0.44417  Biso   1.000  Hf
  Hf8      1.0000 0.26975  0.11611  0.24931  Biso   1.000  Hf
  Hf9      1.0000 0.27132  0.13230  0.49970  Biso   1.000  Hf
  Hf10     1.0000 0.22945  0.38222  0.49993  Biso   1.000  Hf
  Hf11     1.0000 0.22996  0.36711  0.25013  Biso   1.000  Hf
  Hf12     1.0000 0.13399  0.01670  0.62700  Biso   1.000  Hf
  Hf13     1.0000 0.13388  0.23534  0.87500  Biso   1.000  Hf
  Hf14     1.0000 0.36631  0.26667  0.62588  Biso   1.000  Hf
  Hf15     1.0000 0.36599  0.48413  0.87599  Biso   1.000  Hf
  Hf16     1.0000 0.03682  0.18536  0.69364  Biso   1.000  Hf
  Hf17     1.0000 0.03522  0.06630  0.93999  Biso   1.000  Hf
  Hf18     1.0000 0.46370  0.43457  0.69423  Biso   1.000  Hf
  Hf19     1.0000 0.46293  0.31529  0.94371  Biso   1.000  Hf
  Hf20     1.0000 0.27121  0.11845  0.74972  Biso   1.000  Hf
  Hf21     1.0000 0.26988  0.13262  0.99934  Biso   1.000  Hf
  Hf22     1.0000 0.22946  0.38277  0.99968  Biso   1.000  Hf
  Hf23     1.0000 0.22951  0.36846  0.74953  Biso   1.000  Hf
  Hf24     1.0000 0.13429  0.51622  0.12642  Biso   1.000  Hf
  Hf25     1.0000 0.13438  0.73393  0.37620  Biso   1.000  Hf
  Hf26     1.0000 0.36645  0.76590  0.12718  Biso   1.000  Hf
  Hf27     1.0000 0.36561  0.98302  0.37627  Biso   1.000  Hf
  Hf28     1.0000 0.03675  0.68381  0.19429  Biso   1.000  Hf
  Hf29     1.0000 0.03652  0.56531  0.44434  Biso   1.000  Hf
  Hf30     1.0000 0.46524  0.93356  0.19489  Biso   1.000  Hf
  Hf31     1.0000 0.46415  0.81560  0.44508  Biso   1.000  Hf
  Hf32     1.0000 0.27095  0.61650  0.25003  Biso   1.000  Hf
  Hf33     1.0000 0.27082  0.63252  0.50011  Biso   1.000  Hf
  Hf34     1.0000 0.22941  0.88242  0.50143  Biso   1.000  Hf
  Hf35     1.0000 0.23225  0.86498  0.25207  Biso   1.000  Hf
  Hf36     1.0000 0.13400  0.51678  0.62584  Biso   1.000  Hf
  Hf37     1.0000 0.13340  0.73360  0.87660  Biso   1.000  Hf
  Hf38     1.0000 0.36578  0.76665  0.62666  Biso   1.000  Hf
  Hf39     1.0000 0.36647  0.98435  0.87611  Biso   1.000  Hf
  Hf40     1.0000 0.03626  0.68454  0.69470  Biso   1.000  Hf
  Hf41     1.0000 0.03597  0.56575  0.94467  Biso   1.000  Hf
  Hf42     1.0000 0.46338  0.93471  0.69421  Biso   1.000  Hf
  Hf43     1.0000 0.46149  0.81559  0.94357  Biso   1.000  Hf
  Hf44     1.0000 0.27030  0.61793  0.75016  Biso   1.000  Hf
  Hf45     1.0000 0.27024  0.63296  0.00010  Biso   1.000  Hf
  Hf46     1.0000 0.22843  0.88349  0.00276  Biso   1.000  Hf
  Hf47     1.0000 0.22934  0.86801  0.75162  Biso   1.000  Hf
  Hf48     1.0000 0.63431  0.01627  0.12645  Biso   1.000  Hf
  Hf49     1.0000 0.63417  0.23337  0.37607  Biso   1.000  Hf
  Hf50     1.0000 0.86543  0.26638  0.12566  Biso   1.000  Hf
  Hf51     1.0000 0.86642  0.48342  0.37601  Biso   1.000  Hf
  Hf52     1.0000 0.53625  0.18437  0.19428  Biso   1.000  Hf
  Hf53     1.0000 0.53667  0.06561  0.44393  Biso   1.000  Hf
  Hf54     1.0000 0.96408  0.43340  0.19431  Biso   1.000  Hf
  Hf55     1.0000 0.96359  0.31528  0.44367  Biso   1.000  Hf
  Hf56     1.0000 0.77030  0.11761  0.25004  Biso   1.000  Hf
  Hf57     1.0000 0.77090  0.13237  0.49972  Biso   1.000  Hf
  Hf58     1.0000 0.72956  0.38235  0.49983  Biso   1.000  Hf
  Hf59     1.0000 0.72937  0.36762  0.24979  Biso   1.000  Hf
  Hf60     1.0000 0.63375  0.01647  0.62542  Biso   1.000  Hf
  Hf61     1.0000 0.63401  0.23366  0.87584  Biso   1.000  Hf
  Hf62     1.0000 0.86603  0.26657  0.62566  Biso   1.000  Hf
  Hf63     1.0000 0.86572  0.48385  0.87581  Biso   1.000  Hf
  Hf64     1.0000 0.53662  0.18460  0.69401  Biso   1.000  Hf
  Hf65     1.0000 0.53669  0.06568  0.94426  Biso   1.000  Hf
  Hf66     1.0000 0.96352  0.43460  0.69403  Biso   1.000  Hf
  Hf67     1.0000 0.96329  0.31608  0.94390  Biso   1.000  Hf
  Hf68     1.0000 0.77037  0.11777  0.74947  Biso   1.000  Hf
  Hf69     1.0000 0.77062  0.13216  0.99972  Biso   1.000  Hf
  Hf70     1.0000 0.72903  0.38222  0.99975  Biso   1.000  Hf
  Hf71     1.0000 0.72933  0.36783  0.74978  Biso   1.000  Hf
  Hf72     1.0000 0.63437  0.51645  0.12649  Biso   1.000  Hf
  Hf73     1.0000 0.63460  0.73394  0.37595  Biso   1.000  Hf
  Hf74     1.0000 0.86701  0.76570  0.12524  Biso   1.000  Hf
  Hf75     1.0000 0.86710  0.98415  0.37625  Biso   1.000  Hf
  Hf76     1.0000 0.53734  0.68441  0.19465  Biso   1.000  Hf
  Hf77     1.0000 0.53683  0.56578  0.44401  Biso   1.000  Hf
  Hf78     1.0000 0.96466  0.93361  0.19361  Biso   1.000  Hf
  Hf79     1.0000 0.96391  0.81568  0.44449  Biso   1.000  Hf
  Hf80     1.0000 0.77130  0.61731  0.24978  Biso   1.000  Hf
  Hf81     1.0000 0.77068  0.63251  0.49979  Biso   1.000  Hf
  Hf82     1.0000 0.72986  0.88265  0.49951  Biso   1.000  Hf
  Hf83     1.0000 0.73208  0.86764  0.24964  Biso   1.000  Hf
  Hf84     1.0000 0.63404  0.51667  0.62582  Biso   1.000  Hf
  Hf85     1.0000 0.63322  0.73350  0.87620  Biso   1.000  Hf
  Hf86     1.0000 0.86607  0.76649  0.62580  Biso   1.000  Hf
  Hf87     1.0000 0.86437  0.98310  0.87522  Biso   1.000  Hf
  Hf88     1.0000 0.53600  0.68425  0.69459  Biso   1.000  Hf
  Hf89     1.0000 0.53606  0.56579  0.94481  Biso   1.000  Hf
  Hf90     1.0000 0.96306  0.93449  0.69365  Biso   1.000  Hf
  Hf91     1.0000 0.96281  0.81582  0.94361  Biso   1.000  Hf
  Hf92     1.0000 0.77020  0.61789  0.74990  Biso   1.000  Hf
  Hf93     1.0000 0.77031  0.63214  0.99967  Biso   1.000  Hf
  Hf94     1.0000 0.72819  0.88173  0.99970  Biso   1.000  Hf
  Hf95     1.0000 0.72862  0.86752  0.74945  Biso   1.000  Hf
