data_image0
_cell_length_a       10.0732
_cell_length_b       10.2176
_cell_length_c       5.03649
_cell_angle_alpha    89.9984
_cell_angle_beta     90.0019
_cell_angle_gamma    89.9981

_symmetry_space_group_name_H-M    "P 1"
_symmetry_int_tables_number       1

loop_
  _symmetry_equiv_pos_as_xyz
  'x, y, z'

loop_
  _atom_site_label
  _atom_site_occupancy
  _atom_site_fract_x
  _atom_site_fract_y
  _atom_site_fract_z
  _atom_site_thermal_displace_type
  _atom_site_B_iso_or_equiv
  _atom_site_type_symbol
  Sn1      1.0000 0.12491  0.99998  0.25013  Biso   1.000  Sn
  Zr1      1.0000 0.12493  0.49993  0.25014  Biso   1.000  Zr
  Zr2      1.0000 0.62492  0.99994  0.25014  Biso   1.000  Zr
  Zr3      1.0000 0.62492  0.49995  0.25014  Biso   1.000  Zr
  Zr4      1.0000 0.12493  0.25167  0.75016  Biso   1.000  Zr
  Zr5      1.0000 0.12493  0.74820  0.75014  Biso   1.000  Zr
  Zr6      1.0000 0.62493  0.24925  0.75016  Biso   1.000  Zr
  Zr7      1.0000 0.62493  0.75063  0.75015  Biso   1.000  Zr
  Zr8      1.0000 0.37504  0.25064  0.25358  Biso   1.000  Zr
  Zr9      1.0000 0.37502  0.74924  0.24672  Biso   1.000  Zr
  Zr10     1.0000 0.87482  0.25064  0.24674  Biso   1.000  Zr
  Zr11     1.0000 0.87484  0.74923  0.25358  Biso   1.000  Zr
  Zr12     1.0000 0.37568  0.99993  0.75011  Biso   1.000  Zr
  Zr13     1.0000 0.37588  0.49994  0.75014  Biso   1.000  Zr
  Zr14     1.0000 0.87417  0.99993  0.75016  Biso   1.000  Zr
  Zr15     1.0000 0.87398  0.49994  0.75014  Biso   1.000  Zr
  Zr16     1.0000 0.98701  0.14915  0.97068  Biso   1.000  Zr
  Zr17     1.0000 0.99606  0.64617  0.99516  Biso   1.000  Zr
  Zr18     1.0000 0.49041  0.14536  0.98692  Biso   1.000  Zr
  Zr19     1.0000 0.49681  0.64461  0.99260  Biso   1.000  Zr
  Zr20     1.0000 0.00662  0.10392  0.48215  Biso   1.000  Zr
  Zr21     1.0000 0.00230  0.60326  0.49717  Biso   1.000  Zr
  Zr22     1.0000 0.50690  0.10548  0.49463  Biso   1.000  Zr
  Zr23     1.0000 0.50240  0.60520  0.49580  Biso   1.000  Zr
  Zr24     1.0000 0.99607  0.35369  0.50512  Biso   1.000  Zr
  Zr25     1.0000 0.98696  0.85070  0.52974  Biso   1.000  Zr
  Zr26     1.0000 0.49682  0.35527  0.50770  Biso   1.000  Zr
  Zr27     1.0000 0.49039  0.85452  0.51333  Biso   1.000  Zr
  Zr28     1.0000 0.00229  0.39661  0.00311  Biso   1.000  Zr
  Zr29     1.0000 0.00664  0.89594  0.01825  Biso   1.000  Zr
  Zr30     1.0000 0.50239  0.39468  0.00451  Biso   1.000  Zr
  Zr31     1.0000 0.50692  0.89440  0.00562  Biso   1.000  Zr
  Zr32     1.0000 0.26286  0.14916  0.52968  Biso   1.000  Zr
  Zr33     1.0000 0.25379  0.64618  0.50510  Biso   1.000  Zr
  Zr34     1.0000 0.75946  0.14536  0.51338  Biso   1.000  Zr
  Zr35     1.0000 0.75305  0.64461  0.50771  Biso   1.000  Zr
  Zr36     1.0000 0.24326  0.10391  0.01820  Biso   1.000  Zr
  Zr37     1.0000 0.24755  0.60325  0.00309  Biso   1.000  Zr
  Zr38     1.0000 0.74297  0.10547  0.00569  Biso   1.000  Zr
  Zr39     1.0000 0.74746  0.60519  0.00452  Biso   1.000  Zr
  Zr40     1.0000 0.25379  0.35369  0.99519  Biso   1.000  Zr
  Zr41     1.0000 0.26290  0.85069  0.97051  Biso   1.000  Zr
  Zr42     1.0000 0.75304  0.35527  0.99258  Biso   1.000  Zr
  Zr43     1.0000 0.75947  0.85452  0.98696  Biso   1.000  Zr
  Zr44     1.0000 0.24757  0.39661  0.49720  Biso   1.000  Zr
  Zr45     1.0000 0.24322  0.89595  0.48201  Biso   1.000  Zr
  Zr46     1.0000 0.74748  0.39468  0.49575  Biso   1.000  Zr
  Zr47     1.0000 0.74294  0.89441  0.49468  Biso   1.000  Zr
