data_image0
_cell_length_a       10.4253
_cell_length_b       5.23047
_cell_length_c       10.3025
_cell_angle_alpha    95.3021
_cell_angle_beta     86.3622
_cell_angle_gamma    95.9162

_symmetry_space_group_name_H-M    "P 1"
_symmetry_int_tables_number       1

loop_
  _symmetry_equiv_pos_as_xyz
  'x, y, z'

loop_
  _atom_site_label
  _atom_site_occupancy
  _atom_site_fract_x
  _atom_site_fract_y
  _atom_site_fract_z
  _atom_site_thermal_displace_type
  _atom_site_B_iso_or_equiv
  _atom_site_type_symbol
  Zr1      1.0000 0.13367  0.08477  0.09146  Biso   1.000  Zr
  Zr2      1.0000 0.10149  0.46582  0.40707  Biso   1.000  Zr
  Zr3      1.0000 0.41169  0.39245  0.14032  Biso   1.000  Zr
  Zr4      1.0000 0.36287  0.97183  0.38049  Biso   1.000  Zr
  Zr5      1.0000 0.02777  0.37596  0.02956  Biso   1.000  Zr
  Zr6      1.0000 0.03843  0.13088  0.28150  Biso   1.000  Zr
  Zr7      1.0000 0.95358  0.59138  0.29489  Biso   1.000  Zr
  Zr8      1.0000 0.98544  0.83128  0.99230  Biso   1.000  Zr
  Zr9      1.0000 0.32079  0.59639  0.30934  Biso   1.000  Zr
  Zr10     1.0000 0.29345  0.24070  0.97720  Biso   1.000  Zr
  Zr11     1.0000 0.23123  0.74669  0.98625  Biso   1.000  Zr
  Zr12     1.0000 0.29206  0.08084  0.20972  Biso   1.000  Zr
  Zr13     1.0000 0.12244  0.00876  0.64096  Biso   1.000  Zr
  Zr14     1.0000 0.10389  0.54163  0.85293  Biso   1.000  Zr
  Zr15     1.0000 0.35634  0.51765  0.59833  Biso   1.000  Zr
  Zr16     1.0000 0.38987  0.94264  0.89040  Biso   1.000  Zr
  Zr17     1.0000 0.98142  0.25477  0.53074  Biso   1.000  Zr
  Zr18     1.0000 0.00303  0.18417  0.78598  Biso   1.000  Zr
  Zr19     1.0000 0.97688  0.68054  0.74420  Biso   1.000  Zr
  Zr20     1.0000 0.99389  0.76340  0.51371  Biso   1.000  Zr
  Zr21     1.0000 0.22587  0.34809  0.72379  Biso   1.000  Zr
  Zr22     1.0000 0.23019  0.20904  0.48278  Biso   1.000  Zr
  Zr23     1.0000 0.23110  0.73297  0.52055  Biso   1.000  Zr
  Zr24     1.0000 0.23411  0.84518  0.76103  Biso   1.000  Zr
  Zr25     1.0000 0.64354  0.97324  0.12638  Biso   1.000  Zr
  Zr26     1.0000 0.61278  0.46384  0.37479  Biso   1.000  Zr
  Zr27     1.0000 0.85639  0.52352  0.11419  Biso   1.000  Zr
  Zr28     1.0000 0.89215  0.94650  0.38400  Biso   1.000  Zr
  Zr29     1.0000 0.53689  0.20414  0.00050  Biso   1.000  Zr
  Zr30     1.0000 0.51056  0.15340  0.26022  Biso   1.000  Zr
  Zr31     1.0000 0.55473  0.65256  0.22752  Biso   1.000  Zr
  Zr32     1.0000 0.48573  0.70436  0.99731  Biso   1.000  Zr
  Zr33     1.0000 0.73557  0.31553  0.23452  Biso   1.000  Zr
  Zr34     1.0000 0.78387  0.18426  0.00541  Biso   1.000  Zr
  Zr35     1.0000 0.73486  0.67675  0.98582  Biso   1.000  Zr
  Zr36     1.0000 0.78879  0.84825  0.22345  Biso   1.000  Zr
  Zr37     1.0000 0.62191  0.97641  0.62542  Biso   1.000  Zr
  Zr38     1.0000 0.59739  0.47952  0.85752  Biso   1.000  Zr
  Zr39     1.0000 0.84204  0.49169  0.60897  Biso   1.000  Zr
  Zr40     1.0000 0.86116  0.95365  0.86883  Biso   1.000  Zr
  Zr41     1.0000 0.47872  0.27650  0.50116  Biso   1.000  Zr
  Zr42     1.0000 0.49602  0.16672  0.75271  Biso   1.000  Zr
  Zr43     1.0000 0.48303  0.67090  0.74182  Biso   1.000  Zr
  Zr44     1.0000 0.49508  0.78069  0.49212  Biso   1.000  Zr
  Zr45     1.0000 0.74217  0.26711  0.74444  Biso   1.000  Zr
  Zr46     1.0000 0.73483  0.19105  0.48950  Biso   1.000  Zr
  Zr47     1.0000 0.74129  0.69645  0.49382  Biso   1.000  Zr
  Zr48     1.0000 0.72704  0.75981  0.74005  Biso   1.000  Zr
  Sn1      1.0000 0.16399  0.61995  0.16319  Biso   1.000  Sn
