data_image0
_cell_length_a       10.0305
_cell_length_b       10.4289
_cell_length_c       10.0643
_cell_angle_alpha    90.0535
_cell_angle_beta     89.8788
_cell_angle_gamma    89.9969

_symmetry_space_group_name_H-M    "P 1"
_symmetry_int_tables_number       1

loop_
  _symmetry_equiv_pos_as_xyz
  'x, y, z'

loop_
  _atom_site_label
  _atom_site_occupancy
  _atom_site_fract_x
  _atom_site_fract_y
  _atom_site_fract_z
  _atom_site_thermal_displace_type
  _atom_site_B_iso_or_equiv
  _atom_site_type_symbol
  Sn1      1.0000 0.13133  0.01838  0.12051  Biso   1.000  Sn
  Zr1      1.0000 0.13381  0.01597  0.62671  Biso   1.000  Zr
  Zr2      1.0000 0.13411  0.51539  0.12611  Biso   1.000  Zr
  Zr3      1.0000 0.13375  0.51614  0.62544  Biso   1.000  Zr
  Zr4      1.0000 0.63408  0.01554  0.12614  Biso   1.000  Zr
  Zr5      1.0000 0.63350  0.01561  0.62490  Biso   1.000  Zr
  Zr6      1.0000 0.63427  0.51585  0.12619  Biso   1.000  Zr
  Zr7      1.0000 0.63380  0.51602  0.62537  Biso   1.000  Zr
  Zr8      1.0000 0.13419  0.23333  0.37584  Biso   1.000  Zr
  Zr9      1.0000 0.13355  0.23621  0.87467  Biso   1.000  Zr
  Zr10     1.0000 0.13430  0.73483  0.37570  Biso   1.000  Zr
  Zr11     1.0000 0.13305  0.73444  0.87645  Biso   1.000  Zr
  Zr12     1.0000 0.63407  0.23405  0.37581  Biso   1.000  Zr
  Zr13     1.0000 0.63372  0.23441  0.87538  Biso   1.000  Zr
  Zr14     1.0000 0.63451  0.73484  0.37542  Biso   1.000  Zr
  Zr15     1.0000 0.63286  0.73433  0.87590  Biso   1.000  Zr
  Zr16     1.0000 0.36666  0.26586  0.12560  Biso   1.000  Zr
  Zr17     1.0000 0.36648  0.26599  0.62547  Biso   1.000  Zr
  Zr18     1.0000 0.36640  0.76515  0.12698  Biso   1.000  Zr
  Zr19     1.0000 0.36589  0.76598  0.62643  Biso   1.000  Zr
  Zr20     1.0000 0.86558  0.26554  0.12521  Biso   1.000  Zr
  Zr21     1.0000 0.86610  0.26577  0.62528  Biso   1.000  Zr
  Zr22     1.0000 0.86769  0.76512  0.12464  Biso   1.000  Zr
  Zr23     1.0000 0.86623  0.76581  0.62543  Biso   1.000  Zr
  Zr24     1.0000 0.36648  0.48426  0.37593  Biso   1.000  Zr
  Zr25     1.0000 0.36609  0.48506  0.87557  Biso   1.000  Zr
  Zr26     1.0000 0.36567  0.98370  0.37589  Biso   1.000  Zr
  Zr27     1.0000 0.36636  0.98517  0.87597  Biso   1.000  Zr
  Zr28     1.0000 0.86663  0.48421  0.37561  Biso   1.000  Zr
  Zr29     1.0000 0.86577  0.48471  0.87538  Biso   1.000  Zr
  Zr30     1.0000 0.86770  0.98485  0.37544  Biso   1.000  Zr
  Zr31     1.0000 0.86455  0.98396  0.87487  Biso   1.000  Zr
  Zr32     1.0000 0.03509  0.18307  0.19428  Biso   1.000  Zr
  Zr33     1.0000 0.03573  0.18457  0.69448  Biso   1.000  Zr
  Zr34     1.0000 0.03593  0.68288  0.19458  Biso   1.000  Zr
  Zr35     1.0000 0.03534  0.68398  0.69506  Biso   1.000  Zr
  Zr36     1.0000 0.53512  0.18370  0.19486  Biso   1.000  Zr
  Zr37     1.0000 0.53578  0.18408  0.69421  Biso   1.000  Zr
  Zr38     1.0000 0.53658  0.68391  0.19496  Biso   1.000  Zr
  Zr39     1.0000 0.53504  0.68371  0.69502  Biso   1.000  Zr
  Zr40     1.0000 0.03586  0.06619  0.44600  Biso   1.000  Zr
  Zr41     1.0000 0.03427  0.06643  0.94188  Biso   1.000  Zr
  Zr42     1.0000 0.03570  0.56583  0.44465  Biso   1.000  Zr
  Zr43     1.0000 0.03500  0.56625  0.94513  Biso   1.000  Zr
  Zr44     1.0000 0.53583  0.06617  0.44418  Biso   1.000  Zr
  Zr45     1.0000 0.53551  0.06636  0.94473  Biso   1.000  Zr
  Zr46     1.0000 0.53609  0.56640  0.44423  Biso   1.000  Zr
  Zr47     1.0000 0.53512  0.56645  0.94513  Biso   1.000  Zr
  Zr48     1.0000 0.46465  0.43379  0.19430  Biso   1.000  Zr
  Zr49     1.0000 0.46437  0.43409  0.69445  Biso   1.000  Zr
  Zr50     1.0000 0.46631  0.93276  0.19539  Biso   1.000  Zr
  Zr51     1.0000 0.46401  0.93426  0.69462  Biso   1.000  Zr
  Zr52     1.0000 0.96502  0.43249  0.19473  Biso   1.000  Zr
  Zr53     1.0000 0.96426  0.43397  0.69427  Biso   1.000  Zr
  Zr54     1.0000 0.96698  0.93284  0.19345  Biso   1.000  Zr
  Zr55     1.0000 0.96385  0.93401  0.69400  Biso   1.000  Zr
  Zr56     1.0000 0.46468  0.31638  0.44452  Biso   1.000  Zr
  Zr57     1.0000 0.46356  0.31587  0.94388  Biso   1.000  Zr
  Zr58     1.0000 0.46501  0.81619  0.44549  Biso   1.000  Zr
  Zr59     1.0000 0.46153  0.81616  0.94374  Biso   1.000  Zr
  Zr60     1.0000 0.96435  0.31568  0.44391  Biso   1.000  Zr
  Zr61     1.0000 0.96391  0.31656  0.94407  Biso   1.000  Zr
  Zr62     1.0000 0.96478  0.81625  0.44481  Biso   1.000  Zr
  Zr63     1.0000 0.96291  0.81599  0.94322  Biso   1.000  Zr
  Zr64     1.0000 0.26779  0.11427  0.24788  Biso   1.000  Zr
  Zr65     1.0000 0.27005  0.11777  0.74894  Biso   1.000  Zr
  Zr66     1.0000 0.26989  0.61560  0.24930  Biso   1.000  Zr
  Zr67     1.0000 0.26909  0.61731  0.74946  Biso   1.000  Zr
  Zr68     1.0000 0.76924  0.11688  0.24916  Biso   1.000  Zr
  Zr69     1.0000 0.76915  0.11698  0.74865  Biso   1.000  Zr
  Zr70     1.0000 0.77038  0.61662  0.24897  Biso   1.000  Zr
  Zr71     1.0000 0.76896  0.61722  0.74913  Biso   1.000  Zr
  Zr72     1.0000 0.27031  0.13312  0.49862  Biso   1.000  Zr
  Zr73     1.0000 0.26831  0.13338  0.99869  Biso   1.000  Zr
  Zr74     1.0000 0.26977  0.63331  0.49936  Biso   1.000  Zr
  Zr75     1.0000 0.26902  0.63379  0.99939  Biso   1.000  Zr
  Zr76     1.0000 0.76992  0.13303  0.49884  Biso   1.000  Zr
  Zr77     1.0000 0.76929  0.13298  0.99888  Biso   1.000  Zr
  Zr78     1.0000 0.76955  0.63335  0.49900  Biso   1.000  Zr
  Zr79     1.0000 0.76909  0.63298  0.99888  Biso   1.000  Zr
  Zr80     1.0000 0.23043  0.38293  0.49910  Biso   1.000  Zr
  Zr81     1.0000 0.23043  0.38356  0.99881  Biso   1.000  Zr
  Zr82     1.0000 0.23051  0.88319  0.50083  Biso   1.000  Zr
  Zr83     1.0000 0.22831  0.88477  0.00293  Biso   1.000  Zr
  Zr84     1.0000 0.73066  0.38309  0.49906  Biso   1.000  Zr
  Zr85     1.0000 0.73001  0.38301  0.99893  Biso   1.000  Zr
  Zr86     1.0000 0.73110  0.88350  0.49847  Biso   1.000  Zr
  Zr87     1.0000 0.72901  0.88263  0.99874  Biso   1.000  Zr
  Zr88     1.0000 0.23121  0.36603  0.24932  Biso   1.000  Zr
  Zr89     1.0000 0.23045  0.36775  0.74875  Biso   1.000  Zr
  Zr90     1.0000 0.23319  0.86416  0.25134  Biso   1.000  Zr
  Zr91     1.0000 0.23025  0.86736  0.75115  Biso   1.000  Zr
  Zr92     1.0000 0.73039  0.36685  0.24897  Biso   1.000  Zr
  Zr93     1.0000 0.73028  0.36711  0.74894  Biso   1.000  Zr
  Zr94     1.0000 0.73369  0.86700  0.24864  Biso   1.000  Zr
  Zr95     1.0000 0.72950  0.86680  0.74853  Biso   1.000  Zr
