data_image0
_cell_length_a       10.0757
_cell_length_b       5.10008
_cell_length_c       10.0757
_cell_angle_alpha    90.0009
_cell_angle_beta     90.0034
_cell_angle_gamma    90.0017

_symmetry_space_group_name_H-M    "P 1"
_symmetry_int_tables_number       1

loop_
  _symmetry_equiv_pos_as_xyz
  'x, y, z'

loop_
  _atom_site_label
  _atom_site_occupancy
  _atom_site_fract_x
  _atom_site_fract_y
  _atom_site_fract_z
  _atom_site_thermal_displace_type
  _atom_site_B_iso_or_equiv
  _atom_site_type_symbol
  Sn1      1.0000 0.12507  0.00059  0.12507  Biso   1.000  Sn
  Zr1      1.0000 0.12507  0.00055  0.62506  Biso   1.000  Zr
  Zr2      1.0000 0.62506  0.00055  0.12506  Biso   1.000  Zr
  Zr3      1.0000 0.62507  0.00053  0.62507  Biso   1.000  Zr
  Zr4      1.0000 0.12506  0.50051  0.37580  Biso   1.000  Zr
  Zr5      1.0000 0.12507  0.50052  0.87432  Biso   1.000  Zr
  Zr6      1.0000 0.62506  0.50052  0.37466  Biso   1.000  Zr
  Zr7      1.0000 0.62507  0.50052  0.87546  Biso   1.000  Zr
  Zr8      1.0000 0.37580  0.50050  0.12505  Biso   1.000  Zr
  Zr9      1.0000 0.37467  0.50052  0.62506  Biso   1.000  Zr
  Zr10     1.0000 0.87433  0.50052  0.12507  Biso   1.000  Zr
  Zr11     1.0000 0.87547  0.50052  0.62507  Biso   1.000  Zr
  Zr12     1.0000 0.37581  0.00441  0.37580  Biso   1.000  Zr
  Zr13     1.0000 0.37582  0.99660  0.87431  Biso   1.000  Zr
  Zr14     1.0000 0.87431  0.99660  0.37581  Biso   1.000  Zr
  Zr15     1.0000 0.87433  0.00442  0.87433  Biso   1.000  Zr
  Zr16     1.0000 0.98822  0.30021  0.98821  Biso   1.000  Zr
  Zr17     1.0000 0.99294  0.28812  0.49150  Biso   1.000  Zr
  Zr18     1.0000 0.49150  0.28812  0.99294  Biso   1.000  Zr
  Zr19     1.0000 0.49392  0.28975  0.49391  Biso   1.000  Zr
  Zr20     1.0000 0.00685  0.20604  0.24327  Biso   1.000  Zr
  Zr21     1.0000 0.00332  0.21397  0.74355  Biso   1.000  Zr
  Zr22     1.0000 0.50656  0.21396  0.24679  Biso   1.000  Zr
  Zr23     1.0000 0.50405  0.21271  0.74606  Biso   1.000  Zr
  Zr24     1.0000 0.98817  0.70081  0.26195  Biso   1.000  Zr
  Zr25     1.0000 0.99295  0.71293  0.75865  Biso   1.000  Zr
  Zr26     1.0000 0.49148  0.71292  0.25718  Biso   1.000  Zr
  Zr27     1.0000 0.49393  0.71128  0.75619  Biso   1.000  Zr
  Zr28     1.0000 0.00688  0.79498  0.00688  Biso   1.000  Zr
  Zr29     1.0000 0.00332  0.78707  0.50659  Biso   1.000  Zr
  Zr30     1.0000 0.50660  0.78707  0.00332  Biso   1.000  Zr
  Zr31     1.0000 0.50405  0.78832  0.50405  Biso   1.000  Zr
  Zr32     1.0000 0.26190  0.30017  0.26190  Biso   1.000  Zr
  Zr33     1.0000 0.25718  0.28811  0.75862  Biso   1.000  Zr
  Zr34     1.0000 0.75862  0.28811  0.25717  Biso   1.000  Zr
  Zr35     1.0000 0.75620  0.28976  0.75620  Biso   1.000  Zr
  Zr36     1.0000 0.24327  0.20603  0.00684  Biso   1.000  Zr
  Zr37     1.0000 0.24680  0.21396  0.50656  Biso   1.000  Zr
  Zr38     1.0000 0.74355  0.21397  0.00332  Biso   1.000  Zr
  Zr39     1.0000 0.74607  0.21271  0.50405  Biso   1.000  Zr
  Zr40     1.0000 0.26196  0.70080  0.98816  Biso   1.000  Zr
  Zr41     1.0000 0.25718  0.71292  0.49147  Biso   1.000  Zr
  Zr42     1.0000 0.75865  0.71293  0.99294  Biso   1.000  Zr
  Zr43     1.0000 0.75620  0.71128  0.49393  Biso   1.000  Zr
  Zr44     1.0000 0.24325  0.79494  0.24324  Biso   1.000  Zr
  Zr45     1.0000 0.24681  0.78706  0.74353  Biso   1.000  Zr
  Zr46     1.0000 0.74353  0.78706  0.24680  Biso   1.000  Zr
  Zr47     1.0000 0.74608  0.78833  0.74607  Biso   1.000  Zr
