data_image0
_cell_length_a       9.93679
_cell_length_b       5.17707
_cell_length_c       9.99041
_cell_angle_alpha    89.9536
_cell_angle_beta     89.9247
_cell_angle_gamma    89.9891

_symmetry_space_group_name_H-M    "P 1"
_symmetry_int_tables_number       1

loop_
  _symmetry_equiv_pos_as_xyz
  'x, y, z'

loop_
  _atom_site_label
  _atom_site_occupancy
  _atom_site_fract_x
  _atom_site_fract_y
  _atom_site_fract_z
  _atom_site_thermal_displace_type
  _atom_site_B_iso_or_equiv
  _atom_site_type_symbol
  Ta1      1.0000 0.13593  0.03712  0.12705  Biso   1.000  Ta
  Hf1      1.0000 0.13355  0.46600  0.37553  Biso   1.000  Hf
  Hf2      1.0000 0.36606  0.53638  0.12586  Biso   1.000  Hf
  Hf3      1.0000 0.36606  0.96670  0.37588  Biso   1.000  Hf
  Hf4      1.0000 0.04089  0.36668  0.19045  Biso   1.000  Hf
  Hf5      1.0000 0.03463  0.13458  0.44731  Biso   1.000  Hf
  Hf6      1.0000 0.46401  0.86904  0.19392  Biso   1.000  Hf
  Hf7      1.0000 0.46374  0.63141  0.44328  Biso   1.000  Hf
  Hf8      1.0000 0.27195  0.23721  0.24784  Biso   1.000  Hf
  Hf9      1.0000 0.27069  0.26375  0.49907  Biso   1.000  Hf
  Hf10     1.0000 0.22917  0.76367  0.49974  Biso   1.000  Hf
  Hf11     1.0000 0.22709  0.74116  0.24934  Biso   1.000  Hf
  Hf12     1.0000 0.13387  0.03227  0.62642  Biso   1.000  Hf
  Hf13     1.0000 0.13319  0.46600  0.87695  Biso   1.000  Hf
  Hf14     1.0000 0.36570  0.53265  0.62582  Biso   1.000  Hf
  Hf15     1.0000 0.36490  0.96664  0.87618  Biso   1.000  Hf
  Hf16     1.0000 0.03497  0.36474  0.69785  Biso   1.000  Hf
  Hf17     1.0000 0.03601  0.12864  0.95312  Biso   1.000  Hf
  Hf18     1.0000 0.46253  0.86923  0.69370  Biso   1.000  Hf
  Hf19     1.0000 0.46109  0.62998  0.94335  Biso   1.000  Hf
  Hf20     1.0000 0.27083  0.23562  0.75016  Biso   1.000  Hf
  Hf21     1.0000 0.26912  0.26055  0.00173  Biso   1.000  Hf
  Hf22     1.0000 0.22441  0.76618  0.00174  Biso   1.000  Hf
  Hf23     1.0000 0.22896  0.73400  0.75051  Biso   1.000  Hf
  Hf24     1.0000 0.63519  0.03420  0.12579  Biso   1.000  Hf
  Hf25     1.0000 0.63510  0.46788  0.37499  Biso   1.000  Hf
  Hf26     1.0000 0.86755  0.53332  0.12411  Biso   1.000  Hf
  Hf27     1.0000 0.86659  0.96696  0.37599  Biso   1.000  Hf
  Hf28     1.0000 0.53747  0.37070  0.19299  Biso   1.000  Hf
  Hf29     1.0000 0.53669  0.13201  0.44308  Biso   1.000  Hf
  Hf30     1.0000 0.97008  0.86913  0.19242  Biso   1.000  Hf
  Hf31     1.0000 0.96477  0.63271  0.44558  Biso   1.000  Hf
  Hf32     1.0000 0.77331  0.23673  0.24947  Biso   1.000  Hf
  Hf33     1.0000 0.77067  0.26426  0.49957  Biso   1.000  Hf
  Hf34     1.0000 0.72933  0.76420  0.49925  Biso   1.000  Hf
  Hf35     1.0000 0.73176  0.73814  0.24890  Biso   1.000  Hf
  Hf36     1.0000 0.63364  0.03261  0.62558  Biso   1.000  Hf
  Hf37     1.0000 0.63348  0.46635  0.87578  Biso   1.000  Hf
  Hf38     1.0000 0.86583  0.53203  0.62650  Biso   1.000  Hf
  Hf39     1.0000 0.86629  0.96707  0.87589  Biso   1.000  Hf
  Hf40     1.0000 0.53626  0.36897  0.69364  Biso   1.000  Hf
  Hf41     1.0000 0.53560  0.13042  0.94383  Biso   1.000  Hf
  Hf42     1.0000 0.96349  0.86737  0.69465  Biso   1.000  Hf
  Hf43     1.0000 0.96158  0.62915  0.94204  Biso   1.000  Hf
  Hf44     1.0000 0.76972  0.23460  0.74975  Biso   1.000  Hf
  Hf45     1.0000 0.77045  0.26386  0.99954  Biso   1.000  Hf
  Hf46     1.0000 0.72866  0.76396  0.99921  Biso   1.000  Hf
  Hf47     1.0000 0.72847  0.73528  0.74941  Biso   1.000  Hf
