data_image0
_cell_length_a       5.00119
_cell_length_b       10.4124
_cell_length_c       10.058
_cell_angle_alpha    89.8647
_cell_angle_beta     89.7864
_cell_angle_gamma    89.9578

_symmetry_space_group_name_H-M    "P 1"
_symmetry_int_tables_number       1

loop_
  _symmetry_equiv_pos_as_xyz
  'x, y, z'

loop_
  _atom_site_label
  _atom_site_occupancy
  _atom_site_fract_x
  _atom_site_fract_y
  _atom_site_fract_z
  _atom_site_thermal_displace_type
  _atom_site_B_iso_or_equiv
  _atom_site_type_symbol
  Ta1      1.0000 0.27627  0.01810  0.12513  Biso   1.000  Ta
  Zr1      1.0000 0.26846  0.01548  0.62591  Biso   1.000  Zr
  Zr2      1.0000 0.26985  0.51662  0.12637  Biso   1.000  Zr
  Zr3      1.0000 0.26707  0.51580  0.62514  Biso   1.000  Zr
  Zr4      1.0000 0.26824  0.23417  0.37567  Biso   1.000  Zr
  Zr5      1.0000 0.26633  0.23364  0.87677  Biso   1.000  Zr
  Zr6      1.0000 0.27086  0.73506  0.37406  Biso   1.000  Zr
  Zr7      1.0000 0.26464  0.73329  0.87512  Biso   1.000  Zr
  Zr8      1.0000 0.73426  0.26589  0.12484  Biso   1.000  Zr
  Zr9      1.0000 0.73174  0.26545  0.62634  Biso   1.000  Zr
  Zr10     1.0000 0.73360  0.76834  0.12337  Biso   1.000  Zr
  Zr11     1.0000 0.73196  0.76601  0.62521  Biso   1.000  Zr
  Zr12     1.0000 0.73295  0.48451  0.37562  Biso   1.000  Zr
  Zr13     1.0000 0.73015  0.48459  0.87543  Biso   1.000  Zr
  Zr14     1.0000 0.73709  0.98452  0.37473  Biso   1.000  Zr
  Zr15     1.0000 0.73189  0.98337  0.87595  Biso   1.000  Zr
  Zr16     1.0000 0.07887  0.18001  0.19265  Biso   1.000  Zr
  Zr17     1.0000 0.06792  0.18188  0.69906  Biso   1.000  Zr
  Zr18     1.0000 0.07147  0.68451  0.19305  Biso   1.000  Zr
  Zr19     1.0000 0.07016  0.68338  0.69377  Biso   1.000  Zr
  Zr20     1.0000 0.06901  0.06791  0.44761  Biso   1.000  Zr
  Zr21     1.0000 0.06906  0.06417  0.95628  Biso   1.000  Zr
  Zr22     1.0000 0.07286  0.56699  0.44316  Biso   1.000  Zr
  Zr23     1.0000 0.07067  0.56465  0.94458  Biso   1.000  Zr
  Zr24     1.0000 0.93163  0.43159  0.19472  Biso   1.000  Zr
  Zr25     1.0000 0.92675  0.43353  0.69376  Biso   1.000  Zr
  Zr26     1.0000 0.94803  0.93556  0.19162  Biso   1.000  Zr
  Zr27     1.0000 0.92852  0.93372  0.69509  Biso   1.000  Zr
  Zr28     1.0000 0.93022  0.31650  0.44522  Biso   1.000  Zr
  Zr29     1.0000 0.92501  0.31471  0.94356  Biso   1.000  Zr
  Zr30     1.0000 0.93114  0.81736  0.44361  Biso   1.000  Zr
  Zr31     1.0000 0.91728  0.81448  0.94132  Biso   1.000  Zr
  Zr32     1.0000 0.53888  0.11588  0.24689  Biso   1.000  Zr
  Zr33     1.0000 0.53775  0.11686  0.75004  Biso   1.000  Zr
  Zr34     1.0000 0.54148  0.61886  0.24924  Biso   1.000  Zr
  Zr35     1.0000 0.53781  0.61691  0.74904  Biso   1.000  Zr
  Zr36     1.0000 0.54083  0.13273  0.49829  Biso   1.000  Zr
  Zr37     1.0000 0.53605  0.12984  0.00084  Biso   1.000  Zr
  Zr38     1.0000 0.54048  0.63316  0.49898  Biso   1.000  Zr
  Zr39     1.0000 0.53870  0.63242  0.99954  Biso   1.000  Zr
  Zr40     1.0000 0.46074  0.38263  0.49954  Biso   1.000  Zr
  Zr41     1.0000 0.45883  0.38148  0.99996  Biso   1.000  Zr
  Zr42     1.0000 0.46220  0.88341  0.49749  Biso   1.000  Zr
  Zr43     1.0000 0.44009  0.88411  0.99930  Biso   1.000  Zr
  Zr44     1.0000 0.46296  0.36735  0.24980  Biso   1.000  Zr
  Zr45     1.0000 0.45818  0.36649  0.74981  Biso   1.000  Zr
  Zr46     1.0000 0.45864  0.87264  0.24577  Biso   1.000  Zr
  Zr47     1.0000 0.46011  0.86668  0.74881  Biso   1.000  Zr
