data_image0
_cell_length_a       10.1108
_cell_length_b       10.186
_cell_length_c       10.1108
_cell_angle_alpha    89.9987
_cell_angle_beta     90
_cell_angle_gamma    89.9978

_symmetry_space_group_name_H-M    "P 1"
_symmetry_int_tables_number       1

loop_
  _symmetry_equiv_pos_as_xyz
  'x, y, z'

loop_
  _atom_site_label
  _atom_site_occupancy
  _atom_site_fract_x
  _atom_site_fract_y
  _atom_site_fract_z
  _atom_site_thermal_displace_type
  _atom_site_B_iso_or_equiv
  _atom_site_type_symbol
  Zr1      1.0000 0.12512  0.98255  0.12513  Biso   1.000  Zr
  Zr2      1.0000 0.12513  0.25002  0.39285  Biso   1.000  Zr
  Zr3      1.0000 0.39285  0.25002  0.12513  Biso   1.000  Zr
  Zr4      1.0000 0.37414  0.00058  0.37415  Biso   1.000  Zr
  Zr5      1.0000 0.99852  0.14049  0.99853  Biso   1.000  Zr
  Zr6      1.0000 0.00478  0.11485  0.24548  Biso   1.000  Zr
  Zr7      1.0000 0.99851  0.35956  0.25174  Biso   1.000  Zr
  Zr8      1.0000 0.00478  0.38520  0.00479  Biso   1.000  Zr
  Zr9      1.0000 0.25174  0.14049  0.25175  Biso   1.000  Zr
  Zr10     1.0000 0.24548  0.11485  0.00479  Biso   1.000  Zr
  Zr11     1.0000 0.25173  0.35956  0.99852  Biso   1.000  Zr
  Zr12     1.0000 0.24547  0.38520  0.24548  Biso   1.000  Zr
  Zr13     1.0000 0.12512  0.99618  0.62513  Biso   1.000  Zr
  Zr14     1.0000 0.12513  0.25002  0.85742  Biso   1.000  Zr
  Zr15     1.0000 0.37869  0.25002  0.62514  Biso   1.000  Zr
  Zr16     1.0000 0.37314  0.00208  0.87711  Biso   1.000  Zr
  Zr17     1.0000 0.99420  0.14002  0.50178  Biso   1.000  Zr
  Zr18     1.0000 0.00205  0.10655  0.74880  Biso   1.000  Zr
  Zr19     1.0000 0.99420  0.36003  0.74848  Biso   1.000  Zr
  Zr20     1.0000 0.00205  0.39350  0.50147  Biso   1.000  Zr
  Zr21     1.0000 0.25605  0.14002  0.74849  Biso   1.000  Zr
  Zr22     1.0000 0.24820  0.10655  0.50147  Biso   1.000  Zr
  Zr23     1.0000 0.25605  0.36002  0.50178  Biso   1.000  Zr
  Zr24     1.0000 0.24820  0.39350  0.74880  Biso   1.000  Zr
  Zr25     1.0000 0.12513  0.51750  0.12513  Biso   1.000  Zr
  Zr26     1.0000 0.12513  0.75002  0.37852  Biso   1.000  Zr
  Zr27     1.0000 0.37851  0.75002  0.12514  Biso   1.000  Zr
  Zr28     1.0000 0.37314  0.49797  0.37315  Biso   1.000  Zr
  Zr29     1.0000 0.00014  0.64105  0.00014  Biso   1.000  Zr
  Zr30     1.0000 0.99745  0.61346  0.25280  Biso   1.000  Zr
  Zr31     1.0000 0.00014  0.85900  0.25012  Biso   1.000  Zr
  Zr32     1.0000 0.99745  0.88659  0.99746  Biso   1.000  Zr
  Zr33     1.0000 0.25012  0.64105  0.25012  Biso   1.000  Zr
  Zr34     1.0000 0.25280  0.61346  0.99746  Biso   1.000  Zr
  Zr35     1.0000 0.25012  0.85900  0.00014  Biso   1.000  Zr
  Zr36     1.0000 0.25280  0.88659  0.25280  Biso   1.000  Zr
  Zr37     1.0000 0.12512  0.50387  0.62513  Biso   1.000  Zr
  Zr38     1.0000 0.12513  0.75003  0.87175  Biso   1.000  Zr
  Zr39     1.0000 0.37650  0.75002  0.62514  Biso   1.000  Zr
  Zr40     1.0000 0.37414  0.49947  0.87611  Biso   1.000  Zr
  Zr41     1.0000 0.99878  0.64312  0.50202  Biso   1.000  Zr
  Zr42     1.0000 0.00235  0.60722  0.75254  Biso   1.000  Zr
  Zr43     1.0000 0.99878  0.85693  0.74823  Biso   1.000  Zr
  Zr44     1.0000 0.00235  0.89283  0.49772  Biso   1.000  Zr
  Zr45     1.0000 0.25147  0.64312  0.74823  Biso   1.000  Zr
  Zr46     1.0000 0.24791  0.60722  0.49772  Biso   1.000  Zr
  Zr47     1.0000 0.25147  0.85693  0.50203  Biso   1.000  Zr
  Zr48     1.0000 0.24791  0.89283  0.75255  Biso   1.000  Zr
  Zr49     1.0000 0.62512  0.99618  0.12513  Biso   1.000  Zr
  Zr50     1.0000 0.62513  0.25003  0.37869  Biso   1.000  Zr
  Zr51     1.0000 0.85741  0.25003  0.12513  Biso   1.000  Zr
  Zr52     1.0000 0.87711  0.00208  0.37315  Biso   1.000  Zr
  Zr53     1.0000 0.50178  0.14002  0.99421  Biso   1.000  Zr
  Zr54     1.0000 0.50146  0.10655  0.24821  Biso   1.000  Zr
  Zr55     1.0000 0.50177  0.36003  0.25606  Biso   1.000  Zr
  Zr56     1.0000 0.50146  0.39350  0.00205  Biso   1.000  Zr
  Zr57     1.0000 0.74848  0.14002  0.25606  Biso   1.000  Zr
  Zr58     1.0000 0.74879  0.10655  0.00206  Biso   1.000  Zr
  Zr59     1.0000 0.74847  0.36003  0.99421  Biso   1.000  Zr
  Zr60     1.0000 0.74879  0.39350  0.24821  Biso   1.000  Zr
  Zr61     1.0000 0.62512  0.99868  0.62513  Biso   1.000  Zr
  Zr62     1.0000 0.62513  0.25003  0.87158  Biso   1.000  Zr
  Zr63     1.0000 0.87157  0.25003  0.62514  Biso   1.000  Zr
  Zr64     1.0000 0.87610  0.00058  0.87611  Biso   1.000  Zr
  Zr65     1.0000 0.49758  0.14447  0.49759  Biso   1.000  Zr
  Zr66     1.0000 0.50208  0.10522  0.74818  Biso   1.000  Zr
  Zr67     1.0000 0.49758  0.35558  0.75268  Biso   1.000  Zr
  Zr68     1.0000 0.50208  0.39482  0.50209  Biso   1.000  Zr
  Zr69     1.0000 0.75267  0.14447  0.75268  Biso   1.000  Zr
  Zr70     1.0000 0.74817  0.10522  0.50209  Biso   1.000  Zr
  Zr71     1.0000 0.75267  0.35558  0.49758  Biso   1.000  Zr
  Zr72     1.0000 0.74817  0.39483  0.74818  Biso   1.000  Zr
  Zr73     1.0000 0.62512  0.50387  0.12513  Biso   1.000  Zr
  Zr74     1.0000 0.62513  0.75002  0.37650  Biso   1.000  Zr
  Zr75     1.0000 0.87175  0.75003  0.12514  Biso   1.000  Zr
  Zr76     1.0000 0.87610  0.49947  0.37414  Biso   1.000  Zr
  Zr77     1.0000 0.50202  0.64312  0.99879  Biso   1.000  Zr
  Zr78     1.0000 0.49771  0.60722  0.24791  Biso   1.000  Zr
  Zr79     1.0000 0.50202  0.85693  0.25147  Biso   1.000  Zr
  Zr80     1.0000 0.49772  0.89283  0.00235  Biso   1.000  Zr
  Zr81     1.0000 0.74823  0.64312  0.25147  Biso   1.000  Zr
  Zr82     1.0000 0.75254  0.60722  0.00236  Biso   1.000  Zr
  Zr83     1.0000 0.74823  0.85693  0.99879  Biso   1.000  Zr
  Zr84     1.0000 0.75254  0.89283  0.24791  Biso   1.000  Zr
  Zr85     1.0000 0.62512  0.50137  0.62513  Biso   1.000  Zr
  Zr86     1.0000 0.62513  0.75003  0.87377  Biso   1.000  Zr
  Zr87     1.0000 0.87376  0.75002  0.62514  Biso   1.000  Zr
  Zr88     1.0000 0.87710  0.49798  0.87711  Biso   1.000  Zr
  Zr89     1.0000 0.49781  0.64412  0.49781  Biso   1.000  Zr
  Zr90     1.0000 0.50073  0.60519  0.74953  Biso   1.000  Zr
  Zr91     1.0000 0.49780  0.85593  0.75245  Biso   1.000  Zr
  Zr92     1.0000 0.50073  0.89486  0.50073  Biso   1.000  Zr
  Zr93     1.0000 0.75245  0.64412  0.75245  Biso   1.000  Zr
  Zr94     1.0000 0.74952  0.60519  0.50074  Biso   1.000  Zr
  Zr95     1.0000 0.75244  0.85593  0.49781  Biso   1.000  Zr
  Zr96     1.0000 0.74953  0.89486  0.74953  Biso   1.000  Zr
  Ta1      1.0000 0.12513  0.25003  0.12514  Biso   1.000  Ta
