data_image0
_cell_length_a       10.1185
_cell_length_b       10.1384
_cell_length_c       5.13181
_cell_angle_alpha    90.0001
_cell_angle_beta     90.0006
_cell_angle_gamma    90

_symmetry_space_group_name_H-M    "P 1"
_symmetry_int_tables_number       1

loop_
  _symmetry_equiv_pos_as_xyz
  'x, y, z'

loop_
  _atom_site_label
  _atom_site_occupancy
  _atom_site_fract_x
  _atom_site_fract_y
  _atom_site_fract_z
  _atom_site_thermal_displace_type
  _atom_site_B_iso_or_equiv
  _atom_site_type_symbol
  Zr1      1.0000 0.12540  0.98261  0.25079  Biso   1.000  Zr
  Zr2      1.0000 0.12539  0.25006  0.75079  Biso   1.000  Zr
  Zr3      1.0000 0.39830  0.25007  0.25079  Biso   1.000  Zr
  Zr4      1.0000 0.37283  0.00091  0.75082  Biso   1.000  Zr
  Zr5      1.0000 0.00450  0.12920  0.99382  Biso   1.000  Zr
  Zr6      1.0000 0.99966  0.12304  0.47968  Biso   1.000  Zr
  Zr7      1.0000 0.00450  0.37092  0.50776  Biso   1.000  Zr
  Zr8      1.0000 0.99965  0.37709  0.02190  Biso   1.000  Zr
  Zr9      1.0000 0.24629  0.12921  0.50777  Biso   1.000  Zr
  Zr10     1.0000 0.25114  0.12304  0.02190  Biso   1.000  Zr
  Zr11     1.0000 0.24630  0.37092  0.99382  Biso   1.000  Zr
  Zr12     1.0000 0.25114  0.37708  0.47968  Biso   1.000  Zr
  Zr13     1.0000 0.12540  0.51752  0.25079  Biso   1.000  Zr
  Zr14     1.0000 0.12539  0.75007  0.75079  Biso   1.000  Zr
  Zr15     1.0000 0.38066  0.75007  0.25079  Biso   1.000  Zr
  Zr16     1.0000 0.37283  0.49923  0.75076  Biso   1.000  Zr
  Zr17     1.0000 0.00606  0.62886  0.97175  Biso   1.000  Zr
  Zr18     1.0000 0.99121  0.62345  0.47518  Biso   1.000  Zr
  Zr19     1.0000 0.00605  0.87127  0.52983  Biso   1.000  Zr
  Zr20     1.0000 0.99122  0.87668  0.02640  Biso   1.000  Zr
  Zr21     1.0000 0.24473  0.62886  0.52984  Biso   1.000  Zr
  Zr22     1.0000 0.25958  0.62345  0.02640  Biso   1.000  Zr
  Zr23     1.0000 0.24474  0.87126  0.97176  Biso   1.000  Zr
  Zr24     1.0000 0.25958  0.87668  0.47519  Biso   1.000  Zr
  Zr25     1.0000 0.62539  0.00174  0.25079  Biso   1.000  Zr
  Zr26     1.0000 0.62540  0.25007  0.75079  Biso   1.000  Zr
  Zr27     1.0000 0.85249  0.25007  0.25080  Biso   1.000  Zr
  Zr28     1.0000 0.87796  0.00091  0.75077  Biso   1.000  Zr
  Zr29     1.0000 0.50126  0.13020  0.96804  Biso   1.000  Zr
  Zr30     1.0000 0.49636  0.11101  0.48215  Biso   1.000  Zr
  Zr31     1.0000 0.50126  0.36994  0.53354  Biso   1.000  Zr
  Zr32     1.0000 0.49636  0.38913  0.01943  Biso   1.000  Zr
  Zr33     1.0000 0.74953  0.13019  0.53355  Biso   1.000  Zr
  Zr34     1.0000 0.75443  0.11101  0.01944  Biso   1.000  Zr
  Zr35     1.0000 0.74953  0.36994  0.96804  Biso   1.000  Zr
  Zr36     1.0000 0.75443  0.38913  0.48215  Biso   1.000  Zr
  Zr37     1.0000 0.62540  0.49840  0.25079  Biso   1.000  Zr
  Zr38     1.0000 0.62540  0.75007  0.75079  Biso   1.000  Zr
  Zr39     1.0000 0.87013  0.75007  0.25080  Biso   1.000  Zr
  Zr40     1.0000 0.87796  0.49922  0.75083  Biso   1.000  Zr
  Zr41     1.0000 0.50423  0.63314  0.96618  Biso   1.000  Zr
  Zr42     1.0000 0.49161  0.61425  0.46479  Biso   1.000  Zr
  Zr43     1.0000 0.50423  0.86699  0.53540  Biso   1.000  Zr
  Zr44     1.0000 0.49161  0.88588  0.03679  Biso   1.000  Zr
  Zr45     1.0000 0.74656  0.63314  0.53540  Biso   1.000  Zr
  Zr46     1.0000 0.75918  0.61425  0.03680  Biso   1.000  Zr
  Zr47     1.0000 0.74656  0.86699  0.96618  Biso   1.000  Zr
  Zr48     1.0000 0.75918  0.88589  0.46479  Biso   1.000  Zr
  Ta1      1.0000 0.12540  0.25007  0.25079  Biso   1.000  Ta
