data_image0
_cell_length_a       10.0811
_cell_length_b       10.5085
_cell_length_c       10.1303
_cell_angle_alpha    89.6689
_cell_angle_beta     89.6272
_cell_angle_gamma    89.9791

_symmetry_space_group_name_H-M    "P 1"
_symmetry_int_tables_number       1

loop_
  _symmetry_equiv_pos_as_xyz
  'x, y, z'

loop_
  _atom_site_label
  _atom_site_occupancy
  _atom_site_fract_x
  _atom_site_fract_y
  _atom_site_fract_z
  _atom_site_thermal_displace_type
  _atom_site_B_iso_or_equiv
  _atom_site_type_symbol
  Zr1      1.0000 0.13262  0.01153  0.12039  Biso   1.000  Zr
  Zr2      1.0000 0.13662  0.22486  0.38045  Biso   1.000  Zr
  Zr3      1.0000 0.38675  0.26103  0.11567  Biso   1.000  Zr
  Zr4      1.0000 0.36675  0.47824  0.37276  Biso   1.000  Zr
  Zr5      1.0000 0.01469  0.17314  0.21602  Biso   1.000  Zr
  Zr6      1.0000 0.03627  0.05889  0.44831  Biso   1.000  Zr
  Zr7      1.0000 0.47539  0.42754  0.20217  Biso   1.000  Zr
  Zr8      1.0000 0.47096  0.31754  0.45769  Biso   1.000  Zr
  Zr9      1.0000 0.26171  0.10165  0.24978  Biso   1.000  Zr
  Zr10     1.0000 0.27355  0.12875  0.50244  Biso   1.000  Zr
  Zr11     1.0000 0.23205  0.37939  0.50149  Biso   1.000  Zr
  Zr12     1.0000 0.24880  0.34434  0.25487  Biso   1.000  Zr
  Zr13     1.0000 0.13566  0.00673  0.62205  Biso   1.000  Zr
  Zr14     1.0000 0.12041  0.22628  0.85459  Biso   1.000  Zr
  Zr15     1.0000 0.36515  0.26380  0.62909  Biso   1.000  Zr
  Zr16     1.0000 0.37007  0.49368  0.87084  Biso   1.000  Zr
  Zr17     1.0000 0.03168  0.17377  0.68074  Biso   1.000  Zr
  Zr18     1.0000 0.02211  0.06900  0.94665  Biso   1.000  Zr
  Zr19     1.0000 0.46776  0.42862  0.69786  Biso   1.000  Zr
  Zr20     1.0000 0.47198  0.32750  0.94344  Biso   1.000  Zr
  Zr21     1.0000 0.26289  0.10968  0.75323  Biso   1.000  Zr
  Zr22     1.0000 0.23656  0.17094  0.01211  Biso   1.000  Zr
  Zr23     1.0000 0.25009  0.41572  0.01010  Biso   1.000  Zr
  Zr24     1.0000 0.23302  0.36508  0.75420  Biso   1.000  Zr
  Zr25     1.0000 0.12929  0.54621  0.10990  Biso   1.000  Zr
  Zr26     1.0000 0.13649  0.73221  0.37480  Biso   1.000  Zr
  Zr27     1.0000 0.37012  0.76962  0.12038  Biso   1.000  Zr
  Zr28     1.0000 0.36932  0.98293  0.37466  Biso   1.000  Zr
  Zr29     1.0000 0.02365  0.68804  0.20713  Biso   1.000  Zr
  Zr30     1.0000 0.03408  0.56555  0.44843  Biso   1.000  Zr
  Zr31     1.0000 0.46719  0.92884  0.20071  Biso   1.000  Zr
  Zr32     1.0000 0.46710  0.81298  0.44238  Biso   1.000  Zr
  Zr33     1.0000 0.27156  0.61425  0.24345  Biso   1.000  Zr
  Zr34     1.0000 0.26988  0.62720  0.49416  Biso   1.000  Zr
  Zr35     1.0000 0.23264  0.87827  0.49261  Biso   1.000  Zr
  Zr36     1.0000 0.22865  0.85933  0.24021  Biso   1.000  Zr
  Zr37     1.0000 0.13434  0.51153  0.62462  Biso   1.000  Zr
  Zr38     1.0000 0.12727  0.74704  0.86032  Biso   1.000  Zr
  Zr39     1.0000 0.36973  0.75774  0.61753  Biso   1.000  Zr
  Zr40     1.0000 0.38675  0.98405  0.85713  Biso   1.000  Zr
  Zr41     1.0000 0.03419  0.67917  0.68949  Biso   1.000  Zr
  Zr42     1.0000 0.02921  0.57718  0.93653  Biso   1.000  Zr
  Zr43     1.0000 0.47162  0.92239  0.68577  Biso   1.000  Zr
  Zr44     1.0000 0.47529  0.82449  0.94519  Biso   1.000  Zr
  Zr45     1.0000 0.26640  0.61388  0.74272  Biso   1.000  Zr
  Zr46     1.0000 0.26282  0.66101  0.98677  Biso   1.000  Zr
  Zr47     1.0000 0.24282  0.90768  0.98866  Biso   1.000  Zr
  Zr48     1.0000 0.24033  0.86229  0.73988  Biso   1.000  Zr
  Zr49     1.0000 0.63038  0.01396  0.12990  Biso   1.000  Zr
  Zr50     1.0000 0.63362  0.23250  0.38023  Biso   1.000  Zr
  Zr51     1.0000 0.85390  0.25925  0.12366  Biso   1.000  Zr
  Zr52     1.0000 0.87179  0.48153  0.37297  Biso   1.000  Zr
  Zr53     1.0000 0.53232  0.17626  0.21447  Biso   1.000  Zr
  Zr54     1.0000 0.53399  0.06606  0.45330  Biso   1.000  Zr
  Zr55     1.0000 0.97747  0.42866  0.19468  Biso   1.000  Zr
  Zr56     1.0000 0.97003  0.31759  0.44734  Biso   1.000  Zr
  Zr57     1.0000 0.76298  0.11121  0.24938  Biso   1.000  Zr
  Zr58     1.0000 0.77157  0.13228  0.49703  Biso   1.000  Zr
  Zr59     1.0000 0.73532  0.38365  0.49839  Biso   1.000  Zr
  Zr60     1.0000 0.73438  0.36359  0.25036  Biso   1.000  Zr
  Zr61     1.0000 0.64045  0.01373  0.62467  Biso   1.000  Zr
  Zr62     1.0000 0.63120  0.23156  0.87169  Biso   1.000  Zr
  Zr63     1.0000 0.86447  0.26642  0.62163  Biso   1.000  Zr
  Zr64     1.0000 0.86299  0.48490  0.87379  Biso   1.000  Zr
  Zr65     1.0000 0.52427  0.16942  0.70998  Biso   1.000  Zr
  Zr66     1.0000 0.50450  0.08924  0.97811  Biso   1.000  Zr
  Zr67     1.0000 0.97037  0.42457  0.70387  Biso   1.000  Zr
  Zr68     1.0000 0.96844  0.32182  0.95460  Biso   1.000  Zr
  Zr69     1.0000 0.77587  0.11895  0.74520  Biso   1.000  Zr
  Zr70     1.0000 0.75805  0.13087  0.99729  Biso   1.000  Zr
  Zr71     1.0000 0.72958  0.38417  0.99819  Biso   1.000  Zr
  Zr72     1.0000 0.72993  0.36625  0.74866  Biso   1.000  Zr
  Zr73     1.0000 0.63454  0.51602  0.12610  Biso   1.000  Zr
  Zr74     1.0000 0.63374  0.73087  0.37361  Biso   1.000  Zr
  Zr75     1.0000 0.86230  0.76736  0.12583  Biso   1.000  Zr
  Zr76     1.0000 0.86930  0.98321  0.37255  Biso   1.000  Zr
  Zr77     1.0000 0.53519  0.68214  0.19555  Biso   1.000  Zr
  Zr78     1.0000 0.53189  0.56531  0.44735  Biso   1.000  Zr
  Zr79     1.0000 0.96338  0.93246  0.19528  Biso   1.000  Zr
  Zr80     1.0000 0.96862  0.81686  0.44736  Biso   1.000  Zr
  Zr81     1.0000 0.76925  0.61206  0.24717  Biso   1.000  Zr
  Zr82     1.0000 0.76847  0.63096  0.49646  Biso   1.000  Zr
  Zr83     1.0000 0.73401  0.88150  0.49714  Biso   1.000  Zr
  Zr84     1.0000 0.73047  0.86378  0.24927  Biso   1.000  Zr
  Zr85     1.0000 0.63322  0.51292  0.62282  Biso   1.000  Zr
  Zr86     1.0000 0.63639  0.73275  0.87366  Biso   1.000  Zr
  Zr87     1.0000 0.86697  0.76255  0.61936  Biso   1.000  Zr
  Zr88     1.0000 0.86140  0.98174  0.87432  Biso   1.000  Zr
  Zr89     1.0000 0.53295  0.67579  0.70041  Biso   1.000  Zr
  Zr90     1.0000 0.53140  0.57422  0.95294  Biso   1.000  Zr
  Zr91     1.0000 0.97509  0.92141  0.70652  Biso   1.000  Zr
  Zr92     1.0000 0.96861  0.82166  0.95411  Biso   1.000  Zr
  Zr93     1.0000 0.76933  0.61328  0.74578  Biso   1.000  Zr
  Zr94     1.0000 0.77007  0.63447  0.99648  Biso   1.000  Zr
  Zr95     1.0000 0.72749  0.88434  0.99876  Biso   1.000  Zr
  Zr96     1.0000 0.73556  0.86222  0.74635  Biso   1.000  Zr
  Tc1      1.0000 0.11246  0.30829  0.10517  Biso   1.000  Tc
