data_image0
_cell_length_a       10.1274
_cell_length_b       5.22504
_cell_length_c       10.1422
_cell_angle_alpha    89.9998
_cell_angle_beta     88.5468
_cell_angle_gamma    90

_symmetry_space_group_name_H-M    "P 1"
_symmetry_int_tables_number       1

loop_
  _symmetry_equiv_pos_as_xyz
  'x, y, z'

loop_
  _atom_site_label
  _atom_site_occupancy
  _atom_site_fract_x
  _atom_site_fract_y
  _atom_site_fract_z
  _atom_site_thermal_displace_type
  _atom_site_B_iso_or_equiv
  _atom_site_type_symbol
  Zr1      1.0000 0.12540  0.86827  0.12540  Biso   1.000  Zr
  Zr2      1.0000 0.13770  0.50454  0.39053  Biso   1.000  Zr
  Zr3      1.0000 0.39772  0.51757  0.14397  Biso   1.000  Zr
  Zr4      1.0000 0.38190  0.02038  0.38346  Biso   1.000  Zr
  Zr5      1.0000 0.98131  0.30418  0.98333  Biso   1.000  Zr
  Zr6      1.0000 0.01786  0.11158  0.24536  Biso   1.000  Zr
  Zr7      1.0000 0.00485  0.60201  0.24203  Biso   1.000  Zr
  Zr8      1.0000 0.98670  0.79413  0.98691  Biso   1.000  Zr
  Zr9      1.0000 0.26948  0.30417  0.26746  Biso   1.000  Zr
  Zr10     1.0000 0.23293  0.11158  0.00544  Biso   1.000  Zr
  Zr11     1.0000 0.24594  0.60201  0.00877  Biso   1.000  Zr
  Zr12     1.0000 0.26409  0.79413  0.26389  Biso   1.000  Zr
  Zr13     1.0000 0.12540  0.99987  0.62540  Biso   1.000  Zr
  Zr14     1.0000 0.11310  0.50454  0.86026  Biso   1.000  Zr
  Zr15     1.0000 0.37941  0.52005  0.63115  Biso   1.000  Zr
  Zr16     1.0000 0.37603  0.01696  0.87176  Biso   1.000  Zr
  Zr17     1.0000 0.99435  0.30077  0.49195  Biso   1.000  Zr
  Zr18     1.0000 0.00045  0.22473  0.73960  Biso   1.000  Zr
  Zr19     1.0000 0.99477  0.72501  0.74126  Biso   1.000  Zr
  Zr20     1.0000 0.00867  0.80251  0.49278  Biso   1.000  Zr
  Zr21     1.0000 0.25645  0.30077  0.75884  Biso   1.000  Zr
  Zr22     1.0000 0.25034  0.22472  0.51120  Biso   1.000  Zr
  Zr23     1.0000 0.25602  0.72501  0.50953  Biso   1.000  Zr
  Zr24     1.0000 0.24212  0.80251  0.75801  Biso   1.000  Zr
  Zr25     1.0000 0.62540  0.99871  0.12539  Biso   1.000  Zr
  Zr26     1.0000 0.63830  0.50730  0.36722  Biso   1.000  Zr
  Zr27     1.0000 0.85307  0.51757  0.10682  Biso   1.000  Zr
  Zr28     1.0000 0.87477  0.01696  0.37903  Biso   1.000  Zr
  Zr29     1.0000 0.48162  0.29140  0.99477  Biso   1.000  Zr
  Zr30     1.0000 0.51228  0.22906  0.25205  Biso   1.000  Zr
  Zr31     1.0000 0.50785  0.74427  0.26945  Biso   1.000  Zr
  Zr32     1.0000 0.48880  0.80327  0.01276  Biso   1.000  Zr
  Zr33     1.0000 0.76917  0.29141  0.25602  Biso   1.000  Zr
  Zr34     1.0000 0.73851  0.22907  0.99874  Biso   1.000  Zr
  Zr35     1.0000 0.74294  0.74427  0.98134  Biso   1.000  Zr
  Zr36     1.0000 0.76199  0.80327  0.23803  Biso   1.000  Zr
  Zr37     1.0000 0.62540  0.02665  0.62540  Biso   1.000  Zr
  Zr38     1.0000 0.61249  0.50730  0.88358  Biso   1.000  Zr
  Zr39     1.0000 0.87138  0.52005  0.61964  Biso   1.000  Zr
  Zr40     1.0000 0.86889  0.02038  0.86734  Biso   1.000  Zr
  Zr41     1.0000 0.50032  0.32810  0.49674  Biso   1.000  Zr
  Zr42     1.0000 0.50137  0.23033  0.74833  Biso   1.000  Zr
  Zr43     1.0000 0.49397  0.72669  0.76271  Biso   1.000  Zr
  Zr44     1.0000 0.49822  0.82684  0.51684  Biso   1.000  Zr
  Zr45     1.0000 0.75048  0.32810  0.75406  Biso   1.000  Zr
  Zr46     1.0000 0.74942  0.23033  0.50247  Biso   1.000  Zr
  Zr47     1.0000 0.75682  0.72669  0.48808  Biso   1.000  Zr
  Zr48     1.0000 0.75257  0.82684  0.73395  Biso   1.000  Zr
  Tc1      1.0000 0.12540  0.35052  0.12540  Biso   1.000  Tc
