data_image0
_cell_length_a       4.95831
_cell_length_b       10.3424
_cell_length_c       9.96643
_cell_angle_alpha    90.0906
_cell_angle_beta     89.798
_cell_angle_gamma    90.0343

_symmetry_space_group_name_H-M    "P 1"
_symmetry_int_tables_number       1

loop_
  _symmetry_equiv_pos_as_xyz
  'x, y, z'

loop_
  _atom_site_label
  _atom_site_occupancy
  _atom_site_fract_x
  _atom_site_fract_y
  _atom_site_fract_z
  _atom_site_thermal_displace_type
  _atom_site_B_iso_or_equiv
  _atom_site_type_symbol
  Ti1      1.0000 0.26102  0.01945  0.12435  Biso   1.000  Ti
  Hf1      1.0000 0.26784  0.23122  0.37396  Biso   1.000  Hf
  Hf2      1.0000 0.73191  0.26393  0.12491  Biso   1.000  Hf
  Hf3      1.0000 0.73325  0.48296  0.37614  Biso   1.000  Hf
  Hf4      1.0000 0.07603  0.17992  0.19105  Biso   1.000  Hf
  Hf5      1.0000 0.07201  0.06572  0.44567  Biso   1.000  Hf
  Hf6      1.0000 0.92914  0.43214  0.19388  Biso   1.000  Hf
  Hf7      1.0000 0.92782  0.31438  0.44295  Biso   1.000  Hf
  Hf8      1.0000 0.53310  0.11151  0.24440  Biso   1.000  Hf
  Hf9      1.0000 0.54365  0.13194  0.49754  Biso   1.000  Hf
  Hf10     1.0000 0.45806  0.38150  0.49964  Biso   1.000  Hf
  Hf11     1.0000 0.46065  0.36555  0.24943  Biso   1.000  Hf
  Hf12     1.0000 0.26622  0.01656  0.62639  Biso   1.000  Hf
  Hf13     1.0000 0.26761  0.23285  0.87782  Biso   1.000  Hf
  Hf14     1.0000 0.73102  0.26637  0.62602  Biso   1.000  Hf
  Hf15     1.0000 0.73074  0.48434  0.87567  Biso   1.000  Hf
  Hf16     1.0000 0.07069  0.18395  0.69680  Biso   1.000  Hf
  Hf17     1.0000 0.07349  0.06415  0.95238  Biso   1.000  Hf
  Hf18     1.0000 0.92473  0.43511  0.69259  Biso   1.000  Hf
  Hf19     1.0000 0.92382  0.31481  0.94297  Biso   1.000  Hf
  Hf20     1.0000 0.54050  0.11813  0.74983  Biso   1.000  Hf
  Hf21     1.0000 0.53727  0.13189  0.00040  Biso   1.000  Hf
  Hf22     1.0000 0.45799  0.38241  0.00015  Biso   1.000  Hf
  Hf23     1.0000 0.45629  0.36801  0.75031  Biso   1.000  Hf
  Hf24     1.0000 0.26860  0.51628  0.12667  Biso   1.000  Hf
  Hf25     1.0000 0.27147  0.73486  0.37504  Biso   1.000  Hf
  Hf26     1.0000 0.73326  0.76740  0.12513  Biso   1.000  Hf
  Hf27     1.0000 0.73181  0.98405  0.37444  Biso   1.000  Hf
  Hf28     1.0000 0.07408  0.68524  0.19363  Biso   1.000  Hf
  Hf29     1.0000 0.07540  0.56565  0.44292  Biso   1.000  Hf
  Hf30     1.0000 0.95705  0.93649  0.19054  Biso   1.000  Hf
  Hf31     1.0000 0.92844  0.81648  0.44316  Biso   1.000  Hf
  Hf32     1.0000 0.54348  0.61655  0.24961  Biso   1.000  Hf
  Hf33     1.0000 0.54324  0.63270  0.50004  Biso   1.000  Hf
  Hf34     1.0000 0.46000  0.88285  0.50047  Biso   1.000  Hf
  Hf35     1.0000 0.47248  0.86750  0.24985  Biso   1.000  Hf
  Hf36     1.0000 0.26884  0.51703  0.62577  Biso   1.000  Hf
  Hf37     1.0000 0.26528  0.73556  0.87755  Biso   1.000  Hf
  Hf38     1.0000 0.73223  0.76753  0.62699  Biso   1.000  Hf
  Hf39     1.0000 0.72762  0.98526  0.87947  Biso   1.000  Hf
  Hf40     1.0000 0.07353  0.68529  0.69427  Biso   1.000  Hf
  Hf41     1.0000 0.07269  0.56559  0.94428  Biso   1.000  Hf
  Hf42     1.0000 0.92620  0.93528  0.69588  Biso   1.000  Hf
  Hf43     1.0000 0.91638  0.81496  0.94122  Biso   1.000  Hf
  Hf44     1.0000 0.54066  0.61900  0.75069  Biso   1.000  Hf
  Hf45     1.0000 0.54019  0.63412  0.00053  Biso   1.000  Hf
  Hf46     1.0000 0.44780  0.88770  0.00528  Biso   1.000  Hf
  Hf47     1.0000 0.45706  0.86893  0.75207  Biso   1.000  Hf
