data_image0
_cell_length_a       9.99957
_cell_length_b       10.1934
_cell_length_c       9.99956
_cell_angle_alpha    90
_cell_angle_beta     90
_cell_angle_gamma    90

_symmetry_space_group_name_H-M    "P 1"
_symmetry_int_tables_number       1

loop_
  _symmetry_equiv_pos_as_xyz
  'x, y, z'

loop_
  _atom_site_label
  _atom_site_occupancy
  _atom_site_fract_x
  _atom_site_fract_y
  _atom_site_fract_z
  _atom_site_thermal_displace_type
  _atom_site_B_iso_or_equiv
  _atom_site_type_symbol
  Ti1      1.0000 0.12491  0.00005  0.12491  Biso   1.000  Ti
  Hf1      1.0000 0.12753  0.25141  0.37494  Biso   1.000  Hf
  Hf2      1.0000 0.37494  0.25141  0.12753  Biso   1.000  Hf
  Hf3      1.0000 0.37269  0.00156  0.37269  Biso   1.000  Hf
  Hf4      1.0000 0.98638  0.15212  0.98638  Biso   1.000  Hf
  Hf5      1.0000 0.01178  0.09514  0.23804  Biso   1.000  Hf
  Hf6      1.0000 0.00063  0.34886  0.24918  Biso   1.000  Hf
  Hf7      1.0000 0.99974  0.40043  0.99974  Biso   1.000  Hf
  Hf8      1.0000 0.26344  0.15212  0.26344  Biso   1.000  Hf
  Hf9      1.0000 0.23804  0.09514  0.01178  Biso   1.000  Hf
  Hf10     1.0000 0.24918  0.34886  0.00063  Biso   1.000  Hf
  Hf11     1.0000 0.25008  0.40043  0.25008  Biso   1.000  Hf
  Hf12     1.0000 0.12491  0.00005  0.62491  Biso   1.000  Hf
  Hf13     1.0000 0.12229  0.25141  0.87488  Biso   1.000  Hf
  Hf14     1.0000 0.37464  0.24826  0.62657  Biso   1.000  Hf
  Hf15     1.0000 0.37269  0.99855  0.87712  Biso   1.000  Hf
  Hf16     1.0000 0.99446  0.14672  0.48840  Biso   1.000  Hf
  Hf17     1.0000 0.00103  0.10371  0.74228  Biso   1.000  Hf
  Hf18     1.0000 0.99827  0.35326  0.74949  Biso   1.000  Hf
  Hf19     1.0000 0.00133  0.39688  0.49971  Biso   1.000  Hf
  Hf20     1.0000 0.25536  0.14672  0.76141  Biso   1.000  Hf
  Hf21     1.0000 0.24879  0.10371  0.50754  Biso   1.000  Hf
  Hf22     1.0000 0.25155  0.35326  0.50033  Biso   1.000  Hf
  Hf23     1.0000 0.24849  0.39688  0.75011  Biso   1.000  Hf
  Hf24     1.0000 0.12491  0.50005  0.12491  Biso   1.000  Hf
  Hf25     1.0000 0.12229  0.74869  0.37494  Biso   1.000  Hf
  Hf26     1.0000 0.37494  0.74869  0.12229  Biso   1.000  Hf
  Hf27     1.0000 0.37649  0.50088  0.37649  Biso   1.000  Hf
  Hf28     1.0000 0.00063  0.65125  0.00063  Biso   1.000  Hf
  Hf29     1.0000 0.99974  0.59967  0.25008  Biso   1.000  Hf
  Hf30     1.0000 0.98638  0.84799  0.26344  Biso   1.000  Hf
  Hf31     1.0000 0.01178  0.90496  0.01178  Biso   1.000  Hf
  Hf32     1.0000 0.24919  0.65125  0.24919  Biso   1.000  Hf
  Hf33     1.0000 0.25008  0.59967  0.99974  Biso   1.000  Hf
  Hf34     1.0000 0.26344  0.84799  0.98638  Biso   1.000  Hf
  Hf35     1.0000 0.23804  0.90496  0.23804  Biso   1.000  Hf
  Hf36     1.0000 0.12491  0.50005  0.62491  Biso   1.000  Hf
  Hf37     1.0000 0.12753  0.74869  0.87488  Biso   1.000  Hf
  Hf38     1.0000 0.37464  0.75185  0.62324  Biso   1.000  Hf
  Hf39     1.0000 0.37649  0.49923  0.87333  Biso   1.000  Hf
  Hf40     1.0000 0.99827  0.64685  0.50033  Biso   1.000  Hf
  Hf41     1.0000 0.00133  0.60323  0.75011  Biso   1.000  Hf
  Hf42     1.0000 0.99446  0.85339  0.76142  Biso   1.000  Hf
  Hf43     1.0000 0.00103  0.89640  0.50753  Biso   1.000  Hf
  Hf44     1.0000 0.25155  0.64685  0.74949  Biso   1.000  Hf
  Hf45     1.0000 0.24849  0.60323  0.49971  Biso   1.000  Hf
  Hf46     1.0000 0.25536  0.85339  0.48840  Biso   1.000  Hf
  Hf47     1.0000 0.24879  0.89640  0.74228  Biso   1.000  Hf
  Hf48     1.0000 0.62491  0.00005  0.12491  Biso   1.000  Hf
  Hf49     1.0000 0.62657  0.24826  0.37464  Biso   1.000  Hf
  Hf50     1.0000 0.87488  0.25141  0.12228  Biso   1.000  Hf
  Hf51     1.0000 0.87712  0.99855  0.37269  Biso   1.000  Hf
  Hf52     1.0000 0.48840  0.14672  0.99446  Biso   1.000  Hf
  Hf53     1.0000 0.50754  0.10371  0.24879  Biso   1.000  Hf
  Hf54     1.0000 0.50033  0.35326  0.25154  Biso   1.000  Hf
  Hf55     1.0000 0.49971  0.39688  0.00133  Biso   1.000  Hf
  Hf56     1.0000 0.76141  0.14672  0.25536  Biso   1.000  Hf
  Hf57     1.0000 0.74228  0.10371  0.00103  Biso   1.000  Hf
  Hf58     1.0000 0.74949  0.35325  0.99827  Biso   1.000  Hf
  Hf59     1.0000 0.75011  0.39687  0.24849  Biso   1.000  Hf
  Hf60     1.0000 0.62491  0.00005  0.62491  Biso   1.000  Hf
  Hf61     1.0000 0.62324  0.24826  0.87517  Biso   1.000  Hf
  Hf62     1.0000 0.87518  0.24826  0.62324  Biso   1.000  Hf
  Hf63     1.0000 0.87713  0.00156  0.87713  Biso   1.000  Hf
  Hf64     1.0000 0.49572  0.14759  0.49572  Biso   1.000  Hf
  Hf65     1.0000 0.50187  0.10231  0.74794  Biso   1.000  Hf
  Hf66     1.0000 0.49819  0.35283  0.75162  Biso   1.000  Hf
  Hf67     1.0000 0.50109  0.39680  0.50109  Biso   1.000  Hf
  Hf68     1.0000 0.75410  0.14760  0.75410  Biso   1.000  Hf
  Hf69     1.0000 0.74794  0.10231  0.50187  Biso   1.000  Hf
  Hf70     1.0000 0.75163  0.35283  0.49819  Biso   1.000  Hf
  Hf71     1.0000 0.74873  0.39679  0.74873  Biso   1.000  Hf
  Hf72     1.0000 0.62491  0.50005  0.12491  Biso   1.000  Hf
  Hf73     1.0000 0.62324  0.75185  0.37464  Biso   1.000  Hf
  Hf74     1.0000 0.87488  0.74869  0.12753  Biso   1.000  Hf
  Hf75     1.0000 0.87333  0.49923  0.37649  Biso   1.000  Hf
  Hf76     1.0000 0.50033  0.64685  0.99827  Biso   1.000  Hf
  Hf77     1.0000 0.49971  0.60323  0.24849  Biso   1.000  Hf
  Hf78     1.0000 0.48840  0.85339  0.25536  Biso   1.000  Hf
  Hf79     1.0000 0.50754  0.89640  0.00103  Biso   1.000  Hf
  Hf80     1.0000 0.74949  0.64685  0.25155  Biso   1.000  Hf
  Hf81     1.0000 0.75010  0.60323  0.00133  Biso   1.000  Hf
  Hf82     1.0000 0.76141  0.85339  0.99446  Biso   1.000  Hf
  Hf83     1.0000 0.74228  0.89640  0.24879  Biso   1.000  Hf
  Hf84     1.0000 0.62491  0.50005  0.62491  Biso   1.000  Hf
  Hf85     1.0000 0.62657  0.75185  0.87517  Biso   1.000  Hf
  Hf86     1.0000 0.87518  0.75185  0.62657  Biso   1.000  Hf
  Hf87     1.0000 0.87333  0.50088  0.87333  Biso   1.000  Hf
  Hf88     1.0000 0.49819  0.64728  0.49819  Biso   1.000  Hf
  Hf89     1.0000 0.50109  0.60331  0.74873  Biso   1.000  Hf
  Hf90     1.0000 0.49572  0.85251  0.75410  Biso   1.000  Hf
  Hf91     1.0000 0.50187  0.89780  0.50188  Biso   1.000  Hf
  Hf92     1.0000 0.75163  0.64728  0.75163  Biso   1.000  Hf
  Hf93     1.0000 0.74873  0.60331  0.50109  Biso   1.000  Hf
  Hf94     1.0000 0.75410  0.85251  0.49572  Biso   1.000  Hf
  Hf95     1.0000 0.74794  0.89780  0.74794  Biso   1.000  Hf
