data_image0
_cell_length_a       4.99796
_cell_length_b       10.167
_cell_length_c       9.9947
_cell_angle_alpha    90
_cell_angle_beta     90.0001
_cell_angle_gamma    89.9999

_symmetry_space_group_name_H-M    "P 1"
_symmetry_int_tables_number       1

loop_
  _symmetry_equiv_pos_as_xyz
  'x, y, z'

loop_
  _atom_site_label
  _atom_site_occupancy
  _atom_site_fract_x
  _atom_site_fract_y
  _atom_site_fract_z
  _atom_site_thermal_displace_type
  _atom_site_B_iso_or_equiv
  _atom_site_type_symbol
  Ti1      1.0000 0.24982  0.00005  0.12491  Biso   1.000  Ti
  Hf1      1.0000 0.25722  0.24923  0.37413  Biso   1.000  Hf
  Hf2      1.0000 0.74982  0.25197  0.12491  Biso   1.000  Hf
  Hf3      1.0000 0.74982  0.00005  0.37232  Biso   1.000  Hf
  Hf4      1.0000 0.95861  0.15086  0.98407  Biso   1.000  Hf
  Hf5      1.0000 0.03235  0.09764  0.23756  Biso   1.000  Hf
  Hf6      1.0000 0.00103  0.35070  0.25162  Biso   1.000  Hf
  Hf7      1.0000 0.99883  0.39861  0.00181  Biso   1.000  Hf
  Hf8      1.0000 0.54103  0.15086  0.26574  Biso   1.000  Hf
  Hf9      1.0000 0.46729  0.09764  0.01226  Biso   1.000  Hf
  Hf10     1.0000 0.49860  0.35070  0.99820  Biso   1.000  Hf
  Hf11     1.0000 0.50081  0.39861  0.24801  Biso   1.000  Hf
  Hf12     1.0000 0.24982  0.00005  0.62491  Biso   1.000  Hf
  Hf13     1.0000 0.24241  0.24923  0.87569  Biso   1.000  Hf
  Hf14     1.0000 0.74982  0.24791  0.62491  Biso   1.000  Hf
  Hf15     1.0000 0.74982  0.00005  0.87749  Biso   1.000  Hf
  Hf16     1.0000 0.98514  0.14570  0.48661  Biso   1.000  Hf
  Hf17     1.0000 0.00442  0.10501  0.74127  Biso   1.000  Hf
  Hf18     1.0000 0.99512  0.35439  0.75214  Biso   1.000  Hf
  Hf19     1.0000 0.00226  0.39519  0.50204  Biso   1.000  Hf
  Hf20     1.0000 0.51450  0.14570  0.76321  Biso   1.000  Hf
  Hf21     1.0000 0.49522  0.10501  0.50855  Biso   1.000  Hf
  Hf22     1.0000 0.50451  0.35439  0.49768  Biso   1.000  Hf
  Hf23     1.0000 0.49738  0.39519  0.74778  Biso   1.000  Hf
  Hf24     1.0000 0.24982  0.50005  0.12491  Biso   1.000  Hf
  Hf25     1.0000 0.24241  0.75087  0.37413  Biso   1.000  Hf
  Hf26     1.0000 0.74982  0.74814  0.12491  Biso   1.000  Hf
  Hf27     1.0000 0.74982  0.50005  0.37738  Biso   1.000  Hf
  Hf28     1.0000 0.00103  0.64941  0.99820  Biso   1.000  Hf
  Hf29     1.0000 0.99883  0.60150  0.24801  Biso   1.000  Hf
  Hf30     1.0000 0.95861  0.84924  0.26574  Biso   1.000  Hf
  Hf31     1.0000 0.03235  0.90246  0.01226  Biso   1.000  Hf
  Hf32     1.0000 0.49860  0.64941  0.25162  Biso   1.000  Hf
  Hf33     1.0000 0.50081  0.60150  0.00181  Biso   1.000  Hf
  Hf34     1.0000 0.54102  0.84924  0.98407  Biso   1.000  Hf
  Hf35     1.0000 0.46729  0.90246  0.23756  Biso   1.000  Hf
  Hf36     1.0000 0.24982  0.50005  0.62491  Biso   1.000  Hf
  Hf37     1.0000 0.25722  0.75087  0.87569  Biso   1.000  Hf
  Hf38     1.0000 0.74982  0.75220  0.62491  Biso   1.000  Hf
  Hf39     1.0000 0.74982  0.50005  0.87244  Biso   1.000  Hf
  Hf40     1.0000 0.99512  0.64571  0.49768  Biso   1.000  Hf
  Hf41     1.0000 0.00225  0.60492  0.74778  Biso   1.000  Hf
  Hf42     1.0000 0.98514  0.85441  0.76321  Biso   1.000  Hf
  Hf43     1.0000 0.00442  0.89510  0.50855  Biso   1.000  Hf
  Hf44     1.0000 0.50451  0.64571  0.75214  Biso   1.000  Hf
  Hf45     1.0000 0.49738  0.60492  0.50204  Biso   1.000  Hf
  Hf46     1.0000 0.51449  0.85441  0.48661  Biso   1.000  Hf
  Hf47     1.0000 0.49522  0.89510  0.74127  Biso   1.000  Hf
