data_image0
_cell_length_a       10.0883
_cell_length_b       10.1976
_cell_length_c       10.0883
_cell_angle_alpha    90
_cell_angle_beta     90
_cell_angle_gamma    90

_symmetry_space_group_name_H-M    "P 1"
_symmetry_int_tables_number       1

loop_
  _symmetry_equiv_pos_as_xyz
  'x, y, z'

loop_
  _atom_site_label
  _atom_site_occupancy
  _atom_site_fract_x
  _atom_site_fract_y
  _atom_site_fract_z
  _atom_site_thermal_displace_type
  _atom_site_B_iso_or_equiv
  _atom_site_type_symbol
  Zr1      1.0000 0.12540  0.98847  0.12540  Biso   1.000  Zr
  Zr2      1.0000 0.12540  0.25007  0.38741  Biso   1.000  Zr
  Zr3      1.0000 0.38741  0.25008  0.12540  Biso   1.000  Zr
  Zr4      1.0000 0.37379  0.00155  0.37379  Biso   1.000  Zr
  Zr5      1.0000 0.99964  0.14118  0.99964  Biso   1.000  Zr
  Zr6      1.0000 0.00449  0.11445  0.24630  Biso   1.000  Zr
  Zr7      1.0000 0.99964  0.35897  0.25115  Biso   1.000  Zr
  Zr8      1.0000 0.00449  0.38570  0.00449  Biso   1.000  Zr
  Zr9      1.0000 0.25115  0.14118  0.25115  Biso   1.000  Zr
  Zr10     1.0000 0.24630  0.11445  0.00449  Biso   1.000  Zr
  Zr11     1.0000 0.25115  0.35897  0.99964  Biso   1.000  Zr
  Zr12     1.0000 0.24630  0.38570  0.24630  Biso   1.000  Zr
  Zr13     1.0000 0.12540  0.99692  0.62540  Biso   1.000  Zr
  Zr14     1.0000 0.12540  0.25008  0.86338  Biso   1.000  Zr
  Zr15     1.0000 0.37784  0.25008  0.62540  Biso   1.000  Zr
  Zr16     1.0000 0.37278  0.00363  0.87801  Biso   1.000  Zr
  Zr17     1.0000 0.99551  0.14154  0.50160  Biso   1.000  Zr
  Zr18     1.0000 0.00210  0.10566  0.74930  Biso   1.000  Zr
  Zr19     1.0000 0.99551  0.35861  0.74919  Biso   1.000  Zr
  Zr20     1.0000 0.00211  0.39449  0.50149  Biso   1.000  Zr
  Zr21     1.0000 0.25528  0.14154  0.74919  Biso   1.000  Zr
  Zr22     1.0000 0.24869  0.10566  0.50149  Biso   1.000  Zr
  Zr23     1.0000 0.25528  0.35861  0.50160  Biso   1.000  Zr
  Zr24     1.0000 0.24869  0.39449  0.74930  Biso   1.000  Zr
  Zr25     1.0000 0.12540  0.51168  0.12540  Biso   1.000  Zr
  Zr26     1.0000 0.12540  0.75008  0.37714  Biso   1.000  Zr
  Zr27     1.0000 0.37714  0.75007  0.12540  Biso   1.000  Zr
  Zr28     1.0000 0.37278  0.49652  0.37278  Biso   1.000  Zr
  Zr29     1.0000 0.00031  0.64125  0.00031  Biso   1.000  Zr
  Zr30     1.0000 0.99807  0.61233  0.25273  Biso   1.000  Zr
  Zr31     1.0000 0.00031  0.85890  0.25048  Biso   1.000  Zr
  Zr32     1.0000 0.99806  0.88783  0.99807  Biso   1.000  Zr
  Zr33     1.0000 0.25048  0.64125  0.25048  Biso   1.000  Zr
  Zr34     1.0000 0.25273  0.61233  0.99806  Biso   1.000  Zr
  Zr35     1.0000 0.25048  0.85890  0.00031  Biso   1.000  Zr
  Zr36     1.0000 0.25273  0.88783  0.25273  Biso   1.000  Zr
  Zr37     1.0000 0.12540  0.50324  0.62540  Biso   1.000  Zr
  Zr38     1.0000 0.12540  0.75008  0.87366  Biso   1.000  Zr
  Zr39     1.0000 0.37634  0.75008  0.62540  Biso   1.000  Zr
  Zr40     1.0000 0.37379  0.49860  0.87700  Biso   1.000  Zr
  Zr41     1.0000 0.00021  0.64438  0.50222  Biso   1.000  Zr
  Zr42     1.0000 0.00171  0.60600  0.75251  Biso   1.000  Zr
  Zr43     1.0000 0.00021  0.85577  0.74857  Biso   1.000  Zr
  Zr44     1.0000 0.00171  0.89416  0.49828  Biso   1.000  Zr
  Zr45     1.0000 0.25058  0.64438  0.74857  Biso   1.000  Zr
  Zr46     1.0000 0.24908  0.60599  0.49828  Biso   1.000  Zr
  Zr47     1.0000 0.25058  0.85577  0.50222  Biso   1.000  Zr
  Zr48     1.0000 0.24908  0.89416  0.75251  Biso   1.000  Zr
  Zr49     1.0000 0.62540  0.99692  0.12540  Biso   1.000  Zr
  Zr50     1.0000 0.62540  0.25007  0.37784  Biso   1.000  Zr
  Zr51     1.0000 0.86338  0.25008  0.12540  Biso   1.000  Zr
  Zr52     1.0000 0.87801  0.00363  0.37278  Biso   1.000  Zr
  Zr53     1.0000 0.50160  0.14154  0.99551  Biso   1.000  Zr
  Zr54     1.0000 0.50149  0.10566  0.24869  Biso   1.000  Zr
  Zr55     1.0000 0.50161  0.35861  0.25528  Biso   1.000  Zr
  Zr56     1.0000 0.50149  0.39449  0.00211  Biso   1.000  Zr
  Zr57     1.0000 0.74919  0.14154  0.25528  Biso   1.000  Zr
  Zr58     1.0000 0.74930  0.10566  0.00211  Biso   1.000  Zr
  Zr59     1.0000 0.74919  0.35861  0.99551  Biso   1.000  Zr
  Zr60     1.0000 0.74930  0.39449  0.24869  Biso   1.000  Zr
  Zr61     1.0000 0.62540  0.99864  0.62540  Biso   1.000  Zr
  Zr62     1.0000 0.62540  0.25008  0.87295  Biso   1.000  Zr
  Zr63     1.0000 0.87295  0.25008  0.62540  Biso   1.000  Zr
  Zr64     1.0000 0.87700  0.00155  0.87700  Biso   1.000  Zr
  Zr65     1.0000 0.49827  0.14550  0.49827  Biso   1.000  Zr
  Zr66     1.0000 0.50197  0.10433  0.74882  Biso   1.000  Zr
  Zr67     1.0000 0.49827  0.35465  0.75252  Biso   1.000  Zr
  Zr68     1.0000 0.50197  0.39582  0.50197  Biso   1.000  Zr
  Zr69     1.0000 0.75252  0.14550  0.75252  Biso   1.000  Zr
  Zr70     1.0000 0.74882  0.10433  0.50197  Biso   1.000  Zr
  Zr71     1.0000 0.75252  0.35465  0.49827  Biso   1.000  Zr
  Zr72     1.0000 0.74882  0.39582  0.74882  Biso   1.000  Zr
  Zr73     1.0000 0.62540  0.50324  0.12540  Biso   1.000  Zr
  Zr74     1.0000 0.62540  0.75008  0.37634  Biso   1.000  Zr
  Zr75     1.0000 0.87366  0.75007  0.12540  Biso   1.000  Zr
  Zr76     1.0000 0.87700  0.49860  0.37379  Biso   1.000  Zr
  Zr77     1.0000 0.50222  0.64438  0.00021  Biso   1.000  Zr
  Zr78     1.0000 0.49828  0.60599  0.24908  Biso   1.000  Zr
  Zr79     1.0000 0.50222  0.85577  0.25058  Biso   1.000  Zr
  Zr80     1.0000 0.49828  0.89416  0.00171  Biso   1.000  Zr
  Zr81     1.0000 0.74857  0.64438  0.25058  Biso   1.000  Zr
  Zr82     1.0000 0.75251  0.60600  0.00171  Biso   1.000  Zr
  Zr83     1.0000 0.74857  0.85577  0.00021  Biso   1.000  Zr
  Zr84     1.0000 0.75251  0.89416  0.24908  Biso   1.000  Zr
  Zr85     1.0000 0.62540  0.50151  0.62540  Biso   1.000  Zr
  Zr86     1.0000 0.62540  0.75008  0.87446  Biso   1.000  Zr
  Zr87     1.0000 0.87446  0.75007  0.62540  Biso   1.000  Zr
  Zr88     1.0000 0.87801  0.49652  0.87801  Biso   1.000  Zr
  Zr89     1.0000 0.49946  0.64540  0.49945  Biso   1.000  Zr
  Zr90     1.0000 0.50019  0.60413  0.75061  Biso   1.000  Zr
  Zr91     1.0000 0.49946  0.85475  0.75134  Biso   1.000  Zr
  Zr92     1.0000 0.50019  0.89602  0.50019  Biso   1.000  Zr
  Zr93     1.0000 0.75134  0.64540  0.75134  Biso   1.000  Zr
  Zr94     1.0000 0.75061  0.60413  0.50019  Biso   1.000  Zr
  Zr95     1.0000 0.75134  0.85475  0.49946  Biso   1.000  Zr
  Zr96     1.0000 0.75061  0.89602  0.75060  Biso   1.000  Zr
  Ti1      1.0000 0.12540  0.25007  0.12540  Biso   1.000  Ti
