data_image0
_cell_length_a       10.0629
_cell_length_b       5.1004
_cell_length_c       10.0629
_cell_angle_alpha    89.9999
_cell_angle_beta     90
_cell_angle_gamma    89.9999

_symmetry_space_group_name_H-M    "P 1"
_symmetry_int_tables_number       1

loop_
  _symmetry_equiv_pos_as_xyz
  'x, y, z'

loop_
  _atom_site_label
  _atom_site_occupancy
  _atom_site_fract_x
  _atom_site_fract_y
  _atom_site_fract_z
  _atom_site_thermal_displace_type
  _atom_site_B_iso_or_equiv
  _atom_site_type_symbol
  Tl1      1.0000 0.12491  0.00011  0.12491  Biso   1.000  Tl
  Hf1      1.0000 0.12491  0.50011  0.37819  Biso   1.000  Hf
  Hf2      1.0000 0.37819  0.50011  0.12491  Biso   1.000  Hf
  Hf3      1.0000 0.37638  0.00272  0.37639  Biso   1.000  Hf
  Hf4      1.0000 0.99319  0.30171  0.99320  Biso   1.000  Hf
  Hf5      1.0000 0.99473  0.21868  0.25509  Biso   1.000  Hf
  Hf6      1.0000 0.99319  0.69851  0.25662  Biso   1.000  Hf
  Hf7      1.0000 0.99473  0.78154  0.99473  Biso   1.000  Hf
  Hf8      1.0000 0.25663  0.30171  0.25662  Biso   1.000  Hf
  Hf9      1.0000 0.25509  0.21868  0.99473  Biso   1.000  Hf
  Hf10     1.0000 0.25662  0.69851  0.99319  Biso   1.000  Hf
  Hf11     1.0000 0.25509  0.78154  0.25509  Biso   1.000  Hf
  Hf12     1.0000 0.12491  0.00011  0.62491  Biso   1.000  Hf
  Hf13     1.0000 0.12491  0.50011  0.87163  Biso   1.000  Hf
  Hf14     1.0000 0.37503  0.50011  0.62491  Biso   1.000  Hf
  Hf15     1.0000 0.37638  0.99749  0.87343  Biso   1.000  Hf
  Hf16     1.0000 0.00004  0.29538  0.50257  Biso   1.000  Hf
  Hf17     1.0000 0.00014  0.20358  0.74950  Biso   1.000  Hf
  Hf18     1.0000 0.00004  0.70484  0.74725  Biso   1.000  Hf
  Hf19     1.0000 0.00014  0.79663  0.50032  Biso   1.000  Hf
  Hf20     1.0000 0.24978  0.29538  0.74725  Biso   1.000  Hf
  Hf21     1.0000 0.24968  0.20359  0.50032  Biso   1.000  Hf
  Hf22     1.0000 0.24978  0.70483  0.50257  Biso   1.000  Hf
  Hf23     1.0000 0.24968  0.79663  0.74950  Biso   1.000  Hf
  Hf24     1.0000 0.62491  0.00011  0.12491  Biso   1.000  Hf
  Hf25     1.0000 0.62491  0.50011  0.37503  Biso   1.000  Hf
  Hf26     1.0000 0.87163  0.50011  0.12491  Biso   1.000  Hf
  Hf27     1.0000 0.87343  0.99749  0.37638  Biso   1.000  Hf
  Hf28     1.0000 0.50257  0.29538  0.00004  Biso   1.000  Hf
  Hf29     1.0000 0.50032  0.20359  0.24968  Biso   1.000  Hf
  Hf30     1.0000 0.50257  0.70483  0.24978  Biso   1.000  Hf
  Hf31     1.0000 0.50032  0.79663  0.00013  Biso   1.000  Hf
  Hf32     1.0000 0.74725  0.29538  0.24978  Biso   1.000  Hf
  Hf33     1.0000 0.74950  0.20358  0.00014  Biso   1.000  Hf
  Hf34     1.0000 0.74725  0.70484  0.00004  Biso   1.000  Hf
  Hf35     1.0000 0.74950  0.79663  0.24968  Biso   1.000  Hf
  Hf36     1.0000 0.62491  0.00011  0.62491  Biso   1.000  Hf
  Hf37     1.0000 0.62491  0.50010  0.87479  Biso   1.000  Hf
  Hf38     1.0000 0.87479  0.50011  0.62491  Biso   1.000  Hf
  Hf39     1.0000 0.87343  0.00272  0.87343  Biso   1.000  Hf
  Hf40     1.0000 0.49944  0.29666  0.49945  Biso   1.000  Hf
  Hf41     1.0000 0.50062  0.20411  0.74920  Biso   1.000  Hf
  Hf42     1.0000 0.49945  0.70355  0.75037  Biso   1.000  Hf
  Hf43     1.0000 0.50062  0.79610  0.50062  Biso   1.000  Hf
  Hf44     1.0000 0.75037  0.29666  0.75037  Biso   1.000  Hf
  Hf45     1.0000 0.74920  0.20411  0.50062  Biso   1.000  Hf
  Hf46     1.0000 0.75037  0.70355  0.49944  Biso   1.000  Hf
  Hf47     1.0000 0.74920  0.79611  0.74920  Biso   1.000  Hf
