data_image0
_cell_length_a       9.93218
_cell_length_b       10.3529
_cell_length_c       9.97868
_cell_angle_alpha    90.068
_cell_angle_beta     89.8693
_cell_angle_gamma    90.0524

_symmetry_space_group_name_H-M    "P 1"
_symmetry_int_tables_number       1

loop_
  _symmetry_equiv_pos_as_xyz
  'x, y, z'

loop_
  _atom_site_label
  _atom_site_occupancy
  _atom_site_fract_x
  _atom_site_fract_y
  _atom_site_fract_z
  _atom_site_thermal_displace_type
  _atom_site_B_iso_or_equiv
  _atom_site_type_symbol
  V1       1.0000 0.12885  0.02321  0.12179  Biso   1.000  V 
  Hf1      1.0000 0.13347  0.23108  0.37323  Biso   1.000  Hf
  Hf2      1.0000 0.36531  0.26437  0.12529  Biso   1.000  Hf
  Hf3      1.0000 0.36662  0.48311  0.37617  Biso   1.000  Hf
  Hf4      1.0000 0.03826  0.17987  0.19013  Biso   1.000  Hf
  Hf5      1.0000 0.03603  0.06635  0.44774  Biso   1.000  Hf
  Hf6      1.0000 0.46331  0.43381  0.19316  Biso   1.000  Hf
  Hf7      1.0000 0.46420  0.31601  0.44435  Biso   1.000  Hf
  Hf8      1.0000 0.26248  0.11036  0.24326  Biso   1.000  Hf
  Hf9      1.0000 0.27153  0.13255  0.49734  Biso   1.000  Hf
  Hf10     1.0000 0.22882  0.38158  0.49954  Biso   1.000  Hf
  Hf11     1.0000 0.23056  0.36539  0.24970  Biso   1.000  Hf
  Hf12     1.0000 0.13477  0.01706  0.62700  Biso   1.000  Hf
  Hf13     1.0000 0.13439  0.23356  0.87839  Biso   1.000  Hf
  Hf14     1.0000 0.36541  0.26692  0.62585  Biso   1.000  Hf
  Hf15     1.0000 0.36568  0.48434  0.87612  Biso   1.000  Hf
  Hf16     1.0000 0.03440  0.18248  0.69965  Biso   1.000  Hf
  Hf17     1.0000 0.03736  0.06440  0.95544  Biso   1.000  Hf
  Hf18     1.0000 0.46277  0.43512  0.69354  Biso   1.000  Hf
  Hf19     1.0000 0.46174  0.31481  0.94323  Biso   1.000  Hf
  Hf20     1.0000 0.27095  0.11865  0.75048  Biso   1.000  Hf
  Hf21     1.0000 0.26744  0.13086  0.00159  Biso   1.000  Hf
  Hf22     1.0000 0.22897  0.38231  0.00018  Biso   1.000  Hf
  Hf23     1.0000 0.22835  0.36796  0.75057  Biso   1.000  Hf
  Hf24     1.0000 0.13472  0.51596  0.12659  Biso   1.000  Hf
  Hf25     1.0000 0.13552  0.73406  0.37652  Biso   1.000  Hf
  Hf26     1.0000 0.36336  0.76805  0.12776  Biso   1.000  Hf
  Hf27     1.0000 0.36360  0.98255  0.37380  Biso   1.000  Hf
  Hf28     1.0000 0.03715  0.68396  0.19409  Biso   1.000  Hf
  Hf29     1.0000 0.03666  0.56513  0.44412  Biso   1.000  Hf
  Hf30     1.0000 0.46691  0.93277  0.19579  Biso   1.000  Hf
  Hf31     1.0000 0.46441  0.81624  0.44543  Biso   1.000  Hf
  Hf32     1.0000 0.27082  0.61623  0.25035  Biso   1.000  Hf
  Hf33     1.0000 0.27188  0.63213  0.50051  Biso   1.000  Hf
  Hf34     1.0000 0.22937  0.88211  0.50239  Biso   1.000  Hf
  Hf35     1.0000 0.23136  0.86577  0.25292  Biso   1.000  Hf
  Hf36     1.0000 0.13443  0.51674  0.62598  Biso   1.000  Hf
  Hf37     1.0000 0.13387  0.73471  0.87786  Biso   1.000  Hf
  Hf38     1.0000 0.36614  0.76753  0.62742  Biso   1.000  Hf
  Hf39     1.0000 0.36206  0.98393  0.88053  Biso   1.000  Hf
  Hf40     1.0000 0.03685  0.68492  0.69414  Biso   1.000  Hf
  Hf41     1.0000 0.03591  0.56570  0.94521  Biso   1.000  Hf
  Hf42     1.0000 0.46273  0.93502  0.69656  Biso   1.000  Hf
  Hf43     1.0000 0.46005  0.81610  0.94438  Biso   1.000  Hf
  Hf44     1.0000 0.27052  0.61869  0.75082  Biso   1.000  Hf
  Hf45     1.0000 0.27037  0.63309  0.00059  Biso   1.000  Hf
  Hf46     1.0000 0.22257  0.88701  0.00765  Biso   1.000  Hf
  Hf47     1.0000 0.22867  0.86888  0.75320  Biso   1.000  Hf
  Hf48     1.0000 0.63443  0.01662  0.12545  Biso   1.000  Hf
  Hf49     1.0000 0.63405  0.23294  0.37649  Biso   1.000  Hf
  Hf50     1.0000 0.86641  0.26587  0.12511  Biso   1.000  Hf
  Hf51     1.0000 0.86613  0.48332  0.37602  Biso   1.000  Hf
  Hf52     1.0000 0.53495  0.18342  0.19581  Biso   1.000  Hf
  Hf53     1.0000 0.53619  0.06517  0.44308  Biso   1.000  Hf
  Hf54     1.0000 0.96525  0.43181  0.19492  Biso   1.000  Hf
  Hf55     1.0000 0.96360  0.31402  0.44307  Biso   1.000  Hf
  Hf56     1.0000 0.77241  0.11722  0.24835  Biso   1.000  Hf
  Hf57     1.0000 0.77157  0.13163  0.49880  Biso   1.000  Hf
  Hf58     1.0000 0.72965  0.38205  0.49999  Biso   1.000  Hf
  Hf59     1.0000 0.72933  0.36709  0.24950  Biso   1.000  Hf
  Hf60     1.0000 0.63228  0.01568  0.62504  Biso   1.000  Hf
  Hf61     1.0000 0.63314  0.23352  0.87513  Biso   1.000  Hf
  Hf62     1.0000 0.86606  0.26580  0.62601  Biso   1.000  Hf
  Hf63     1.0000 0.86555  0.48407  0.87546  Biso   1.000  Hf
  Hf64     1.0000 0.53666  0.18516  0.69269  Biso   1.000  Hf
  Hf65     1.0000 0.53455  0.06651  0.94573  Biso   1.000  Hf
  Hf66     1.0000 0.96322  0.43422  0.69319  Biso   1.000  Hf
  Hf67     1.0000 0.96299  0.31549  0.94350  Biso   1.000  Hf
  Hf68     1.0000 0.76952  0.11713  0.74914  Biso   1.000  Hf
  Hf69     1.0000 0.77014  0.13289  0.99859  Biso   1.000  Hf
  Hf70     1.0000 0.72904  0.38241  0.99967  Biso   1.000  Hf
  Hf71     1.0000 0.72900  0.36784  0.74950  Biso   1.000  Hf
  Hf72     1.0000 0.63387  0.51686  0.12648  Biso   1.000  Hf
  Hf73     1.0000 0.63486  0.73464  0.37441  Biso   1.000  Hf
  Hf74     1.0000 0.86989  0.76636  0.12311  Biso   1.000  Hf
  Hf75     1.0000 0.86844  0.98498  0.37523  Biso   1.000  Hf
  Hf76     1.0000 0.53676  0.68535  0.19380  Biso   1.000  Hf
  Hf77     1.0000 0.53777  0.56611  0.44284  Biso   1.000  Hf
  Hf78     1.0000 0.97985  0.93785  0.18738  Biso   1.000  Hf
  Hf79     1.0000 0.96423  0.81659  0.44229  Biso   1.000  Hf
  Hf80     1.0000 0.77204  0.61728  0.24914  Biso   1.000  Hf
  Hf81     1.0000 0.77083  0.63304  0.49944  Biso   1.000  Hf
  Hf82     1.0000 0.73067  0.88332  0.49818  Biso   1.000  Hf
  Hf83     1.0000 0.73774  0.86821  0.24762  Biso   1.000  Hf
  Hf84     1.0000 0.63411  0.51700  0.62557  Biso   1.000  Hf
  Hf85     1.0000 0.63276  0.73468  0.87621  Biso   1.000  Hf
  Hf86     1.0000 0.86645  0.76682  0.62569  Biso   1.000  Hf
  Hf87     1.0000 0.86668  0.98462  0.87580  Biso   1.000  Hf
  Hf88     1.0000 0.53657  0.68481  0.69428  Biso   1.000  Hf
  Hf89     1.0000 0.53688  0.56558  0.94349  Biso   1.000  Hf
  Hf90     1.0000 0.96438  0.93475  0.69472  Biso   1.000  Hf
  Hf91     1.0000 0.96064  0.81467  0.93983  Biso   1.000  Hf
  Hf92     1.0000 0.77052  0.61826  0.74984  Biso   1.000  Hf
  Hf93     1.0000 0.77062  0.63350  0.99990  Biso   1.000  Hf
  Hf94     1.0000 0.72902  0.88357  0.99855  Biso   1.000  Hf
  Hf95     1.0000 0.72930  0.86796  0.74912  Biso   1.000  Hf
