data_image0
_cell_length_a       10.0175
_cell_length_b       10.4583
_cell_length_c       5.04216
_cell_angle_alpha    89.9018
_cell_angle_beta     89.8136
_cell_angle_gamma    89.575

_symmetry_space_group_name_H-M    "P 1"
_symmetry_int_tables_number       1

loop_
  _symmetry_equiv_pos_as_xyz
  'x, y, z'

loop_
  _atom_site_label
  _atom_site_occupancy
  _atom_site_fract_x
  _atom_site_fract_y
  _atom_site_fract_z
  _atom_site_thermal_displace_type
  _atom_site_B_iso_or_equiv
  _atom_site_type_symbol
  Hf1      1.0000 0.13125  0.01217  0.24881  Biso   1.000  Hf
  Hf2      1.0000 0.13199  0.22808  0.72497  Biso   1.000  Hf
  Hf3      1.0000 0.38000  0.27026  0.23998  Biso   1.000  Hf
  Hf4      1.0000 0.36887  0.48691  0.74309  Biso   1.000  Hf
  Hf5      1.0000 0.00924  0.16169  0.42086  Biso   1.000  Hf
  Hf6      1.0000 0.03171  0.06159  0.89985  Biso   1.000  Hf
  Hf7      1.0000 0.47207  0.43442  0.39510  Biso   1.000  Hf
  Hf8      1.0000 0.47105  0.32170  0.89075  Biso   1.000  Hf
  Hf9      1.0000 0.26642  0.10824  0.50525  Biso   1.000  Hf
  Hf10     1.0000 0.25366  0.15149  0.02285  Biso   1.000  Hf
  Hf11     1.0000 0.23611  0.39482  0.98819  Biso   1.000  Hf
  Hf12     1.0000 0.23587  0.36519  0.48102  Biso   1.000  Hf
  Hf13     1.0000 0.13829  0.52937  0.23960  Biso   1.000  Hf
  Hf14     1.0000 0.13334  0.73729  0.74460  Biso   1.000  Hf
  Hf15     1.0000 0.36973  0.76628  0.24659  Biso   1.000  Hf
  Hf16     1.0000 0.36855  0.98244  0.74590  Biso   1.000  Hf
  Hf17     1.0000 0.03100  0.68197  0.40253  Biso   1.000  Hf
  Hf18     1.0000 0.03401  0.57067  0.89166  Biso   1.000  Hf
  Hf19     1.0000 0.46705  0.93033  0.39855  Biso   1.000  Hf
  Hf20     1.0000 0.47063  0.81891  0.89342  Biso   1.000  Hf
  Hf21     1.0000 0.27512  0.61993  0.49288  Biso   1.000  Hf
  Hf22     1.0000 0.27132  0.64235  0.98791  Biso   1.000  Hf
  Hf23     1.0000 0.23466  0.88843  0.99358  Biso   1.000  Hf
  Hf24     1.0000 0.23217  0.86360  0.49227  Biso   1.000  Hf
  Hf25     1.0000 0.63318  0.01160  0.24995  Biso   1.000  Hf
  Hf26     1.0000 0.63362  0.23123  0.74977  Biso   1.000  Hf
  Hf27     1.0000 0.85327  0.26116  0.25117  Biso   1.000  Hf
  Hf28     1.0000 0.87127  0.47992  0.74954  Biso   1.000  Hf
  Hf29     1.0000 0.53415  0.17815  0.40486  Biso   1.000  Hf
  Hf30     1.0000 0.52504  0.07251  0.90942  Biso   1.000  Hf
  Hf31     1.0000 0.97883  0.41746  0.40222  Biso   1.000  Hf
  Hf32     1.0000 0.97201  0.31696  0.91799  Biso   1.000  Hf
  Hf33     1.0000 0.76164  0.10942  0.50056  Biso   1.000  Hf
  Hf34     1.0000 0.76608  0.13030  0.99559  Biso   1.000  Hf
  Hf35     1.0000 0.73130  0.38316  0.99737  Biso   1.000  Hf
  Hf36     1.0000 0.73104  0.36629  0.50423  Biso   1.000  Hf
  Hf37     1.0000 0.63672  0.51735  0.24845  Biso   1.000  Hf
  Hf38     1.0000 0.63590  0.73178  0.74920  Biso   1.000  Hf
  Hf39     1.0000 0.86594  0.76394  0.24905  Biso   1.000  Hf
  Hf40     1.0000 0.86870  0.98154  0.74713  Biso   1.000  Hf
  Hf41     1.0000 0.53810  0.68295  0.39177  Biso   1.000  Hf
  Hf42     1.0000 0.53386  0.56906  0.89542  Biso   1.000  Hf
  Hf43     1.0000 0.96593  0.92430  0.39825  Biso   1.000  Hf
  Hf44     1.0000 0.96721  0.81663  0.90006  Biso   1.000  Hf
  Hf45     1.0000 0.77349  0.61139  0.49632  Biso   1.000  Hf
  Hf46     1.0000 0.77103  0.63168  0.99479  Biso   1.000  Hf
  Hf47     1.0000 0.73114  0.88284  0.99453  Biso   1.000  Hf
  Hf48     1.0000 0.73040  0.86203  0.49525  Biso   1.000  Hf
  V1       1.0000 0.11131  0.28938  0.21034  Biso   1.000  V 
