data_image0
_cell_length_a       5.0378
_cell_length_b       10.413
_cell_length_c       10.0775
_cell_angle_alpha    91.019
_cell_angle_beta     90.3011
_cell_angle_gamma    89.0696

_symmetry_space_group_name_H-M    "P 1"
_symmetry_int_tables_number       1

loop_
  _symmetry_equiv_pos_as_xyz
  'x, y, z'

loop_
  _atom_site_label
  _atom_site_occupancy
  _atom_site_fract_x
  _atom_site_fract_y
  _atom_site_fract_z
  _atom_site_thermal_displace_type
  _atom_site_B_iso_or_equiv
  _atom_site_type_symbol
  Hf1      1.0000 0.25139  0.00625  0.12969  Biso   1.000  Hf
  Hf2      1.0000 0.24543  0.22213  0.39463  Biso   1.000  Hf
  Hf3      1.0000 0.80406  0.26574  0.08998  Biso   1.000  Hf
  Hf4      1.0000 0.73346  0.47982  0.37994  Biso   1.000  Hf
  Hf5      1.0000 0.02809  0.16089  0.21966  Biso   1.000  Hf
  Hf6      1.0000 0.05608  0.05929  0.45695  Biso   1.000  Hf
  Hf7      1.0000 0.04701  0.40294  0.19122  Biso   1.000  Hf
  Hf8      1.0000 0.91676  0.31723  0.45419  Biso   1.000  Hf
  Hf9      1.0000 0.49687  0.11500  0.25647  Biso   1.000  Hf
  Hf10     1.0000 0.53775  0.12863  0.50960  Biso   1.000  Hf
  Hf11     1.0000 0.44808  0.38159  0.49165  Biso   1.000  Hf
  Hf12     1.0000 0.56222  0.38151  0.22677  Biso   1.000  Hf
  Hf13     1.0000 0.25788  0.01308  0.63097  Biso   1.000  Hf
  Hf14     1.0000 0.26635  0.23704  0.86948  Biso   1.000  Hf
  Hf15     1.0000 0.72635  0.26826  0.62889  Biso   1.000  Hf
  Hf16     1.0000 0.73428  0.49335  0.86373  Biso   1.000  Hf
  Hf17     1.0000 0.06386  0.18188  0.69190  Biso   1.000  Hf
  Hf18     1.0000 0.03079  0.08151  0.96038  Biso   1.000  Hf
  Hf19     1.0000 0.91212  0.44367  0.68071  Biso   1.000  Hf
  Hf20     1.0000 0.90365  0.32030  0.90162  Biso   1.000  Hf
  Hf21     1.0000 0.53095  0.11712  0.75648  Biso   1.000  Hf
  Hf22     1.0000 0.50826  0.13487  0.01001  Biso   1.000  Hf
  Hf23     1.0000 0.45493  0.38107  0.99280  Biso   1.000  Hf
  Hf24     1.0000 0.44547  0.37298  0.74305  Biso   1.000  Hf
  Hf25     1.0000 0.30819  0.52744  0.12141  Biso   1.000  Hf
  Hf26     1.0000 0.26342  0.73429  0.37596  Biso   1.000  Hf
  Hf27     1.0000 0.73703  0.76697  0.12808  Biso   1.000  Hf
  Hf28     1.0000 0.71856  0.98558  0.37668  Biso   1.000  Hf
  Hf29     1.0000 0.07853  0.67973  0.19423  Biso   1.000  Hf
  Hf30     1.0000 0.07208  0.56769  0.43934  Biso   1.000  Hf
  Hf31     1.0000 0.92028  0.92555  0.20447  Biso   1.000  Hf
  Hf32     1.0000 0.92510  0.81667  0.44937  Biso   1.000  Hf
  Hf33     1.0000 0.56556  0.62355  0.25066  Biso   1.000  Hf
  Hf34     1.0000 0.53531  0.63089  0.49815  Biso   1.000  Hf
  Hf35     1.0000 0.45547  0.88239  0.50020  Biso   1.000  Hf
  Hf36     1.0000 0.45439  0.86431  0.25084  Biso   1.000  Hf
  Hf37     1.0000 0.25974  0.51782  0.61999  Biso   1.000  Hf
  Hf38     1.0000 0.26200  0.73554  0.87361  Biso   1.000  Hf
  Hf39     1.0000 0.72696  0.76840  0.62426  Biso   1.000  Hf
  Hf40     1.0000 0.72077  0.98452  0.88144  Biso   1.000  Hf
  Hf41     1.0000 0.06083  0.68468  0.69636  Biso   1.000  Hf
  Hf42     1.0000 0.07437  0.56860  0.94193  Biso   1.000  Hf
  Hf43     1.0000 0.92601  0.93234  0.70588  Biso   1.000  Hf
  Hf44     1.0000 0.93684  0.82345  0.95271  Biso   1.000  Hf
  Hf45     1.0000 0.52916  0.62172  0.74385  Biso   1.000  Hf
  Hf46     1.0000 0.54921  0.63726  0.99313  Biso   1.000  Hf
  Hf47     1.0000 0.45910  0.88093  0.99971  Biso   1.000  Hf
  Hf48     1.0000 0.45562  0.86787  0.75087  Biso   1.000  Hf
  V1       1.0000 0.31571  0.26006  0.14286  Biso   1.000  V 
