data_image0
_cell_length_a       4.95787
_cell_length_b       10.3706
_cell_length_c       9.96959
_cell_angle_alpha    90.5176
_cell_angle_beta     89.4899
_cell_angle_gamma    90.2913

_symmetry_space_group_name_H-M    "P 1"
_symmetry_int_tables_number       1

loop_
  _symmetry_equiv_pos_as_xyz
  'x, y, z'

loop_
  _atom_site_label
  _atom_site_occupancy
  _atom_site_fract_x
  _atom_site_fract_y
  _atom_site_fract_z
  _atom_site_thermal_displace_type
  _atom_site_B_iso_or_equiv
  _atom_site_type_symbol
  V1       1.0000 0.24473  0.03011  0.11510  Biso   1.000  V 
  Hf1      1.0000 0.26676  0.22898  0.37317  Biso   1.000  Hf
  Hf2      1.0000 0.72749  0.26358  0.12259  Biso   1.000  Hf
  Hf3      1.0000 0.73482  0.48170  0.37595  Biso   1.000  Hf
  Hf4      1.0000 0.06498  0.18064  0.19262  Biso   1.000  Hf
  Hf5      1.0000 0.07206  0.06528  0.44650  Biso   1.000  Hf
  Hf6      1.0000 0.92897  0.43048  0.19407  Biso   1.000  Hf
  Hf7      1.0000 0.92993  0.31402  0.44298  Biso   1.000  Hf
  Hf8      1.0000 0.52164  0.10397  0.23825  Biso   1.000  Hf
  Hf9      1.0000 0.54565  0.13186  0.49397  Biso   1.000  Hf
  Hf10     1.0000 0.45882  0.38109  0.49901  Biso   1.000  Hf
  Hf11     1.0000 0.45973  0.36127  0.24831  Biso   1.000  Hf
  Hf12     1.0000 0.26359  0.01602  0.62500  Biso   1.000  Hf
  Hf13     1.0000 0.26441  0.23650  0.87379  Biso   1.000  Hf
  Hf14     1.0000 0.73089  0.26619  0.62402  Biso   1.000  Hf
  Hf15     1.0000 0.72989  0.48605  0.87471  Biso   1.000  Hf
  Hf16     1.0000 0.06929  0.18482  0.69527  Biso   1.000  Hf
  Hf17     1.0000 0.06339  0.06893  0.95424  Biso   1.000  Hf
  Hf18     1.0000 0.92657  0.43484  0.69314  Biso   1.000  Hf
  Hf19     1.0000 0.92191  0.31690  0.94225  Biso   1.000  Hf
  Hf20     1.0000 0.53771  0.11802  0.74774  Biso   1.000  Hf
  Hf21     1.0000 0.52708  0.13512  0.99669  Biso   1.000  Hf
  Hf22     1.0000 0.45601  0.38438  0.99848  Biso   1.000  Hf
  Hf23     1.0000 0.45673  0.36896  0.74873  Biso   1.000  Hf
  Hf24     1.0000 0.26722  0.51508  0.12724  Biso   1.000  Hf
  Hf25     1.0000 0.27769  0.73376  0.37685  Biso   1.000  Hf
  Hf26     1.0000 0.74067  0.76317  0.12357  Biso   1.000  Hf
  Hf27     1.0000 0.73321  0.98279  0.37272  Biso   1.000  Hf
  Hf28     1.0000 0.07695  0.68509  0.19682  Biso   1.000  Hf
  Hf29     1.0000 0.07644  0.56471  0.44403  Biso   1.000  Hf
  Hf30     1.0000 0.97823  0.93743  0.18854  Biso   1.000  Hf
  Hf31     1.0000 0.94013  0.81910  0.44837  Biso   1.000  Hf
  Hf32     1.0000 0.54334  0.60934  0.24908  Biso   1.000  Hf
  Hf33     1.0000 0.54705  0.63307  0.50057  Biso   1.000  Hf
  Hf34     1.0000 0.46637  0.88377  0.50314  Biso   1.000  Hf
  Hf35     1.0000 0.50741  0.85337  0.25863  Biso   1.000  Hf
  Hf36     1.0000 0.26954  0.51785  0.62518  Biso   1.000  Hf
  Hf37     1.0000 0.26448  0.73694  0.87954  Biso   1.000  Hf
  Hf38     1.0000 0.73616  0.76887  0.62797  Biso   1.000  Hf
  Hf39     1.0000 0.71676  0.98516  0.88048  Biso   1.000  Hf
  Hf40     1.0000 0.07323  0.68510  0.69635  Biso   1.000  Hf
  Hf41     1.0000 0.06684  0.56857  0.94763  Biso   1.000  Hf
  Hf42     1.0000 0.92695  0.93630  0.69972  Biso   1.000  Hf
  Hf43     1.0000 0.91435  0.81771  0.94033  Biso   1.000  Hf
  Hf44     1.0000 0.53978  0.61980  0.75130  Biso   1.000  Hf
  Hf45     1.0000 0.53666  0.63490  0.00058  Biso   1.000  Hf
  Hf46     1.0000 0.44468  0.89009  0.01127  Biso   1.000  Hf
  Hf47     1.0000 0.45544  0.86943  0.75429  Biso   1.000  Hf
