data_image0
_cell_length_a       9.98868
_cell_length_b       10.4207
_cell_length_c       5.01577
_cell_angle_alpha    90.4445
_cell_angle_beta     89.5262
_cell_angle_gamma    90.1841

_symmetry_space_group_name_H-M    "P 1"
_symmetry_int_tables_number       1

loop_
  _symmetry_equiv_pos_as_xyz
  'x, y, z'

loop_
  _atom_site_label
  _atom_site_occupancy
  _atom_site_fract_x
  _atom_site_fract_y
  _atom_site_fract_z
  _atom_site_thermal_displace_type
  _atom_site_B_iso_or_equiv
  _atom_site_type_symbol
  V1       1.0000 0.12354  0.02879  0.23709  Biso   1.000  V 
  Zr1      1.0000 0.13473  0.51475  0.25287  Biso   1.000  Zr
  Zr2      1.0000 0.63124  0.01448  0.24680  Biso   1.000  Zr
  Zr3      1.0000 0.63305  0.51717  0.25215  Biso   1.000  Zr
  Zr4      1.0000 0.13268  0.23343  0.74492  Biso   1.000  Zr
  Zr5      1.0000 0.13527  0.73512  0.76175  Biso   1.000  Zr
  Zr6      1.0000 0.63263  0.23340  0.75016  Biso   1.000  Zr
  Zr7      1.0000 0.63304  0.73785  0.74954  Biso   1.000  Zr
  Zr8      1.0000 0.36534  0.26285  0.24554  Biso   1.000  Zr
  Zr9      1.0000 0.36421  0.76774  0.26183  Biso   1.000  Zr
  Zr10     1.0000 0.86482  0.26564  0.24775  Biso   1.000  Zr
  Zr11     1.0000 0.87206  0.76494  0.24254  Biso   1.000  Zr
  Zr12     1.0000 0.36714  0.48481  0.75142  Biso   1.000  Zr
  Zr13     1.0000 0.35848  0.98343  0.75912  Biso   1.000  Zr
  Zr14     1.0000 0.86515  0.48532  0.74990  Biso   1.000  Zr
  Zr15     1.0000 0.86877  0.98737  0.74645  Biso   1.000  Zr
  Zr16     1.0000 0.03278  0.17957  0.39057  Biso   1.000  Zr
  Zr17     1.0000 0.03651  0.68435  0.39250  Biso   1.000  Zr
  Zr18     1.0000 0.53253  0.18291  0.39343  Biso   1.000  Zr
  Zr19     1.0000 0.53479  0.68414  0.39578  Biso   1.000  Zr
  Zr20     1.0000 0.03498  0.06722  0.91780  Biso   1.000  Zr
  Zr21     1.0000 0.03299  0.56659  0.89717  Biso   1.000  Zr
  Zr22     1.0000 0.53156  0.06881  0.89623  Biso   1.000  Zr
  Zr23     1.0000 0.53636  0.56854  0.88895  Biso   1.000  Zr
  Zr24     1.0000 0.46388  0.43303  0.38670  Biso   1.000  Zr
  Zr25     1.0000 0.47004  0.93151  0.40814  Biso   1.000  Zr
  Zr26     1.0000 0.96585  0.43113  0.39215  Biso   1.000  Zr
  Zr27     1.0000 0.98605  0.93821  0.37470  Biso   1.000  Zr
  Zr28     1.0000 0.46437  0.31739  0.88907  Biso   1.000  Zr
  Zr29     1.0000 0.46383  0.82040  0.90355  Biso   1.000  Zr
  Zr30     1.0000 0.96385  0.31555  0.88684  Biso   1.000  Zr
  Zr31     1.0000 0.96227  0.81823  0.87622  Biso   1.000  Zr
  Zr32     1.0000 0.25854  0.10631  0.47550  Biso   1.000  Zr
  Zr33     1.0000 0.26797  0.61286  0.50283  Biso   1.000  Zr
  Zr34     1.0000 0.76910  0.11518  0.49135  Biso   1.000  Zr
  Zr35     1.0000 0.77045  0.61685  0.49657  Biso   1.000  Zr
  Zr36     1.0000 0.26610  0.13503  0.98690  Biso   1.000  Zr
  Zr37     1.0000 0.27044  0.63457  0.00342  Biso   1.000  Zr
  Zr38     1.0000 0.76985  0.13341  0.99105  Biso   1.000  Zr
  Zr39     1.0000 0.76851  0.63635  0.99730  Biso   1.000  Zr
  Zr40     1.0000 0.22946  0.38361  0.99558  Biso   1.000  Zr
  Zr41     1.0000 0.22226  0.89129  0.03341  Biso   1.000  Zr
  Zr42     1.0000 0.73020  0.38384  0.99783  Biso   1.000  Zr
  Zr43     1.0000 0.73215  0.88649  0.99058  Biso   1.000  Zr
  Zr44     1.0000 0.23157  0.36283  0.49611  Biso   1.000  Zr
  Zr45     1.0000 0.23964  0.85803  0.52906  Biso   1.000  Zr
  Zr46     1.0000 0.72929  0.36652  0.49671  Biso   1.000  Zr
  Zr47     1.0000 0.74124  0.86710  0.49075  Biso   1.000  Zr
