data_image0
_cell_length_a       10.089
_cell_length_b       10.5079
_cell_length_c       5.08199
_cell_angle_alpha    89.9852
_cell_angle_beta     89.7661
_cell_angle_gamma    89.595

_symmetry_space_group_name_H-M    "P 1"
_symmetry_int_tables_number       1

loop_
  _symmetry_equiv_pos_as_xyz
  'x, y, z'

loop_
  _atom_site_label
  _atom_site_occupancy
  _atom_site_fract_x
  _atom_site_fract_y
  _atom_site_fract_z
  _atom_site_thermal_displace_type
  _atom_site_B_iso_or_equiv
  _atom_site_type_symbol
  Zr1      1.0000 0.13081  0.01000  0.24654  Biso   1.000  Zr
  Zr2      1.0000 0.13231  0.23039  0.72183  Biso   1.000  Zr
  Zr3      1.0000 0.38116  0.26694  0.23656  Biso   1.000  Zr
  Zr4      1.0000 0.36832  0.48692  0.74083  Biso   1.000  Zr
  Zr5      1.0000 0.01124  0.16195  0.41628  Biso   1.000  Zr
  Zr6      1.0000 0.02923  0.06376  0.90205  Biso   1.000  Zr
  Zr7      1.0000 0.47322  0.43250  0.39686  Biso   1.000  Zr
  Zr8      1.0000 0.47245  0.32383  0.89330  Biso   1.000  Zr
  Zr9      1.0000 0.26475  0.10724  0.50215  Biso   1.000  Zr
  Zr10     1.0000 0.25075  0.15225  0.02183  Biso   1.000  Zr
  Zr11     1.0000 0.23332  0.39285  0.98039  Biso   1.000  Zr
  Zr12     1.0000 0.23671  0.36405  0.47092  Biso   1.000  Zr
  Zr13     1.0000 0.13847  0.52904  0.23734  Biso   1.000  Zr
  Zr14     1.0000 0.13318  0.73843  0.74218  Biso   1.000  Zr
  Zr15     1.0000 0.37053  0.76528  0.24392  Biso   1.000  Zr
  Zr16     1.0000 0.36911  0.98440  0.74385  Biso   1.000  Zr
  Zr17     1.0000 0.02923  0.68012  0.40556  Biso   1.000  Zr
  Zr18     1.0000 0.03191  0.57240  0.89359  Biso   1.000  Zr
  Zr19     1.0000 0.46884  0.92881  0.40220  Biso   1.000  Zr
  Zr20     1.0000 0.47272  0.82122  0.89654  Biso   1.000  Zr
  Zr21     1.0000 0.27439  0.61929  0.49004  Biso   1.000  Zr
  Zr22     1.0000 0.27022  0.64274  0.98428  Biso   1.000  Zr
  Zr23     1.0000 0.23630  0.88941  0.98875  Biso   1.000  Zr
  Zr24     1.0000 0.23345  0.86260  0.48777  Biso   1.000  Zr
  Zr25     1.0000 0.63325  0.01071  0.24974  Biso   1.000  Zr
  Zr26     1.0000 0.63364  0.23260  0.74903  Biso   1.000  Zr
  Zr27     1.0000 0.85399  0.26044  0.24918  Biso   1.000  Zr
  Zr28     1.0000 0.87189  0.48073  0.74693  Biso   1.000  Zr
  Zr29     1.0000 0.53173  0.17556  0.41378  Biso   1.000  Zr
  Zr30     1.0000 0.52110  0.07602  0.91911  Biso   1.000  Zr
  Zr31     1.0000 0.98237  0.41370  0.40572  Biso   1.000  Zr
  Zr32     1.0000 0.97380  0.31876  0.92236  Biso   1.000  Zr
  Zr33     1.0000 0.76151  0.10914  0.49820  Biso   1.000  Zr
  Zr34     1.0000 0.76367  0.13085  0.99323  Biso   1.000  Zr
  Zr35     1.0000 0.73268  0.38404  0.99400  Biso   1.000  Zr
  Zr36     1.0000 0.73211  0.36576  0.50091  Biso   1.000  Zr
  Zr37     1.0000 0.63598  0.51623  0.24655  Biso   1.000  Zr
  Zr38     1.0000 0.63543  0.73236  0.74802  Biso   1.000  Zr
  Zr39     1.0000 0.86612  0.76280  0.24796  Biso   1.000  Zr
  Zr40     1.0000 0.86886  0.98242  0.74710  Biso   1.000  Zr
  Zr41     1.0000 0.53687  0.68179  0.39365  Biso   1.000  Zr
  Zr42     1.0000 0.53136  0.57048  0.89716  Biso   1.000  Zr
  Zr43     1.0000 0.96772  0.92286  0.40304  Biso   1.000  Zr
  Zr44     1.0000 0.96968  0.81848  0.90516  Biso   1.000  Zr
  Zr45     1.0000 0.77227  0.61041  0.49334  Biso   1.000  Zr
  Zr46     1.0000 0.76947  0.63250  0.99194  Biso   1.000  Zr
  Zr47     1.0000 0.73252  0.88353  0.99332  Biso   1.000  Zr
  Zr48     1.0000 0.73171  0.86117  0.49375  Biso   1.000  Zr
  V1       1.0000 0.11159  0.28931  0.20679  Biso   1.000  V 
