data_image0
_cell_length_a       10.0991
_cell_length_b       5.02701
_cell_length_c       10.0993
_cell_angle_alpha    89.9969
_cell_angle_beta     89.9962
_cell_angle_gamma    89.9967

_symmetry_space_group_name_H-M    "P 1"
_symmetry_int_tables_number       1

loop_
  _symmetry_equiv_pos_as_xyz
  'x, y, z'

loop_
  _atom_site_label
  _atom_site_occupancy
  _atom_site_fract_x
  _atom_site_fract_y
  _atom_site_fract_z
  _atom_site_thermal_displace_type
  _atom_site_B_iso_or_equiv
  _atom_site_type_symbol
  V1       1.0000 0.12505  0.00114  0.12505  Biso   1.000  V 
  Zr1      1.0000 0.12510  0.00117  0.62510  Biso   1.000  Zr
  Zr2      1.0000 0.62510  0.00116  0.12510  Biso   1.000  Zr
  Zr3      1.0000 0.62509  0.00118  0.62508  Biso   1.000  Zr
  Zr4      1.0000 0.12511  0.50123  0.37507  Biso   1.000  Zr
  Zr5      1.0000 0.12509  0.50114  0.87514  Biso   1.000  Zr
  Zr6      1.0000 0.62511  0.50119  0.37562  Biso   1.000  Zr
  Zr7      1.0000 0.62509  0.50117  0.87457  Biso   1.000  Zr
  Zr8      1.0000 0.37507  0.50123  0.12511  Biso   1.000  Zr
  Zr9      1.0000 0.37563  0.50119  0.62511  Biso   1.000  Zr
  Zr10     1.0000 0.87515  0.50113  0.12509  Biso   1.000  Zr
  Zr11     1.0000 0.87457  0.50117  0.62509  Biso   1.000  Zr
  Zr12     1.0000 0.37431  0.00931  0.37431  Biso   1.000  Zr
  Zr13     1.0000 0.37431  0.99311  0.87591  Biso   1.000  Zr
  Zr14     1.0000 0.87591  0.99311  0.37431  Biso   1.000  Zr
  Zr15     1.0000 0.87587  0.00924  0.87587  Biso   1.000  Zr
  Zr16     1.0000 0.97760  0.29947  0.97759  Biso   1.000  Zr
  Zr17     1.0000 0.98817  0.26382  0.48042  Biso   1.000  Zr
  Zr18     1.0000 0.48044  0.26384  0.98815  Biso   1.000  Zr
  Zr19     1.0000 0.48838  0.26102  0.48836  Biso   1.000  Zr
  Zr20     1.0000 0.02271  0.21220  0.22752  Biso   1.000  Zr
  Zr21     1.0000 0.01007  0.24643  0.73338  Biso   1.000  Zr
  Zr22     1.0000 0.51683  0.24650  0.24009  Biso   1.000  Zr
  Zr23     1.0000 0.51122  0.24826  0.73896  Biso   1.000  Zr
  Zr24     1.0000 0.97755  0.70265  0.27265  Biso   1.000  Zr
  Zr25     1.0000 0.98816  0.73850  0.76979  Biso   1.000  Zr
  Zr26     1.0000 0.48043  0.73859  0.26204  Biso   1.000  Zr
  Zr27     1.0000 0.48837  0.74134  0.76184  Biso   1.000  Zr
  Zr28     1.0000 0.02268  0.78995  0.02269  Biso   1.000  Zr
  Zr29     1.0000 0.01008  0.75592  0.51683  Biso   1.000  Zr
  Zr30     1.0000 0.51681  0.75592  0.01010  Biso   1.000  Zr
  Zr31     1.0000 0.51122  0.75410  0.51124  Biso   1.000  Zr
  Zr32     1.0000 0.27270  0.29985  0.27271  Biso   1.000  Zr
  Zr33     1.0000 0.26202  0.26378  0.76979  Biso   1.000  Zr
  Zr34     1.0000 0.76978  0.26380  0.26204  Biso   1.000  Zr
  Zr35     1.0000 0.76182  0.26102  0.76184  Biso   1.000  Zr
  Zr36     1.0000 0.22754  0.21220  0.02273  Biso   1.000  Zr
  Zr37     1.0000 0.24011  0.24651  0.51685  Biso   1.000  Zr
  Zr38     1.0000 0.73340  0.24642  0.01009  Biso   1.000  Zr
  Zr39     1.0000 0.73898  0.24826  0.51124  Biso   1.000  Zr
  Zr40     1.0000 0.27264  0.70265  0.97754  Biso   1.000  Zr
  Zr41     1.0000 0.26202  0.73861  0.48042  Biso   1.000  Zr
  Zr42     1.0000 0.76977  0.73848  0.98814  Biso   1.000  Zr
  Zr43     1.0000 0.76182  0.74134  0.48834  Biso   1.000  Zr
  Zr44     1.0000 0.22752  0.79027  0.22750  Biso   1.000  Zr
  Zr45     1.0000 0.24011  0.75587  0.73337  Biso   1.000  Zr
  Zr46     1.0000 0.73339  0.75587  0.24008  Biso   1.000  Zr
  Zr47     1.0000 0.73898  0.75412  0.73895  Biso   1.000  Zr
