data_image0
_cell_length_a       5.08945
_cell_length_b       10.3548
_cell_length_c       10.1569
_cell_angle_alpha    92.966
_cell_angle_beta     93.2126
_cell_angle_gamma    88.8039

_symmetry_space_group_name_H-M    "P 1"
_symmetry_int_tables_number       1

loop_
  _symmetry_equiv_pos_as_xyz
  'x, y, z'

loop_
  _atom_site_label
  _atom_site_occupancy
  _atom_site_fract_x
  _atom_site_fract_y
  _atom_site_fract_z
  _atom_site_thermal_displace_type
  _atom_site_B_iso_or_equiv
  _atom_site_type_symbol
  Hf1      1.0000 0.21302  0.97844  0.13657  Biso   1.000  Hf
  Hf2      1.0000 0.22062  0.21418  0.39309  Biso   1.000  Hf
  Hf3      1.0000 0.82230  0.28779  0.06456  Biso   1.000  Hf
  Hf4      1.0000 0.72278  0.46923  0.37237  Biso   1.000  Hf
  Hf5      1.0000 0.98855  0.15138  0.21545  Biso   1.000  Hf
  Hf6      1.0000 0.03749  0.05882  0.46628  Biso   1.000  Hf
  Hf7      1.0000 0.05090  0.39879  0.21330  Biso   1.000  Hf
  Hf8      1.0000 0.89973  0.30800  0.45369  Biso   1.000  Hf
  Hf9      1.0000 0.46310  0.08685  0.26572  Biso   1.000  Hf
  Hf10     1.0000 0.52005  0.12965  0.51458  Biso   1.000  Hf
  Hf11     1.0000 0.42883  0.38163  0.47503  Biso   1.000  Hf
  Hf12     1.0000 0.55950  0.35855  0.21163  Biso   1.000  Hf
  Hf13     1.0000 0.25431  0.01344  0.63804  Biso   1.000  Hf
  Hf14     1.0000 0.29201  0.26190  0.86113  Biso   1.000  Hf
  Hf15     1.0000 0.73483  0.26738  0.63090  Biso   1.000  Hf
  Hf16     1.0000 0.75992  0.51348  0.84122  Biso   1.000  Hf
  Hf17     1.0000 0.07744  0.18331  0.69144  Biso   1.000  Hf
  Hf18     1.0000 0.05787  0.10723  0.98084  Biso   1.000  Hf
  Hf19     1.0000 0.90253  0.44994  0.65930  Biso   1.000  Hf
  Hf20     1.0000 0.90690  0.32499  0.86621  Biso   1.000  Hf
  Hf21     1.0000 0.54153  0.12100  0.75945  Biso   1.000  Hf
  Hf22     1.0000 0.54341  0.15290  0.00014  Biso   1.000  Hf
  Hf23     1.0000 0.53505  0.41598  0.96674  Biso   1.000  Hf
  Hf24     1.0000 0.44243  0.37958  0.72557  Biso   1.000  Hf
  Hf25     1.0000 0.30323  0.50727  0.10972  Biso   1.000  Hf
  Hf26     1.0000 0.22517  0.73668  0.37381  Biso   1.000  Hf
  Hf27     1.0000 0.73795  0.75535  0.13429  Biso   1.000  Hf
  Hf28     1.0000 0.70049  0.97822  0.38956  Biso   1.000  Hf
  Hf29     1.0000 0.08218  0.66491  0.19322  Biso   1.000  Hf
  Hf30     1.0000 0.04158  0.57266  0.43738  Biso   1.000  Hf
  Hf31     1.0000 0.94549  0.89984  0.24600  Biso   1.000  Hf
  Hf32     1.0000 0.92612  0.81661  0.47580  Biso   1.000  Hf
  Hf33     1.0000 0.58665  0.60032  0.23257  Biso   1.000  Hf
  Hf34     1.0000 0.51412  0.63367  0.48822  Biso   1.000  Hf
  Hf35     1.0000 0.44645  0.88372  0.50699  Biso   1.000  Hf
  Hf36     1.0000 0.46447  0.84259  0.25602  Biso   1.000  Hf
  Hf37     1.0000 0.25169  0.51777  0.60446  Biso   1.000  Hf
  Hf38     1.0000 0.26530  0.74679  0.87633  Biso   1.000  Hf
  Hf39     1.0000 0.71219  0.76800  0.62912  Biso   1.000  Hf
  Hf40     1.0000 0.73754  0.99640  0.89267  Biso   1.000  Hf
  Hf41     1.0000 0.02036  0.67729  0.71964  Biso   1.000  Hf
  Hf42     1.0000 0.08582  0.57339  0.94492  Biso   1.000  Hf
  Hf43     1.0000 0.94727  0.93210  0.72930  Biso   1.000  Hf
  Hf44     1.0000 0.98433  0.84515  0.98735  Biso   1.000  Hf
  Hf45     1.0000 0.50035  0.62933  0.73243  Biso   1.000  Hf
  Hf46     1.0000 0.56047  0.65411  0.97880  Biso   1.000  Hf
  Hf47     1.0000 0.49310  0.89797  0.01099  Biso   1.000  Hf
  Hf48     1.0000 0.47093  0.87329  0.76176  Biso   1.000  Hf
  W1       1.0000 0.29219  0.23330  0.13210  Biso   1.000  W 
