data_image0
_cell_length_a       10.1058
_cell_length_b       5.29865
_cell_length_c       10.1877
_cell_angle_alpha    88.9676
_cell_angle_beta     88.9296
_cell_angle_gamma    90.2075

_symmetry_space_group_name_H-M    "P 1"
_symmetry_int_tables_number       1

loop_
  _symmetry_equiv_pos_as_xyz
  'x, y, z'

loop_
  _atom_site_label
  _atom_site_occupancy
  _atom_site_fract_x
  _atom_site_fract_y
  _atom_site_fract_z
  _atom_site_thermal_displace_type
  _atom_site_B_iso_or_equiv
  _atom_site_type_symbol
  Zr1      1.0000 0.12438  0.13302  0.11159  Biso   1.000  Zr
  Zr2      1.0000 0.13807  0.45096  0.38835  Biso   1.000  Zr
  Zr3      1.0000 0.38198  0.53330  0.12567  Biso   1.000  Zr
  Zr4      1.0000 0.36732  0.95679  0.37501  Biso   1.000  Zr
  Zr5      1.0000 0.00842  0.37950  0.23570  Biso   1.000  Zr
  Zr6      1.0000 0.03994  0.11079  0.44916  Biso   1.000  Zr
  Zr7      1.0000 0.47580  0.84988  0.20671  Biso   1.000  Zr
  Zr8      1.0000 0.47205  0.62309  0.45363  Biso   1.000  Zr
  Zr9      1.0000 0.27256  0.21094  0.25009  Biso   1.000  Zr
  Zr10     1.0000 0.27475  0.24828  0.50334  Biso   1.000  Zr
  Zr11     1.0000 0.23564  0.75119  0.50284  Biso   1.000  Zr
  Zr12     1.0000 0.24154  0.69472  0.25539  Biso   1.000  Zr
  Zr13     1.0000 0.13574  0.00739  0.62615  Biso   1.000  Zr
  Zr14     1.0000 0.11409  0.46188  0.84674  Biso   1.000  Zr
  Zr15     1.0000 0.36952  0.51348  0.62651  Biso   1.000  Zr
  Zr16     1.0000 0.37934  0.96853  0.86485  Biso   1.000  Zr
  Zr17     1.0000 0.02971  0.33947  0.67236  Biso   1.000  Zr
  Zr18     1.0000 0.02648  0.13198  0.92387  Biso   1.000  Zr
  Zr19     1.0000 0.47452  0.83762  0.69564  Biso   1.000  Zr
  Zr20     1.0000 0.47412  0.64675  0.94625  Biso   1.000  Zr
  Zr21     1.0000 0.26217  0.21498  0.75018  Biso   1.000  Zr
  Zr22     1.0000 0.24662  0.38642  0.99470  Biso   1.000  Zr
  Zr23     1.0000 0.25093  0.86885  0.01087  Biso   1.000  Zr
  Zr24     1.0000 0.23971  0.71932  0.75061  Biso   1.000  Zr
  Zr25     1.0000 0.63535  0.02416  0.12800  Biso   1.000  Zr
  Zr26     1.0000 0.63417  0.45971  0.37353  Biso   1.000  Zr
  Zr27     1.0000 0.85446  0.52232  0.12045  Biso   1.000  Zr
  Zr28     1.0000 0.87530  0.96414  0.36919  Biso   1.000  Zr
  Zr29     1.0000 0.53687  0.35045  0.20438  Biso   1.000  Zr
  Zr30     1.0000 0.53266  0.12504  0.45063  Biso   1.000  Zr
  Zr31     1.0000 0.97398  0.87207  0.19077  Biso   1.000  Zr
  Zr32     1.0000 0.97169  0.63794  0.45062  Biso   1.000  Zr
  Zr33     1.0000 0.76476  0.21387  0.24680  Biso   1.000  Zr
  Zr34     1.0000 0.76926  0.26496  0.49341  Biso   1.000  Zr
  Zr35     1.0000 0.73725  0.76704  0.49652  Biso   1.000  Zr
  Zr36     1.0000 0.73432  0.72565  0.25064  Biso   1.000  Zr
  Zr37     1.0000 0.63645  0.01981  0.61881  Biso   1.000  Zr
  Zr38     1.0000 0.63160  0.45938  0.87320  Biso   1.000  Zr
  Zr39     1.0000 0.86354  0.52558  0.61696  Biso   1.000  Zr
  Zr40     1.0000 0.85996  0.96074  0.86957  Biso   1.000  Zr
  Zr41     1.0000 0.52628  0.33167  0.70853  Biso   1.000  Zr
  Zr42     1.0000 0.52141  0.15260  0.96278  Biso   1.000  Zr
  Zr43     1.0000 0.97388  0.82685  0.70521  Biso   1.000  Zr
  Zr44     1.0000 0.96646  0.65174  0.95298  Biso   1.000  Zr
  Zr45     1.0000 0.76653  0.22067  0.74221  Biso   1.000  Zr
  Zr46     1.0000 0.76555  0.25987  0.99277  Biso   1.000  Zr
  Zr47     1.0000 0.72490  0.76401  0.99672  Biso   1.000  Zr
  Zr48     1.0000 0.73177  0.72058  0.74599  Biso   1.000  Zr
  W1       1.0000 0.11081  0.62701  0.10148  Biso   1.000  W 
