data_image0
_cell_length_a       10.0026
_cell_length_b       5.20101
_cell_length_c       10.0464
_cell_angle_alpha    89.8536
_cell_angle_beta     89.8295
_cell_angle_gamma    89.9413

_symmetry_space_group_name_H-M    "P 1"
_symmetry_int_tables_number       1

loop_
  _symmetry_equiv_pos_as_xyz
  'x, y, z'

loop_
  _atom_site_label
  _atom_site_occupancy
  _atom_site_fract_x
  _atom_site_fract_y
  _atom_site_fract_z
  _atom_site_thermal_displace_type
  _atom_site_B_iso_or_equiv
  _atom_site_type_symbol
  W1       1.0000 0.13790  0.03904  0.12566  Biso   1.000  W 
  Zr1      1.0000 0.13332  0.46823  0.37381  Biso   1.000  Zr
  Zr2      1.0000 0.36590  0.53932  0.12584  Biso   1.000  Zr
  Zr3      1.0000 0.36593  0.97001  0.37500  Biso   1.000  Zr
  Zr4      1.0000 0.04124  0.35715  0.19033  Biso   1.000  Zr
  Zr5      1.0000 0.03303  0.13758  0.44929  Biso   1.000  Zr
  Zr6      1.0000 0.46564  0.86786  0.19500  Biso   1.000  Zr
  Zr7      1.0000 0.46424  0.63400  0.44294  Biso   1.000  Zr
  Zr8      1.0000 0.26978  0.23794  0.24513  Biso   1.000  Zr
  Zr9      1.0000 0.26936  0.26623  0.49769  Biso   1.000  Zr
  Zr10     1.0000 0.23019  0.76605  0.49872  Biso   1.000  Zr
  Zr11     1.0000 0.22538  0.74730  0.24745  Biso   1.000  Zr
  Zr12     1.0000 0.13362  0.03084  0.62610  Biso   1.000  Zr
  Zr13     1.0000 0.13310  0.46609  0.87788  Biso   1.000  Zr
  Zr14     1.0000 0.36569  0.53194  0.62522  Biso   1.000  Zr
  Zr15     1.0000 0.36423  0.96785  0.87645  Biso   1.000  Zr
  Zr16     1.0000 0.03200  0.35924  0.70191  Biso   1.000  Zr
  Zr17     1.0000 0.03544  0.12513  0.96038  Biso   1.000  Zr
  Zr18     1.0000 0.46264  0.86869  0.69398  Biso   1.000  Zr
  Zr19     1.0000 0.46016  0.63006  0.94366  Biso   1.000  Zr
  Zr20     1.0000 0.26930  0.23454  0.74966  Biso   1.000  Zr
  Zr21     1.0000 0.26818  0.25939  0.00227  Biso   1.000  Zr
  Zr22     1.0000 0.22223  0.76712  0.00138  Biso   1.000  Zr
  Zr23     1.0000 0.22925  0.73197  0.75013  Biso   1.000  Zr
  Zr24     1.0000 0.63568  0.03377  0.12501  Biso   1.000  Zr
  Zr25     1.0000 0.63522  0.47047  0.37380  Biso   1.000  Zr
  Zr26     1.0000 0.86966  0.53256  0.12290  Biso   1.000  Zr
  Zr27     1.0000 0.86862  0.96871  0.37424  Biso   1.000  Zr
  Zr28     1.0000 0.53658  0.37010  0.19288  Biso   1.000  Zr
  Zr29     1.0000 0.53534  0.13504  0.44322  Biso   1.000  Zr
  Zr30     1.0000 0.97724  0.86114  0.19264  Biso   1.000  Zr
  Zr31     1.0000 0.96582  0.63359  0.44616  Biso   1.000  Zr
  Zr32     1.0000 0.77270  0.23568  0.24791  Biso   1.000  Zr
  Zr33     1.0000 0.76937  0.26609  0.49804  Biso   1.000  Zr
  Zr34     1.0000 0.73048  0.76652  0.49724  Biso   1.000  Zr
  Zr35     1.0000 0.73509  0.73736  0.24695  Biso   1.000  Zr
  Zr36     1.0000 0.63315  0.03097  0.62450  Biso   1.000  Zr
  Zr37     1.0000 0.63305  0.46733  0.87516  Biso   1.000  Zr
  Zr38     1.0000 0.86568  0.52937  0.62574  Biso   1.000  Zr
  Zr39     1.0000 0.86707  0.96852  0.87489  Biso   1.000  Zr
  Zr40     1.0000 0.53524  0.36851  0.69369  Biso   1.000  Zr
  Zr41     1.0000 0.53468  0.13062  0.94371  Biso   1.000  Zr
  Zr42     1.0000 0.96445  0.86416  0.69494  Biso   1.000  Zr
  Zr43     1.0000 0.96113  0.62767  0.94079  Biso   1.000  Zr
  Zr44     1.0000 0.76793  0.23229  0.74855  Biso   1.000  Zr
  Zr45     1.0000 0.76956  0.26525  0.99801  Biso   1.000  Zr
  Zr46     1.0000 0.72937  0.76556  0.99753  Biso   1.000  Zr
  Zr47     1.0000 0.72939  0.73334  0.74798  Biso   1.000  Zr
