data_image0
_cell_length_a       10.0197
_cell_length_b       10.2131
_cell_length_c       10.0197
_cell_angle_alpha    90
_cell_angle_beta     90.001
_cell_angle_gamma    90

_symmetry_space_group_name_H-M    "P 1"
_symmetry_int_tables_number       1

loop_
  _symmetry_equiv_pos_as_xyz
  'x, y, z'

loop_
  _atom_site_label
  _atom_site_occupancy
  _atom_site_fract_x
  _atom_site_fract_y
  _atom_site_fract_z
  _atom_site_thermal_displace_type
  _atom_site_B_iso_or_equiv
  _atom_site_type_symbol
  Y1       1.0000 0.12491  0.00018  0.12491  Biso   1.000  Y 
  Hf1      1.0000 0.12395  0.25084  0.37413  Biso   1.000  Hf
  Hf2      1.0000 0.37413  0.25084  0.12395  Biso   1.000  Hf
  Hf3      1.0000 0.37438  0.00001  0.37438  Biso   1.000  Hf
  Hf4      1.0000 0.99765  0.14799  0.99765  Biso   1.000  Hf
  Hf5      1.0000 0.99209  0.11407  0.25773  Biso   1.000  Hf
  Hf6      1.0000 0.00282  0.35724  0.24699  Biso   1.000  Hf
  Hf7      1.0000 0.99862  0.39587  0.99862  Biso   1.000  Hf
  Hf8      1.0000 0.25217  0.14799  0.25217  Biso   1.000  Hf
  Hf9      1.0000 0.25773  0.11407  0.99209  Biso   1.000  Hf
  Hf10     1.0000 0.24699  0.35724  0.00282  Biso   1.000  Hf
  Hf11     1.0000 0.25120  0.39587  0.25120  Biso   1.000  Hf
  Hf12     1.0000 0.12491  0.00017  0.62491  Biso   1.000  Hf
  Hf13     1.0000 0.12587  0.25084  0.87569  Biso   1.000  Hf
  Hf14     1.0000 0.37466  0.25001  0.62470  Biso   1.000  Hf
  Hf15     1.0000 0.37439  0.00036  0.87543  Biso   1.000  Hf
  Hf16     1.0000 0.00485  0.14796  0.50576  Biso   1.000  Hf
  Hf17     1.0000 0.99744  0.10252  0.75096  Biso   1.000  Hf
  Hf18     1.0000 0.00132  0.35308  0.74759  Biso   1.000  Hf
  Hf19     1.0000 0.99938  0.39769  0.49805  Biso   1.000  Hf
  Hf20     1.0000 0.24497  0.14796  0.74406  Biso   1.000  Hf
  Hf21     1.0000 0.25238  0.10252  0.49886  Biso   1.000  Hf
  Hf22     1.0000 0.24850  0.35309  0.50223  Biso   1.000  Hf
  Hf23     1.0000 0.25044  0.39769  0.75177  Biso   1.000  Hf
  Hf24     1.0000 0.12491  0.50016  0.12491  Biso   1.000  Hf
  Hf25     1.0000 0.12587  0.74951  0.37412  Biso   1.000  Hf
  Hf26     1.0000 0.37411  0.74951  0.12587  Biso   1.000  Hf
  Hf27     1.0000 0.37462  0.49924  0.37462  Biso   1.000  Hf
  Hf28     1.0000 0.00281  0.64311  0.00281  Biso   1.000  Hf
  Hf29     1.0000 0.99863  0.60448  0.25119  Biso   1.000  Hf
  Hf30     1.0000 0.99765  0.85236  0.25217  Biso   1.000  Hf
  Hf31     1.0000 0.99209  0.88628  0.99209  Biso   1.000  Hf
  Hf32     1.0000 0.24701  0.64311  0.24701  Biso   1.000  Hf
  Hf33     1.0000 0.25119  0.60448  0.99863  Biso   1.000  Hf
  Hf34     1.0000 0.25217  0.85236  0.99765  Biso   1.000  Hf
  Hf35     1.0000 0.25772  0.88628  0.25773  Biso   1.000  Hf
  Hf36     1.0000 0.12491  0.50018  0.62491  Biso   1.000  Hf
  Hf37     1.0000 0.12395  0.74951  0.87570  Biso   1.000  Hf
  Hf38     1.0000 0.37465  0.75035  0.62512  Biso   1.000  Hf
  Hf39     1.0000 0.37462  0.50112  0.87520  Biso   1.000  Hf
  Hf40     1.0000 0.00132  0.64727  0.50222  Biso   1.000  Hf
  Hf41     1.0000 0.99936  0.60266  0.75175  Biso   1.000  Hf
  Hf42     1.0000 0.00487  0.85239  0.74406  Biso   1.000  Hf
  Hf43     1.0000 0.99741  0.89783  0.49888  Biso   1.000  Hf
  Hf44     1.0000 0.24850  0.64727  0.74760  Biso   1.000  Hf
  Hf45     1.0000 0.25045  0.60266  0.49807  Biso   1.000  Hf
  Hf46     1.0000 0.24495  0.85239  0.50576  Biso   1.000  Hf
  Hf47     1.0000 0.25241  0.89783  0.75094  Biso   1.000  Hf
  Hf48     1.0000 0.62491  0.00017  0.12491  Biso   1.000  Hf
  Hf49     1.0000 0.62470  0.25001  0.37466  Biso   1.000  Hf
  Hf50     1.0000 0.87569  0.25084  0.12587  Biso   1.000  Hf
  Hf51     1.0000 0.87543  0.00036  0.37439  Biso   1.000  Hf
  Hf52     1.0000 0.50576  0.14796  0.00485  Biso   1.000  Hf
  Hf53     1.0000 0.49886  0.10252  0.25238  Biso   1.000  Hf
  Hf54     1.0000 0.50223  0.35308  0.24850  Biso   1.000  Hf
  Hf55     1.0000 0.49805  0.39769  0.99938  Biso   1.000  Hf
  Hf56     1.0000 0.74406  0.14796  0.24497  Biso   1.000  Hf
  Hf57     1.0000 0.75095  0.10252  0.99744  Biso   1.000  Hf
  Hf58     1.0000 0.74759  0.35308  0.00132  Biso   1.000  Hf
  Hf59     1.0000 0.75177  0.39769  0.25044  Biso   1.000  Hf
  Hf60     1.0000 0.62491  0.00016  0.62491  Biso   1.000  Hf
  Hf61     1.0000 0.62512  0.25001  0.87515  Biso   1.000  Hf
  Hf62     1.0000 0.87515  0.25001  0.62512  Biso   1.000  Hf
  Hf63     1.0000 0.87544  0.00001  0.87544  Biso   1.000  Hf
  Hf64     1.0000 0.50349  0.14769  0.50350  Biso   1.000  Hf
  Hf65     1.0000 0.49813  0.10307  0.75169  Biso   1.000  Hf
  Hf66     1.0000 0.50097  0.35270  0.74885  Biso   1.000  Hf
  Hf67     1.0000 0.49924  0.39754  0.49924  Biso   1.000  Hf
  Hf68     1.0000 0.74632  0.14769  0.74632  Biso   1.000  Hf
  Hf69     1.0000 0.75169  0.10307  0.49813  Biso   1.000  Hf
  Hf70     1.0000 0.74885  0.35270  0.50097  Biso   1.000  Hf
  Hf71     1.0000 0.75058  0.39754  0.75057  Biso   1.000  Hf
  Hf72     1.0000 0.62491  0.50018  0.12491  Biso   1.000  Hf
  Hf73     1.0000 0.62512  0.75035  0.37465  Biso   1.000  Hf
  Hf74     1.0000 0.87570  0.74951  0.12395  Biso   1.000  Hf
  Hf75     1.0000 0.87520  0.50112  0.37462  Biso   1.000  Hf
  Hf76     1.0000 0.50222  0.64727  0.00132  Biso   1.000  Hf
  Hf77     1.0000 0.49806  0.60266  0.25045  Biso   1.000  Hf
  Hf78     1.0000 0.50576  0.85239  0.24495  Biso   1.000  Hf
  Hf79     1.0000 0.49888  0.89783  0.99741  Biso   1.000  Hf
  Hf80     1.0000 0.74760  0.64727  0.24850  Biso   1.000  Hf
  Hf81     1.0000 0.75175  0.60266  0.99936  Biso   1.000  Hf
  Hf82     1.0000 0.74406  0.85239  0.00487  Biso   1.000  Hf
  Hf83     1.0000 0.75093  0.89783  0.25241  Biso   1.000  Hf
  Hf84     1.0000 0.62491  0.50019  0.62491  Biso   1.000  Hf
  Hf85     1.0000 0.62470  0.75035  0.87516  Biso   1.000  Hf
  Hf86     1.0000 0.87517  0.75035  0.62470  Biso   1.000  Hf
  Hf87     1.0000 0.87519  0.49924  0.87520  Biso   1.000  Hf
  Hf88     1.0000 0.50098  0.64765  0.50098  Biso   1.000  Hf
  Hf89     1.0000 0.49923  0.60281  0.75058  Biso   1.000  Hf
  Hf90     1.0000 0.50352  0.85265  0.74629  Biso   1.000  Hf
  Hf91     1.0000 0.49811  0.89728  0.49811  Biso   1.000  Hf
  Hf92     1.0000 0.74884  0.64765  0.74884  Biso   1.000  Hf
  Hf93     1.0000 0.75058  0.60281  0.49924  Biso   1.000  Hf
  Hf94     1.0000 0.74629  0.85265  0.50352  Biso   1.000  Hf
  Hf95     1.0000 0.75171  0.89728  0.75171  Biso   1.000  Hf
