data_image0
_cell_length_a       5.13734
_cell_length_b       10.3735
_cell_length_c       10.181
_cell_angle_alpha    91.1741
_cell_angle_beta     90.5693
_cell_angle_gamma    92.0229

_symmetry_space_group_name_H-M    "P 1"
_symmetry_int_tables_number       1

loop_
  _symmetry_equiv_pos_as_xyz
  'x, y, z'

loop_
  _atom_site_label
  _atom_site_occupancy
  _atom_site_fract_x
  _atom_site_fract_y
  _atom_site_fract_z
  _atom_site_thermal_displace_type
  _atom_site_B_iso_or_equiv
  _atom_site_type_symbol
  Zr1      1.0000 0.25257  0.96982  0.08944  Biso   1.000  Zr
  Zr2      1.0000 0.24663  0.24033  0.38817  Biso   1.000  Zr
  Zr3      1.0000 0.68284  0.25034  0.10598  Biso   1.000  Zr
  Zr4      1.0000 0.75279  0.48503  0.36034  Biso   1.000  Zr
  Zr5      1.0000 0.90720  0.18278  0.26771  Biso   1.000  Zr
  Zr6      1.0000 0.00997  0.09422  0.48884  Biso   1.000  Zr
  Zr7      1.0000 0.94256  0.42291  0.19185  Biso   1.000  Zr
  Zr8      1.0000 0.97721  0.35125  0.47610  Biso   1.000  Zr
  Zr9      1.0000 0.42287  0.11432  0.23028  Biso   1.000  Zr
  Zr10     1.0000 0.51377  0.13442  0.48477  Biso   1.000  Zr
  Zr11     1.0000 0.49441  0.38636  0.48672  Biso   1.000  Zr
  Zr12     1.0000 0.44722  0.37105  0.24109  Biso   1.000  Zr
  Zr13     1.0000 0.25418  0.98371  0.60037  Biso   1.000  Zr
  Zr14     1.0000 0.24666  0.26112  0.82684  Biso   1.000  Zr
  Zr15     1.0000 0.75168  0.25144  0.60928  Biso   1.000  Zr
  Zr16     1.0000 0.75263  0.48261  0.87360  Biso   1.000  Zr
  Zr17     1.0000 0.95600  0.15116  0.74292  Biso   1.000  Zr
  Zr18     1.0000 0.92384  0.07977  0.01699  Biso   1.000  Zr
  Zr19     1.0000 0.02436  0.40382  0.72357  Biso   1.000  Zr
  Zr20     1.0000 0.91496  0.31943  0.94674  Biso   1.000  Zr
  Zr21     1.0000 0.46868  0.11404  0.72725  Biso   1.000  Zr
  Zr22     1.0000 0.42778  0.12843  0.97277  Biso   1.000  Zr
  Zr23     1.0000 0.44355  0.38508  0.98437  Biso   1.000  Zr
  Zr24     1.0000 0.52741  0.36620  0.73004  Biso   1.000  Zr
  Zr25     1.0000 0.28349  0.52979  0.12141  Biso   1.000  Zr
  Zr26     1.0000 0.30152  0.74261  0.37359  Biso   1.000  Zr
  Zr27     1.0000 0.76668  0.76590  0.12385  Biso   1.000  Zr
  Zr28     1.0000 0.71976  0.01985  0.34129  Biso   1.000  Zr
  Zr29     1.0000 0.08067  0.67781  0.20792  Biso   1.000  Zr
  Zr30     1.0000 0.07722  0.58316  0.44521  Biso   1.000  Zr
  Zr31     1.0000 0.97752  0.91860  0.23036  Biso   1.000  Zr
  Zr32     1.0000 0.04570  0.83395  0.49324  Biso   1.000  Zr
  Zr33     1.0000 0.56592  0.62363  0.24503  Biso   1.000  Zr
  Zr34     1.0000 0.55553  0.63836  0.49181  Biso   1.000  Zr
  Zr35     1.0000 0.53630  0.89051  0.48411  Biso   1.000  Zr
  Zr36     1.0000 0.48977  0.86771  0.23202  Biso   1.000  Zr
  Zr37     1.0000 0.27602  0.51198  0.60736  Biso   1.000  Zr
  Zr38     1.0000 0.29801  0.72936  0.86479  Biso   1.000  Zr
  Zr39     1.0000 0.76598  0.76314  0.62448  Biso   1.000  Zr
  Zr40     1.0000 0.71971  0.01434  0.85180  Biso   1.000  Zr
  Zr41     1.0000 0.06711  0.66164  0.70375  Biso   1.000  Zr
  Zr42     1.0000 0.07638  0.57614  0.95210  Biso   1.000  Zr
  Zr43     1.0000 0.97396  0.91205  0.73153  Biso   1.000  Zr
  Zr44     1.0000 0.04017  0.82725  0.98412  Biso   1.000  Zr
  Zr45     1.0000 0.54862  0.60978  0.74100  Biso   1.000  Zr
  Zr46     1.0000 0.56216  0.63351  0.99155  Biso   1.000  Zr
  Zr47     1.0000 0.53598  0.87754  0.97995  Biso   1.000  Zr
  Zr48     1.0000 0.48376  0.86071  0.73254  Biso   1.000  Zr
  Y1       1.0000 0.17823  0.25013  0.10692  Biso   1.000  Y 
