data_image0
_cell_length_a       5.12329
_cell_length_b       10.3935
_cell_length_c       10.1747
_cell_angle_alpha    88.9898
_cell_angle_beta     89.4603
_cell_angle_gamma    92.1944

_symmetry_space_group_name_H-M    "P 1"
_symmetry_int_tables_number       1

loop_
  _symmetry_equiv_pos_as_xyz
  'x, y, z'

loop_
  _atom_site_label
  _atom_site_occupancy
  _atom_site_fract_x
  _atom_site_fract_y
  _atom_site_fract_z
  _atom_site_thermal_displace_type
  _atom_site_B_iso_or_equiv
  _atom_site_type_symbol
  Zr1      1.0000 0.25500  0.97071  0.14453  Biso   1.000  Zr
  Zr2      1.0000 0.24017  0.25913  0.40152  Biso   1.000  Zr
  Zr3      1.0000 0.68302  0.25198  0.12537  Biso   1.000  Zr
  Zr4      1.0000 0.72106  0.01455  0.38251  Biso   1.000  Zr
  Zr5      1.0000 0.90796  0.18398  0.96736  Biso   1.000  Zr
  Zr6      1.0000 0.94043  0.07779  0.22137  Biso   1.000  Zr
  Zr7      1.0000 0.91482  0.31805  0.28365  Biso   1.000  Zr
  Zr8      1.0000 0.95022  0.42470  0.03884  Biso   1.000  Zr
  Zr9      1.0000 0.43719  0.13126  0.25956  Biso   1.000  Zr
  Zr10     1.0000 0.42057  0.11294  0.00390  Biso   1.000  Zr
  Zr11     1.0000 0.45111  0.36945  0.99038  Biso   1.000  Zr
  Zr12     1.0000 0.44127  0.38706  0.24550  Biso   1.000  Zr
  Zr13     1.0000 0.25676  0.98401  0.63453  Biso   1.000  Zr
  Zr14     1.0000 0.24255  0.24014  0.84731  Biso   1.000  Zr
  Zr15     1.0000 0.74352  0.25326  0.62229  Biso   1.000  Zr
  Zr16     1.0000 0.71844  0.02041  0.89220  Biso   1.000  Zr
  Zr17     1.0000 0.95166  0.15273  0.49162  Biso   1.000  Zr
  Zr18     1.0000 0.01046  0.09097  0.74663  Biso   1.000  Zr
  Zr19     1.0000 0.97205  0.34813  0.75710  Biso   1.000  Zr
  Zr20     1.0000 0.01800  0.40436  0.50894  Biso   1.000  Zr
  Zr21     1.0000 0.51210  0.13521  0.74890  Biso   1.000  Zr
  Zr22     1.0000 0.46471  0.11366  0.50556  Biso   1.000  Zr
  Zr23     1.0000 0.51958  0.36559  0.50035  Biso   1.000  Zr
  Zr24     1.0000 0.49061  0.38657  0.74421  Biso   1.000  Zr
  Zr25     1.0000 0.28324  0.52955  0.10944  Biso   1.000  Zr
  Zr26     1.0000 0.30018  0.72946  0.36688  Biso   1.000  Zr
  Zr27     1.0000 0.76864  0.76611  0.10762  Biso   1.000  Zr
  Zr28     1.0000 0.75083  0.48183  0.35727  Biso   1.000  Zr
  Zr29     1.0000 0.08224  0.67840  0.02304  Biso   1.000  Zr
  Zr30     1.0000 0.07616  0.57513  0.27936  Biso   1.000  Zr
  Zr31     1.0000 0.04480  0.82503  0.24691  Biso   1.000  Zr
  Zr32     1.0000 0.97617  0.92059  0.00433  Biso   1.000  Zr
  Zr33     1.0000 0.56221  0.63473  0.23946  Biso   1.000  Zr
  Zr34     1.0000 0.56685  0.62235  0.98664  Biso   1.000  Zr
  Zr35     1.0000 0.48923  0.86651  0.00034  Biso   1.000  Zr
  Zr36     1.0000 0.53935  0.87920  0.25237  Biso   1.000  Zr
  Zr37     1.0000 0.27771  0.51153  0.62179  Biso   1.000  Zr
  Zr38     1.0000 0.30523  0.74135  0.85778  Biso   1.000  Zr
  Zr39     1.0000 0.76921  0.76322  0.60718  Biso   1.000  Zr
  Zr40     1.0000 0.75394  0.48502  0.86998  Biso   1.000  Zr
  Zr41     1.0000 0.06988  0.66234  0.52744  Biso   1.000  Zr
  Zr42     1.0000 0.08041  0.58095  0.78569  Biso   1.000  Zr
  Zr43     1.0000 0.04906  0.83185  0.73910  Biso   1.000  Zr
  Zr44     1.0000 0.97724  0.91330  0.50139  Biso   1.000  Zr
  Zr45     1.0000 0.56014  0.63795  0.73956  Biso   1.000  Zr
  Zr46     1.0000 0.55120  0.60925  0.49014  Biso   1.000  Zr
  Zr47     1.0000 0.48691  0.86044  0.49978  Biso   1.000  Zr
  Zr48     1.0000 0.54010  0.89047  0.74875  Biso   1.000  Zr
  Yb1      1.0000 0.17785  0.24987  0.12542  Biso   1.000  Yb
