data_image0
_cell_length_a       9.95487
_cell_length_b       5.16507
_cell_length_c       10.0222
_cell_angle_alpha    90.3532
_cell_angle_beta     89.4743
_cell_angle_gamma    90.1282

_symmetry_space_group_name_H-M    "P 1"
_symmetry_int_tables_number       1

loop_
  _symmetry_equiv_pos_as_xyz
  'x, y, z'

loop_
  _atom_site_label
  _atom_site_occupancy
  _atom_site_fract_x
  _atom_site_fract_y
  _atom_site_fract_z
  _atom_site_thermal_displace_type
  _atom_site_B_iso_or_equiv
  _atom_site_type_symbol
  Zn1      1.0000 0.12329  0.04679  0.11032  Biso   1.000  Zn
  Hf1      1.0000 0.13471  0.03679  0.62962  Biso   1.000  Hf
  Hf2      1.0000 0.63483  0.03236  0.12558  Biso   1.000  Hf
  Hf3      1.0000 0.63142  0.03143  0.62314  Biso   1.000  Hf
  Hf4      1.0000 0.13727  0.45956  0.37488  Biso   1.000  Hf
  Hf5      1.0000 0.13344  0.47302  0.87991  Biso   1.000  Hf
  Hf6      1.0000 0.63482  0.46796  0.37540  Biso   1.000  Hf
  Hf7      1.0000 0.63188  0.46680  0.87444  Biso   1.000  Hf
  Hf8      1.0000 0.36208  0.52752  0.12934  Biso   1.000  Hf
  Hf9      1.0000 0.36507  0.53742  0.62849  Biso   1.000  Hf
  Hf10     1.0000 0.86744  0.53279  0.12170  Biso   1.000  Hf
  Hf11     1.0000 0.86567  0.53231  0.62279  Biso   1.000  Hf
  Hf12     1.0000 0.36187  0.96406  0.37444  Biso   1.000  Hf
  Hf13     1.0000 0.36100  0.96939  0.88166  Biso   1.000  Hf
  Hf14     1.0000 0.87032  0.96817  0.37358  Biso   1.000  Hf
  Hf15     1.0000 0.86315  0.96890  0.87177  Biso   1.000  Hf
  Hf16     1.0000 0.03595  0.36885  0.19332  Biso   1.000  Hf
  Hf17     1.0000 0.03705  0.37790  0.69297  Biso   1.000  Hf
  Hf18     1.0000 0.53696  0.36856  0.19599  Biso   1.000  Hf
  Hf19     1.0000 0.53513  0.36842  0.69425  Biso   1.000  Hf
  Hf20     1.0000 0.03630  0.12810  0.44916  Biso   1.000  Hf
  Hf21     1.0000 0.03318  0.13709  0.92895  Biso   1.000  Hf
  Hf22     1.0000 0.53585  0.13225  0.44319  Biso   1.000  Hf
  Hf23     1.0000 0.53463  0.13183  0.94637  Biso   1.000  Hf
  Hf24     1.0000 0.46955  0.86218  0.19699  Biso   1.000  Hf
  Hf25     1.0000 0.46278  0.87061  0.69827  Biso   1.000  Hf
  Hf26     1.0000 0.97307  0.86248  0.19464  Biso   1.000  Hf
  Hf27     1.0000 0.96147  0.87092  0.69016  Biso   1.000  Hf
  Hf28     1.0000 0.46809  0.63526  0.45076  Biso   1.000  Hf
  Hf29     1.0000 0.45953  0.63032  0.94372  Biso   1.000  Hf
  Hf30     1.0000 0.96431  0.62749  0.44092  Biso   1.000  Hf
  Hf31     1.0000 0.96055  0.63620  0.94134  Biso   1.000  Hf
  Hf32     1.0000 0.27269  0.22646  0.24983  Biso   1.000  Hf
  Hf33     1.0000 0.27161  0.24185  0.75235  Biso   1.000  Hf
  Hf34     1.0000 0.77273  0.23172  0.24693  Biso   1.000  Hf
  Hf35     1.0000 0.76842  0.23526  0.74652  Biso   1.000  Hf
  Hf36     1.0000 0.27200  0.26342  0.50160  Biso   1.000  Hf
  Hf37     1.0000 0.26897  0.26737  0.99996  Biso   1.000  Hf
  Hf38     1.0000 0.77004  0.26637  0.49698  Biso   1.000  Hf
  Hf39     1.0000 0.76979  0.26549  0.99693  Biso   1.000  Hf
  Hf40     1.0000 0.22841  0.76341  0.50506  Biso   1.000  Hf
  Hf41     1.0000 0.22650  0.76848  0.00848  Biso   1.000  Hf
  Hf42     1.0000 0.73186  0.76755  0.49705  Biso   1.000  Hf
  Hf43     1.0000 0.72658  0.76319  0.99778  Biso   1.000  Hf
  Hf44     1.0000 0.24197  0.71192  0.26105  Biso   1.000  Hf
  Hf45     1.0000 0.22747  0.74197  0.75433  Biso   1.000  Hf
  Hf46     1.0000 0.73419  0.73322  0.24722  Biso   1.000  Hf
  Hf47     1.0000 0.72731  0.73389  0.74686  Biso   1.000  Hf
