data_image0
_cell_length_a       10.0533
_cell_length_b       5.04048
_cell_length_c       10.0534
_cell_angle_alpha    90.013
_cell_angle_beta     90.0002
_cell_angle_gamma    90.0167

_symmetry_space_group_name_H-M    "P 1"
_symmetry_int_tables_number       1

loop_
  _symmetry_equiv_pos_as_xyz
  'x, y, z'

loop_
  _atom_site_label
  _atom_site_occupancy
  _atom_site_fract_x
  _atom_site_fract_y
  _atom_site_fract_z
  _atom_site_thermal_displace_type
  _atom_site_B_iso_or_equiv
  _atom_site_type_symbol
  Zn1      1.0000 0.12472  0.00065  0.12467  Biso   1.000  Zn
  Hf1      1.0000 0.12471  0.00068  0.62475  Biso   1.000  Hf
  Hf2      1.0000 0.62475  0.00068  0.12465  Biso   1.000  Hf
  Hf3      1.0000 0.62524  0.00077  0.62547  Biso   1.000  Hf
  Hf4      1.0000 0.12465  0.50079  0.37382  Biso   1.000  Hf
  Hf5      1.0000 0.12466  0.50064  0.87577  Biso   1.000  Hf
  Hf6      1.0000 0.62498  0.50105  0.37278  Biso   1.000  Hf
  Hf7      1.0000 0.62491  0.50039  0.87621  Biso   1.000  Hf
  Hf8      1.0000 0.37381  0.50080  0.12459  Biso   1.000  Hf
  Hf9      1.0000 0.37287  0.50119  0.62508  Biso   1.000  Hf
  Hf10     1.0000 0.87576  0.50064  0.12459  Biso   1.000  Hf
  Hf11     1.0000 0.87630  0.50025  0.62501  Biso   1.000  Hf
  Hf12     1.0000 0.37139  0.00086  0.37142  Biso   1.000  Hf
  Hf13     1.0000 0.37168  0.00108  0.87798  Biso   1.000  Hf
  Hf14     1.0000 0.87806  0.00095  0.37161  Biso   1.000  Hf
  Hf15     1.0000 0.87780  0.00000  0.87782  Biso   1.000  Hf
  Hf16     1.0000 0.98526  0.30884  0.98524  Biso   1.000  Hf
  Hf17     1.0000 0.99616  0.29284  0.49390  Biso   1.000  Hf
  Hf18     1.0000 0.49393  0.29282  0.99618  Biso   1.000  Hf
  Hf19     1.0000 0.49795  0.30079  0.49798  Biso   1.000  Hf
  Hf20     1.0000 0.00615  0.20194  0.24344  Biso   1.000  Hf
  Hf21     1.0000 0.00028  0.20799  0.74391  Biso   1.000  Hf
  Hf22     1.0000 0.50564  0.20810  0.24910  Biso   1.000  Hf
  Hf23     1.0000 0.50055  0.20336  0.74873  Biso   1.000  Hf
  Hf24     1.0000 0.98520  0.69221  0.26421  Biso   1.000  Hf
  Hf25     1.0000 0.99632  0.70839  0.75557  Biso   1.000  Hf
  Hf26     1.0000 0.49380  0.70849  0.25331  Biso   1.000  Hf
  Hf27     1.0000 0.49816  0.70313  0.75150  Biso   1.000  Hf
  Hf28     1.0000 0.00600  0.79925  0.00603  Biso   1.000  Hf
  Hf29     1.0000 0.00045  0.79316  0.50552  Biso   1.000  Hf
  Hf30     1.0000 0.50551  0.79314  0.00042  Biso   1.000  Hf
  Hf31     1.0000 0.50077  0.80061  0.50072  Biso   1.000  Hf
  Hf32     1.0000 0.26431  0.30958  0.26429  Biso   1.000  Hf
  Hf33     1.0000 0.25316  0.29296  0.75567  Biso   1.000  Hf
  Hf34     1.0000 0.75571  0.29301  0.25318  Biso   1.000  Hf
  Hf35     1.0000 0.75130  0.29699  0.75133  Biso   1.000  Hf
  Hf36     1.0000 0.24347  0.20204  0.00611  Biso   1.000  Hf
  Hf37     1.0000 0.24908  0.20815  0.50562  Biso   1.000  Hf
  Hf38     1.0000 0.74395  0.20804  0.00029  Biso   1.000  Hf
  Hf39     1.0000 0.74871  0.20257  0.50057  Biso   1.000  Hf
  Hf40     1.0000 0.26418  0.69238  0.98522  Biso   1.000  Hf
  Hf41     1.0000 0.25335  0.70851  0.49382  Biso   1.000  Hf
  Hf42     1.0000 0.75554  0.70841  0.99629  Biso   1.000  Hf
  Hf43     1.0000 0.75154  0.70234  0.49812  Biso   1.000  Hf
  Hf44     1.0000 0.24337  0.79972  0.24340  Biso   1.000  Hf
  Hf45     1.0000 0.24921  0.79340  0.74387  Biso   1.000  Hf
  Hf46     1.0000 0.74386  0.79345  0.24919  Biso   1.000  Hf
  Hf47     1.0000 0.74893  0.79668  0.74888  Biso   1.000  Hf
