data_image0
_cell_length_a       4.97334
_cell_length_b       10.3382
_cell_length_c       10.0204
_cell_angle_alpha    90.3007
_cell_angle_beta     89.352
_cell_angle_gamma    90.1309

_symmetry_space_group_name_H-M    "P 1"
_symmetry_int_tables_number       1

loop_
  _symmetry_equiv_pos_as_xyz
  'x, y, z'

loop_
  _atom_site_label
  _atom_site_occupancy
  _atom_site_fract_x
  _atom_site_fract_y
  _atom_site_fract_z
  _atom_site_thermal_displace_type
  _atom_site_B_iso_or_equiv
  _atom_site_type_symbol
  Zn1      1.0000 0.23976  0.02310  0.10431  Biso   1.000  Zn
  Hf1      1.0000 0.26445  0.01662  0.62760  Biso   1.000  Hf
  Hf2      1.0000 0.27170  0.51579  0.12758  Biso   1.000  Hf
  Hf3      1.0000 0.26881  0.51761  0.62653  Biso   1.000  Hf
  Hf4      1.0000 0.27366  0.22840  0.37346  Biso   1.000  Hf
  Hf5      1.0000 0.26346  0.23412  0.87510  Biso   1.000  Hf
  Hf6      1.0000 0.27591  0.73498  0.37698  Biso   1.000  Hf
  Hf7      1.0000 0.26567  0.73511  0.87955  Biso   1.000  Hf
  Hf8      1.0000 0.72457  0.26284  0.12658  Biso   1.000  Hf
  Hf9      1.0000 0.73059  0.26701  0.62463  Biso   1.000  Hf
  Hf10     1.0000 0.73665  0.76711  0.12555  Biso   1.000  Hf
  Hf11     1.0000 0.73262  0.76795  0.62700  Biso   1.000  Hf
  Hf12     1.0000 0.73274  0.48254  0.37693  Biso   1.000  Hf
  Hf13     1.0000 0.72913  0.48467  0.87582  Biso   1.000  Hf
  Hf14     1.0000 0.73297  0.98395  0.37198  Biso   1.000  Hf
  Hf15     1.0000 0.71820  0.98369  0.87778  Biso   1.000  Hf
  Hf16     1.0000 0.07829  0.18380  0.18990  Biso   1.000  Hf
  Hf17     1.0000 0.07559  0.18871  0.68971  Biso   1.000  Hf
  Hf18     1.0000 0.07426  0.68315  0.19725  Biso   1.000  Hf
  Hf19     1.0000 0.07052  0.68464  0.69694  Biso   1.000  Hf
  Hf20     1.0000 0.07304  0.06524  0.44618  Biso   1.000  Hf
  Hf21     1.0000 0.06470  0.06732  0.92469  Biso   1.000  Hf
  Hf22     1.0000 0.07396  0.56487  0.44541  Biso   1.000  Hf
  Hf23     1.0000 0.06890  0.56602  0.94745  Biso   1.000  Hf
  Hf24     1.0000 0.93200  0.42906  0.19573  Biso   1.000  Hf
  Hf25     1.0000 0.92559  0.43556  0.69404  Biso   1.000  Hf
  Hf26     1.0000 0.94906  0.93478  0.19393  Biso   1.000  Hf
  Hf27     1.0000 0.92046  0.93568  0.69327  Biso   1.000  Hf
  Hf28     1.0000 0.92991  0.31492  0.44247  Biso   1.000  Hf
  Hf29     1.0000 0.92018  0.31579  0.94252  Biso   1.000  Hf
  Hf30     1.0000 0.93671  0.81650  0.44848  Biso   1.000  Hf
  Hf31     1.0000 0.91636  0.81611  0.94128  Biso   1.000  Hf
  Hf32     1.0000 0.55965  0.12297  0.25377  Biso   1.000  Hf
  Hf33     1.0000 0.54241  0.11999  0.74970  Biso   1.000  Hf
  Hf34     1.0000 0.54610  0.61244  0.24893  Biso   1.000  Hf
  Hf35     1.0000 0.53860  0.61925  0.75127  Biso   1.000  Hf
  Hf36     1.0000 0.54152  0.13129  0.50105  Biso   1.000  Hf
  Hf37     1.0000 0.53265  0.13111  0.00013  Biso   1.000  Hf
  Hf38     1.0000 0.54345  0.63260  0.50032  Biso   1.000  Hf
  Hf39     1.0000 0.53961  0.63246  0.00070  Biso   1.000  Hf
  Hf40     1.0000 0.45949  0.38151  0.49964  Biso   1.000  Hf
  Hf41     1.0000 0.45609  0.38180  0.00004  Biso   1.000  Hf
  Hf42     1.0000 0.46111  0.88323  0.50293  Biso   1.000  Hf
  Hf43     1.0000 0.44796  0.88209  0.00691  Biso   1.000  Hf
  Hf44     1.0000 0.45631  0.36805  0.24974  Biso   1.000  Hf
  Hf45     1.0000 0.45598  0.36973  0.74948  Biso   1.000  Hf
  Hf46     1.0000 0.49483  0.85715  0.25856  Biso   1.000  Hf
  Hf47     1.0000 0.45214  0.86863  0.75226  Biso   1.000  Hf
