data_image0
_cell_length_a       10.0873
_cell_length_b       5.24065
_cell_length_c       10.1423
_cell_angle_alpha    89.9492
_cell_angle_beta     88.9443
_cell_angle_gamma    90.0357

_symmetry_space_group_name_H-M    "P 1"
_symmetry_int_tables_number       1

loop_
  _symmetry_equiv_pos_as_xyz
  'x, y, z'

loop_
  _atom_site_label
  _atom_site_occupancy
  _atom_site_fract_x
  _atom_site_fract_y
  _atom_site_fract_z
  _atom_site_thermal_displace_type
  _atom_site_B_iso_or_equiv
  _atom_site_type_symbol
  Zr1      1.0000 0.13181  0.09651  0.11558  Biso   1.000  Zr
  Zr2      1.0000 0.13718  0.45551  0.39663  Biso   1.000  Zr
  Zr3      1.0000 0.37079  0.52956  0.12390  Biso   1.000  Zr
  Zr4      1.0000 0.36661  0.96490  0.37777  Biso   1.000  Zr
  Zr5      1.0000 0.99592  0.30776  0.24487  Biso   1.000  Zr
  Zr6      1.0000 0.03819  0.12684  0.46357  Biso   1.000  Zr
  Zr7      1.0000 0.46156  0.86520  0.19679  Biso   1.000  Zr
  Zr8      1.0000 0.46743  0.63500  0.44585  Biso   1.000  Zr
  Zr9      1.0000 0.26584  0.23790  0.25300  Biso   1.000  Zr
  Zr10     1.0000 0.27592  0.25710  0.50511  Biso   1.000  Zr
  Zr11     1.0000 0.23411  0.76102  0.50614  Biso   1.000  Zr
  Zr12     1.0000 0.22859  0.72089  0.25821  Biso   1.000  Zr
  Zr13     1.0000 0.13729  0.02786  0.63519  Biso   1.000  Zr
  Zr14     1.0000 0.13421  0.46992  0.87513  Biso   1.000  Zr
  Zr15     1.0000 0.37082  0.53184  0.62848  Biso   1.000  Zr
  Zr16     1.0000 0.37126  0.96983  0.87363  Biso   1.000  Zr
  Zr17     1.0000 0.03890  0.37202  0.69179  Biso   1.000  Zr
  Zr18     1.0000 0.03552  0.12989  0.93657  Biso   1.000  Zr
  Zr19     1.0000 0.46997  0.86538  0.69250  Biso   1.000  Zr
  Zr20     1.0000 0.46780  0.63455  0.94400  Biso   1.000  Zr
  Zr21     1.0000 0.27122  0.23620  0.75090  Biso   1.000  Zr
  Zr22     1.0000 0.28509  0.26426  0.99150  Biso   1.000  Zr
  Zr23     1.0000 0.23350  0.78720  0.00258  Biso   1.000  Zr
  Zr24     1.0000 0.23634  0.73505  0.75363  Biso   1.000  Zr
  Zr25     1.0000 0.62879  0.02315  0.12275  Biso   1.000  Zr
  Zr26     1.0000 0.63549  0.46876  0.37429  Biso   1.000  Zr
  Zr27     1.0000 0.85038  0.51654  0.11813  Biso   1.000  Zr
  Zr28     1.0000 0.88088  0.98614  0.36451  Biso   1.000  Zr
  Zr29     1.0000 0.53326  0.36592  0.19394  Biso   1.000  Zr
  Zr30     1.0000 0.53504  0.13387  0.44300  Biso   1.000  Zr
  Zr31     1.0000 0.97186  0.84255  0.17907  Biso   1.000  Zr
  Zr32     1.0000 0.97118  0.64872  0.44606  Biso   1.000  Zr
  Zr33     1.0000 0.75705  0.21923  0.24342  Biso   1.000  Zr
  Zr34     1.0000 0.77327  0.27472  0.49130  Biso   1.000  Zr
  Zr35     1.0000 0.73711  0.77557  0.49230  Biso   1.000  Zr
  Zr36     1.0000 0.73260  0.72806  0.24503  Biso   1.000  Zr
  Zr37     1.0000 0.63878  0.02902  0.61849  Biso   1.000  Zr
  Zr38     1.0000 0.63450  0.46277  0.86969  Biso   1.000  Zr
  Zr39     1.0000 0.86994  0.53470  0.62090  Biso   1.000  Zr
  Zr40     1.0000 0.86430  0.96003  0.87068  Biso   1.000  Zr
  Zr41     1.0000 0.53756  0.36372  0.69333  Biso   1.000  Zr
  Zr42     1.0000 0.53902  0.13109  0.94314  Biso   1.000  Zr
  Zr43     1.0000 0.96727  0.86291  0.69698  Biso   1.000  Zr
  Zr44     1.0000 0.95228  0.62552  0.93187  Biso   1.000  Zr
  Zr45     1.0000 0.77124  0.23041  0.74252  Biso   1.000  Zr
  Zr46     1.0000 0.76749  0.25439  0.99410  Biso   1.000  Zr
  Zr47     1.0000 0.72481  0.75483  0.99682  Biso   1.000  Zr
  Zr48     1.0000 0.73108  0.73231  0.74390  Biso   1.000  Zr
  Zn1      1.0000 0.10291  0.59109  0.12822  Biso   1.000  Zn
