data_image0
_cell_length_a       10.107
_cell_length_b       5.04831
_cell_length_c       10.107
_cell_angle_alpha    90.0004
_cell_angle_beta     90.001
_cell_angle_gamma    89.9979

_symmetry_space_group_name_H-M    "P 1"
_symmetry_int_tables_number       1

loop_
  _symmetry_equiv_pos_as_xyz
  'x, y, z'

loop_
  _atom_site_label
  _atom_site_occupancy
  _atom_site_fract_x
  _atom_site_fract_y
  _atom_site_fract_z
  _atom_site_thermal_displace_type
  _atom_site_B_iso_or_equiv
  _atom_site_type_symbol
  Zn1      1.0000 0.12501  0.00047  0.12501  Biso   1.000  Zn
  Zr1      1.0000 0.12501  0.00045  0.62500  Biso   1.000  Zr
  Zr2      1.0000 0.62501  0.00044  0.12501  Biso   1.000  Zr
  Zr3      1.0000 0.62500  0.00043  0.62497  Biso   1.000  Zr
  Zr4      1.0000 0.12501  0.50043  0.37475  Biso   1.000  Zr
  Zr5      1.0000 0.12501  0.50044  0.87526  Biso   1.000  Zr
  Zr6      1.0000 0.62500  0.50043  0.37395  Biso   1.000  Zr
  Zr7      1.0000 0.62500  0.50045  0.87609  Biso   1.000  Zr
  Zr8      1.0000 0.37475  0.50043  0.12502  Biso   1.000  Zr
  Zr9      1.0000 0.37393  0.50042  0.62499  Biso   1.000  Zr
  Zr10     1.0000 0.87526  0.50043  0.12502  Biso   1.000  Zr
  Zr11     1.0000 0.87608  0.50046  0.62500  Biso   1.000  Zr
  Zr12     1.0000 0.37245  0.00030  0.37245  Biso   1.000  Zr
  Zr13     1.0000 0.37245  0.00055  0.87756  Biso   1.000  Zr
  Zr14     1.0000 0.87755  0.00056  0.37245  Biso   1.000  Zr
  Zr15     1.0000 0.87757  0.00033  0.87757  Biso   1.000  Zr
  Zr16     1.0000 0.98514  0.30807  0.98514  Biso   1.000  Zr
  Zr17     1.0000 0.99473  0.28835  0.49307  Biso   1.000  Zr
  Zr18     1.0000 0.49307  0.28836  0.99473  Biso   1.000  Zr
  Zr19     1.0000 0.49631  0.29218  0.49631  Biso   1.000  Zr
  Zr20     1.0000 0.00706  0.20124  0.24295  Biso   1.000  Zr
  Zr21     1.0000 0.00229  0.21295  0.74378  Biso   1.000  Zr
  Zr22     1.0000 0.50623  0.21296  0.24773  Biso   1.000  Zr
  Zr23     1.0000 0.50225  0.20917  0.74777  Biso   1.000  Zr
  Zr24     1.0000 0.98513  0.69280  0.26488  Biso   1.000  Zr
  Zr25     1.0000 0.99472  0.71253  0.75695  Biso   1.000  Zr
  Zr26     1.0000 0.49307  0.71254  0.25529  Biso   1.000  Zr
  Zr27     1.0000 0.49631  0.70861  0.75370  Biso   1.000  Zr
  Zr28     1.0000 0.00708  0.79963  0.00708  Biso   1.000  Zr
  Zr29     1.0000 0.00228  0.78793  0.50625  Biso   1.000  Zr
  Zr30     1.0000 0.50625  0.78794  0.00229  Biso   1.000  Zr
  Zr31     1.0000 0.50224  0.79160  0.50224  Biso   1.000  Zr
  Zr32     1.0000 0.26486  0.30803  0.26486  Biso   1.000  Zr
  Zr33     1.0000 0.25529  0.28835  0.75694  Biso   1.000  Zr
  Zr34     1.0000 0.75693  0.28834  0.25529  Biso   1.000  Zr
  Zr35     1.0000 0.75371  0.29231  0.75371  Biso   1.000  Zr
  Zr36     1.0000 0.24295  0.20125  0.00706  Biso   1.000  Zr
  Zr37     1.0000 0.24773  0.21296  0.50624  Biso   1.000  Zr
  Zr38     1.0000 0.74377  0.21294  0.00229  Biso   1.000  Zr
  Zr39     1.0000 0.74777  0.20923  0.50225  Biso   1.000  Zr
  Zr40     1.0000 0.26488  0.69280  0.98513  Biso   1.000  Zr
  Zr41     1.0000 0.25528  0.71254  0.49307  Biso   1.000  Zr
  Zr42     1.0000 0.75695  0.71252  0.99473  Biso   1.000  Zr
  Zr43     1.0000 0.75370  0.70866  0.49631  Biso   1.000  Zr
  Zr44     1.0000 0.24294  0.79959  0.24294  Biso   1.000  Zr
  Zr45     1.0000 0.24773  0.78793  0.74377  Biso   1.000  Zr
  Zr46     1.0000 0.74377  0.78792  0.24773  Biso   1.000  Zr
  Zr47     1.0000 0.74777  0.79174  0.74777  Biso   1.000  Zr
