data_image0
_cell_length_a       10.0934
_cell_length_b       10.0934
_cell_length_c       5.11932
_cell_angle_alpha    89.9999
_cell_angle_beta     90.0002
_cell_angle_gamma    90

_symmetry_space_group_name_H-M    "P 1"
_symmetry_int_tables_number       1

loop_
  _symmetry_equiv_pos_as_xyz
  'x, y, z'

loop_
  _atom_site_label
  _atom_site_occupancy
  _atom_site_fract_x
  _atom_site_fract_y
  _atom_site_fract_z
  _atom_site_thermal_displace_type
  _atom_site_B_iso_or_equiv
  _atom_site_type_symbol
  Hf1      1.0000 0.12491  0.98168  0.24982  Biso   1.000  Hf
  Hf2      1.0000 0.12491  0.25005  0.74982  Biso   1.000  Hf
  Hf3      1.0000 0.39328  0.25005  0.24982  Biso   1.000  Hf
  Hf4      1.0000 0.37197  0.00299  0.74918  Biso   1.000  Hf
  Hf5      1.0000 0.00279  0.12794  0.97630  Biso   1.000  Hf
  Hf6      1.0000 0.99239  0.11754  0.47249  Biso   1.000  Hf
  Hf7      1.0000 0.00279  0.37217  0.52334  Biso   1.000  Hf
  Hf8      1.0000 0.99239  0.38257  0.02715  Biso   1.000  Hf
  Hf9      1.0000 0.24702  0.12794  0.52334  Biso   1.000  Hf
  Hf10     1.0000 0.25743  0.11754  0.02714  Biso   1.000  Hf
  Hf11     1.0000 0.24703  0.37217  0.97630  Biso   1.000  Hf
  Hf12     1.0000 0.25743  0.38257  0.47249  Biso   1.000  Hf
  Hf13     1.0000 0.12491  0.51843  0.24982  Biso   1.000  Hf
  Hf14     1.0000 0.12491  0.75005  0.74982  Biso   1.000  Hf
  Hf15     1.0000 0.37912  0.75005  0.24982  Biso   1.000  Hf
  Hf16     1.0000 0.37197  0.49712  0.75045  Biso   1.000  Hf
  Hf17     1.0000 0.00675  0.62936  0.96521  Biso   1.000  Hf
  Hf18     1.0000 0.98803  0.62193  0.46880  Biso   1.000  Hf
  Hf19     1.0000 0.00675  0.87075  0.53443  Biso   1.000  Hf
  Hf20     1.0000 0.98803  0.87818  0.03083  Biso   1.000  Hf
  Hf21     1.0000 0.24306  0.62936  0.53443  Biso   1.000  Hf
  Hf22     1.0000 0.26179  0.62193  0.03083  Biso   1.000  Hf
  Hf23     1.0000 0.24306  0.87074  0.96521  Biso   1.000  Hf
  Hf24     1.0000 0.26179  0.87818  0.46881  Biso   1.000  Hf
  Hf25     1.0000 0.62491  0.99584  0.24982  Biso   1.000  Hf
  Hf26     1.0000 0.62491  0.25005  0.74982  Biso   1.000  Hf
  Hf27     1.0000 0.85653  0.25005  0.24982  Biso   1.000  Hf
  Hf28     1.0000 0.87784  0.00299  0.75045  Biso   1.000  Hf
  Hf29     1.0000 0.50422  0.13190  0.96522  Biso   1.000  Hf
  Hf30     1.0000 0.49678  0.11317  0.46881  Biso   1.000  Hf
  Hf31     1.0000 0.50422  0.36821  0.53442  Biso   1.000  Hf
  Hf32     1.0000 0.49678  0.38693  0.03082  Biso   1.000  Hf
  Hf33     1.0000 0.74560  0.13190  0.53442  Biso   1.000  Hf
  Hf34     1.0000 0.75304  0.11317  0.03082  Biso   1.000  Hf
  Hf35     1.0000 0.74560  0.36821  0.96522  Biso   1.000  Hf
  Hf36     1.0000 0.75304  0.38694  0.46882  Biso   1.000  Hf
  Hf37     1.0000 0.62491  0.50427  0.24982  Biso   1.000  Hf
  Hf38     1.0000 0.62491  0.75005  0.74982  Biso   1.000  Hf
  Hf39     1.0000 0.87069  0.75005  0.24982  Biso   1.000  Hf
  Hf40     1.0000 0.87784  0.49712  0.74918  Biso   1.000  Hf
  Hf41     1.0000 0.50644  0.63159  0.96290  Biso   1.000  Hf
  Hf42     1.0000 0.48978  0.61492  0.46027  Biso   1.000  Hf
  Hf43     1.0000 0.50644  0.86852  0.53674  Biso   1.000  Hf
  Hf44     1.0000 0.48978  0.88518  0.03936  Biso   1.000  Hf
  Hf45     1.0000 0.74337  0.63159  0.53673  Biso   1.000  Hf
  Hf46     1.0000 0.76004  0.61493  0.03936  Biso   1.000  Hf
  Hf47     1.0000 0.74337  0.86852  0.96290  Biso   1.000  Hf
  Hf48     1.0000 0.76004  0.88518  0.46027  Biso   1.000  Hf
  Zr1      1.0000 0.12491  0.25005  0.24982  Biso   1.000  Zr
