data_image0
_cell_length_a       9.94732
_cell_length_b       10.3706
_cell_length_c       10.007
_cell_angle_alpha    90.0724
_cell_angle_beta     89.5534
_cell_angle_gamma    89.9541

_symmetry_space_group_name_H-M    "P 1"
_symmetry_int_tables_number       1

loop_
  _symmetry_equiv_pos_as_xyz
  'x, y, z'

loop_
  _atom_site_label
  _atom_site_occupancy
  _atom_site_fract_x
  _atom_site_fract_y
  _atom_site_fract_z
  _atom_site_thermal_displace_type
  _atom_site_B_iso_or_equiv
  _atom_site_type_symbol
  Ag1      1.0000 0.12136  0.02555  0.10643  Biso   1.000  Ag
  Hf1      1.0000 0.13903  0.23014  0.37757  Biso   1.000  Hf
  Hf2      1.0000 0.36634  0.26721  0.13003  Biso   1.000  Hf
  Hf3      1.0000 0.36605  0.48370  0.37776  Biso   1.000  Hf
  Hf4      1.0000 0.03865  0.18297  0.19143  Biso   1.000  Hf
  Hf5      1.0000 0.03893  0.06513  0.44662  Biso   1.000  Hf
  Hf6      1.0000 0.46413  0.43385  0.19570  Biso   1.000  Hf
  Hf7      1.0000 0.46412  0.31595  0.44495  Biso   1.000  Hf
  Hf8      1.0000 0.28391  0.12813  0.25863  Biso   1.000  Hf
  Hf9      1.0000 0.27109  0.13023  0.50587  Biso   1.000  Hf
  Hf10     1.0000 0.22958  0.38093  0.50111  Biso   1.000  Hf
  Hf11     1.0000 0.22759  0.36986  0.25135  Biso   1.000  Hf
  Hf12     1.0000 0.13413  0.01776  0.63234  Biso   1.000  Hf
  Hf13     1.0000 0.13397  0.23875  0.87424  Biso   1.000  Hf
  Hf14     1.0000 0.36694  0.26686  0.62728  Biso   1.000  Hf
  Hf15     1.0000 0.36590  0.48449  0.87683  Biso   1.000  Hf
  Hf16     1.0000 0.03903  0.19023  0.68941  Biso   1.000  Hf
  Hf17     1.0000 0.03771  0.06512  0.90537  Biso   1.000  Hf
  Hf18     1.0000 0.46346  0.43495  0.69500  Biso   1.000  Hf
  Hf19     1.0000 0.46003  0.31249  0.94196  Biso   1.000  Hf
  Hf20     1.0000 0.27444  0.12154  0.75442  Biso   1.000  Hf
  Hf21     1.0000 0.26406  0.13075  0.00477  Biso   1.000  Hf
  Hf22     1.0000 0.23000  0.38265  0.00114  Biso   1.000  Hf
  Hf23     1.0000 0.22889  0.37040  0.75003  Biso   1.000  Hf
  Hf24     1.0000 0.13480  0.51602  0.12783  Biso   1.000  Hf
  Hf25     1.0000 0.13599  0.73400  0.37752  Biso   1.000  Hf
  Hf26     1.0000 0.36542  0.76590  0.13025  Biso   1.000  Hf
  Hf27     1.0000 0.36281  0.98273  0.37609  Biso   1.000  Hf
  Hf28     1.0000 0.03754  0.68401  0.19447  Biso   1.000  Hf
  Hf29     1.0000 0.03680  0.56418  0.44515  Biso   1.000  Hf
  Hf30     1.0000 0.46839  0.93306  0.19645  Biso   1.000  Hf
  Hf31     1.0000 0.46671  0.81712  0.45019  Biso   1.000  Hf
  Hf32     1.0000 0.27121  0.61443  0.25077  Biso   1.000  Hf
  Hf33     1.0000 0.27168  0.63234  0.50157  Biso   1.000  Hf
  Hf34     1.0000 0.22780  0.88208  0.50658  Biso   1.000  Hf
  Hf35     1.0000 0.24121  0.85900  0.26086  Biso   1.000  Hf
  Hf36     1.0000 0.13391  0.51730  0.62624  Biso   1.000  Hf
  Hf37     1.0000 0.13238  0.73246  0.87825  Biso   1.000  Hf
  Hf38     1.0000 0.36544  0.76772  0.62858  Biso   1.000  Hf
  Hf39     1.0000 0.36431  0.98347  0.88002  Biso   1.000  Hf
  Hf40     1.0000 0.03601  0.68513  0.69507  Biso   1.000  Hf
  Hf41     1.0000 0.03473  0.56503  0.94517  Biso   1.000  Hf
  Hf42     1.0000 0.46236  0.93526  0.69745  Biso   1.000  Hf
  Hf43     1.0000 0.45821  0.81490  0.94399  Biso   1.000  Hf
  Hf44     1.0000 0.26949  0.61833  0.75157  Biso   1.000  Hf
  Hf45     1.0000 0.26951  0.63308  0.00148  Biso   1.000  Hf
  Hf46     1.0000 0.22477  0.88276  0.00840  Biso   1.000  Hf
  Hf47     1.0000 0.22816  0.86910  0.75589  Biso   1.000  Hf
  Hf48     1.0000 0.63571  0.01612  0.12678  Biso   1.000  Hf
  Hf49     1.0000 0.63382  0.23291  0.37550  Biso   1.000  Hf
  Hf50     1.0000 0.86310  0.26612  0.12519  Biso   1.000  Hf
  Hf51     1.0000 0.86724  0.48298  0.37588  Biso   1.000  Hf
  Hf52     1.0000 0.54140  0.18672  0.19074  Biso   1.000  Hf
  Hf53     1.0000 0.53650  0.06574  0.44268  Biso   1.000  Hf
  Hf54     1.0000 0.96420  0.43033  0.19372  Biso   1.000  Hf
  Hf55     1.0000 0.96386  0.31409  0.44093  Biso   1.000  Hf
  Hf56     1.0000 0.77231  0.11806  0.24950  Biso   1.000  Hf
  Hf57     1.0000 0.77095  0.13248  0.49818  Biso   1.000  Hf
  Hf58     1.0000 0.72998  0.38240  0.49996  Biso   1.000  Hf
  Hf59     1.0000 0.72919  0.36851  0.25032  Biso   1.000  Hf
  Hf60     1.0000 0.63155  0.01574  0.62293  Biso   1.000  Hf
  Hf61     1.0000 0.63331  0.23219  0.87549  Biso   1.000  Hf
  Hf62     1.0000 0.86467  0.26661  0.62347  Biso   1.000  Hf
  Hf63     1.0000 0.86470  0.48321  0.87539  Biso   1.000  Hf
  Hf64     1.0000 0.53764  0.18510  0.69306  Biso   1.000  Hf
  Hf65     1.0000 0.53536  0.06521  0.94551  Biso   1.000  Hf
  Hf66     1.0000 0.96272  0.43468  0.69357  Biso   1.000  Hf
  Hf67     1.0000 0.96249  0.31552  0.94425  Biso   1.000  Hf
  Hf68     1.0000 0.76901  0.11723  0.74686  Biso   1.000  Hf
  Hf69     1.0000 0.77325  0.12982  0.99748  Biso   1.000  Hf
  Hf70     1.0000 0.72772  0.38024  0.00047  Biso   1.000  Hf
  Hf71     1.0000 0.72867  0.36753  0.75012  Biso   1.000  Hf
  Hf72     1.0000 0.63478  0.51679  0.12819  Biso   1.000  Hf
  Hf73     1.0000 0.63503  0.73490  0.37609  Biso   1.000  Hf
  Hf74     1.0000 0.86880  0.76514  0.12338  Biso   1.000  Hf
  Hf75     1.0000 0.87054  0.98539  0.37610  Biso   1.000  Hf
  Hf76     1.0000 0.53777  0.68467  0.19620  Biso   1.000  Hf
  Hf77     1.0000 0.53708  0.56627  0.44430  Biso   1.000  Hf
  Hf78     1.0000 0.96384  0.93641  0.18885  Biso   1.000  Hf
  Hf79     1.0000 0.96344  0.81480  0.44144  Biso   1.000  Hf
  Hf80     1.0000 0.77261  0.61696  0.24937  Biso   1.000  Hf
  Hf81     1.0000 0.77001  0.63242  0.49923  Biso   1.000  Hf
  Hf82     1.0000 0.73090  0.88319  0.49803  Biso   1.000  Hf
  Hf83     1.0000 0.73662  0.86776  0.24864  Biso   1.000  Hf
  Hf84     1.0000 0.63363  0.51695  0.62583  Biso   1.000  Hf
  Hf85     1.0000 0.63165  0.73252  0.87685  Biso   1.000  Hf
  Hf86     1.0000 0.86604  0.76558  0.62356  Biso   1.000  Hf
  Hf87     1.0000 0.85973  0.98043  0.87034  Biso   1.000  Hf
  Hf88     1.0000 0.53486  0.68353  0.69641  Biso   1.000  Hf
  Hf89     1.0000 0.53576  0.56459  0.94669  Biso   1.000  Hf
  Hf90     1.0000 0.95906  0.93468  0.68639  Biso   1.000  Hf
  Hf91     1.0000 0.96086  0.81626  0.94090  Biso   1.000  Hf
  Hf92     1.0000 0.76941  0.61744  0.74999  Biso   1.000  Hf
  Hf93     1.0000 0.77000  0.63117  0.99963  Biso   1.000  Hf
  Hf94     1.0000 0.72501  0.87944  0.99897  Biso   1.000  Hf
  Hf95     1.0000 0.72685  0.86622  0.74805  Biso   1.000  Hf
