data_image0
_cell_length_a       10.0908
_cell_length_b       10.2895
_cell_length_c       5.26933
_cell_angle_alpha    89.8204
_cell_angle_beta     91.1099
_cell_angle_gamma    89.9962

_symmetry_space_group_name_H-M    "P 1"
_symmetry_int_tables_number       1

loop_
  _symmetry_equiv_pos_as_xyz
  'x, y, z'

loop_
  _atom_site_label
  _atom_site_occupancy
  _atom_site_fract_x
  _atom_site_fract_y
  _atom_site_fract_z
  _atom_site_thermal_displace_type
  _atom_site_B_iso_or_equiv
  _atom_site_type_symbol
  Hf1      1.0000 0.13828  0.01940  0.34897  Biso   1.000  Hf
  Hf2      1.0000 0.13680  0.22627  0.85552  Biso   1.000  Hf
  Hf3      1.0000 0.34914  0.26793  0.37478  Biso   1.000  Hf
  Hf4      1.0000 0.36088  0.48294  0.85036  Biso   1.000  Hf
  Hf5      1.0000 0.64267  0.01716  0.14959  Biso   1.000  Hf
  Hf6      1.0000 0.64648  0.22302  0.63294  Biso   1.000  Hf
  Hf7      1.0000 0.86136  0.27102  0.14975  Biso   1.000  Hf
  Hf8      1.0000 0.86725  0.48125  0.65542  Biso   1.000  Hf
  O1       1.0000 0.03270  0.16297  0.16869  Biso   1.000  O
  O2       1.0000 0.03499  0.08274  0.66745  Biso   1.000  O
  O3       1.0000 0.45640  0.43604  0.20073  Biso   1.000  O
  O4       1.0000 0.47078  0.33544  0.67078  Biso   1.000  O
  O5       1.0000 0.27170  0.12525  0.60615  Biso   1.000  O
  O6       1.0000 0.27642  0.12346  0.10322  Biso   1.000  O
  O7       1.0000 0.22279  0.37451  0.60540  Biso   1.000  O
  O8       1.0000 0.22468  0.37382  0.10226  Biso   1.000  O
  O9       1.0000 0.51426  0.13521  0.38104  Biso   1.000  O
  O10      1.0000 0.53407  0.07778  0.83471  Biso   1.000  O
  O11      1.0000 0.96923  0.41353  0.33586  Biso   1.000  O
  O12      1.0000 0.97167  0.33562  0.83563  Biso   1.000  O
  O13      1.0000 0.78625  0.12161  0.88831  Biso   1.000  O
  O14      1.0000 0.78190  0.12228  0.39815  Biso   1.000  O
  O15      1.0000 0.73795  0.38634  0.90348  Biso   1.000  O
  O16      1.0000 0.72800  0.37937  0.41226  Biso   1.000  O
  Hf9      1.0000 0.13935  0.52065  0.34372  Biso   1.000  Hf
  Hf10     1.0000 0.14047  0.72997  0.84516  Biso   1.000  Hf
  Hf11     1.0000 0.36326  0.77161  0.34798  Biso   1.000  Hf
  Hf12     1.0000 0.36282  0.97645  0.85180  Biso   1.000  Hf
  Hf13     1.0000 0.64260  0.52985  0.15893  Biso   1.000  Hf
  Hf14     1.0000 0.64074  0.73096  0.65691  Biso   1.000  Hf
  Hf15     1.0000 0.86503  0.77104  0.15768  Biso   1.000  Hf
  Hf16     1.0000 0.86422  0.97670  0.65605  Biso   1.000  Hf
  O17      1.0000 0.03481  0.66312  0.16439  Biso   1.000  O
  O18      1.0000 0.03724  0.58656  0.66437  Biso   1.000  O
  O19      1.0000 0.47093  0.90821  0.16192  Biso   1.000  O
  O20      1.0000 0.46903  0.83429  0.66768  Biso   1.000  O
  O21      1.0000 0.27834  0.62347  0.59181  Biso   1.000  O
  O22      1.0000 0.27591  0.62603  0.09034  Biso   1.000  O
  O23      1.0000 0.22649  0.87351  0.59575  Biso   1.000  O
  O24      1.0000 0.22493  0.87479  0.09735  Biso   1.000  O
  O25      1.0000 0.53682  0.66948  0.33531  Biso   1.000  O
  O26      1.0000 0.53387  0.58511  0.83630  Biso   1.000  O
  O27      1.0000 0.97038  0.91275  0.33539  Biso   1.000  O
  O28      1.0000 0.97001  0.83459  0.83803  Biso   1.000  O
  O29      1.0000 0.77759  0.62895  0.90809  Biso   1.000  O
  O30      1.0000 0.77958  0.62751  0.40860  Biso   1.000  O
  O31      1.0000 0.72733  0.87462  0.91196  Biso   1.000  O
  O32      1.0000 0.72758  0.87383  0.41114  Biso   1.000  O
  Ag1      1.0000 0.56284  0.27133  0.08247  Biso   1.000  Ag
