data_image0
_cell_length_a       5.03688
_cell_length_b       10.3769
_cell_length_c       10.1412
_cell_angle_alpha    89.1935
_cell_angle_beta     91.2309
_cell_angle_gamma    91.1407

_symmetry_space_group_name_H-M    "P 1"
_symmetry_int_tables_number       1

loop_
  _symmetry_equiv_pos_as_xyz
  'x, y, z'

loop_
  _atom_site_label
  _atom_site_occupancy
  _atom_site_fract_x
  _atom_site_fract_y
  _atom_site_fract_z
  _atom_site_thermal_displace_type
  _atom_site_B_iso_or_equiv
  _atom_site_type_symbol
  Hf1      1.0000 0.27639  0.99183  0.10407  Biso   1.000  Hf
  Hf2      1.0000 0.24206  0.23039  0.40126  Biso   1.000  Hf
  Hf3      1.0000 0.62137  0.25764  0.14932  Biso   1.000  Hf
  Hf4      1.0000 0.73453  0.48692  0.37861  Biso   1.000  Hf
  Hf5      1.0000 0.90683  0.17931  0.27116  Biso   1.000  Hf
  Hf6      1.0000 0.07108  0.06089  0.46485  Biso   1.000  Hf
  Hf7      1.0000 0.89961  0.43187  0.19268  Biso   1.000  Hf
  Hf8      1.0000 0.94381  0.33337  0.46474  Biso   1.000  Hf
  Hf9      1.0000 0.43212  0.10591  0.25690  Biso   1.000  Hf
  Hf10     1.0000 0.55579  0.13930  0.50158  Biso   1.000  Hf
  Hf11     1.0000 0.47338  0.38613  0.50511  Biso   1.000  Hf
  Hf12     1.0000 0.40878  0.37209  0.26596  Biso   1.000  Hf
  Hf13     1.0000 0.29461  0.01294  0.62718  Biso   1.000  Hf
  Hf14     1.0000 0.30100  0.23013  0.86127  Biso   1.000  Hf
  Hf15     1.0000 0.75403  0.27324  0.63315  Biso   1.000  Hf
  Hf16     1.0000 0.74300  0.48390  0.87358  Biso   1.000  Hf
  Hf17     1.0000 0.10783  0.18668  0.68091  Biso   1.000  Hf
  Hf18     1.0000 0.11042  0.05654  0.92405  Biso   1.000  Hf
  Hf19     1.0000 0.93428  0.44644  0.69164  Biso   1.000  Hf
  Hf20     1.0000 0.94403  0.31234  0.89872  Biso   1.000  Hf
  Hf21     1.0000 0.57095  0.11740  0.75060  Biso   1.000  Hf
  Hf22     1.0000 0.58355  0.11945  0.00363  Biso   1.000  Hf
  Hf23     1.0000 0.48111  0.38462  0.00124  Biso   1.000  Hf
  Hf24     1.0000 0.47090  0.37276  0.74799  Biso   1.000  Hf
  Hf25     1.0000 0.25714  0.52104  0.12862  Biso   1.000  Hf
  Hf26     1.0000 0.27604  0.74038  0.37594  Biso   1.000  Hf
  Hf27     1.0000 0.74063  0.76151  0.12596  Biso   1.000  Hf
  Hf28     1.0000 0.74694  0.99903  0.36311  Biso   1.000  Hf
  Hf29     1.0000 0.07779  0.68329  0.19684  Biso   1.000  Hf
  Hf30     1.0000 0.07357  0.57436  0.44352  Biso   1.000  Hf
  Hf31     1.0000 0.93358  0.93948  0.18799  Biso   1.000  Hf
  Hf32     1.0000 0.93762  0.82244  0.43751  Biso   1.000  Hf
  Hf33     1.0000 0.54160  0.61725  0.24965  Biso   1.000  Hf
  Hf34     1.0000 0.54593  0.63696  0.49722  Biso   1.000  Hf
  Hf35     1.0000 0.47693  0.88939  0.49412  Biso   1.000  Hf
  Hf36     1.0000 0.47624  0.86261  0.24187  Biso   1.000  Hf
  Hf37     1.0000 0.27600  0.51823  0.62187  Biso   1.000  Hf
  Hf38     1.0000 0.28272  0.73050  0.87012  Biso   1.000  Hf
  Hf39     1.0000 0.75188  0.77018  0.61818  Biso   1.000  Hf
  Hf40     1.0000 0.75779  0.97865  0.87171  Biso   1.000  Hf
  Hf41     1.0000 0.08546  0.68689  0.69199  Biso   1.000  Hf
  Hf42     1.0000 0.07742  0.56714  0.94834  Biso   1.000  Hf
  Hf43     1.0000 0.95524  0.93052  0.69807  Biso   1.000  Hf
  Hf44     1.0000 0.96697  0.81729  0.95541  Biso   1.000  Hf
  Hf45     1.0000 0.55096  0.61868  0.74825  Biso   1.000  Hf
  Hf46     1.0000 0.54570  0.63091  0.00011  Biso   1.000  Hf
  Hf47     1.0000 0.49062  0.87257  0.99140  Biso   1.000  Hf
  Hf48     1.0000 0.48771  0.86504  0.74582  Biso   1.000  Hf
  Ag1      1.0000 0.09665  0.24474  0.09289  Biso   1.000  Ag
