data_image0
_cell_length_a       10.1088
_cell_length_b       10.2272
_cell_length_c       10.4485
_cell_angle_alpha    90.0543
_cell_angle_beta     80.4558
_cell_angle_gamma    89.7654

_symmetry_space_group_name_H-M    "P 1"
_symmetry_int_tables_number       1

loop_
  _symmetry_equiv_pos_as_xyz
  'x, y, z'

loop_
  _atom_site_label
  _atom_site_occupancy
  _atom_site_fract_x
  _atom_site_fract_y
  _atom_site_fract_z
  _atom_site_thermal_displace_type
  _atom_site_B_iso_or_equiv
  _atom_site_type_symbol
  Al1      1.0000 0.12380  0.01052  0.16337  Biso   1.000  Al
  Hf1      1.0000 0.13758  0.22581  0.38987  Biso   1.000  Hf
  Hf2      1.0000 0.35747  0.26695  0.10309  Biso   1.000  Hf
  Hf3      1.0000 0.36077  0.47846  0.35342  Biso   1.000  Hf
  O1       1.0000 0.04592  0.15372  0.08053  Biso   1.000  O
  O2       1.0000 0.03412  0.07822  0.32705  Biso   1.000  O
  O3       1.0000 0.46502  0.41632  0.17092  Biso   1.000  O
  O4       1.0000 0.46572  0.33325  0.42096  Biso   1.000  O
  O5       1.0000 0.26738  0.12018  0.22926  Biso   1.000  O
  O6       1.0000 0.27611  0.12262  0.48454  Biso   1.000  O
  O7       1.0000 0.22396  0.38249  0.00926  Biso   1.000  O
  O8       1.0000 0.22448  0.36920  0.25896  Biso   1.000  O
  Hf4      1.0000 0.13780  0.02111  0.64321  Biso   1.000  Hf
  Hf5      1.0000 0.14245  0.22410  0.89624  Biso   1.000  Hf
  Hf6      1.0000 0.35984  0.27177  0.60277  Biso   1.000  Hf
  Hf7      1.0000 0.36023  0.47973  0.85483  Biso   1.000  Hf
  O9       1.0000 0.03449  0.16647  0.57541  Biso   1.000  O
  O10      1.0000 0.03414  0.08308  0.82633  Biso   1.000  O
  O11      1.0000 0.46488  0.41752  0.67127  Biso   1.000  O
  O12      1.0000 0.46974  0.33825  0.92249  Biso   1.000  O
  O13      1.0000 0.27503  0.12722  0.73391  Biso   1.000  O
  O14      1.0000 0.29520  0.13715  0.97231  Biso   1.000  O
  O15      1.0000 0.22266  0.37914  0.50839  Biso   1.000  O
  O16      1.0000 0.22484  0.37034  0.75982  Biso   1.000  O
  Hf8      1.0000 0.14029  0.52232  0.14578  Biso   1.000  Hf
  Hf9      1.0000 0.13883  0.72881  0.39558  Biso   1.000  Hf
  Hf10     1.0000 0.35575  0.77695  0.10421  Biso   1.000  Hf
  Hf11     1.0000 0.35749  0.97960  0.35000  Biso   1.000  Hf
  O17      1.0000 0.03503  0.66827  0.07997  Biso   1.000  O
  O18      1.0000 0.03504  0.58143  0.32955  Biso   1.000  O
  O19      1.0000 0.46580  0.91676  0.17117  Biso   1.000  O
  O20      1.0000 0.46334  0.83275  0.41966  Biso   1.000  O
  O21      1.0000 0.27641  0.62998  0.24044  Biso   1.000  O
  O22      1.0000 0.27674  0.62135  0.49062  Biso   1.000  O
  O23      1.0000 0.21974  0.89586  0.01639  Biso   1.000  O
  O24      1.0000 0.21672  0.87235  0.25875  Biso   1.000  O
  Hf12     1.0000 0.14010  0.52122  0.64633  Biso   1.000  Hf
  Hf13     1.0000 0.13934  0.73308  0.89707  Biso   1.000  Hf
  Hf14     1.0000 0.36078  0.77255  0.60437  Biso   1.000  Hf
  Hf15     1.0000 0.36019  0.98264  0.85567  Biso   1.000  Hf
  O25      1.0000 0.03470  0.66685  0.57987  Biso   1.000  O
  O26      1.0000 0.03632  0.58392  0.83107  Biso   1.000  O
  O27      1.0000 0.46496  0.91861  0.67070  Biso   1.000  O
  O28      1.0000 0.46209  0.83336  0.92164  Biso   1.000  O
  O29      1.0000 0.27642  0.63008  0.74055  Biso   1.000  O
  O30      1.0000 0.27614  0.62589  0.99037  Biso   1.000  O
  O31      1.0000 0.22278  0.87916  0.50854  Biso   1.000  O
  O32      1.0000 0.22323  0.87219  0.76020  Biso   1.000  O
  Hf16     1.0000 0.63884  0.02190  0.14602  Biso   1.000  Hf
  Hf17     1.0000 0.63923  0.22846  0.39537  Biso   1.000  Hf
  Hf18     1.0000 0.86991  0.26529  0.10530  Biso   1.000  Hf
  Hf19     1.0000 0.86032  0.47866  0.35408  Biso   1.000  Hf
  O33      1.0000 0.53606  0.16843  0.07925  Biso   1.000  O
  O34      1.0000 0.53241  0.08405  0.32778  Biso   1.000  O
  O35      1.0000 0.96842  0.41526  0.17184  Biso   1.000  O
  O36      1.0000 0.96409  0.33136  0.42027  Biso   1.000  O
  O37      1.0000 0.77639  0.12696  0.24118  Biso   1.000  O
  O38      1.0000 0.77626  0.12090  0.49089  Biso   1.000  O
  O39      1.0000 0.72840  0.37701  0.01144  Biso   1.000  O
  O40      1.0000 0.72628  0.36933  0.25939  Biso   1.000  O
  Hf20     1.0000 0.63867  0.02160  0.64633  Biso   1.000  Hf
  Hf21     1.0000 0.64046  0.23025  0.89726  Biso   1.000  Hf
  Hf22     1.0000 0.86135  0.27152  0.60440  Biso   1.000  Hf
  Hf23     1.0000 0.86331  0.47788  0.85683  Biso   1.000  Hf
  O41      1.0000 0.53446  0.16779  0.57840  Biso   1.000  O
  O42      1.0000 0.53837  0.08243  0.82915  Biso   1.000  O
  O43      1.0000 0.96666  0.41624  0.67327  Biso   1.000  O
  O44      1.0000 0.96893  0.33108  0.92510  Biso   1.000  O
  O45      1.0000 0.77782  0.12973  0.74027  Biso   1.000  O
  O46      1.0000 0.77853  0.12069  0.99136  Biso   1.000  O
  O47      1.0000 0.72322  0.37873  0.51032  Biso   1.000  O
  O48      1.0000 0.72491  0.37222  0.76090  Biso   1.000  O
  Hf24     1.0000 0.63821  0.52001  0.14532  Biso   1.000  Hf
  Hf25     1.0000 0.63778  0.72887  0.39577  Biso   1.000  Hf
  Hf26     1.0000 0.86128  0.77284  0.10560  Biso   1.000  Hf
  Hf27     1.0000 0.86027  0.97746  0.35506  Biso   1.000  Hf
  O49      1.0000 0.53273  0.66806  0.07966  Biso   1.000  O
  O50      1.0000 0.53550  0.58102  0.32948  Biso   1.000  O
  O51      1.0000 0.96748  0.91593  0.17295  Biso   1.000  O
  O52      1.0000 0.96330  0.83020  0.42229  Biso   1.000  O
  O53      1.0000 0.77641  0.62853  0.24051  Biso   1.000  O
  O54      1.0000 0.77581  0.62049  0.49123  Biso   1.000  O
  O55      1.0000 0.72262  0.87927  0.01013  Biso   1.000  O
  O56      1.0000 0.72331  0.87093  0.26004  Biso   1.000  O
  Hf28     1.0000 0.63879  0.52120  0.64682  Biso   1.000  Hf
  Hf29     1.0000 0.63738  0.72908  0.89780  Biso   1.000  Hf
  Hf30     1.0000 0.85971  0.76982  0.60554  Biso   1.000  Hf
  Hf31     1.0000 0.86054  0.97903  0.85413  Biso   1.000  Hf
  O57      1.0000 0.53465  0.66815  0.57913  Biso   1.000  O
  O58      1.0000 0.53373  0.58432  0.82849  Biso   1.000  O
  O59      1.0000 0.96425  0.91669  0.67092  Biso   1.000  O
  O60      1.0000 0.96375  0.83279  0.92194  Biso   1.000  O
  O61      1.0000 0.77641  0.62812  0.74204  Biso   1.000  O
  O62      1.0000 0.77577  0.62082  0.99110  Biso   1.000  O
  O63      1.0000 0.72223  0.87807  0.51045  Biso   1.000  O
  O64      1.0000 0.72297  0.87089  0.76051  Biso   1.000  O
