data_image0
_cell_length_a       10.212
_cell_length_b       10.3276
_cell_length_c       5.26695
_cell_angle_alpha    90.513
_cell_angle_beta     78.7921
_cell_angle_gamma    90.433

_symmetry_space_group_name_H-M    "P 1"
_symmetry_int_tables_number       1

loop_
  _symmetry_equiv_pos_as_xyz
  'x, y, z'

loop_
  _atom_site_label
  _atom_site_occupancy
  _atom_site_fract_x
  _atom_site_fract_y
  _atom_site_fract_z
  _atom_site_thermal_displace_type
  _atom_site_B_iso_or_equiv
  _atom_site_type_symbol
  Hf1      1.0000 0.13751  0.02335  0.28754  Biso   1.000  Hf
  Hf2      1.0000 0.13345  0.23609  0.78466  Biso   1.000  Hf
  Hf3      1.0000 0.35545  0.27956  0.22443  Biso   1.000  Hf
  Hf4      1.0000 0.35593  0.47572  0.69009  Biso   1.000  Hf
  O1       1.0000 0.03879  0.17165  0.15339  Biso   1.000  O
  O2       1.0000 0.03588  0.08447  0.65161  Biso   1.000  O
  O3       1.0000 0.46207  0.43195  0.32319  Biso   1.000  O
  O4       1.0000 0.47758  0.33081  0.85450  Biso   1.000  O
  O5       1.0000 0.28224  0.11681  0.47183  Biso   1.000  O
  O6       1.0000 0.29013  0.12863  0.95173  Biso   1.000  O
  O7       1.0000 0.22300  0.38166  0.00770  Biso   1.000  O
  O8       1.0000 0.19991  0.37895  0.49989  Biso   1.000  O
  Hf5      1.0000 0.13637  0.52505  0.28172  Biso   1.000  Hf
  Hf6      1.0000 0.13572  0.72586  0.79253  Biso   1.000  Hf
  Hf7      1.0000 0.35969  0.76730  0.20837  Biso   1.000  Hf
  Hf8      1.0000 0.35358  0.95590  0.70331  Biso   1.000  Hf
  O9       1.0000 0.02924  0.66906  0.15478  Biso   1.000  O
  O10      1.0000 0.03058  0.58646  0.65229  Biso   1.000  O
  O11      1.0000 0.46660  0.91279  0.34811  Biso   1.000  O
  O12      1.0000 0.46704  0.83037  0.84807  Biso   1.000  O
  O13      1.0000 0.27423  0.62525  0.47869  Biso   1.000  O
  O14      1.0000 0.27425  0.62298  0.97694  Biso   1.000  O
  O15      1.0000 0.22126  0.87784  0.02139  Biso   1.000  O
  O16      1.0000 0.21508  0.86641  0.51075  Biso   1.000  O
  Hf9      1.0000 0.64044  0.02002  0.29800  Biso   1.000  Hf
  Hf10     1.0000 0.65661  0.23066  0.81995  Biso   1.000  Hf
  Hf11     1.0000 0.86258  0.27295  0.22031  Biso   1.000  Hf
  Hf12     1.0000 0.86053  0.48189  0.71029  Biso   1.000  Hf
  O17      1.0000 0.53582  0.17060  0.18079  Biso   1.000  O
  O18      1.0000 0.52793  0.08892  0.66816  Biso   1.000  O
  O19      1.0000 0.96075  0.42283  0.33943  Biso   1.000  O
  O20      1.0000 0.95946  0.33395  0.84365  Biso   1.000  O
  O21      1.0000 0.77514  0.12897  0.49524  Biso   1.000  O
  O22      1.0000 0.78257  0.11878  0.99621  Biso   1.000  O
  O23      1.0000 0.72520  0.37911  0.03563  Biso   1.000  O
  O24      1.0000 0.72332  0.37077  0.53348  Biso   1.000  O
  Hf13     1.0000 0.63799  0.52579  0.29935  Biso   1.000  Hf
  Hf14     1.0000 0.63831  0.72688  0.79788  Biso   1.000  Hf
  Hf15     1.0000 0.85907  0.77388  0.21057  Biso   1.000  Hf
  Hf16     1.0000 0.86267  0.97593  0.71044  Biso   1.000  Hf
  O25      1.0000 0.53577  0.67057  0.16440  Biso   1.000  O
  O26      1.0000 0.53250  0.58005  0.66510  Biso   1.000  O
  O27      1.0000 0.96412  0.91993  0.34260  Biso   1.000  O
  O28      1.0000 0.96557  0.83519  0.84541  Biso   1.000  O
  O29      1.0000 0.77487  0.63133  0.48561  Biso   1.000  O
  O30      1.0000 0.77522  0.62251  0.98524  Biso   1.000  O
  O31      1.0000 0.72349  0.87926  0.02397  Biso   1.000  O
  O32      1.0000 0.72011  0.87423  0.52576  Biso   1.000  O
  Al1      1.0000 0.40567  0.21002  0.67497  Biso   1.000  Al
