data_image0
_cell_length_a       10.0185
_cell_length_b       10.2077
_cell_length_c       5.22781
_cell_angle_alpha    89.7957
_cell_angle_beta     90.5366
_cell_angle_gamma    89.5704

_symmetry_space_group_name_H-M    "P 1"
_symmetry_int_tables_number       1

loop_
  _symmetry_equiv_pos_as_xyz
  'x, y, z'

loop_
  _atom_site_label
  _atom_site_occupancy
  _atom_site_fract_x
  _atom_site_fract_y
  _atom_site_fract_z
  _atom_site_thermal_displace_type
  _atom_site_B_iso_or_equiv
  _atom_site_type_symbol
  As1      1.0000 0.11356  0.01849  0.37144  Biso   1.000  As
  Hf1      1.0000 0.14694  0.22852  0.84326  Biso   1.000  Hf
  Hf2      1.0000 0.35947  0.26959  0.33825  Biso   1.000  Hf
  Hf3      1.0000 0.36106  0.47950  0.84308  Biso   1.000  Hf
  Hf4      1.0000 0.63685  0.02180  0.15745  Biso   1.000  Hf
  Hf5      1.0000 0.63826  0.22995  0.65836  Biso   1.000  Hf
  Hf6      1.0000 0.86351  0.26903  0.16315  Biso   1.000  Hf
  Hf7      1.0000 0.86385  0.47669  0.66210  Biso   1.000  Hf
  O1       1.0000 0.04041  0.15444  0.16693  Biso   1.000  O
  O2       1.0000 0.03304  0.08280  0.65715  Biso   1.000  O
  O3       1.0000 0.46632  0.41687  0.16912  Biso   1.000  O
  O4       1.0000 0.46741  0.33424  0.66887  Biso   1.000  O
  O5       1.0000 0.27275  0.12426  0.57904  Biso   1.000  O
  O6       1.0000 0.29379  0.13941  0.06124  Biso   1.000  O
  O7       1.0000 0.22467  0.37486  0.59169  Biso   1.000  O
  O8       1.0000 0.22080  0.37929  0.09013  Biso   1.000  O
  O9       1.0000 0.53555  0.16845  0.32954  Biso   1.000  O
  O10      1.0000 0.53798  0.08111  0.82451  Biso   1.000  O
  O11      1.0000 0.96961  0.41153  0.33998  Biso   1.000  O
  O12      1.0000 0.96907  0.33047  0.84302  Biso   1.000  O
  O13      1.0000 0.77925  0.12237  0.91484  Biso   1.000  O
  O14      1.0000 0.77781  0.12562  0.41320  Biso   1.000  O
  O15      1.0000 0.72599  0.37241  0.91556  Biso   1.000  O
  O16      1.0000 0.72601  0.37537  0.41271  Biso   1.000  O
  Hf8      1.0000 0.13966  0.52206  0.34523  Biso   1.000  Hf
  Hf9      1.0000 0.13903  0.73104  0.84262  Biso   1.000  Hf
  Hf10     1.0000 0.35835  0.77574  0.33595  Biso   1.000  Hf
  Hf11     1.0000 0.35883  0.98191  0.83841  Biso   1.000  Hf
  Hf12     1.0000 0.63803  0.52035  0.15949  Biso   1.000  Hf
  Hf13     1.0000 0.63558  0.72779  0.65539  Biso   1.000  Hf
  Hf14     1.0000 0.86002  0.76788  0.15679  Biso   1.000  Hf
  Hf15     1.0000 0.85335  0.97791  0.66605  Biso   1.000  Hf
  O17      1.0000 0.03314  0.66695  0.16993  Biso   1.000  O
  O18      1.0000 0.03311  0.58371  0.67045  Biso   1.000  O
  O19      1.0000 0.46805  0.91716  0.16517  Biso   1.000  O
  O20      1.0000 0.46506  0.83567  0.66175  Biso   1.000  O
  O21      1.0000 0.27601  0.62644  0.58899  Biso   1.000  O
  O22      1.0000 0.27587  0.62641  0.08992  Biso   1.000  O
  O23      1.0000 0.21768  0.87600  0.58205  Biso   1.000  O
  O24      1.0000 0.22751  0.87607  0.07426  Biso   1.000  O
  O25      1.0000 0.53270  0.66731  0.32821  Biso   1.000  O
  O26      1.0000 0.53361  0.58313  0.83039  Biso   1.000  O
  O27      1.0000 0.96516  0.91867  0.33727  Biso   1.000  O
  O28      1.0000 0.96472  0.83558  0.83582  Biso   1.000  O
  O29      1.0000 0.77695  0.62295  0.91340  Biso   1.000  O
  O30      1.0000 0.77639  0.62472  0.41290  Biso   1.000  O
  O31      1.0000 0.72091  0.87189  0.91247  Biso   1.000  O
  O32      1.0000 0.72634  0.87558  0.41247  Biso   1.000  O
