data_image0
_cell_length_a       9.94586
_cell_length_b       10.3656
_cell_length_c       4.99668
_cell_angle_alpha    90.1416
_cell_angle_beta     89.3477
_cell_angle_gamma    89.8178

_symmetry_space_group_name_H-M    "P 1"
_symmetry_int_tables_number       1

loop_
  _symmetry_equiv_pos_as_xyz
  'x, y, z'

loop_
  _atom_site_label
  _atom_site_occupancy
  _atom_site_fract_x
  _atom_site_fract_y
  _atom_site_fract_z
  _atom_site_thermal_displace_type
  _atom_site_B_iso_or_equiv
  _atom_site_type_symbol
  As1      1.0000 0.11301  0.02379  0.21980  Biso   1.000  As
  Hf1      1.0000 0.14080  0.23473  0.74922  Biso   1.000  Hf
  Hf2      1.0000 0.36627  0.26557  0.25733  Biso   1.000  Hf
  Hf3      1.0000 0.36709  0.48468  0.75414  Biso   1.000  Hf
  Hf4      1.0000 0.03900  0.17792  0.38435  Biso   1.000  Hf
  Hf5      1.0000 0.03451  0.06447  0.90061  Biso   1.000  Hf
  Hf6      1.0000 0.46395  0.43417  0.39006  Biso   1.000  Hf
  Hf7      1.0000 0.46315  0.31538  0.88718  Biso   1.000  Hf
  Hf8      1.0000 0.28324  0.12776  0.52095  Biso   1.000  Hf
  Hf9      1.0000 0.26354  0.13159  0.01309  Biso   1.000  Hf
  Hf10     1.0000 0.23017  0.38203  0.00035  Biso   1.000  Hf
  Hf11     1.0000 0.22800  0.37044  0.50007  Biso   1.000  Hf
  Hf12     1.0000 0.13506  0.51704  0.25295  Biso   1.000  Hf
  Hf13     1.0000 0.13547  0.73359  0.75683  Biso   1.000  Hf
  Hf14     1.0000 0.36444  0.76855  0.26163  Biso   1.000  Hf
  Hf15     1.0000 0.36031  0.98400  0.75861  Biso   1.000  Hf
  Hf16     1.0000 0.03681  0.68521  0.38771  Biso   1.000  Hf
  Hf17     1.0000 0.03509  0.56454  0.89120  Biso   1.000  Hf
  Hf18     1.0000 0.46706  0.93401  0.39890  Biso   1.000  Hf
  Hf19     1.0000 0.46373  0.81775  0.90060  Biso   1.000  Hf
  Hf20     1.0000 0.26974  0.61541  0.50244  Biso   1.000  Hf
  Hf21     1.0000 0.27137  0.63316  0.00374  Biso   1.000  Hf
  Hf22     1.0000 0.22148  0.88362  0.01969  Biso   1.000  Hf
  Hf23     1.0000 0.23876  0.86139  0.52698  Biso   1.000  Hf
  Hf24     1.0000 0.63166  0.01625  0.24761  Biso   1.000  Hf
  Hf25     1.0000 0.63287  0.23275  0.74936  Biso   1.000  Hf
  Hf26     1.0000 0.86482  0.26581  0.24559  Biso   1.000  Hf
  Hf27     1.0000 0.86693  0.48231  0.74880  Biso   1.000  Hf
  Hf28     1.0000 0.54115  0.18706  0.38141  Biso   1.000  Hf
  Hf29     1.0000 0.53496  0.06651  0.88887  Biso   1.000  Hf
  Hf30     1.0000 0.96542  0.42974  0.38610  Biso   1.000  Hf
  Hf31     1.0000 0.96443  0.31326  0.88262  Biso   1.000  Hf
  Hf32     1.0000 0.77141  0.11624  0.49274  Biso   1.000  Hf
  Hf33     1.0000 0.77171  0.13120  0.99200  Biso   1.000  Hf
  Hf34     1.0000 0.73029  0.38141  0.99929  Biso   1.000  Hf
  Hf35     1.0000 0.73002  0.36720  0.49833  Biso   1.000  Hf
  Hf36     1.0000 0.63396  0.51664  0.25306  Biso   1.000  Hf
  Hf37     1.0000 0.63212  0.73447  0.75054  Biso   1.000  Hf
  Hf38     1.0000 0.86839  0.76332  0.24131  Biso   1.000  Hf
  Hf39     1.0000 0.86251  0.98320  0.74607  Biso   1.000  Hf
  Hf40     1.0000 0.53574  0.68400  0.39425  Biso   1.000  Hf
  Hf41     1.0000 0.53724  0.56588  0.89000  Biso   1.000  Hf
  Hf42     1.0000 0.96654  0.93837  0.36198  Biso   1.000  Hf
  Hf43     1.0000 0.96126  0.81635  0.87452  Biso   1.000  Hf
  Hf44     1.0000 0.77172  0.61610  0.49593  Biso   1.000  Hf
  Hf45     1.0000 0.76955  0.63283  0.99598  Biso   1.000  Hf
  Hf46     1.0000 0.72870  0.88283  0.99324  Biso   1.000  Hf
  Hf47     1.0000 0.73588  0.86652  0.49350  Biso   1.000  Hf
