data_image0
_cell_length_a       10.1159
_cell_length_b       10.2932
_cell_length_c       10.1506
_cell_angle_alpha    89.6645
_cell_angle_beta     92.7047
_cell_angle_gamma    87.8766

_symmetry_space_group_name_H-M    "P 1"
_symmetry_int_tables_number       1

loop_
  _symmetry_equiv_pos_as_xyz
  'x, y, z'

loop_
  _atom_site_label
  _atom_site_occupancy
  _atom_site_fract_x
  _atom_site_fract_y
  _atom_site_fract_z
  _atom_site_thermal_displace_type
  _atom_site_B_iso_or_equiv
  _atom_site_type_symbol
  Hf1      1.0000 0.13126  0.97713  0.11981  Biso   1.000  Hf
  Hf2      1.0000 0.11728  0.20980  0.36889  Biso   1.000  Hf
  Hf3      1.0000 0.38439  0.24387  0.09881  Biso   1.000  Hf
  Hf4      1.0000 0.39388  0.01106  0.35838  Biso   1.000  Hf
  Hf5      1.0000 0.00139  0.15751  0.01265  Biso   1.000  Hf
  Hf6      1.0000 0.99644  0.08375  0.25205  Biso   1.000  Hf
  Hf7      1.0000 0.95421  0.33207  0.32408  Biso   1.000  Hf
  Hf8      1.0000 0.94769  0.43087  0.05925  Biso   1.000  Hf
  Hf9      1.0000 0.25442  0.13145  0.23583  Biso   1.000  Hf
  Hf10     1.0000 0.25571  0.07268  0.98535  Biso   1.000  Hf
  Hf11     1.0000 0.30199  0.30703  0.91291  Biso   1.000  Hf
  Hf12     1.0000 0.26464  0.40818  0.18104  Biso   1.000  Hf
  Hf13     1.0000 0.13077  0.98508  0.61778  Biso   1.000  Hf
  Hf14     1.0000 0.13302  0.21534  0.86592  Biso   1.000  Hf
  Hf15     1.0000 0.36887  0.24635  0.60413  Biso   1.000  Hf
  Hf16     1.0000 0.39648  0.00982  0.85887  Biso   1.000  Hf
  Hf17     1.0000 0.00422  0.14531  0.51658  Biso   1.000  Hf
  Hf18     1.0000 0.00360  0.09476  0.75366  Biso   1.000  Hf
  Hf19     1.0000 0.98661  0.34629  0.80280  Biso   1.000  Hf
  Hf20     1.0000 0.97879  0.41196  0.55387  Biso   1.000  Hf
  Hf21     1.0000 0.25029  0.13435  0.72439  Biso   1.000  Hf
  Hf22     1.0000 0.25365  0.08318  0.48638  Biso   1.000  Hf
  Hf23     1.0000 0.25918  0.32764  0.43667  Biso   1.000  Hf
  Hf24     1.0000 0.25249  0.39594  0.68765  Biso   1.000  Hf
  Hf25     1.0000 0.11329  0.54775  0.11385  Biso   1.000  Hf
  Hf26     1.0000 0.12512  0.75026  0.37558  Biso   1.000  Hf
  Hf27     1.0000 0.38963  0.75872  0.15036  Biso   1.000  Hf
  Hf28     1.0000 0.35618  0.48314  0.35060  Biso   1.000  Hf
  Hf29     1.0000 0.98694  0.66834  0.99681  Biso   1.000  Hf
  Hf30     1.0000 0.99417  0.59884  0.26447  Biso   1.000  Hf
  Hf31     1.0000 0.02702  0.83046  0.20689  Biso   1.000  Hf
  Hf32     1.0000 0.02216  0.91364  0.95774  Biso   1.000  Hf
  Hf33     1.0000 0.24932  0.64457  0.23425  Biso   1.000  Hf
  Hf34     1.0000 0.21810  0.57040  0.95397  Biso   1.000  Hf
  Hf35     1.0000 0.23907  0.81754  0.02728  Biso   1.000  Hf
  Hf36     1.0000 0.26283  0.88842  0.26905  Biso   1.000  Hf
  Hf37     1.0000 0.11879  0.53068  0.61689  Biso   1.000  Hf
  Hf38     1.0000 0.12828  0.75223  0.86828  Biso   1.000  Hf
  Hf39     1.0000 0.38879  0.76072  0.64719  Biso   1.000  Hf
  Hf40     1.0000 0.35904  0.48096  0.84576  Biso   1.000  Hf
  Hf41     1.0000 0.98965  0.66211  0.50135  Biso   1.000  Hf
  Hf42     1.0000 0.99833  0.60703  0.75738  Biso   1.000  Hf
  Hf43     1.0000 0.02514  0.84163  0.70909  Biso   1.000  Hf
  Hf44     1.0000 0.01834  0.90791  0.45824  Biso   1.000  Hf
  Hf45     1.0000 0.25249  0.64523  0.73078  Biso   1.000  Hf
  Hf46     1.0000 0.22747  0.58263  0.46510  Biso   1.000  Hf
  Hf47     1.0000 0.24185  0.82928  0.52562  Biso   1.000  Hf
  Hf48     1.0000 0.26357  0.88949  0.77043  Biso   1.000  Hf
  Hf49     1.0000 0.63348  0.00314  0.11727  Biso   1.000  Hf
  Hf50     1.0000 0.63065  0.26974  0.38800  Biso   1.000  Hf
  Hf51     1.0000 0.86837  0.25459  0.15025  Biso   1.000  Hf
  Hf52     1.0000 0.86299  0.01023  0.38234  Biso   1.000  Hf
  Hf53     1.0000 0.51243  0.14148  0.97699  Biso   1.000  Hf
  Hf54     1.0000 0.49364  0.10078  0.21772  Biso   1.000  Hf
  Hf55     1.0000 0.49506  0.34871  0.24192  Biso   1.000  Hf
  Hf56     1.0000 0.49372  0.40327  0.99335  Biso   1.000  Hf
  Hf57     1.0000 0.74055  0.15448  0.26350  Biso   1.000  Hf
  Hf58     1.0000 0.76006  0.10925  0.01365  Biso   1.000  Hf
  Hf59     1.0000 0.72259  0.34699  0.03891  Biso   1.000  Hf
  Hf60     1.0000 0.72789  0.41522  0.28319  Biso   1.000  Hf
  Hf61     1.0000 0.62945  0.00570  0.61748  Biso   1.000  Hf
  Hf62     1.0000 0.63016  0.26871  0.88026  Biso   1.000  Hf
  Hf63     1.0000 0.88786  0.25417  0.64171  Biso   1.000  Hf
  Hf64     1.0000 0.86759  0.01445  0.87850  Biso   1.000  Hf
  Hf65     1.0000 0.50084  0.14853  0.47604  Biso   1.000  Hf
  Hf66     1.0000 0.49747  0.10856  0.72274  Biso   1.000  Hf
  Hf67     1.0000 0.49856  0.35298  0.73476  Biso   1.000  Hf
  Hf68     1.0000 0.49203  0.40233  0.49177  Biso   1.000  Hf
  Hf69     1.0000 0.75433  0.16543  0.76390  Biso   1.000  Hf
  Hf70     1.0000 0.75326  0.11482  0.51186  Biso   1.000  Hf
  Hf71     1.0000 0.73595  0.35610  0.53609  Biso   1.000  Hf
  Hf72     1.0000 0.73221  0.41981  0.78631  Biso   1.000  Hf
  Hf73     1.0000 0.60958  0.49634  0.13099  Biso   1.000  Hf
  Hf74     1.0000 0.61578  0.73727  0.40227  Biso   1.000  Hf
  Hf75     1.0000 0.85883  0.74647  0.14048  Biso   1.000  Hf
  Hf76     1.0000 0.87371  0.50578  0.39270  Biso   1.000  Hf
  Hf77     1.0000 0.49327  0.64661  0.02690  Biso   1.000  Hf
  Hf78     1.0000 0.49820  0.60639  0.27480  Biso   1.000  Hf
  Hf79     1.0000 0.52241  0.86179  0.26304  Biso   1.000  Hf
  Hf80     1.0000 0.49524  0.89312  0.00896  Biso   1.000  Hf
  Hf81     1.0000 0.75025  0.66063  0.27676  Biso   1.000  Hf
  Hf82     1.0000 0.74093  0.60387  0.02183  Biso   1.000  Hf
  Hf83     1.0000 0.75170  0.85902  0.99185  Biso   1.000  Hf
  Hf84     1.0000 0.77763  0.90956  0.23347  Biso   1.000  Hf
  Hf85     1.0000 0.61024  0.49647  0.63101  Biso   1.000  Hf
  Hf86     1.0000 0.61365  0.73731  0.90305  Biso   1.000  Hf
  Hf87     1.0000 0.86370  0.75027  0.63914  Biso   1.000  Hf
  Hf88     1.0000 0.87678  0.51449  0.88345  Biso   1.000  Hf
  Hf89     1.0000 0.49722  0.64756  0.52737  Biso   1.000  Hf
  Hf90     1.0000 0.50310  0.60680  0.77358  Biso   1.000  Hf
  Hf91     1.0000 0.52221  0.86389  0.76112  Biso   1.000  Hf
  Hf92     1.0000 0.49684  0.89586  0.50975  Biso   1.000  Hf
  Hf93     1.0000 0.75632  0.66841  0.77871  Biso   1.000  Hf
  Hf94     1.0000 0.74487  0.60516  0.52583  Biso   1.000  Hf
  Hf95     1.0000 0.75230  0.86092  0.49066  Biso   1.000  Hf
  Hf96     1.0000 0.77657  0.91699  0.73095  Biso   1.000  Hf
  As1      1.0000 0.12451  0.29096  0.11120  Biso   1.000  As
