data_image0
_cell_length_a       10.0467
_cell_length_b       5.05525
_cell_length_c       10.24
_cell_angle_alpha    90.5665
_cell_angle_beta     91.7394
_cell_angle_gamma    88.2948

_symmetry_space_group_name_H-M    "P 1"
_symmetry_int_tables_number       1

loop_
  _symmetry_equiv_pos_as_xyz
  'x, y, z'

loop_
  _atom_site_label
  _atom_site_occupancy
  _atom_site_fract_x
  _atom_site_fract_y
  _atom_site_fract_z
  _atom_site_thermal_displace_type
  _atom_site_B_iso_or_equiv
  _atom_site_type_symbol
  Au1      1.0000 0.12244  0.99801  0.15450  Biso   1.000  Au
  Hf1      1.0000 0.12542  0.51153  0.38543  Biso   1.000  Hf
  Hf2      1.0000 0.37880  0.52534  0.11702  Biso   1.000  Hf
  Hf3      1.0000 0.39122  0.05232  0.36101  Biso   1.000  Hf
  Hf4      1.0000 0.00488  0.17973  0.02281  Biso   1.000  Hf
  Hf5      1.0000 0.00555  0.21136  0.27571  Biso   1.000  Hf
  Hf6      1.0000 0.97681  0.69221  0.23958  Biso   1.000  Hf
  Hf7      1.0000 0.97223  0.67127  0.96702  Biso   1.000  Hf
  Hf8      1.0000 0.25204  0.32600  0.23744  Biso   1.000  Hf
  Hf9      1.0000 0.26229  0.31882  0.97832  Biso   1.000  Hf
  Hf10     1.0000 0.23311  0.80192  0.02419  Biso   1.000  Hf
  Hf11     1.0000 0.23432  0.81196  0.28919  Biso   1.000  Hf
  Hf12     1.0000 0.12934  0.00018  0.61641  Biso   1.000  Hf
  Hf13     1.0000 0.12847  0.52203  0.86705  Biso   1.000  Hf
  Hf14     1.0000 0.37108  0.47152  0.62937  Biso   1.000  Hf
  Hf15     1.0000 0.36292  0.02934  0.88610  Biso   1.000  Hf
  Hf16     1.0000 0.02025  0.31869  0.53096  Biso   1.000  Hf
  Hf17     1.0000 0.99888  0.25230  0.77539  Biso   1.000  Hf
  Hf18     1.0000 0.00594  0.75707  0.72309  Biso   1.000  Hf
  Hf19     1.0000 0.01371  0.81815  0.47262  Biso   1.000  Hf
  Hf20     1.0000 0.24536  0.25779  0.73493  Biso   1.000  Hf
  Hf21     1.0000 0.25715  0.22288  0.48520  Biso   1.000  Hf
  Hf22     1.0000 0.24806  0.71331  0.52803  Biso   1.000  Hf
  Hf23     1.0000 0.25964  0.75876  0.77289  Biso   1.000  Hf
  Hf24     1.0000 0.63092  0.98690  0.11486  Biso   1.000  Hf
  Hf25     1.0000 0.63668  0.49711  0.38796  Biso   1.000  Hf
  Hf26     1.0000 0.88024  0.45074  0.11311  Biso   1.000  Hf
  Hf27     1.0000 0.86328  0.97853  0.36635  Biso   1.000  Hf
  Hf28     1.0000 0.50481  0.26065  0.01915  Biso   1.000  Hf
  Hf29     1.0000 0.49685  0.33459  0.26954  Biso   1.000  Hf
  Hf30     1.0000 0.46786  0.84676  0.20102  Biso   1.000  Hf
  Hf31     1.0000 0.48830  0.74349  0.96132  Biso   1.000  Hf
  Hf32     1.0000 0.75051  0.24502  0.22898  Biso   1.000  Hf
  Hf33     1.0000 0.75145  0.19585  0.97509  Biso   1.000  Hf
  Hf34     1.0000 0.72758  0.68006  0.03015  Biso   1.000  Hf
  Hf35     1.0000 0.72091  0.76694  0.27462  Biso   1.000  Hf
  Hf36     1.0000 0.62106  0.97291  0.62644  Biso   1.000  Hf
  Hf37     1.0000 0.62309  0.48001  0.87194  Biso   1.000  Hf
  Hf38     1.0000 0.87178  0.47913  0.63821  Biso   1.000  Hf
  Hf39     1.0000 0.88622  0.98476  0.86733  Biso   1.000  Hf
  Hf40     1.0000 0.51133  0.26609  0.51814  Biso   1.000  Hf
  Hf41     1.0000 0.49918  0.19642  0.76906  Biso   1.000  Hf
  Hf42     1.0000 0.52074  0.68246  0.71024  Biso   1.000  Hf
  Hf43     1.0000 0.51035  0.78385  0.46286  Biso   1.000  Hf
  Hf44     1.0000 0.74841  0.23007  0.72870  Biso   1.000  Hf
  Hf45     1.0000 0.76623  0.24667  0.48394  Biso   1.000  Hf
  Hf46     1.0000 0.76112  0.74413  0.52278  Biso   1.000  Hf
  Hf47     1.0000 0.75555  0.72860  0.77707  Biso   1.000  Hf
