data_image0
_cell_length_a       5.10869
_cell_length_b       10.3265
_cell_length_c       10.5542
_cell_angle_alpha    90.326
_cell_angle_beta     79.631
_cell_angle_gamma    89.8206

_symmetry_space_group_name_H-M    "P 1"
_symmetry_int_tables_number       1

loop_
  _symmetry_equiv_pos_as_xyz
  'x, y, z'

loop_
  _atom_site_label
  _atom_site_occupancy
  _atom_site_fract_x
  _atom_site_fract_y
  _atom_site_fract_z
  _atom_site_thermal_displace_type
  _atom_site_B_iso_or_equiv
  _atom_site_type_symbol
  Hf1      1.0000 0.26526  0.01904  0.14597  Biso   1.000  Hf
  Hf2      1.0000 0.31187  0.23661  0.40482  Biso   1.000  Hf
  Hf3      1.0000 0.70677  0.27733  0.09778  Biso   1.000  Hf
  Hf4      1.0000 0.72835  0.48010  0.34939  Biso   1.000  Hf
  O1       1.0000 0.05358  0.16168  0.07174  Biso   1.000  O
  O2       1.0000 0.09646  0.04897  0.34676  Biso   1.000  O
  O3       1.0000 0.91815  0.43212  0.15824  Biso   1.000  O
  O4       1.0000 0.97830  0.37205  0.45003  Biso   1.000  O
  O5       1.0000 0.51370  0.13371  0.23517  Biso   1.000  O
  O6       1.0000 0.55137  0.11045  0.49630  Biso   1.000  O
  O7       1.0000 0.43625  0.38237  0.00763  Biso   1.000  O
  O8       1.0000 0.42913  0.38109  0.25824  Biso   1.000  O
  Hf5      1.0000 0.27156  0.01985  0.64632  Biso   1.000  Hf
  Hf6      1.0000 0.27028  0.22832  0.89426  Biso   1.000  Hf
  Hf7      1.0000 0.73474  0.27556  0.61131  Biso   1.000  Hf
  Hf8      1.0000 0.71807  0.48082  0.85737  Biso   1.000  Hf
  O9       1.0000 0.07406  0.16863  0.57730  Biso   1.000  O
  O10      1.0000 0.06022  0.08577  0.82431  Biso   1.000  O
  O11      1.0000 0.93877  0.41250  0.68564  Biso   1.000  O
  O12      1.0000 0.92541  0.33501  0.92193  Biso   1.000  O
  O13      1.0000 0.54606  0.12968  0.74048  Biso   1.000  O
  O14      1.0000 0.54182  0.12445  0.98763  Biso   1.000  O
  O15      1.0000 0.46934  0.37527  0.51418  Biso   1.000  O
  O16      1.0000 0.45100  0.37274  0.76176  Biso   1.000  O
  Hf9      1.0000 0.27182  0.52617  0.14411  Biso   1.000  Hf
  Hf10     1.0000 0.27550  0.72400  0.39664  Biso   1.000  Hf
  Hf11     1.0000 0.71532  0.77230  0.10418  Biso   1.000  Hf
  Hf12     1.0000 0.71715  0.96385  0.36012  Biso   1.000  Hf
  O17      1.0000 0.06718  0.67535  0.07738  Biso   1.000  O
  O18      1.0000 0.06141  0.59032  0.32092  Biso   1.000  O
  O19      1.0000 0.91692  0.91930  0.17443  Biso   1.000  O
  O20      1.0000 0.91760  0.82118  0.42413  Biso   1.000  O
  O21      1.0000 0.55015  0.63027  0.24078  Biso   1.000  O
  O22      1.0000 0.54271  0.61645  0.49058  Biso   1.000  O
  O23      1.0000 0.44367  0.88189  0.01117  Biso   1.000  O
  O24      1.0000 0.44446  0.86681  0.26091  Biso   1.000  O
  Hf13     1.0000 0.27464  0.52122  0.64815  Biso   1.000  Hf
  Hf14     1.0000 0.26900  0.73157  0.89682  Biso   1.000  Hf
  Hf15     1.0000 0.71839  0.76792  0.60681  Biso   1.000  Hf
  Hf16     1.0000 0.71652  0.98056  0.85373  Biso   1.000  Hf
  O25      1.0000 0.06100  0.66100  0.57867  Biso   1.000  O
  O26      1.0000 0.06349  0.58752  0.82899  Biso   1.000  O
  O27      1.0000 0.92534  0.91526  0.67095  Biso   1.000  O
  O28      1.0000 0.92602  0.83781  0.92240  Biso   1.000  O
  O29      1.0000 0.54634  0.62777  0.74092  Biso   1.000  O
  O30      1.0000 0.54658  0.62543  0.99081  Biso   1.000  O
  O31      1.0000 0.43986  0.87145  0.51314  Biso   1.000  O
  O32      1.0000 0.44382  0.87236  0.76155  Biso   1.000  O
  Au1      1.0000 0.87721  0.21809  0.31213  Biso   1.000  Au
