data_image0
_cell_length_a       10.1694
_cell_length_b       10.1354
_cell_length_c       10.1694
_cell_angle_alpha    90.1842
_cell_angle_beta     82.9876
_cell_angle_gamma    90.1846

_symmetry_space_group_name_H-M    "P 1"
_symmetry_int_tables_number       1

loop_
  _symmetry_equiv_pos_as_xyz
  'x, y, z'

loop_
  _atom_site_label
  _atom_site_occupancy
  _atom_site_fract_x
  _atom_site_fract_y
  _atom_site_fract_z
  _atom_site_thermal_displace_type
  _atom_site_B_iso_or_equiv
  _atom_site_type_symbol
  Hf1      1.0000 0.13133  0.99061  0.13128  Biso   1.000  Hf
  Hf2      1.0000 0.13519  0.25167  0.36723  Biso   1.000  Hf
  Hf3      1.0000 0.36728  0.25167  0.13514  Biso   1.000  Hf
  Hf4      1.0000 0.38111  0.99266  0.38106  Biso   1.000  Hf
  Hf5      1.0000 0.04979  0.16374  0.04975  Biso   1.000  Hf
  Hf6      1.0000 0.04704  0.07954  0.30384  Biso   1.000  Hf
  Hf7      1.0000 0.02781  0.32976  0.21520  Biso   1.000  Hf
  Hf8      1.0000 0.98682  0.39652  0.98677  Biso   1.000  Hf
  Hf9      1.0000 0.31603  0.16444  0.31598  Biso   1.000  Hf
  Hf10     1.0000 0.30389  0.07954  0.04699  Biso   1.000  Hf
  Hf11     1.0000 0.21525  0.32976  0.02776  Biso   1.000  Hf
  Hf12     1.0000 0.25066  0.41095  0.25061  Biso   1.000  Hf
  Hf13     1.0000 0.12328  0.99322  0.62509  Biso   1.000  Hf
  Hf14     1.0000 0.11783  0.26123  0.86072  Biso   1.000  Hf
  Hf15     1.0000 0.37447  0.25562  0.62549  Biso   1.000  Hf
  Hf16     1.0000 0.37373  0.99203  0.87446  Biso   1.000  Hf
  Hf17     1.0000 0.04602  0.15918  0.54483  Biso   1.000  Hf
  Hf18     1.0000 0.04037  0.09200  0.79680  Biso   1.000  Hf
  Hf19     1.0000 0.00037  0.35159  0.73957  Biso   1.000  Hf
  Hf20     1.0000 0.99963  0.39761  0.47865  Biso   1.000  Hf
  Hf21     1.0000 0.29215  0.16433  0.80091  Biso   1.000  Hf
  Hf22     1.0000 0.29636  0.08568  0.55465  Biso   1.000  Hf
  Hf23     1.0000 0.25248  0.35048  0.50553  Biso   1.000  Hf
  Hf24     1.0000 0.24360  0.40140  0.75137  Biso   1.000  Hf
  Hf25     1.0000 0.12595  0.50741  0.12590  Biso   1.000  Hf
  Hf26     1.0000 0.12569  0.75937  0.37804  Biso   1.000  Hf
  Hf27     1.0000 0.37808  0.75937  0.12563  Biso   1.000  Hf
  Hf28     1.0000 0.37728  0.49381  0.37723  Biso   1.000  Hf
  Hf29     1.0000 0.95589  0.65942  0.95584  Biso   1.000  Hf
  Hf30     1.0000 0.95366  0.58387  0.20605  Biso   1.000  Hf
  Hf31     1.0000 0.99934  0.84488  0.24781  Biso   1.000  Hf
  Hf32     1.0000 0.00374  0.90480  0.00369  Biso   1.000  Hf
  Hf33     1.0000 0.20521  0.66703  0.20515  Biso   1.000  Hf
  Hf34     1.0000 0.20609  0.58387  0.95360  Biso   1.000  Hf
  Hf35     1.0000 0.24786  0.84488  0.99929  Biso   1.000  Hf
  Hf36     1.0000 0.25692  0.90257  0.25687  Biso   1.000  Hf
  Hf37     1.0000 0.12442  0.49399  0.62004  Biso   1.000  Hf
  Hf38     1.0000 0.12464  0.75781  0.87570  Biso   1.000  Hf
  Hf39     1.0000 0.37360  0.75782  0.62547  Biso   1.000  Hf
  Hf40     1.0000 0.37790  0.49908  0.86791  Biso   1.000  Hf
  Hf41     1.0000 0.95465  0.66098  0.45463  Biso   1.000  Hf
  Hf42     1.0000 0.95463  0.58981  0.70147  Biso   1.000  Hf
  Hf43     1.0000 0.99619  0.84907  0.74917  Biso   1.000  Hf
  Hf44     1.0000 0.00094  0.89988  0.50414  Biso   1.000  Hf
  Hf45     1.0000 0.20550  0.65821  0.70681  Biso   1.000  Hf
  Hf46     1.0000 0.20648  0.59249  0.45463  Biso   1.000  Hf
  Hf47     1.0000 0.24690  0.85070  0.50092  Biso   1.000  Hf
  Hf48     1.0000 0.24881  0.90091  0.75527  Biso   1.000  Hf
  Hf49     1.0000 0.62514  0.99322  0.12323  Biso   1.000  Hf
  Hf50     1.0000 0.62553  0.25562  0.37443  Biso   1.000  Hf
  Hf51     1.0000 0.86076  0.26123  0.11778  Biso   1.000  Hf
  Hf52     1.0000 0.87451  0.99203  0.37369  Biso   1.000  Hf
  Hf53     1.0000 0.54488  0.15918  0.04597  Biso   1.000  Hf
  Hf54     1.0000 0.55469  0.08568  0.29632  Biso   1.000  Hf
  Hf55     1.0000 0.50558  0.35048  0.25243  Biso   1.000  Hf
  Hf56     1.0000 0.47870  0.39761  0.99959  Biso   1.000  Hf
  Hf57     1.0000 0.80095  0.16433  0.29210  Biso   1.000  Hf
  Hf58     1.0000 0.79685  0.09200  0.04033  Biso   1.000  Hf
  Hf59     1.0000 0.73962  0.35159  0.00033  Biso   1.000  Hf
  Hf60     1.0000 0.75142  0.40140  0.24355  Biso   1.000  Hf
  Hf61     1.0000 0.62474  0.99301  0.62470  Biso   1.000  Hf
  Hf62     1.0000 0.61908  0.25495  0.87465  Biso   1.000  Hf
  Hf63     1.0000 0.87470  0.25495  0.61904  Biso   1.000  Hf
  Hf64     1.0000 0.87283  0.99058  0.87278  Biso   1.000  Hf
  Hf65     1.0000 0.54335  0.15990  0.54330  Biso   1.000  Hf
  Hf66     1.0000 0.54082  0.08970  0.79201  Biso   1.000  Hf
  Hf67     1.0000 0.50064  0.35078  0.75214  Biso   1.000  Hf
  Hf68     1.0000 0.49833  0.39949  0.49829  Biso   1.000  Hf
  Hf69     1.0000 0.79106  0.15938  0.79102  Biso   1.000  Hf
  Hf70     1.0000 0.79206  0.08969  0.54077  Biso   1.000  Hf
  Hf71     1.0000 0.75218  0.35078  0.50060  Biso   1.000  Hf
  Hf72     1.0000 0.74558  0.39812  0.74552  Biso   1.000  Hf
  Hf73     1.0000 0.62009  0.49398  0.12437  Biso   1.000  Hf
  Hf74     1.0000 0.62551  0.75782  0.37355  Biso   1.000  Hf
  Hf75     1.0000 0.87575  0.75781  0.12460  Biso   1.000  Hf
  Hf76     1.0000 0.86796  0.49908  0.37785  Biso   1.000  Hf
  Hf77     1.0000 0.45467  0.66098  0.95460  Biso   1.000  Hf
  Hf78     1.0000 0.45468  0.59249  0.20643  Biso   1.000  Hf
  Hf79     1.0000 0.50097  0.85070  0.24685  Biso   1.000  Hf
  Hf80     1.0000 0.50419  0.89988  0.00089  Biso   1.000  Hf
  Hf81     1.0000 0.70686  0.65821  0.20545  Biso   1.000  Hf
  Hf82     1.0000 0.70151  0.58981  0.95458  Biso   1.000  Hf
  Hf83     1.0000 0.74922  0.84907  0.99614  Biso   1.000  Hf
  Hf84     1.0000 0.75532  0.90091  0.24876  Biso   1.000  Hf
  Hf85     1.0000 0.62554  0.49094  0.62549  Biso   1.000  Hf
  Hf86     1.0000 0.62471  0.75751  0.87430  Biso   1.000  Hf
  Hf87     1.0000 0.87435  0.75752  0.62467  Biso   1.000  Hf
  Hf88     1.0000 0.86974  0.49569  0.86969  Biso   1.000  Hf
  Hf89     1.0000 0.45591  0.66253  0.45587  Biso   1.000  Hf
  Hf90     1.0000 0.45688  0.59080  0.70351  Biso   1.000  Hf
  Hf91     1.0000 0.49604  0.84817  0.74770  Biso   1.000  Hf
  Hf92     1.0000 0.50433  0.89970  0.50428  Biso   1.000  Hf
  Hf93     1.0000 0.70587  0.65864  0.70581  Biso   1.000  Hf
  Hf94     1.0000 0.70355  0.59079  0.45682  Biso   1.000  Hf
  Hf95     1.0000 0.74775  0.84817  0.49600  Biso   1.000  Hf
  Hf96     1.0000 0.75080  0.90034  0.75075  Biso   1.000  Hf
  B1       1.0000 0.12712  0.24912  0.12708  Biso   1.000  B 
