data_image0
_cell_length_a       10.0233
_cell_length_b       10.2304
_cell_length_c       10.4987
_cell_angle_alpha    89.9962
_cell_angle_beta     90.4025
_cell_angle_gamma    89.9994

_symmetry_space_group_name_H-M    "P 1"
_symmetry_int_tables_number       1

loop_
  _symmetry_equiv_pos_as_xyz
  'x, y, z'

loop_
  _atom_site_label
  _atom_site_occupancy
  _atom_site_fract_x
  _atom_site_fract_y
  _atom_site_fract_z
  _atom_site_thermal_displace_type
  _atom_site_B_iso_or_equiv
  _atom_site_type_symbol
  Hf1      1.0000 0.13608  0.02099  0.17280  Biso   1.000  Hf
  Hf2      1.0000 0.13602  0.22685  0.42708  Biso   1.000  Hf
  Hf3      1.0000 0.34355  0.27060  0.18183  Biso   1.000  Hf
  Hf4      1.0000 0.36025  0.47971  0.42394  Biso   1.000  Hf
  Hf5      1.0000 0.64386  0.02863  0.07020  Biso   1.000  Hf
  Hf6      1.0000 0.63873  0.22716  0.34052  Biso   1.000  Hf
  Hf7      1.0000 0.85392  0.26764  0.07091  Biso   1.000  Hf
  Hf8      1.0000 0.86454  0.47881  0.32980  Biso   1.000  Hf
  O1       1.0000 0.03415  0.16908  0.08637  Biso   1.000  O
  O2       1.0000 0.03208  0.08286  0.33573  Biso   1.000  O
  O3       1.0000 0.48964  0.37926  0.07131  Biso   1.000  O
  O4       1.0000 0.46325  0.33614  0.33243  Biso   1.000  O
  O5       1.0000 0.27494  0.12362  0.29800  Biso   1.000  O
  O6       1.0000 0.27668  0.12634  0.04833  Biso   1.000  O
  O7       1.0000 0.21492  0.37375  0.29915  Biso   1.000  O
  O8       1.0000 0.22901  0.37967  0.04942  Biso   1.000  O
  O9       1.0000 0.52860  0.17414  0.17022  Biso   1.000  O
  O10      1.0000 0.53137  0.08462  0.41866  Biso   1.000  O
  O11      1.0000 0.95417  0.41805  0.16581  Biso   1.000  O
  O12      1.0000 0.96579  0.33288  0.41916  Biso   1.000  O
  O13      1.0000 0.77671  0.12274  0.45925  Biso   1.000  O
  O14      1.0000 0.77237  0.12574  0.20930  Biso   1.000  O
  O15      1.0000 0.72170  0.37441  0.45100  Biso   1.000  O
  O16      1.0000 0.69265  0.36002  0.18319  Biso   1.000  O
  Hf9      1.0000 0.14185  0.02041  0.67328  Biso   1.000  Hf
  Hf10     1.0000 0.13803  0.22738  0.92255  Biso   1.000  Hf
  Hf11     1.0000 0.36431  0.27011  0.67295  Biso   1.000  Hf
  Hf12     1.0000 0.36006  0.47782  0.91914  Biso   1.000  Hf
  Hf13     1.0000 0.63940  0.02119  0.58296  Biso   1.000  Hf
  Hf14     1.0000 0.64225  0.23202  0.83704  Biso   1.000  Hf
  Hf15     1.0000 0.86098  0.27042  0.58133  Biso   1.000  Hf
  Hf16     1.0000 0.86657  0.48188  0.82327  Biso   1.000  Hf
  O17      1.0000 0.03400  0.16591  0.58827  Biso   1.000  O
  O18      1.0000 0.03863  0.08116  0.83498  Biso   1.000  O
  O19      1.0000 0.46854  0.41429  0.58220  Biso   1.000  O
  O20      1.0000 0.47025  0.33832  0.83150  Biso   1.000  O
  O21      1.0000 0.27992  0.12376  0.79764  Biso   1.000  O
  O22      1.0000 0.27789  0.12447  0.54797  Biso   1.000  O
  O23      1.0000 0.22515  0.37316  0.79785  Biso   1.000  O
  O24      1.0000 0.22441  0.37570  0.54804  Biso   1.000  O
  O25      1.0000 0.53582  0.16610  0.66873  Biso   1.000  O
  O26      1.0000 0.53544  0.07854  0.91003  Biso   1.000  O
  O27      1.0000 0.97000  0.41596  0.66502  Biso   1.000  O
  O28      1.0000 0.97035  0.33460  0.91499  Biso   1.000  O
  O29      1.0000 0.79363  0.11653  0.94840  Biso   1.000  O
  O30      1.0000 0.77842  0.12622  0.70671  Biso   1.000  O
  O31      1.0000 0.73420  0.38965  0.94450  Biso   1.000  O
  O32      1.0000 0.72513  0.37602  0.70201  Biso   1.000  O
  Hf17     1.0000 0.13425  0.52213  0.17230  Biso   1.000  Hf
  Hf18     1.0000 0.13929  0.72944  0.42259  Biso   1.000  Hf
  Hf19     1.0000 0.36188  0.77306  0.17272  Biso   1.000  Hf
  Hf20     1.0000 0.36056  0.97653  0.42465  Biso   1.000  Hf
  Hf21     1.0000 0.64633  0.53212  0.07091  Biso   1.000  Hf
  Hf22     1.0000 0.63908  0.72850  0.32777  Biso   1.000  Hf
  Hf23     1.0000 0.86152  0.77463  0.07799  Biso   1.000  Hf
  Hf24     1.0000 0.85896  0.97843  0.32883  Biso   1.000  Hf
  O33      1.0000 0.03309  0.66691  0.08538  Biso   1.000  O
  O34      1.0000 0.03265  0.58110  0.33757  Biso   1.000  O
  O35      1.0000 0.46942  0.91929  0.08643  Biso   1.000  O
  O36      1.0000 0.46733  0.83401  0.33437  Biso   1.000  O
  O37      1.0000 0.27316  0.62400  0.29552  Biso   1.000  O
  O38      1.0000 0.27835  0.62376  0.04693  Biso   1.000  O
  O39      1.0000 0.22352  0.87430  0.29693  Biso   1.000  O
  O40      1.0000 0.22408  0.87598  0.04770  Biso   1.000  O
  O41      1.0000 0.52948  0.65921  0.16767  Biso   1.000  O
  O42      1.0000 0.53210  0.58582  0.41742  Biso   1.000  O
  O43      1.0000 0.96568  0.91808  0.16614  Biso   1.000  O
  O44      1.0000 0.96585  0.83165  0.41349  Biso   1.000  O
  O45      1.0000 0.77681  0.62376  0.45311  Biso   1.000  O
  O46      1.0000 0.77677  0.62359  0.20328  Biso   1.000  O
  O47      1.0000 0.72276  0.87428  0.45453  Biso   1.000  O
  O48      1.0000 0.72387  0.87487  0.20364  Biso   1.000  O
  Hf25     1.0000 0.14157  0.52109  0.67120  Biso   1.000  Hf
  Hf26     1.0000 0.14144  0.72889  0.92345  Biso   1.000  Hf
  Hf27     1.0000 0.36198  0.77046  0.67334  Biso   1.000  Hf
  Hf28     1.0000 0.36263  0.97852  0.92373  Biso   1.000  Hf
  Hf29     1.0000 0.63948  0.52160  0.57785  Biso   1.000  Hf
  Hf30     1.0000 0.63944  0.73084  0.82683  Biso   1.000  Hf
  Hf31     1.0000 0.86227  0.77084  0.57658  Biso   1.000  Hf
  Hf32     1.0000 0.86515  0.97631  0.82557  Biso   1.000  Hf
  O49      1.0000 0.03435  0.66516  0.58357  Biso   1.000  O
  O50      1.0000 0.03808  0.58548  0.83385  Biso   1.000  O
  O51      1.0000 0.46766  0.91408  0.58531  Biso   1.000  O
  O52      1.0000 0.46695  0.83308  0.83531  Biso   1.000  O
  O53      1.0000 0.28076  0.62131  0.79656  Biso   1.000  O
  O54      1.0000 0.27781  0.62635  0.54650  Biso   1.000  O
  O55      1.0000 0.22454  0.87198  0.79711  Biso   1.000  O
  O56      1.0000 0.22374  0.87480  0.54670  Biso   1.000  O
  O57      1.0000 0.53299  0.66332  0.66855  Biso   1.000  O
  O58      1.0000 0.53075  0.58676  0.92020  Biso   1.000  O
  O59      1.0000 0.96949  0.91491  0.66344  Biso   1.000  O
  O60      1.0000 0.96950  0.83386  0.91765  Biso   1.000  O
  O61      1.0000 0.77867  0.63100  0.95134  Biso   1.000  O
  O62      1.0000 0.77798  0.62739  0.70297  Biso   1.000  O
  O63      1.0000 0.72458  0.87633  0.95371  Biso   1.000  O
  O64      1.0000 0.72436  0.87498  0.70405  Biso   1.000  O
  B1       1.0000 0.59198  0.27687  0.09481  Biso   1.000  B
