data_image0
_cell_length_a       5.09002
_cell_length_b       10.1873
_cell_length_c       10.4884
_cell_angle_alpha    90.1173
_cell_angle_beta     80.0007
_cell_angle_gamma    90.1716

_symmetry_space_group_name_H-M    "P 1"
_symmetry_int_tables_number       1

loop_
  _symmetry_equiv_pos_as_xyz
  'x, y, z'

loop_
  _atom_site_label
  _atom_site_occupancy
  _atom_site_fract_x
  _atom_site_fract_y
  _atom_site_fract_z
  _atom_site_thermal_displace_type
  _atom_site_B_iso_or_equiv
  _atom_site_type_symbol
  B1       1.0000 0.05103  0.05910  0.17269  Biso   1.000  B
  Hf1      1.0000 0.28621  0.22667  0.39201  Biso   1.000  Hf
  Hf2      1.0000 0.70415  0.26768  0.10617  Biso   1.000  Hf
  Hf3      1.0000 0.72328  0.47669  0.35165  Biso   1.000  Hf
  O1       1.0000 0.06754  0.15454  0.08080  Biso   1.000  O
  O2       1.0000 0.07320  0.09054  0.29973  Biso   1.000  O
  O3       1.0000 0.93185  0.41130  0.17279  Biso   1.000  O
  O4       1.0000 0.93753  0.33431  0.42233  Biso   1.000  O
  O5       1.0000 0.58403  0.13815  0.25341  Biso   1.000  O
  O6       1.0000 0.54723  0.11843  0.49365  Biso   1.000  O
  O7       1.0000 0.44631  0.37897  0.01020  Biso   1.000  O
  O8       1.0000 0.43831  0.37311  0.25859  Biso   1.000  O
  Hf4      1.0000 0.27677  0.01854  0.64696  Biso   1.000  Hf
  Hf5      1.0000 0.28648  0.22469  0.89669  Biso   1.000  Hf
  Hf6      1.0000 0.72780  0.26859  0.60210  Biso   1.000  Hf
  Hf7      1.0000 0.72916  0.47636  0.85613  Biso   1.000  Hf
  O9       1.0000 0.05945  0.15238  0.56446  Biso   1.000  O
  O10      1.0000 0.06925  0.08754  0.82378  Biso   1.000  O
  O11      1.0000 0.94352  0.40762  0.67609  Biso   1.000  O
  O12      1.0000 0.94262  0.33566  0.92961  Biso   1.000  O
  O13      1.0000 0.55389  0.12587  0.73738  Biso   1.000  O
  O14      1.0000 0.57719  0.13246  0.97834  Biso   1.000  O
  O15      1.0000 0.45081  0.37422  0.50885  Biso   1.000  O
  O16      1.0000 0.45545  0.36841  0.76031  Biso   1.000  O
  Hf8      1.0000 0.27522  0.52249  0.14491  Biso   1.000  Hf
  Hf9      1.0000 0.28318  0.72648  0.39491  Biso   1.000  Hf
  Hf10     1.0000 0.72206  0.77734  0.10405  Biso   1.000  Hf
  Hf11     1.0000 0.70831  0.97656  0.35896  Biso   1.000  Hf
  O17      1.0000 0.07009  0.67050  0.07967  Biso   1.000  O
  O18      1.0000 0.06314  0.58581  0.32597  Biso   1.000  O
  O19      1.0000 0.93892  0.93783  0.16524  Biso   1.000  O
  O20      1.0000 0.94448  0.83932  0.42329  Biso   1.000  O
  O21      1.0000 0.55188  0.62425  0.23806  Biso   1.000  O
  O22      1.0000 0.55494  0.61898  0.48984  Biso   1.000  O
  O23      1.0000 0.47468  0.87119  0.99975  Biso   1.000  O
  O24      1.0000 0.48343  0.86133  0.26685  Biso   1.000  O
  Hf12     1.0000 0.28297  0.51922  0.64740  Biso   1.000  Hf
  Hf13     1.0000 0.28762  0.73151  0.89784  Biso   1.000  Hf
  Hf14     1.0000 0.72752  0.76916  0.60403  Biso   1.000  Hf
  Hf15     1.0000 0.71973  0.97936  0.85639  Biso   1.000  Hf
  O25      1.0000 0.06930  0.66033  0.57697  Biso   1.000  O
  O26      1.0000 0.07241  0.58368  0.82794  Biso   1.000  O
  O27      1.0000 0.93610  0.90991  0.67634  Biso   1.000  O
  O28      1.0000 0.95175  0.84128  0.92456  Biso   1.000  O
  O29      1.0000 0.55935  0.62601  0.74063  Biso   1.000  O
  O30      1.0000 0.55945  0.62042  0.99191  Biso   1.000  O
  O31      1.0000 0.44961  0.87481  0.51271  Biso   1.000  O
  O32      1.0000 0.45082  0.87038  0.75711  Biso   1.000  O
