data_image0
_cell_length_a       10.0739
_cell_length_b       10.2006
_cell_length_c       5.21306
_cell_angle_alpha    89.9409
_cell_angle_beta     90.3989
_cell_angle_gamma    90.0465

_symmetry_space_group_name_H-M    "P 1"
_symmetry_int_tables_number       1

loop_
  _symmetry_equiv_pos_as_xyz
  'x, y, z'

loop_
  _atom_site_label
  _atom_site_occupancy
  _atom_site_fract_x
  _atom_site_fract_y
  _atom_site_fract_z
  _atom_site_thermal_displace_type
  _atom_site_B_iso_or_equiv
  _atom_site_type_symbol
  Be1      1.0000 0.04886  0.04753  0.35541  Biso   1.000  Be
  Hf1      1.0000 0.14153  0.51984  0.34545  Biso   1.000  Hf
  Hf2      1.0000 0.14185  0.22214  0.84242  Biso   1.000  Hf
  Hf3      1.0000 0.14377  0.73213  0.84338  Biso   1.000  Hf
  Hf4      1.0000 0.35711  0.26544  0.34535  Biso   1.000  Hf
  Hf5      1.0000 0.35737  0.77488  0.34339  Biso   1.000  Hf
  Hf6      1.0000 0.35932  0.47670  0.84690  Biso   1.000  Hf
  Hf7      1.0000 0.35774  0.97753  0.84326  Biso   1.000  Hf
  Hf8      1.0000 0.64069  0.02033  0.15645  Biso   1.000  Hf
  Hf9      1.0000 0.63917  0.52031  0.15799  Biso   1.000  Hf
  Hf10     1.0000 0.63987  0.22901  0.65563  Biso   1.000  Hf
  Hf11     1.0000 0.63994  0.72815  0.65611  Biso   1.000  Hf
  Hf12     1.0000 0.86334  0.27050  0.15578  Biso   1.000  Hf
  Hf13     1.0000 0.86504  0.77151  0.15979  Biso   1.000  Hf
  Hf14     1.0000 0.86312  0.47926  0.65857  Biso   1.000  Hf
  Hf15     1.0000 0.85939  0.97795  0.66219  Biso   1.000  Hf
  O1       1.0000 0.03376  0.15829  0.15883  Biso   1.000  O
  O2       1.0000 0.03474  0.66651  0.17337  Biso   1.000  O
  O3       1.0000 0.02899  0.09042  0.64196  Biso   1.000  O
  O4       1.0000 0.03420  0.58367  0.67061  Biso   1.000  O
  O5       1.0000 0.46877  0.41163  0.16864  Biso   1.000  O
  O6       1.0000 0.47379  0.91195  0.16580  Biso   1.000  O
  O7       1.0000 0.47075  0.33678  0.66695  Biso   1.000  O
  O8       1.0000 0.47436  0.83995  0.66103  Biso   1.000  O
  O9       1.0000 0.28498  0.12774  0.60390  Biso   1.000  O
  O10      1.0000 0.27824  0.62124  0.59188  Biso   1.000  O
  O11      1.0000 0.29060  0.13447  0.07025  Biso   1.000  O
  O12      1.0000 0.27655  0.62183  0.09413  Biso   1.000  O
  O13      1.0000 0.22399  0.37228  0.59420  Biso   1.000  O
  O14      1.0000 0.23040  0.86790  0.59529  Biso   1.000  O
  O15      1.0000 0.22216  0.37537  0.09350  Biso   1.000  O
  O16      1.0000 0.23560  0.86803  0.07824  Biso   1.000  O
  O17      1.0000 0.53411  0.16418  0.33230  Biso   1.000  O
  O18      1.0000 0.53250  0.66290  0.33446  Biso   1.000  O
  O19      1.0000 0.53680  0.08360  0.83117  Biso   1.000  O
  O20      1.0000 0.53172  0.58537  0.83467  Biso   1.000  O
  O21      1.0000 0.96906  0.41369  0.33455  Biso   1.000  O
  O22      1.0000 0.96346  0.92353  0.32480  Biso   1.000  O
  O23      1.0000 0.96985  0.33488  0.83575  Biso   1.000  O
  O24      1.0000 0.96836  0.83399  0.82937  Biso   1.000  O
  O25      1.0000 0.77841  0.12357  0.90898  Biso   1.000  O
  O26      1.0000 0.77691  0.62320  0.91108  Biso   1.000  O
  O27      1.0000 0.77692  0.12644  0.40916  Biso   1.000  O
  O28      1.0000 0.77764  0.62607  0.40995  Biso   1.000  O
  O29      1.0000 0.72616  0.37344  0.91018  Biso   1.000  O
  O30      1.0000 0.72588  0.87261  0.91358  Biso   1.000  O
  O31      1.0000 0.72619  0.37607  0.40911  Biso   1.000  O
  O32      1.0000 0.72603  0.87518  0.41423  Biso   1.000  O
