data_image0
_cell_length_a       5.01954
_cell_length_b       10.1756
_cell_length_c       9.97831
_cell_angle_alpha    90.6594
_cell_angle_beta     91.2577
_cell_angle_gamma    91.8446

_symmetry_space_group_name_H-M    "P 1"
_symmetry_int_tables_number       1

loop_
  _symmetry_equiv_pos_as_xyz
  'x, y, z'

loop_
  _atom_site_label
  _atom_site_occupancy
  _atom_site_fract_x
  _atom_site_fract_y
  _atom_site_fract_z
  _atom_site_thermal_displace_type
  _atom_site_B_iso_or_equiv
  _atom_site_type_symbol
  Be1      1.0000 0.24703  0.99664  0.14640  Biso   1.000  Be
  Hf1      1.0000 0.23806  0.00996  0.62523  Biso   1.000  Hf
  Hf2      1.0000 0.27856  0.48363  0.14476  Biso   1.000  Hf
  Hf3      1.0000 0.26500  0.49219  0.63374  Biso   1.000  Hf
  Hf4      1.0000 0.28931  0.22656  0.36758  Biso   1.000  Hf
  Hf5      1.0000 0.22169  0.24763  0.87914  Biso   1.000  Hf
  Hf6      1.0000 0.23844  0.76358  0.35319  Biso   1.000  Hf
  Hf7      1.0000 0.26575  0.76023  0.86280  Biso   1.000  Hf
  Hf8      1.0000 0.78155  0.25803  0.14055  Biso   1.000  Hf
  Hf9      1.0000 0.75507  0.24448  0.62011  Biso   1.000  Hf
  Hf10     1.0000 0.72238  0.73690  0.12385  Biso   1.000  Hf
  Hf11     1.0000 0.76147  0.74568  0.61410  Biso   1.000  Hf
  Hf12     1.0000 0.76098  0.99164  0.35781  Biso   1.000  Hf
  Hf13     1.0000 0.73820  0.00166  0.86481  Biso   1.000  Hf
  Hf14     1.0000 0.78911  0.51041  0.38054  Biso   1.000  Hf
  Hf15     1.0000 0.77371  0.51668  0.87190  Biso   1.000  Hf
  Hf16     1.0000 0.87103  0.16226  0.97510  Biso   1.000  Hf
  Hf17     1.0000 0.99163  0.14534  0.48610  Biso   1.000  Hf
  Hf18     1.0000 0.99717  0.67965  0.98725  Biso   1.000  Hf
  Hf19     1.0000 0.03821  0.64919  0.49251  Biso   1.000  Hf
  Hf20     1.0000 0.06381  0.09746  0.23017  Biso   1.000  Hf
  Hf21     1.0000 0.99227  0.11172  0.73919  Biso   1.000  Hf
  Hf22     1.0000 0.00429  0.60727  0.23641  Biso   1.000  Hf
  Hf23     1.0000 0.02431  0.61312  0.74411  Biso   1.000  Hf
  Hf24     1.0000 0.03550  0.35741  0.27555  Biso   1.000  Hf
  Hf25     1.0000 0.95887  0.35749  0.76955  Biso   1.000  Hf
  Hf26     1.0000 0.95288  0.85325  0.24299  Biso   1.000  Hf
  Hf27     1.0000 0.99073  0.86491  0.75178  Biso   1.000  Hf
  Hf28     1.0000 0.96005  0.41622  0.02465  Biso   1.000  Hf
  Hf29     1.0000 0.94549  0.40263  0.52835  Biso   1.000  Hf
  Hf30     1.0000 0.13572  0.94625  0.98615  Biso   1.000  Hf
  Hf31     1.0000 0.04504  0.89608  0.48871  Biso   1.000  Hf
  Hf32     1.0000 0.57016  0.13966  0.25890  Biso   1.000  Hf
  Hf33     1.0000 0.49447  0.14758  0.76132  Biso   1.000  Hf
  Hf34     1.0000 0.50221  0.63497  0.26359  Biso   1.000  Hf
  Hf35     1.0000 0.52935  0.65077  0.75724  Biso   1.000  Hf
  Hf36     1.0000 0.34080  0.05384  0.98794  Biso   1.000  Hf
  Hf37     1.0000 0.50714  0.08856  0.49878  Biso   1.000  Hf
  Hf38     1.0000 0.49950  0.58644  0.01054  Biso   1.000  Hf
  Hf39     1.0000 0.54396  0.58296  0.52085  Biso   1.000  Hf
  Hf40     1.0000 0.42515  0.31018  0.04551  Biso   1.000  Hf
  Hf41     1.0000 0.43092  0.32911  0.53570  Biso   1.000  Hf
  Hf42     1.0000 0.59988  0.84227  0.96652  Biso   1.000  Hf
  Hf43     1.0000 0.56258  0.83408  0.46235  Biso   1.000  Hf
  Hf44     1.0000 0.53262  0.38621  0.27452  Biso   1.000  Hf
  Hf45     1.0000 0.45379  0.40509  0.79265  Biso   1.000  Hf
  Hf46     1.0000 0.45017  0.89665  0.22006  Biso   1.000  Hf
  Hf47     1.0000 0.49489  0.89441  0.72177  Biso   1.000  Hf
