data_image0
_cell_length_a       9.96288
_cell_length_b       5.17929
_cell_length_c       10.0605
_cell_angle_alpha    89.2903
_cell_angle_beta     89.0247
_cell_angle_gamma    89.5891

_symmetry_space_group_name_H-M    "P 1"
_symmetry_int_tables_number       1

loop_
  _symmetry_equiv_pos_as_xyz
  'x, y, z'

loop_
  _atom_site_label
  _atom_site_occupancy
  _atom_site_fract_x
  _atom_site_fract_y
  _atom_site_fract_z
  _atom_site_thermal_displace_type
  _atom_site_B_iso_or_equiv
  _atom_site_type_symbol
  Be1      1.0000 0.07270  0.87679  0.03683  Biso   1.000  Be
  Hf1      1.0000 0.13315  0.03497  0.62955  Biso   1.000  Hf
  Hf2      1.0000 0.63297  0.03304  0.12276  Biso   1.000  Hf
  Hf3      1.0000 0.62610  0.02598  0.61944  Biso   1.000  Hf
  Hf4      1.0000 0.14916  0.48259  0.38475  Biso   1.000  Hf
  Hf5      1.0000 0.13976  0.44511  0.88679  Biso   1.000  Hf
  Hf6      1.0000 0.63015  0.47618  0.37451  Biso   1.000  Hf
  Hf7      1.0000 0.62102  0.46844  0.86710  Biso   1.000  Hf
  Hf8      1.0000 0.36036  0.52619  0.13269  Biso   1.000  Hf
  Hf9      1.0000 0.36300  0.54072  0.63267  Biso   1.000  Hf
  Hf10     1.0000 0.84965  0.52217  0.10965  Biso   1.000  Hf
  Hf11     1.0000 0.86763  0.52686  0.62186  Biso   1.000  Hf
  Hf12     1.0000 0.36231  0.97845  0.37061  Biso   1.000  Hf
  Hf13     1.0000 0.35890  0.96699  0.88801  Biso   1.000  Hf
  Hf14     1.0000 0.87128  0.96960  0.37963  Biso   1.000  Hf
  Hf15     1.0000 0.86116  0.97799  0.86324  Biso   1.000  Hf
  Hf16     1.0000 0.02999  0.53645  0.20359  Biso   1.000  Hf
  Hf17     1.0000 0.02627  0.35336  0.71096  Biso   1.000  Hf
  Hf18     1.0000 0.54621  0.37218  0.19378  Biso   1.000  Hf
  Hf19     1.0000 0.52994  0.36101  0.69437  Biso   1.000  Hf
  Hf20     1.0000 0.03626  0.14638  0.44635  Biso   1.000  Hf
  Hf21     1.0000 0.02243  0.13267  0.96393  Biso   1.000  Hf
  Hf22     1.0000 0.53800  0.13742  0.44068  Biso   1.000  Hf
  Hf23     1.0000 0.53390  0.13028  0.94623  Biso   1.000  Hf
  Hf24     1.0000 0.47442  0.86207  0.20033  Biso   1.000  Hf
  Hf25     1.0000 0.46413  0.86434  0.70508  Biso   1.000  Hf
  Hf26     1.0000 0.99925  0.81323  0.18799  Biso   1.000  Hf
  Hf27     1.0000 0.96319  0.86113  0.69355  Biso   1.000  Hf
  Hf28     1.0000 0.47194  0.64363  0.45806  Biso   1.000  Hf
  Hf29     1.0000 0.46188  0.63818  0.95055  Biso   1.000  Hf
  Hf30     1.0000 0.97235  0.64689  0.45160  Biso   1.000  Hf
  Hf31     1.0000 0.97524  0.66100  0.95190  Biso   1.000  Hf
  Hf32     1.0000 0.27481  0.25574  0.26000  Biso   1.000  Hf
  Hf33     1.0000 0.26542  0.22879  0.75437  Biso   1.000  Hf
  Hf34     1.0000 0.79211  0.21293  0.23264  Biso   1.000  Hf
  Hf35     1.0000 0.76166  0.22551  0.73755  Biso   1.000  Hf
  Hf36     1.0000 0.27253  0.26842  0.51051  Biso   1.000  Hf
  Hf37     1.0000 0.27940  0.26793  0.99884  Biso   1.000  Hf
  Hf38     1.0000 0.77157  0.27117  0.48954  Biso   1.000  Hf
  Hf39     1.0000 0.76353  0.27621  0.98318  Biso   1.000  Hf
  Hf40     1.0000 0.23240  0.77105  0.50800  Biso   1.000  Hf
  Hf41     1.0000 0.21757  0.75577  0.00903  Biso   1.000  Hf
  Hf42     1.0000 0.73351  0.77040  0.49707  Biso   1.000  Hf
  Hf43     1.0000 0.73141  0.77312  0.99401  Biso   1.000  Hf
  Hf44     1.0000 0.25033  0.72849  0.26591  Biso   1.000  Hf
  Hf45     1.0000 0.22497  0.73325  0.75850  Biso   1.000  Hf
  Hf46     1.0000 0.74236  0.73078  0.24716  Biso   1.000  Hf
  Hf47     1.0000 0.73047  0.72607  0.74590  Biso   1.000  Hf
