data_image0
_cell_length_a       10.1821
_cell_length_b       5.12877
_cell_length_c       10.5389
_cell_angle_alpha    90.0315
_cell_angle_beta     79.2178
_cell_angle_gamma    90.018

_symmetry_space_group_name_H-M    "P 1"
_symmetry_int_tables_number       1

loop_
  _symmetry_equiv_pos_as_xyz
  'x, y, z'

loop_
  _atom_site_label
  _atom_site_occupancy
  _atom_site_fract_x
  _atom_site_fract_y
  _atom_site_fract_z
  _atom_site_thermal_displace_type
  _atom_site_B_iso_or_equiv
  _atom_site_type_symbol
  Hf1      1.0000 0.13272  0.04417  0.13869  Biso   1.000  Hf
  Hf2      1.0000 0.14424  0.45786  0.38899  Biso   1.000  Hf
  Hf3      1.0000 0.35553  0.53628  0.11115  Biso   1.000  Hf
  Hf4      1.0000 0.34983  0.91479  0.34121  Biso   1.000  Hf
  O1       1.0000 0.02765  0.33980  0.07527  Biso   1.000  O
  O2       1.0000 0.03085  0.17539  0.32383  Biso   1.000  O
  O3       1.0000 0.46627  0.83568  0.16829  Biso   1.000  O
  O4       1.0000 0.47167  0.65819  0.42736  Biso   1.000  O
  O5       1.0000 0.26935  0.22592  0.23312  Biso   1.000  O
  O6       1.0000 0.29378  0.25920  0.47725  Biso   1.000  O
  O7       1.0000 0.22206  0.75633  0.00692  Biso   1.000  O
  O8       1.0000 0.19908  0.74700  0.24940  Biso   1.000  O
  Hf5      1.0000 0.14002  0.04701  0.64555  Biso   1.000  Hf
  Hf6      1.0000 0.13638  0.46175  0.89655  Biso   1.000  Hf
  Hf7      1.0000 0.36263  0.54901  0.61307  Biso   1.000  Hf
  Hf8      1.0000 0.36133  0.95669  0.85763  Biso   1.000  Hf
  O9       1.0000 0.04114  0.33246  0.57449  Biso   1.000  O
  O10      1.0000 0.03396  0.17058  0.82661  Biso   1.000  O
  O11      1.0000 0.46897  0.83232  0.67613  Biso   1.000  O
  O12      1.0000 0.46499  0.67124  0.92571  Biso   1.000  O
  O13      1.0000 0.27642  0.25860  0.73851  Biso   1.000  O
  O14      1.0000 0.27259  0.24622  0.98762  Biso   1.000  O
  O15      1.0000 0.22494  0.75986  0.51264  Biso   1.000  O
  O16      1.0000 0.22468  0.74791  0.76125  Biso   1.000  O
  Hf9      1.0000 0.63646  0.04908  0.14759  Biso   1.000  Hf
  Hf10     1.0000 0.65075  0.45824  0.40299  Biso   1.000  Hf
  Hf11     1.0000 0.85624  0.54747  0.10494  Biso   1.000  Hf
  Hf12     1.0000 0.86507  0.95619  0.35453  Biso   1.000  Hf
  O17      1.0000 0.53178  0.33308  0.07883  Biso   1.000  O
  O18      1.0000 0.51847  0.20131  0.32552  Biso   1.000  O
  O19      1.0000 0.95654  0.84052  0.16991  Biso   1.000  O
  O20      1.0000 0.96701  0.67156  0.42401  Biso   1.000  O
  O21      1.0000 0.77094  0.26045  0.24451  Biso   1.000  O
  O22      1.0000 0.78066  0.23960  0.49378  Biso   1.000  O
  O23      1.0000 0.72106  0.76274  0.01241  Biso   1.000  O
  O24      1.0000 0.71834  0.74892  0.26556  Biso   1.000  O
  Hf13     1.0000 0.64140  0.04547  0.65023  Biso   1.000  Hf
  Hf14     1.0000 0.63611  0.46171  0.89869  Biso   1.000  Hf
  Hf15     1.0000 0.86734  0.54552  0.60562  Biso   1.000  Hf
  Hf16     1.0000 0.86043  0.96128  0.85588  Biso   1.000  Hf
  O25      1.0000 0.53662  0.33115  0.58078  Biso   1.000  O
  O26      1.0000 0.53427  0.17112  0.82978  Biso   1.000  O
  O27      1.0000 0.96916  0.83361  0.67417  Biso   1.000  O
  O28      1.0000 0.96303  0.67163  0.92229  Biso   1.000  O
  O29      1.0000 0.77790  0.26106  0.74188  Biso   1.000  O
  O30      1.0000 0.77336  0.24624  0.99250  Biso   1.000  O
  O31      1.0000 0.72615  0.75443  0.51411  Biso   1.000  O
  O32      1.0000 0.72619  0.74629  0.76213  Biso   1.000  O
  Be1      1.0000 0.40498  0.41703  0.36510  Biso   1.000  Be
