data_image0
_cell_length_a       5.07079
_cell_length_b       10.3325
_cell_length_c       10.4748
_cell_angle_alpha    90.0654
_cell_angle_beta     80.6526
_cell_angle_gamma    90.0201

_symmetry_space_group_name_H-M    "P 1"
_symmetry_int_tables_number       1

loop_
  _symmetry_equiv_pos_as_xyz
  'x, y, z'

loop_
  _atom_site_label
  _atom_site_occupancy
  _atom_site_fract_x
  _atom_site_fract_y
  _atom_site_fract_z
  _atom_site_thermal_displace_type
  _atom_site_B_iso_or_equiv
  _atom_site_type_symbol
  Bi1      1.0000 0.26733  0.01791  0.14665  Biso   1.000  Bi
  Hf1      1.0000 0.27728  0.23048  0.39815  Biso   1.000  Hf
  Hf2      1.0000 0.71812  0.27295  0.10343  Biso   1.000  Hf
  Hf3      1.0000 0.72043  0.47798  0.35368  Biso   1.000  Hf
  O1       1.0000 0.07534  0.18209  0.07784  Biso   1.000  O
  O2       1.0000 0.06535  0.07876  0.34146  Biso   1.000  O
  O3       1.0000 0.92232  0.42220  0.16868  Biso   1.000  O
  O4       1.0000 0.92617  0.33015  0.41964  Biso   1.000  O
  O5       1.0000 0.56169  0.13451  0.24654  Biso   1.000  O
  O6       1.0000 0.55042  0.12084  0.49281  Biso   1.000  O
  O7       1.0000 0.44799  0.38085  0.00796  Biso   1.000  O
  O8       1.0000 0.44189  0.37131  0.25923  Biso   1.000  O
  Hf4      1.0000 0.27860  0.02179  0.64641  Biso   1.000  Hf
  Hf5      1.0000 0.28016  0.23081  0.89294  Biso   1.000  Hf
  Hf6      1.0000 0.72409  0.27163  0.60417  Biso   1.000  Hf
  Hf7      1.0000 0.72479  0.47879  0.85308  Biso   1.000  Hf
  O9       1.0000 0.07386  0.17202  0.58322  Biso   1.000  O
  O10      1.0000 0.07828  0.07931  0.83108  Biso   1.000  O
  O11      1.0000 0.92854  0.42061  0.66860  Biso   1.000  O
  O12      1.0000 0.92915  0.33184  0.91760  Biso   1.000  O
  O13      1.0000 0.55549  0.12971  0.73872  Biso   1.000  O
  O14      1.0000 0.56605  0.12617  0.98251  Biso   1.000  O
  O15      1.0000 0.44683  0.37925  0.50925  Biso   1.000  O
  O16      1.0000 0.44950  0.37168  0.75799  Biso   1.000  O
  Hf8      1.0000 0.27554  0.51988  0.14517  Biso   1.000  Hf
  Hf9      1.0000 0.27317  0.72512  0.39744  Biso   1.000  Hf
  Hf10     1.0000 0.72289  0.76495  0.10305  Biso   1.000  Hf
  Hf11     1.0000 0.71259  0.97761  0.35973  Biso   1.000  Hf
  O17      1.0000 0.07828  0.67192  0.08076  Biso   1.000  O
  O18      1.0000 0.06951  0.57910  0.33015  Biso   1.000  O
  O19      1.0000 0.89252  0.92270  0.17100  Biso   1.000  O
  O20      1.0000 0.92615  0.82905  0.42004  Biso   1.000  O
  O21      1.0000 0.55073  0.62510  0.23986  Biso   1.000  O
  O22      1.0000 0.55165  0.62005  0.49046  Biso   1.000  O
  O23      1.0000 0.46384  0.87189  0.00173  Biso   1.000  O
  O24      1.0000 0.45036  0.86092  0.26421  Biso   1.000  O
  Hf12     1.0000 0.27800  0.52118  0.64575  Biso   1.000  Hf
  Hf13     1.0000 0.28078  0.72848  0.89344  Biso   1.000  Hf
  Hf14     1.0000 0.72254  0.77145  0.60421  Biso   1.000  Hf
  Hf15     1.0000 0.72844  0.97880  0.85268  Biso   1.000  Hf
  O25      1.0000 0.07114  0.66933  0.58180  Biso   1.000  O
  O26      1.0000 0.07408  0.57956  0.83004  Biso   1.000  O
  O27      1.0000 0.92917  0.92004  0.66902  Biso   1.000  O
  O28      1.0000 0.93610  0.83092  0.91970  Biso   1.000  O
  O29      1.0000 0.55377  0.62948  0.73948  Biso   1.000  O
  O30      1.0000 0.55404  0.61911  0.98938  Biso   1.000  O
  O31      1.0000 0.44501  0.87879  0.51132  Biso   1.000  O
  O32      1.0000 0.45001  0.87091  0.75795  Biso   1.000  O
