data_image0
_cell_length_a       5.04419
_cell_length_b       10.2931
_cell_length_c       10.1064
_cell_angle_alpha    88.8829
_cell_angle_beta     89.135
_cell_angle_gamma    89.7392

_symmetry_space_group_name_H-M    "P 1"
_symmetry_int_tables_number       1

loop_
  _symmetry_equiv_pos_as_xyz
  'x, y, z'

loop_
  _atom_site_label
  _atom_site_occupancy
  _atom_site_fract_x
  _atom_site_fract_y
  _atom_site_fract_z
  _atom_site_thermal_displace_type
  _atom_site_B_iso_or_equiv
  _atom_site_type_symbol
  Hf1      1.0000 0.28150  0.99644  0.12089  Biso   1.000  Hf
  Hf2      1.0000 0.21908  0.26598  0.34844  Biso   1.000  Hf
  Hf3      1.0000 0.73706  0.22416  0.14228  Biso   1.000  Hf
  Hf4      1.0000 0.78468  0.99677  0.38815  Biso   1.000  Hf
  Hf5      1.0000 0.13005  0.17140  0.02938  Biso   1.000  Hf
  Hf6      1.0000 0.03225  0.10435  0.25271  Biso   1.000  Hf
  Hf7      1.0000 0.90367  0.37550  0.24217  Biso   1.000  Hf
  Hf8      1.0000 0.95510  0.39191  0.97678  Biso   1.000  Hf
  Hf9      1.0000 0.57753  0.16738  0.32253  Biso   1.000  Hf
  Hf10     1.0000 0.61971  0.08071  0.02280  Biso   1.000  Hf
  Hf11     1.0000 0.45292  0.32776  0.02003  Biso   1.000  Hf
  Hf12     1.0000 0.41174  0.42982  0.27792  Biso   1.000  Hf
  Hf13     1.0000 0.22930  0.01022  0.64023  Biso   1.000  Hf
  Hf14     1.0000 0.20159  0.27094  0.84785  Biso   1.000  Hf
  Hf15     1.0000 0.72914  0.23625  0.60686  Biso   1.000  Hf
  Hf16     1.0000 0.72350  0.98305  0.86334  Biso   1.000  Hf
  Hf17     1.0000 0.03405  0.14173  0.50292  Biso   1.000  Hf
  Hf18     1.0000 0.98334  0.11379  0.76640  Biso   1.000  Hf
  Hf19     1.0000 0.93326  0.36128  0.72941  Biso   1.000  Hf
  Hf20     1.0000 0.94252  0.38825  0.48290  Biso   1.000  Hf
  Hf21     1.0000 0.48214  0.14877  0.76737  Biso   1.000  Hf
  Hf22     1.0000 0.57231  0.06025  0.54835  Biso   1.000  Hf
  Hf23     1.0000 0.41905  0.32383  0.52446  Biso   1.000  Hf
  Hf24     1.0000 0.43045  0.41196  0.76533  Biso   1.000  Hf
  Hf25     1.0000 0.19396  0.47924  0.11220  Biso   1.000  Hf
  Hf26     1.0000 0.26772  0.74167  0.38111  Biso   1.000  Hf
  Hf27     1.0000 0.79458  0.77180  0.13265  Biso   1.000  Hf
  Hf28     1.0000 0.74071  0.52051  0.35439  Biso   1.000  Hf
  Hf29     1.0000 0.93878  0.65106  0.98593  Biso   1.000  Hf
  Hf30     1.0000 0.02460  0.61805  0.23824  Biso   1.000  Hf
  Hf31     1.0000 0.06911  0.86109  0.24900  Biso   1.000  Hf
  Hf32     1.0000 0.02390  0.90625  0.99484  Biso   1.000  Hf
  Hf33     1.0000 0.53939  0.67097  0.24979  Biso   1.000  Hf
  Hf34     1.0000 0.42846  0.58276  0.98142  Biso   1.000  Hf
  Hf35     1.0000 0.51087  0.84112  0.99581  Biso   1.000  Hf
  Hf36     1.0000 0.57917  0.92501  0.23314  Biso   1.000  Hf
  Hf37     1.0000 0.20531  0.48273  0.60309  Biso   1.000  Hf
  Hf38     1.0000 0.24897  0.74134  0.87496  Biso   1.000  Hf
  Hf39     1.0000 0.77054  0.74853  0.62084  Biso   1.000  Hf
  Hf40     1.0000 0.73157  0.51667  0.85865  Biso   1.000  Hf
  Hf41     1.0000 0.98626  0.63605  0.48940  Biso   1.000  Hf
  Hf42     1.0000 0.02131  0.60810  0.73975  Biso   1.000  Hf
  Hf43     1.0000 0.97427  0.85911  0.75131  Biso   1.000  Hf
  Hf44     1.0000 0.06543  0.88697  0.50499  Biso   1.000  Hf
  Hf45     1.0000 0.52849  0.65864  0.75045  Biso   1.000  Hf
  Hf46     1.0000 0.47885  0.58950  0.49957  Biso   1.000  Hf
  Hf47     1.0000 0.57512  0.83122  0.46993  Biso   1.000  Hf
  Hf48     1.0000 0.46477  0.89003  0.74844  Biso   1.000  Hf
  C1       1.0000 0.29292  0.25170  0.11112  Biso   1.000  C 
