data_image0
_cell_length_a       10.1695
_cell_length_b       5.1619
_cell_length_c       10.3931
_cell_angle_alpha    89.571
_cell_angle_beta     80.6613
_cell_angle_gamma    89.616

_symmetry_space_group_name_H-M    "P 1"
_symmetry_int_tables_number       1

loop_
  _symmetry_equiv_pos_as_xyz
  'x, y, z'

loop_
  _atom_site_label
  _atom_site_occupancy
  _atom_site_fract_x
  _atom_site_fract_y
  _atom_site_fract_z
  _atom_site_thermal_displace_type
  _atom_site_B_iso_or_equiv
  _atom_site_type_symbol
  Hf1      1.0000 0.13580  0.03206  0.14544  Biso   1.000  Hf
  Hf2      1.0000 0.13277  0.46243  0.39692  Biso   1.000  Hf
  Hf3      1.0000 0.36073  0.51781  0.11105  Biso   1.000  Hf
  Hf4      1.0000 0.35208  0.98293  0.36087  Biso   1.000  Hf
  O1       1.0000 0.03496  0.34047  0.08379  Biso   1.000  O
  O2       1.0000 0.03387  0.16258  0.33396  Biso   1.000  O
  O3       1.0000 0.48028  0.80337  0.18866  Biso   1.000  O
  O4       1.0000 0.45125  0.64586  0.40779  Biso   1.000  O
  O5       1.0000 0.26670  0.23810  0.24258  Biso   1.000  O
  O6       1.0000 0.27132  0.25369  0.49378  Biso   1.000  O
  O7       1.0000 0.22211  0.75096  0.01205  Biso   1.000  O
  O8       1.0000 0.22433  0.73979  0.26212  Biso   1.000  O
  Hf5      1.0000 0.13174  0.04527  0.65072  Biso   1.000  Hf
  Hf6      1.0000 0.13579  0.45752  0.89972  Biso   1.000  Hf
  Hf7      1.0000 0.35494  0.54039  0.60940  Biso   1.000  Hf
  Hf8      1.0000 0.36027  0.95360  0.85711  Biso   1.000  Hf
  O9       1.0000 0.03309  0.34630  0.58430  Biso   1.000  O
  O10      1.0000 0.03185  0.15977  0.83464  Biso   1.000  O
  O11      1.0000 0.45937  0.84005  0.66661  Biso   1.000  O
  O12      1.0000 0.46656  0.67295  0.92969  Biso   1.000  O
  O13      1.0000 0.27107  0.26111  0.74273  Biso   1.000  O
  O14      1.0000 0.27314  0.23414  0.99193  Biso   1.000  O
  O15      1.0000 0.22217  0.76929  0.51286  Biso   1.000  O
  O16      1.0000 0.22187  0.74343  0.76340  Biso   1.000  O
  Hf9      1.0000 0.64589  0.04953  0.15081  Biso   1.000  Hf
  Hf10     1.0000 0.63613  0.46171  0.39079  Biso   1.000  Hf
  Hf11     1.0000 0.86161  0.54730  0.10646  Biso   1.000  Hf
  Hf12     1.0000 0.86006  0.96249  0.35913  Biso   1.000  Hf
  O17      1.0000 0.52601  0.28335  0.06606  Biso   1.000  O
  O18      1.0000 0.53949  0.12213  0.34589  Biso   1.000  O
  O19      1.0000 0.96347  0.84059  0.17151  Biso   1.000  O
  O20      1.0000 0.96095  0.66337  0.42330  Biso   1.000  O
  O21      1.0000 0.77712  0.26241  0.24199  Biso   1.000  O
  O22      1.0000 0.77520  0.24218  0.49344  Biso   1.000  O
  O23      1.0000 0.72116  0.76147  0.01332  Biso   1.000  O
  O24      1.0000 0.73292  0.75023  0.26181  Biso   1.000  O
  Hf13     1.0000 0.63358  0.04763  0.64301  Biso   1.000  Hf
  Hf14     1.0000 0.63500  0.45121  0.89662  Biso   1.000  Hf
  Hf15     1.0000 0.85525  0.54400  0.60710  Biso   1.000  Hf
  Hf16     1.0000 0.85695  0.95778  0.85624  Biso   1.000  Hf
  O25      1.0000 0.53156  0.34949  0.57846  Biso   1.000  O
  O26      1.0000 0.52939  0.17217  0.82225  Biso   1.000  O
  O27      1.0000 0.95941  0.84212  0.67170  Biso   1.000  O
  O28      1.0000 0.96165  0.66202  0.92105  Biso   1.000  O
  O29      1.0000 0.77119  0.25736  0.74241  Biso   1.000  O
  O30      1.0000 0.77556  0.24781  0.99268  Biso   1.000  O
  O31      1.0000 0.71933  0.75809  0.51052  Biso   1.000  O
  O32      1.0000 0.71984  0.74306  0.76125  Biso   1.000  O
  C1       1.0000 0.48454  0.56655  0.26504  Biso   1.000  C
