data_image0
_cell_length_a       9.96454
_cell_length_b       5.19769
_cell_length_c       10.05
_cell_angle_alpha    90.3595
_cell_angle_beta     89.2711
_cell_angle_gamma    90.7755

_symmetry_space_group_name_H-M    "P 1"
_symmetry_int_tables_number       1

loop_
  _symmetry_equiv_pos_as_xyz
  'x, y, z'

loop_
  _atom_site_label
  _atom_site_occupancy
  _atom_site_fract_x
  _atom_site_fract_y
  _atom_site_fract_z
  _atom_site_thermal_displace_type
  _atom_site_B_iso_or_equiv
  _atom_site_type_symbol
  Hf1      1.0000 0.13636  0.04501  0.11632  Biso   1.000  Hf
  Hf2      1.0000 0.13528  0.45136  0.39664  Biso   1.000  Hf
  Hf3      1.0000 0.36096  0.51398  0.11971  Biso   1.000  Hf
  Hf4      1.0000 0.37956  0.97205  0.38079  Biso   1.000  Hf
  Hf5      1.0000 0.02348  0.35429  0.22005  Biso   1.000  Hf
  Hf6      1.0000 0.03529  0.12969  0.45363  Biso   1.000  Hf
  Hf7      1.0000 0.45296  0.85598  0.19759  Biso   1.000  Hf
  Hf8      1.0000 0.46583  0.62834  0.44343  Biso   1.000  Hf
  Hf9      1.0000 0.26334  0.20844  0.25896  Biso   1.000  Hf
  Hf10     1.0000 0.27711  0.25935  0.50649  Biso   1.000  Hf
  Hf11     1.0000 0.23265  0.76573  0.49245  Biso   1.000  Hf
  Hf12     1.0000 0.18451  0.67408  0.22106  Biso   1.000  Hf
  Hf13     1.0000 0.13776  0.03193  0.63101  Biso   1.000  Hf
  Hf14     1.0000 0.13608  0.47399  0.88623  Biso   1.000  Hf
  Hf15     1.0000 0.37095  0.53117  0.62875  Biso   1.000  Hf
  Hf16     1.0000 0.37564  0.96656  0.86985  Biso   1.000  Hf
  Hf17     1.0000 0.04156  0.37525  0.69199  Biso   1.000  Hf
  Hf18     1.0000 0.03572  0.13784  0.94555  Biso   1.000  Hf
  Hf19     1.0000 0.46672  0.87098  0.68651  Biso   1.000  Hf
  Hf20     1.0000 0.46876  0.62919  0.94533  Biso   1.000  Hf
  Hf21     1.0000 0.27025  0.23894  0.75334  Biso   1.000  Hf
  Hf22     1.0000 0.29056  0.24215  0.99119  Biso   1.000  Hf
  Hf23     1.0000 0.24002  0.77397  0.99384  Biso   1.000  Hf
  Hf24     1.0000 0.23143  0.73501  0.74806  Biso   1.000  Hf
  Hf25     1.0000 0.63181  0.03365  0.12776  Biso   1.000  Hf
  Hf26     1.0000 0.63952  0.47203  0.37408  Biso   1.000  Hf
  Hf27     1.0000 0.87492  0.55375  0.11405  Biso   1.000  Hf
  Hf28     1.0000 0.86575  0.97340  0.37345  Biso   1.000  Hf
  Hf29     1.0000 0.52763  0.35584  0.19844  Biso   1.000  Hf
  Hf30     1.0000 0.54130  0.13526  0.44830  Biso   1.000  Hf
  Hf31     1.0000 0.95641  0.89237  0.19103  Biso   1.000  Hf
  Hf32     1.0000 0.96662  0.63839  0.44694  Biso   1.000  Hf
  Hf33     1.0000 0.76524  0.23737  0.25063  Biso   1.000  Hf
  Hf34     1.0000 0.77316  0.27296  0.50002  Biso   1.000  Hf
  Hf35     1.0000 0.73150  0.76967  0.49858  Biso   1.000  Hf
  Hf36     1.0000 0.72777  0.73880  0.24730  Biso   1.000  Hf
  Hf37     1.0000 0.64097  0.03899  0.62655  Biso   1.000  Hf
  Hf38     1.0000 0.63876  0.46926  0.87818  Biso   1.000  Hf
  Hf39     1.0000 0.87205  0.54101  0.62815  Biso   1.000  Hf
  Hf40     1.0000 0.86248  0.97677  0.87329  Biso   1.000  Hf
  Hf41     1.0000 0.53719  0.36755  0.69819  Biso   1.000  Hf
  Hf42     1.0000 0.54571  0.12608  0.94266  Biso   1.000  Hf
  Hf43     1.0000 0.96279  0.88112  0.69267  Biso   1.000  Hf
  Hf44     1.0000 0.95212  0.63527  0.91962  Biso   1.000  Hf
  Hf45     1.0000 0.77361  0.24582  0.74952  Biso   1.000  Hf
  Hf46     1.0000 0.77200  0.26774  0.00222  Biso   1.000  Hf
  Hf47     1.0000 0.73021  0.76864  0.00046  Biso   1.000  Hf
  Hf48     1.0000 0.72754  0.74477  0.74878  Biso   1.000  Hf
  C1       1.0000 0.10502  0.50215  0.13140  Biso   1.000  C 
