data_image0
_cell_length_a       5.12656
_cell_length_b       10.3066
_cell_length_c       10.5789
_cell_angle_alpha    90.1711
_cell_angle_beta     78.7745
_cell_angle_gamma    90.2066

_symmetry_space_group_name_H-M    "P 1"
_symmetry_int_tables_number       1

loop_
  _symmetry_equiv_pos_as_xyz
  'x, y, z'

loop_
  _atom_site_label
  _atom_site_occupancy
  _atom_site_fract_x
  _atom_site_fract_y
  _atom_site_fract_z
  _atom_site_thermal_displace_type
  _atom_site_B_iso_or_equiv
  _atom_site_type_symbol
  Hf1      1.0000 0.26723  0.01730  0.14458  Biso   1.000  Hf
  Hf2      1.0000 0.33137  0.23548  0.40576  Biso   1.000  Hf
  Hf3      1.0000 0.68904  0.27434  0.09848  Biso   1.000  Hf
  Hf4      1.0000 0.71796  0.48240  0.34740  Biso   1.000  Hf
  O1       1.0000 0.05365  0.16751  0.08133  Biso   1.000  O
  O2       1.0000 0.07698  0.06745  0.33967  Biso   1.000  O
  O3       1.0000 0.90393  0.43675  0.15490  Biso   1.000  O
  O4       1.0000 0.99313  0.35999  0.44976  Biso   1.000  O
  O5       1.0000 0.52548  0.11682  0.23504  Biso   1.000  O
  O6       1.0000 0.57365  0.11389  0.49549  Biso   1.000  O
  O7       1.0000 0.42904  0.38250  0.00558  Biso   1.000  O
  O8       1.0000 0.39760  0.37319  0.25162  Biso   1.000  O
  Hf5      1.0000 0.27965  0.02026  0.64833  Biso   1.000  Hf
  Hf6      1.0000 0.26593  0.22980  0.89563  Biso   1.000  Hf
  Hf7      1.0000 0.74569  0.27486  0.61180  Biso   1.000  Hf
  Hf8      1.0000 0.71714  0.48027  0.85758  Biso   1.000  Hf
  O9       1.0000 0.08805  0.16680  0.58046  Biso   1.000  O
  O10      1.0000 0.06246  0.08395  0.82852  Biso   1.000  O
  O11      1.0000 0.94260  0.41306  0.68623  Biso   1.000  O
  O12      1.0000 0.91841  0.33225  0.92241  Biso   1.000  O
  O13      1.0000 0.55011  0.12898  0.74217  Biso   1.000  O
  O14      1.0000 0.53543  0.12358  0.98815  Biso   1.000  O
  O15      1.0000 0.47998  0.37739  0.51522  Biso   1.000  O
  O16      1.0000 0.45195  0.37220  0.76132  Biso   1.000  O
  Hf9      1.0000 0.26304  0.52482  0.14332  Biso   1.000  Hf
  Hf10     1.0000 0.27010  0.72340  0.39781  Biso   1.000  Hf
  Hf11     1.0000 0.71323  0.77115  0.10405  Biso   1.000  Hf
  Hf12     1.0000 0.71295  0.96566  0.35750  Biso   1.000  Hf
  O17      1.0000 0.06340  0.67541  0.07796  Biso   1.000  O
  O18      1.0000 0.05515  0.58774  0.32393  Biso   1.000  O
  O19      1.0000 0.92032  0.91445  0.17595  Biso   1.000  O
  O20      1.0000 0.92299  0.82721  0.42457  Biso   1.000  O
  O21      1.0000 0.54199  0.62735  0.24207  Biso   1.000  O
  O22      1.0000 0.54091  0.61981  0.49099  Biso   1.000  O
  O23      1.0000 0.44616  0.88000  0.01016  Biso   1.000  O
  O24      1.0000 0.43837  0.86549  0.26119  Biso   1.000  O
  Hf13     1.0000 0.27901  0.52175  0.64869  Biso   1.000  Hf
  Hf14     1.0000 0.26886  0.73060  0.89746  Biso   1.000  Hf
  Hf15     1.0000 0.72064  0.76980  0.60628  Biso   1.000  Hf
  Hf16     1.0000 0.71788  0.97939  0.85373  Biso   1.000  Hf
  O25      1.0000 0.05804  0.66058  0.57956  Biso   1.000  O
  O26      1.0000 0.06412  0.58681  0.82994  Biso   1.000  O
  O27      1.0000 0.93079  0.91475  0.67285  Biso   1.000  O
  O28      1.0000 0.92766  0.83738  0.92321  Biso   1.000  O
  O29      1.0000 0.54856  0.62757  0.74123  Biso   1.000  O
  O30      1.0000 0.54405  0.62472  0.99134  Biso   1.000  O
  O31      1.0000 0.44029  0.87398  0.51226  Biso   1.000  O
  O32      1.0000 0.44674  0.87159  0.76125  Biso   1.000  O
  Cd1      1.0000 0.89092  0.23750  0.30026  Biso   1.000  Cd
