data_image0
_cell_length_a       10.0573
_cell_length_b       10.2628
_cell_length_c       5.22343
_cell_angle_alpha    89.835
_cell_angle_beta     90.4547
_cell_angle_gamma    90.0009

_symmetry_space_group_name_H-M    "P 1"
_symmetry_int_tables_number       1

loop_
  _symmetry_equiv_pos_as_xyz
  'x, y, z'

loop_
  _atom_site_label
  _atom_site_occupancy
  _atom_site_fract_x
  _atom_site_fract_y
  _atom_site_fract_z
  _atom_site_thermal_displace_type
  _atom_site_B_iso_or_equiv
  _atom_site_type_symbol
  Cd1      1.0000 0.13188  0.01453  0.34546  Biso   1.000  Cd
  Hf1      1.0000 0.13987  0.52094  0.34308  Biso   1.000  Hf
  Hf2      1.0000 0.14061  0.22856  0.84288  Biso   1.000  Hf
  Hf3      1.0000 0.14006  0.72924  0.84156  Biso   1.000  Hf
  Hf4      1.0000 0.35825  0.26861  0.33848  Biso   1.000  Hf
  Hf5      1.0000 0.36127  0.77118  0.33632  Biso   1.000  Hf
  Hf6      1.0000 0.36010  0.47806  0.84171  Biso   1.000  Hf
  Hf7      1.0000 0.36006  0.97984  0.83949  Biso   1.000  Hf
  Hf8      1.0000 0.63906  0.02105  0.15931  Biso   1.000  Hf
  Hf9      1.0000 0.63822  0.51956  0.15620  Biso   1.000  Hf
  Hf10     1.0000 0.63798  0.22948  0.65772  Biso   1.000  Hf
  Hf11     1.0000 0.63861  0.72847  0.65469  Biso   1.000  Hf
  Hf12     1.0000 0.85999  0.27069  0.15883  Biso   1.000  Hf
  Hf13     1.0000 0.86059  0.76823  0.15451  Biso   1.000  Hf
  Hf14     1.0000 0.86186  0.47865  0.65798  Biso   1.000  Hf
  Hf15     1.0000 0.85970  0.98065  0.66835  Biso   1.000  Hf
  O1       1.0000 0.04064  0.18377  0.18681  Biso   1.000  O
  O2       1.0000 0.03553  0.67047  0.17563  Biso   1.000  O
  O3       1.0000 0.02835  0.07965  0.72212  Biso   1.000  O
  O4       1.0000 0.03479  0.58024  0.67267  Biso   1.000  O
  O5       1.0000 0.46762  0.41348  0.16492  Biso   1.000  O
  O6       1.0000 0.47041  0.91396  0.16374  Biso   1.000  O
  O7       1.0000 0.46726  0.33509  0.66487  Biso   1.000  O
  O8       1.0000 0.46973  0.83647  0.66026  Biso   1.000  O
  O9       1.0000 0.27837  0.12472  0.58817  Biso   1.000  O
  O10      1.0000 0.27707  0.62354  0.58861  Biso   1.000  O
  O11      1.0000 0.28888  0.13515  0.06659  Biso   1.000  O
  O12      1.0000 0.27614  0.62300  0.08981  Biso   1.000  O
  O13      1.0000 0.22370  0.37371  0.58879  Biso   1.000  O
  O14      1.0000 0.22756  0.86832  0.58680  Biso   1.000  O
  O15      1.0000 0.22256  0.37890  0.08958  Biso   1.000  O
  O16      1.0000 0.23292  0.86919  0.07421  Biso   1.000  O
  O17      1.0000 0.53386  0.16582  0.33072  Biso   1.000  O
  O18      1.0000 0.53300  0.66340  0.33112  Biso   1.000  O
  O19      1.0000 0.53553  0.08276  0.82860  Biso   1.000  O
  O20      1.0000 0.53163  0.58511  0.83188  Biso   1.000  O
  O21      1.0000 0.96483  0.41981  0.32655  Biso   1.000  O
  O22      1.0000 0.94692  0.92419  0.32390  Biso   1.000  O
  O23      1.0000 0.96488  0.33281  0.82975  Biso   1.000  O
  O24      1.0000 0.96460  0.82821  0.82487  Biso   1.000  O
  O25      1.0000 0.77478  0.12537  0.91694  Biso   1.000  O
  O26      1.0000 0.77527  0.62266  0.90882  Biso   1.000  O
  O27      1.0000 0.77650  0.12742  0.41671  Biso   1.000  O
  O28      1.0000 0.77619  0.62570  0.40886  Biso   1.000  O
  O29      1.0000 0.72322  0.37467  0.90964  Biso   1.000  O
  O30      1.0000 0.72358  0.87375  0.91073  Biso   1.000  O
  O31      1.0000 0.72411  0.37607  0.40998  Biso   1.000  O
  O32      1.0000 0.72148  0.87486  0.41082  Biso   1.000  O
