data_image0
_cell_length_a       10.1713
_cell_length_b       10.2918
_cell_length_c       5.23337
_cell_angle_alpha    90.266
_cell_angle_beta     80.2604
_cell_angle_gamma    90.0012

_symmetry_space_group_name_H-M    "P 1"
_symmetry_int_tables_number       1

loop_
  _symmetry_equiv_pos_as_xyz
  'x, y, z'

loop_
  _atom_site_label
  _atom_site_occupancy
  _atom_site_fract_x
  _atom_site_fract_y
  _atom_site_fract_z
  _atom_site_thermal_displace_type
  _atom_site_B_iso_or_equiv
  _atom_site_type_symbol
  Cd1      1.0000 0.13119  0.01187  0.30529  Biso   1.000  Cd
  Hf1      1.0000 0.14005  0.52181  0.29056  Biso   1.000  Hf
  Hf2      1.0000 0.63906  0.02260  0.29338  Biso   1.000  Hf
  Hf3      1.0000 0.63786  0.51973  0.29099  Biso   1.000  Hf
  Hf4      1.0000 0.14142  0.22983  0.78935  Biso   1.000  Hf
  Hf5      1.0000 0.14023  0.72842  0.79321  Biso   1.000  Hf
  Hf6      1.0000 0.63887  0.23003  0.79169  Biso   1.000  Hf
  Hf7      1.0000 0.63768  0.72786  0.79143  Biso   1.000  Hf
  Hf8      1.0000 0.35904  0.26852  0.20436  Biso   1.000  Hf
  Hf9      1.0000 0.36214  0.77216  0.21182  Biso   1.000  Hf
  Hf10     1.0000 0.86055  0.27160  0.20477  Biso   1.000  Hf
  Hf11     1.0000 0.85951  0.76762  0.20475  Biso   1.000  Hf
  Hf12     1.0000 0.36092  0.47835  0.70567  Biso   1.000  Hf
  Hf13     1.0000 0.36060  0.98012  0.70890  Biso   1.000  Hf
  Hf14     1.0000 0.86196  0.47841  0.70587  Biso   1.000  Hf
  Hf15     1.0000 0.85725  0.97788  0.71644  Biso   1.000  Hf
  O1       1.0000 0.03446  0.17506  0.14672  Biso   1.000  O
  O2       1.0000 0.03578  0.67040  0.16351  Biso   1.000  O
  O3       1.0000 0.53503  0.16842  0.15821  Biso   1.000  O
  O4       1.0000 0.53549  0.66652  0.15711  Biso   1.000  O
  O5       1.0000 0.03091  0.08043  0.68953  Biso   1.000  O
  O6       1.0000 0.03570  0.58155  0.65860  Biso   1.000  O
  O7       1.0000 0.53705  0.08264  0.65785  Biso   1.000  O
  O8       1.0000 0.53390  0.58278  0.65611  Biso   1.000  O
  O9       1.0000 0.46560  0.41598  0.34118  Biso   1.000  O
  O10      1.0000 0.46815  0.91754  0.34213  Biso   1.000  O
  O11      1.0000 0.96523  0.41912  0.33724  Biso   1.000  O
  O12      1.0000 0.94665  0.92054  0.34669  Biso   1.000  O
  O13      1.0000 0.46745  0.33545  0.84205  Biso   1.000  O
  O14      1.0000 0.46755  0.83378  0.84378  Biso   1.000  O
  O15      1.0000 0.96442  0.33401  0.83649  Biso   1.000  O
  O16      1.0000 0.96444  0.83017  0.84047  Biso   1.000  O
  O17      1.0000 0.27869  0.12838  0.48101  Biso   1.000  O
  O18      1.0000 0.27724  0.62527  0.47886  Biso   1.000  O
  O19      1.0000 0.77663  0.13054  0.48322  Biso   1.000  O
  O20      1.0000 0.77528  0.62852  0.47902  Biso   1.000  O
  O21      1.0000 0.28672  0.13140  0.95739  Biso   1.000  O
  O22      1.0000 0.27663  0.62123  0.98077  Biso   1.000  O
  O23      1.0000 0.77399  0.12200  0.98338  Biso   1.000  O
  O24      1.0000 0.77556  0.62026  0.97866  Biso   1.000  O
  O25      1.0000 0.22400  0.38101  0.01520  Biso   1.000  O
  O26      1.0000 0.23074  0.87693  0.01540  Biso   1.000  O
  O27      1.0000 0.72386  0.37951  0.01722  Biso   1.000  O
  O28      1.0000 0.72319  0.87820  0.02010  Biso   1.000  O
  O29      1.0000 0.22433  0.37087  0.51405  Biso   1.000  O
  O30      1.0000 0.23269  0.86183  0.52956  Biso   1.000  O
  O31      1.0000 0.72400  0.37208  0.51781  Biso   1.000  O
  O32      1.0000 0.72031  0.87075  0.52220  Biso   1.000  O
