data_image0
_cell_length_a       5.10467
_cell_length_b       10.3668
_cell_length_c       10.1483
_cell_angle_alpha    89.6784
_cell_angle_beta     90.7528
_cell_angle_gamma    91.4654

_symmetry_space_group_name_H-M    "P 1"
_symmetry_int_tables_number       1

loop_
  _symmetry_equiv_pos_as_xyz
  'x, y, z'

loop_
  _atom_site_label
  _atom_site_occupancy
  _atom_site_fract_x
  _atom_site_fract_y
  _atom_site_fract_z
  _atom_site_thermal_displace_type
  _atom_site_B_iso_or_equiv
  _atom_site_type_symbol
  Hf1      1.0000 0.27114  0.97278  0.09695  Biso   1.000  Hf
  Hf2      1.0000 0.25036  0.22963  0.39630  Biso   1.000  Hf
  Hf3      1.0000 0.66494  0.26626  0.12943  Biso   1.000  Hf
  Hf4      1.0000 0.73881  0.48608  0.37212  Biso   1.000  Hf
  Hf5      1.0000 0.88875  0.17810  0.27707  Biso   1.000  Hf
  Hf6      1.0000 0.06625  0.06329  0.46429  Biso   1.000  Hf
  Hf7      1.0000 0.92070  0.43121  0.19456  Biso   1.000  Hf
  Hf8      1.0000 0.96163  0.33802  0.46941  Biso   1.000  Hf
  Hf9      1.0000 0.42494  0.10539  0.24706  Biso   1.000  Hf
  Hf10     1.0000 0.55015  0.13735  0.50023  Biso   1.000  Hf
  Hf11     1.0000 0.48303  0.38688  0.49955  Biso   1.000  Hf
  Hf12     1.0000 0.43150  0.37277  0.25620  Biso   1.000  Hf
  Hf13     1.0000 0.28595  0.00826  0.62117  Biso   1.000  Hf
  Hf14     1.0000 0.27932  0.23493  0.85046  Biso   1.000  Hf
  Hf15     1.0000 0.74902  0.27120  0.62495  Biso   1.000  Hf
  Hf16     1.0000 0.73812  0.48293  0.87644  Biso   1.000  Hf
  Hf17     1.0000 0.07190  0.17599  0.68934  Biso   1.000  Hf
  Hf18     1.0000 0.06571  0.07663  0.94522  Biso   1.000  Hf
  Hf19     1.0000 0.96272  0.43025  0.71262  Biso   1.000  Hf
  Hf20     1.0000 0.90442  0.31497  0.94209  Biso   1.000  Hf
  Hf21     1.0000 0.54496  0.11531  0.74773  Biso   1.000  Hf
  Hf22     1.0000 0.52343  0.12514  0.99717  Biso   1.000  Hf
  Hf23     1.0000 0.44042  0.38685  0.99273  Biso   1.000  Hf
  Hf24     1.0000 0.48491  0.36933  0.74142  Biso   1.000  Hf
  Hf25     1.0000 0.26969  0.52701  0.12408  Biso   1.000  Hf
  Hf26     1.0000 0.27682  0.74056  0.37656  Biso   1.000  Hf
  Hf27     1.0000 0.75403  0.76204  0.12561  Biso   1.000  Hf
  Hf28     1.0000 0.73949  0.00226  0.35880  Biso   1.000  Hf
  Hf29     1.0000 0.07968  0.68462  0.20185  Biso   1.000  Hf
  Hf30     1.0000 0.06906  0.57600  0.44702  Biso   1.000  Hf
  Hf31     1.0000 0.93711  0.93655  0.19527  Biso   1.000  Hf
  Hf32     1.0000 0.94645  0.82441  0.44430  Biso   1.000  Hf
  Hf33     1.0000 0.55322  0.61875  0.24721  Biso   1.000  Hf
  Hf34     1.0000 0.54234  0.63662  0.49497  Biso   1.000  Hf
  Hf35     1.0000 0.47958  0.88907  0.49053  Biso   1.000  Hf
  Hf36     1.0000 0.48305  0.85895  0.23989  Biso   1.000  Hf
  Hf37     1.0000 0.27123  0.51472  0.61830  Biso   1.000  Hf
  Hf38     1.0000 0.28675  0.72936  0.86562  Biso   1.000  Hf
  Hf39     1.0000 0.75326  0.76750  0.61481  Biso   1.000  Hf
  Hf40     1.0000 0.75468  0.98644  0.86639  Biso   1.000  Hf
  Hf41     1.0000 0.07628  0.68097  0.69350  Biso   1.000  Hf
  Hf42     1.0000 0.06753  0.57565  0.94968  Biso   1.000  Hf
  Hf43     1.0000 0.95961  0.92592  0.70569  Biso   1.000  Hf
  Hf44     1.0000 0.00967  0.83157  0.96704  Biso   1.000  Hf
  Hf45     1.0000 0.54451  0.61316  0.74430  Biso   1.000  Hf
  Hf46     1.0000 0.55044  0.63290  0.99558  Biso   1.000  Hf
  Hf47     1.0000 0.52149  0.87154  0.98300  Biso   1.000  Hf
  Hf48     1.0000 0.48505  0.86268  0.73872  Biso   1.000  Hf
  Ce1      1.0000 0.15648  0.24236  0.11352  Biso   1.000  Ce
