data_image0
_cell_length_a       10.086
_cell_length_b       5.14024
_cell_length_c       10.484
_cell_angle_alpha    90.0116
_cell_angle_beta     90.1267
_cell_angle_gamma    90.0618

_symmetry_space_group_name_H-M    "P 1"
_symmetry_int_tables_number       1

loop_
  _symmetry_equiv_pos_as_xyz
  'x, y, z'

loop_
  _atom_site_label
  _atom_site_occupancy
  _atom_site_fract_x
  _atom_site_fract_y
  _atom_site_fract_z
  _atom_site_thermal_displace_type
  _atom_site_B_iso_or_equiv
  _atom_site_type_symbol
  Ce1      1.0000 0.13464  0.03300  0.16803  Biso   1.000  Ce
  Hf1      1.0000 0.13878  0.45598  0.42407  Biso   1.000  Hf
  Hf2      1.0000 0.36532  0.53721  0.17039  Biso   1.000  Hf
  Hf3      1.0000 0.36297  0.95568  0.42197  Biso   1.000  Hf
  Hf4      1.0000 0.63875  0.03933  0.07905  Biso   1.000  Hf
  Hf5      1.0000 0.63810  0.45758  0.32966  Biso   1.000  Hf
  Hf6      1.0000 0.85556  0.53955  0.07668  Biso   1.000  Hf
  Hf7      1.0000 0.85568  0.95788  0.33251  Biso   1.000  Hf
  O1       1.0000 0.03330  0.35881  0.08187  Biso   1.000  O
  O2       1.0000 0.02634  0.17296  0.34179  Biso   1.000  O
  O3       1.0000 0.46802  0.83222  0.08355  Biso   1.000  O
  O4       1.0000 0.46933  0.66962  0.33336  Biso   1.000  O
  O5       1.0000 0.28054  0.24994  0.30005  Biso   1.000  O
  O6       1.0000 0.28242  0.25774  0.03807  Biso   1.000  O
  O7       1.0000 0.22888  0.73444  0.29766  Biso   1.000  O
  O8       1.0000 0.23442  0.73828  0.03710  Biso   1.000  O
  O9       1.0000 0.53429  0.32811  0.16661  Biso   1.000  O
  O10      1.0000 0.53380  0.16693  0.41720  Biso   1.000  O
  O11      1.0000 0.94951  0.83576  0.16702  Biso   1.000  O
  O12      1.0000 0.96655  0.67066  0.41679  Biso   1.000  O
  O13      1.0000 0.77463  0.24932  0.45723  Biso   1.000  O
  O14      1.0000 0.77530  0.25284  0.20618  Biso   1.000  O
  O15      1.0000 0.72327  0.74750  0.45667  Biso   1.000  O
  O16      1.0000 0.71687  0.75123  0.20650  Biso   1.000  O
  Hf8      1.0000 0.13890  0.04168  0.67126  Biso   1.000  Hf
  Hf9      1.0000 0.13976  0.46204  0.91742  Biso   1.000  Hf
  Hf10     1.0000 0.36153  0.54090  0.67067  Biso   1.000  Hf
  Hf11     1.0000 0.36430  0.95825  0.91902  Biso   1.000  Hf
  Hf12     1.0000 0.63831  0.04225  0.57968  Biso   1.000  Hf
  Hf13     1.0000 0.63866  0.45728  0.82741  Biso   1.000  Hf
  Hf14     1.0000 0.86223  0.54338  0.57927  Biso   1.000  Hf
  Hf15     1.0000 0.86171  0.95884  0.82811  Biso   1.000  Hf
  O17      1.0000 0.03446  0.33821  0.58830  Biso   1.000  O
  O18      1.0000 0.03490  0.16426  0.83608  Biso   1.000  O
  O19      1.0000 0.46746  0.83024  0.58401  Biso   1.000  O
  O20      1.0000 0.46797  0.66744  0.83197  Biso   1.000  O
  O21      1.0000 0.27631  0.24789  0.79267  Biso   1.000  O
  O22      1.0000 0.27564  0.24989  0.54574  Biso   1.000  O
  O23      1.0000 0.22475  0.74868  0.79216  Biso   1.000  O
  O24      1.0000 0.22439  0.75213  0.54495  Biso   1.000  O
  O25      1.0000 0.53312  0.33047  0.66608  Biso   1.000  O
  O26      1.0000 0.53581  0.16656  0.91524  Biso   1.000  O
  O27      1.0000 0.96591  0.83667  0.66523  Biso   1.000  O
  O28      1.0000 0.96628  0.67182  0.91482  Biso   1.000  O
  O29      1.0000 0.77643  0.24591  0.95487  Biso   1.000  O
  O30      1.0000 0.77619  0.25345  0.70543  Biso   1.000  O
  O31      1.0000 0.72311  0.74701  0.95445  Biso   1.000  O
  O32      1.0000 0.72463  0.75216  0.70519  Biso   1.000  O
