data_image0
_cell_length_a       9.92865
_cell_length_b       10.3655
_cell_length_c       9.98289
_cell_angle_alpha    90.324
_cell_angle_beta     89.5329
_cell_angle_gamma    90.2291

_symmetry_space_group_name_H-M    "P 1"
_symmetry_int_tables_number       1

loop_
  _symmetry_equiv_pos_as_xyz
  'x, y, z'

loop_
  _atom_site_label
  _atom_site_occupancy
  _atom_site_fract_x
  _atom_site_fract_y
  _atom_site_fract_z
  _atom_site_thermal_displace_type
  _atom_site_B_iso_or_equiv
  _atom_site_type_symbol
  Co1      1.0000 0.12383  0.03960  0.10512  Biso   1.000  Co
  Hf1      1.0000 0.13534  0.01779  0.62888  Biso   1.000  Hf
  Hf2      1.0000 0.13410  0.51471  0.12651  Biso   1.000  Hf
  Hf3      1.0000 0.13471  0.51711  0.62653  Biso   1.000  Hf
  Hf4      1.0000 0.63456  0.01700  0.12597  Biso   1.000  Hf
  Hf5      1.0000 0.63022  0.01446  0.62255  Biso   1.000  Hf
  Hf6      1.0000 0.63483  0.51751  0.12823  Biso   1.000  Hf
  Hf7      1.0000 0.63353  0.51749  0.62531  Biso   1.000  Hf
  Hf8      1.0000 0.13440  0.22840  0.37212  Biso   1.000  Hf
  Hf9      1.0000 0.13157  0.23743  0.87646  Biso   1.000  Hf
  Hf10     1.0000 0.13699  0.73147  0.37894  Biso   1.000  Hf
  Hf11     1.0000 0.13308  0.73637  0.88025  Biso   1.000  Hf
  Hf12     1.0000 0.63415  0.23241  0.37732  Biso   1.000  Hf
  Hf13     1.0000 0.63137  0.23379  0.87380  Biso   1.000  Hf
  Hf14     1.0000 0.63669  0.73566  0.37537  Biso   1.000  Hf
  Hf15     1.0000 0.63168  0.73476  0.87680  Biso   1.000  Hf
  Hf16     1.0000 0.36613  0.26341  0.12567  Biso   1.000  Hf
  Hf17     1.0000 0.36515  0.26693  0.62594  Biso   1.000  Hf
  Hf18     1.0000 0.36558  0.76477  0.12881  Biso   1.000  Hf
  Hf19     1.0000 0.36621  0.76866  0.62990  Biso   1.000  Hf
  Hf20     1.0000 0.86389  0.26680  0.12314  Biso   1.000  Hf
  Hf21     1.0000 0.86549  0.26589  0.62457  Biso   1.000  Hf
  Hf22     1.0000 0.87386  0.76761  0.12213  Biso   1.000  Hf
  Hf23     1.0000 0.86764  0.76720  0.62426  Biso   1.000  Hf
  Hf24     1.0000 0.36716  0.48195  0.37657  Biso   1.000  Hf
  Hf25     1.0000 0.36518  0.48585  0.87631  Biso   1.000  Hf
  Hf26     1.0000 0.36275  0.97970  0.37337  Biso   1.000  Hf
  Hf27     1.0000 0.35937  0.98426  0.88395  Biso   1.000  Hf
  Hf28     1.0000 0.86621  0.48298  0.37613  Biso   1.000  Hf
  Hf29     1.0000 0.86411  0.48574  0.87457  Biso   1.000  Hf
  Hf30     1.0000 0.87169  0.98654  0.37351  Biso   1.000  Hf
  Hf31     1.0000 0.86216  0.98439  0.87282  Biso   1.000  Hf
  Hf32     1.0000 0.03922  0.18322  0.18240  Biso   1.000  Hf
  Hf33     1.0000 0.03375  0.18413  0.69865  Biso   1.000  Hf
  Hf34     1.0000 0.03813  0.68462  0.19519  Biso   1.000  Hf
  Hf35     1.0000 0.03675  0.68574  0.69531  Biso   1.000  Hf
  Hf36     1.0000 0.53301  0.18249  0.19867  Biso   1.000  Hf
  Hf37     1.0000 0.53583  0.18506  0.69230  Biso   1.000  Hf
  Hf38     1.0000 0.53740  0.68458  0.19715  Biso   1.000  Hf
  Hf39     1.0000 0.53508  0.68366  0.69675  Biso   1.000  Hf
  Hf40     1.0000 0.03685  0.06630  0.44971  Biso   1.000  Hf
  Hf41     1.0000 0.03420  0.06525  0.94563  Biso   1.000  Hf
  Hf42     1.0000 0.03631  0.56311  0.44610  Biso   1.000  Hf
  Hf43     1.0000 0.03376  0.56748  0.94648  Biso   1.000  Hf
  Hf44     1.0000 0.53637  0.06494  0.44299  Biso   1.000  Hf
  Hf45     1.0000 0.52995  0.06935  0.95012  Biso   1.000  Hf
  Hf46     1.0000 0.53848  0.56631  0.44305  Biso   1.000  Hf
  Hf47     1.0000 0.53535  0.56653  0.94663  Biso   1.000  Hf
  Hf48     1.0000 0.46452  0.43199  0.19335  Biso   1.000  Hf
  Hf49     1.0000 0.46267  0.43497  0.69483  Biso   1.000  Hf
  Hf50     1.0000 0.47129  0.93050  0.19779  Biso   1.000  Hf
  Hf51     1.0000 0.46225  0.93565  0.70066  Biso   1.000  Hf
  Hf52     1.0000 0.96509  0.43059  0.19542  Biso   1.000  Hf
  Hf53     1.0000 0.96283  0.43453  0.69283  Biso   1.000  Hf
  Hf54     1.0000 0.98831  0.94393  0.18568  Biso   1.000  Hf
  Hf55     1.0000 0.96360  0.93530  0.69344  Biso   1.000  Hf
  Hf56     1.0000 0.46506  0.31618  0.44582  Biso   1.000  Hf
  Hf57     1.0000 0.45888  0.31413  0.94282  Biso   1.000  Hf
  Hf58     1.0000 0.46947  0.81800  0.45301  Biso   1.000  Hf
  Hf59     1.0000 0.45786  0.81713  0.94384  Biso   1.000  Hf
  Hf60     1.0000 0.96308  0.31227  0.44036  Biso   1.000  Hf
  Hf61     1.0000 0.96068  0.31790  0.94192  Biso   1.000  Hf
  Hf62     1.0000 0.96536  0.81701  0.44075  Biso   1.000  Hf
  Hf63     1.0000 0.95942  0.81704  0.93925  Biso   1.000  Hf
  Hf64     1.0000 0.25616  0.10228  0.24341  Biso   1.000  Hf
  Hf65     1.0000 0.27098  0.12032  0.75287  Biso   1.000  Hf
  Hf66     1.0000 0.26962  0.60788  0.24997  Biso   1.000  Hf
  Hf67     1.0000 0.26947  0.61956  0.75244  Biso   1.000  Hf
  Hf68     1.0000 0.77290  0.11796  0.24723  Biso   1.000  Hf
  Hf69     1.0000 0.76712  0.11667  0.74731  Biso   1.000  Hf
  Hf70     1.0000 0.77381  0.61712  0.24949  Biso   1.000  Hf
  Hf71     1.0000 0.76952  0.61863  0.74982  Biso   1.000  Hf
  Hf72     1.0000 0.27238  0.13218  0.49737  Biso   1.000  Hf
  Hf73     1.0000 0.25805  0.13243  0.00455  Biso   1.000  Hf
  Hf74     1.0000 0.27365  0.63149  0.50177  Biso   1.000  Hf
  Hf75     1.0000 0.26844  0.63461  0.00107  Biso   1.000  Hf
  Hf76     1.0000 0.77176  0.13184  0.49765  Biso   1.000  Hf
  Hf77     1.0000 0.76812  0.13384  0.99652  Biso   1.000  Hf
  Hf78     1.0000 0.77068  0.63351  0.49965  Biso   1.000  Hf
  Hf79     1.0000 0.77010  0.63514  0.00056  Biso   1.000  Hf
  Hf80     1.0000 0.22832  0.38053  0.49951  Biso   1.000  Hf
  Hf81     1.0000 0.22855  0.38368  0.99979  Biso   1.000  Hf
  Hf82     1.0000 0.22924  0.88182  0.50722  Biso   1.000  Hf
  Hf83     1.0000 0.22070  0.89261  0.01571  Biso   1.000  Hf
  Hf84     1.0000 0.73010  0.38222  0.50022  Biso   1.000  Hf
  Hf85     1.0000 0.72732  0.38312  0.99932  Biso   1.000  Hf
  Hf86     1.0000 0.73353  0.88430  0.49710  Biso   1.000  Hf
  Hf87     1.0000 0.72678  0.88413  0.99768  Biso   1.000  Hf
  Hf88     1.0000 0.23199  0.36127  0.24946  Biso   1.000  Hf
  Hf89     1.0000 0.22757  0.36946  0.75016  Biso   1.000  Hf
  Hf90     1.0000 0.24870  0.84845  0.26556  Biso   1.000  Hf
  Hf91     1.0000 0.22745  0.87021  0.75723  Biso   1.000  Hf
  Hf92     1.0000 0.72839  0.36722  0.24952  Biso   1.000  Hf
  Hf93     1.0000 0.72822  0.36800  0.74915  Biso   1.000  Hf
  Hf94     1.0000 0.74281  0.86850  0.24635  Biso   1.000  Hf
  Hf95     1.0000 0.72822  0.86687  0.74772  Biso   1.000  Hf
