data_image0
_cell_length_a       5.03134
_cell_length_b       10.1812
_cell_length_c       10.4395
_cell_angle_alpha    90.073
_cell_angle_beta     81.045
_cell_angle_gamma    89.2537

_symmetry_space_group_name_H-M    "P 1"
_symmetry_int_tables_number       1

loop_
  _symmetry_equiv_pos_as_xyz
  'x, y, z'

loop_
  _atom_site_label
  _atom_site_occupancy
  _atom_site_fract_x
  _atom_site_fract_y
  _atom_site_fract_z
  _atom_site_thermal_displace_type
  _atom_site_B_iso_or_equiv
  _atom_site_type_symbol
  Co1      1.0000 0.23917  0.01120  0.16982  Biso   1.000  Co
  Hf1      1.0000 0.27333  0.02076  0.64362  Biso   1.000  Hf
  Hf2      1.0000 0.27590  0.52202  0.14516  Biso   1.000  Hf
  Hf3      1.0000 0.28047  0.52072  0.64840  Biso   1.000  Hf
  Hf4      1.0000 0.27646  0.22834  0.38930  Biso   1.000  Hf
  Hf5      1.0000 0.29216  0.22486  0.89691  Biso   1.000  Hf
  Hf6      1.0000 0.27079  0.72772  0.39664  Biso   1.000  Hf
  Hf7      1.0000 0.27427  0.73417  0.89845  Biso   1.000  Hf
  Hf8      1.0000 0.73237  0.26225  0.10416  Biso   1.000  Hf
  Hf9      1.0000 0.72264  0.27192  0.60336  Biso   1.000  Hf
  Hf10     1.0000 0.71021  0.77806  0.10313  Biso   1.000  Hf
  Hf11     1.0000 0.71850  0.77051  0.60667  Biso   1.000  Hf
  Hf12     1.0000 0.72161  0.47906  0.35345  Biso   1.000  Hf
  Hf13     1.0000 0.73008  0.47798  0.85859  Biso   1.000  Hf
  Hf14     1.0000 0.70718  0.97713  0.35218  Biso   1.000  Hf
  Hf15     1.0000 0.72190  0.98451  0.85483  Biso   1.000  Hf
  O1       1.0000 0.09913  0.14920  0.08452  Biso   1.000  O
  O2       1.0000 0.06798  0.16366  0.56993  Biso   1.000  O
  O3       1.0000 0.06620  0.67087  0.08086  Biso   1.000  O
  O4       1.0000 0.06892  0.66644  0.57895  Biso   1.000  O
  O5       1.0000 0.05904  0.08182  0.32134  Biso   1.000  O
  O6       1.0000 0.07797  0.08350  0.82538  Biso   1.000  O
  O7       1.0000 0.07297  0.57875  0.33027  Biso   1.000  O
  O8       1.0000 0.07288  0.58581  0.83040  Biso   1.000  O
  O9       1.0000 0.93683  0.41407  0.17293  Biso   1.000  O
  O10      1.0000 0.93622  0.41357  0.67605  Biso   1.000  O
  O11      1.0000 0.93616  0.91758  0.17307  Biso   1.000  O
  O12      1.0000 0.92811  0.91694  0.67090  Biso   1.000  O
  O13      1.0000 0.92922  0.33255  0.42141  Biso   1.000  O
  O14      1.0000 0.95249  0.33684  0.93143  Biso   1.000  O
  O15      1.0000 0.92004  0.83092  0.42038  Biso   1.000  O
  O16      1.0000 0.91811  0.83334  0.92284  Biso   1.000  O
  O17      1.0000 0.52662  0.11561  0.22721  Biso   1.000  O
  O18      1.0000 0.55310  0.12765  0.73153  Biso   1.000  O
  O19      1.0000 0.55141  0.63246  0.24124  Biso   1.000  O
  O20      1.0000 0.55521  0.62857  0.74262  Biso   1.000  O
  O21      1.0000 0.55494  0.12230  0.48229  Biso   1.000  O
  O22      1.0000 0.60250  0.13963  0.97034  Biso   1.000  O
  O23      1.0000 0.55252  0.62002  0.49206  Biso   1.000  O
  O24      1.0000 0.55273  0.62680  0.99188  Biso   1.000  O
  O25      1.0000 0.45921  0.38163  0.01208  Biso   1.000  O
  O26      1.0000 0.44353  0.37805  0.50905  Biso   1.000  O
  O27      1.0000 0.43569  0.89870  0.01683  Biso   1.000  O
  O28      1.0000 0.44075  0.87806  0.50845  Biso   1.000  O
  O29      1.0000 0.45763  0.36640  0.25831  Biso   1.000  O
  O30      1.0000 0.45527  0.37053  0.76215  Biso   1.000  O
  O31      1.0000 0.42416  0.87506  0.25751  Biso   1.000  O
  O32      1.0000 0.44544  0.87140  0.76110  Biso   1.000  O
