data_image0
_cell_length_a       5.07424
_cell_length_b       10.3971
_cell_length_c       10.097
_cell_angle_alpha    88.5677
_cell_angle_beta     87.9876
_cell_angle_gamma    93.1729

_symmetry_space_group_name_H-M    "P 1"
_symmetry_int_tables_number       1

loop_
  _symmetry_equiv_pos_as_xyz
  'x, y, z'

loop_
  _atom_site_label
  _atom_site_occupancy
  _atom_site_fract_x
  _atom_site_fract_y
  _atom_site_fract_z
  _atom_site_thermal_displace_type
  _atom_site_B_iso_or_equiv
  _atom_site_type_symbol
  Hf1      1.0000 0.28500  0.94980  0.13672  Biso   1.000  Hf
  Hf2      1.0000 0.30673  0.22997  0.35217  Biso   1.000  Hf
  Hf3      1.0000 0.72124  0.25842  0.10823  Biso   1.000  Hf
  Hf4      1.0000 0.78354  0.00405  0.39078  Biso   1.000  Hf
  Hf5      1.0000 0.95183  0.15520  0.97343  Biso   1.000  Hf
  Hf6      1.0000 0.11890  0.06446  0.27210  Biso   1.000  Hf
  Hf7      1.0000 0.05645  0.31353  0.21588  Biso   1.000  Hf
  Hf8      1.0000 0.95610  0.40925  0.98691  Biso   1.000  Hf
  Hf9      1.0000 0.64407  0.15047  0.27920  Biso   1.000  Hf
  Hf10     1.0000 0.48950  0.09002  0.02162  Biso   1.000  Hf
  Hf11     1.0000 0.43855  0.34152  0.99494  Biso   1.000  Hf
  Hf12     1.0000 0.52355  0.39292  0.24487  Biso   1.000  Hf
  Hf13     1.0000 0.21381  0.02806  0.64457  Biso   1.000  Hf
  Hf14     1.0000 0.18145  0.28388  0.85487  Biso   1.000  Hf
  Hf15     1.0000 0.73338  0.24727  0.60228  Biso   1.000  Hf
  Hf16     1.0000 0.74653  0.99548  0.89675  Biso   1.000  Hf
  Hf17     1.0000 0.01229  0.14941  0.49739  Biso   1.000  Hf
  Hf18     1.0000 0.90955  0.11595  0.73808  Biso   1.000  Hf
  Hf19     1.0000 0.92048  0.37446  0.73411  Biso   1.000  Hf
  Hf20     1.0000 0.95226  0.39367  0.48363  Biso   1.000  Hf
  Hf21     1.0000 0.41052  0.19174  0.72897  Biso   1.000  Hf
  Hf22     1.0000 0.50720  0.10169  0.50609  Biso   1.000  Hf
  Hf23     1.0000 0.45514  0.36178  0.50127  Biso   1.000  Hf
  Hf24     1.0000 0.41683  0.44529  0.76245  Biso   1.000  Hf
  Hf25     1.0000 0.23432  0.48791  0.11974  Biso   1.000  Hf
  Hf26     1.0000 0.30652  0.76082  0.39520  Biso   1.000  Hf
  Hf27     1.0000 0.77468  0.72547  0.12910  Biso   1.000  Hf
  Hf28     1.0000 0.70433  0.50611  0.38166  Biso   1.000  Hf
  Hf29     1.0000 0.04774  0.64963  0.99819  Biso   1.000  Hf
  Hf30     1.0000 0.95261  0.56505  0.23158  Biso   1.000  Hf
  Hf31     1.0000 0.05574  0.81049  0.25150  Biso   1.000  Hf
  Hf32     1.0000 0.00398  0.89237  0.00758  Biso   1.000  Hf
  Hf33     1.0000 0.48258  0.64017  0.26704  Biso   1.000  Hf
  Hf34     1.0000 0.55179  0.58364  0.02496  Biso   1.000  Hf
  Hf35     1.0000 0.51271  0.83356  0.00775  Biso   1.000  Hf
  Hf36     1.0000 0.56648  0.88724  0.26054  Biso   1.000  Hf
  Hf37     1.0000 0.19912  0.49409  0.60489  Biso   1.000  Hf
  Hf38     1.0000 0.24350  0.77051  0.86338  Biso   1.000  Hf
  Hf39     1.0000 0.79480  0.75136  0.61862  Biso   1.000  Hf
  Hf40     1.0000 0.73036  0.52139  0.86163  Biso   1.000  Hf
  Hf41     1.0000 0.00339  0.64078  0.48637  Biso   1.000  Hf
  Hf42     1.0000 0.02993  0.62369  0.73870  Biso   1.000  Hf
  Hf43     1.0000 0.96791  0.87270  0.75615  Biso   1.000  Hf
  Hf44     1.0000 0.06018  0.89475  0.50581  Biso   1.000  Hf
  Hf45     1.0000 0.55805  0.68959  0.77799  Biso   1.000  Hf
  Hf46     1.0000 0.50109  0.61577  0.52138  Biso   1.000  Hf
  Hf47     1.0000 0.56228  0.86063  0.51119  Biso   1.000  Hf
  Hf48     1.0000 0.44234  0.94168  0.77831  Biso   1.000  Hf
  Co1      1.0000 0.22237  0.18972  0.10525  Biso   1.000  Co
