data_image0
_cell_length_a       10.0342
_cell_length_b       5.14539
_cell_length_c       10.4719
_cell_angle_alpha    89.8906
_cell_angle_beta     90.3313
_cell_angle_gamma    90.2908

_symmetry_space_group_name_H-M    "P 1"
_symmetry_int_tables_number       1

loop_
  _symmetry_equiv_pos_as_xyz
  'x, y, z'

loop_
  _atom_site_label
  _atom_site_occupancy
  _atom_site_fract_x
  _atom_site_fract_y
  _atom_site_fract_z
  _atom_site_thermal_displace_type
  _atom_site_B_iso_or_equiv
  _atom_site_type_symbol
  Hf1      1.0000 0.13777  0.04114  0.17206  Biso   1.000  Hf
  Hf2      1.0000 0.13841  0.45500  0.42350  Biso   1.000  Hf
  Hf3      1.0000 0.35512  0.54743  0.17626  Biso   1.000  Hf
  Hf4      1.0000 0.36188  0.95657  0.42338  Biso   1.000  Hf
  Hf5      1.0000 0.64447  0.07315  0.07462  Biso   1.000  Hf
  Hf6      1.0000 0.63993  0.45579  0.33391  Biso   1.000  Hf
  Hf7      1.0000 0.86163  0.53712  0.07778  Biso   1.000  Hf
  Hf8      1.0000 0.86231  0.95427  0.32911  Biso   1.000  Hf
  O1       1.0000 0.03445  0.32737  0.08438  Biso   1.000  O
  O2       1.0000 0.03337  0.16298  0.33629  Biso   1.000  O
  O3       1.0000 0.46089  0.85512  0.09134  Biso   1.000  O
  O4       1.0000 0.46664  0.66646  0.33715  Biso   1.000  O
  O5       1.0000 0.27429  0.24884  0.29676  Biso   1.000  O
  O6       1.0000 0.27677  0.25269  0.04521  Biso   1.000  O
  O7       1.0000 0.22196  0.74890  0.29770  Biso   1.000  O
  O8       1.0000 0.22138  0.75197  0.04570  Biso   1.000  O
  O9       1.0000 0.52475  0.32183  0.17418  Biso   1.000  O
  O10      1.0000 0.53394  0.16686  0.41844  Biso   1.000  O
  O11      1.0000 0.96571  0.82951  0.16778  Biso   1.000  O
  O12      1.0000 0.96665  0.66205  0.41658  Biso   1.000  O
  O13      1.0000 0.77700  0.24467  0.45694  Biso   1.000  O
  O14      1.0000 0.77959  0.25230  0.21122  Biso   1.000  O
  O15      1.0000 0.72420  0.74557  0.45654  Biso   1.000  O
  O16      1.0000 0.72003  0.75274  0.20326  Biso   1.000  O
  Hf9      1.0000 0.14142  0.03897  0.67148  Biso   1.000  Hf
  Hf10     1.0000 0.13976  0.45481  0.92209  Biso   1.000  Hf
  Hf11     1.0000 0.36365  0.53927  0.67316  Biso   1.000  Hf
  Hf12     1.0000 0.36044  0.95761  0.92159  Biso   1.000  Hf
  Hf13     1.0000 0.64048  0.03954  0.58056  Biso   1.000  Hf
  Hf14     1.0000 0.64180  0.45259  0.82827  Biso   1.000  Hf
  Hf15     1.0000 0.86317  0.53807  0.57967  Biso   1.000  Hf
  Hf16     1.0000 0.86569  0.95273  0.82742  Biso   1.000  Hf
  O17      1.0000 0.03509  0.32968  0.58568  Biso   1.000  O
  O18      1.0000 0.03719  0.16340  0.83310  Biso   1.000  O
  O19      1.0000 0.46769  0.83124  0.58635  Biso   1.000  O
  O20      1.0000 0.46773  0.66191  0.83745  Biso   1.000  O
  O21      1.0000 0.27865  0.24525  0.79569  Biso   1.000  O
  O22      1.0000 0.27765  0.24924  0.54604  Biso   1.000  O
  O23      1.0000 0.22533  0.74466  0.79565  Biso   1.000  O
  O24      1.0000 0.22545  0.74844  0.54618  Biso   1.000  O
  O25      1.0000 0.53498  0.33088  0.66562  Biso   1.000  O
  O26      1.0000 0.53598  0.15411  0.91014  Biso   1.000  O
  O27      1.0000 0.96952  0.82942  0.66448  Biso   1.000  O
  O28      1.0000 0.96818  0.66486  0.91612  Biso   1.000  O
  O29      1.0000 0.79000  0.23818  0.94886  Biso   1.000  O
  O30      1.0000 0.77888  0.24662  0.70405  Biso   1.000  O
  O31      1.0000 0.72225  0.74836  0.95727  Biso   1.000  O
  O32      1.0000 0.72638  0.74729  0.70573  Biso   1.000  O
  Co1      1.0000 0.59839  0.58315  0.07254  Biso   1.000  Co
