data_image0
_cell_length_a       10.0345
_cell_length_b       10.2678
_cell_length_c       10.0345
_cell_angle_alpha    89.9995
_cell_angle_beta     89.45
_cell_angle_gamma    89.9999

_symmetry_space_group_name_H-M    "P 1"
_symmetry_int_tables_number       1

loop_
  _symmetry_equiv_pos_as_xyz
  'x, y, z'

loop_
  _atom_site_label
  _atom_site_occupancy
  _atom_site_fract_x
  _atom_site_fract_y
  _atom_site_fract_z
  _atom_site_thermal_displace_type
  _atom_site_B_iso_or_equiv
  _atom_site_type_symbol
  Hf1      1.0000 0.12491  0.96377  0.12491  Biso   1.000  Hf
  Hf2      1.0000 0.13280  0.25726  0.38205  Biso   1.000  Hf
  Hf3      1.0000 0.38205  0.25726  0.13280  Biso   1.000  Hf
  Hf4      1.0000 0.37512  0.00470  0.37512  Biso   1.000  Hf
  Hf5      1.0000 0.98791  0.15108  0.98791  Biso   1.000  Hf
  Hf6      1.0000 0.00988  0.09116  0.23994  Biso   1.000  Hf
  Hf7      1.0000 0.01553  0.33458  0.23429  Biso   1.000  Hf
  Hf8      1.0000 0.99273  0.40479  0.99273  Biso   1.000  Hf
  Hf9      1.0000 0.26191  0.15108  0.26191  Biso   1.000  Hf
  Hf10     1.0000 0.23994  0.09116  0.00988  Biso   1.000  Hf
  Hf11     1.0000 0.23429  0.33458  0.01553  Biso   1.000  Hf
  Hf12     1.0000 0.25708  0.40479  0.25708  Biso   1.000  Hf
  Hf13     1.0000 0.12491  0.99821  0.62491  Biso   1.000  Hf
  Hf14     1.0000 0.11701  0.25726  0.86777  Biso   1.000  Hf
  Hf15     1.0000 0.37520  0.24785  0.63002  Biso   1.000  Hf
  Hf16     1.0000 0.36843  0.00326  0.88139  Biso   1.000  Hf
  Hf17     1.0000 0.00046  0.14886  0.49320  Biso   1.000  Hf
  Hf18     1.0000 0.99505  0.10436  0.74161  Biso   1.000  Hf
  Hf19     1.0000 0.99517  0.35772  0.73952  Biso   1.000  Hf
  Hf20     1.0000 0.00556  0.40134  0.49046  Biso   1.000  Hf
  Hf21     1.0000 0.24936  0.14886  0.75662  Biso   1.000  Hf
  Hf22     1.0000 0.25477  0.10436  0.50821  Biso   1.000  Hf
  Hf23     1.0000 0.25464  0.35772  0.51029  Biso   1.000  Hf
  Hf24     1.0000 0.24425  0.40134  0.75935  Biso   1.000  Hf
  Hf25     1.0000 0.12491  0.49768  0.12491  Biso   1.000  Hf
  Hf26     1.0000 0.12703  0.74548  0.37866  Biso   1.000  Hf
  Hf27     1.0000 0.37866  0.74549  0.12702  Biso   1.000  Hf
  Hf28     1.0000 0.38010  0.50183  0.38010  Biso   1.000  Hf
  Hf29     1.0000 0.00746  0.64902  0.00747  Biso   1.000  Hf
  Hf30     1.0000 0.99647  0.59149  0.25335  Biso   1.000  Hf
  Hf31     1.0000 0.99751  0.83986  0.25231  Biso   1.000  Hf
  Hf32     1.0000 0.99325  0.89150  0.99325  Biso   1.000  Hf
  Hf33     1.0000 0.24235  0.64903  0.24235  Biso   1.000  Hf
  Hf34     1.0000 0.25334  0.59149  0.99646  Biso   1.000  Hf
  Hf35     1.0000 0.25231  0.83986  0.99751  Biso   1.000  Hf
  Hf36     1.0000 0.25657  0.89150  0.25657  Biso   1.000  Hf
  Hf37     1.0000 0.12491  0.50169  0.62491  Biso   1.000  Hf
  Hf38     1.0000 0.12280  0.74548  0.87116  Biso   1.000  Hf
  Hf39     1.0000 0.37569  0.75645  0.62502  Biso   1.000  Hf
  Hf40     1.0000 0.38006  0.50325  0.86976  Biso   1.000  Hf
  Hf41     1.0000 0.99821  0.64878  0.50503  Biso   1.000  Hf
  Hf42     1.0000 0.00264  0.60480  0.75475  Biso   1.000  Hf
  Hf43     1.0000 0.00239  0.85379  0.74702  Biso   1.000  Hf
  Hf44     1.0000 0.99937  0.89981  0.49879  Biso   1.000  Hf
  Hf45     1.0000 0.25160  0.64878  0.74478  Biso   1.000  Hf
  Hf46     1.0000 0.24717  0.60480  0.49506  Biso   1.000  Hf
  Hf47     1.0000 0.24744  0.85379  0.50279  Biso   1.000  Hf
  Hf48     1.0000 0.25045  0.89981  0.75103  Biso   1.000  Hf
  Hf49     1.0000 0.62491  0.99821  0.12491  Biso   1.000  Hf
  Hf50     1.0000 0.63002  0.24785  0.37520  Biso   1.000  Hf
  Hf51     1.0000 0.86777  0.25726  0.11701  Biso   1.000  Hf
  Hf52     1.0000 0.88139  0.00326  0.36843  Biso   1.000  Hf
  Hf53     1.0000 0.49320  0.14886  0.00046  Biso   1.000  Hf
  Hf54     1.0000 0.50821  0.10436  0.25477  Biso   1.000  Hf
  Hf55     1.0000 0.51029  0.35772  0.25464  Biso   1.000  Hf
  Hf56     1.0000 0.49046  0.40134  0.00557  Biso   1.000  Hf
  Hf57     1.0000 0.75662  0.14886  0.24936  Biso   1.000  Hf
  Hf58     1.0000 0.74161  0.10436  0.99505  Biso   1.000  Hf
  Hf59     1.0000 0.73952  0.35772  0.99518  Biso   1.000  Hf
  Hf60     1.0000 0.75935  0.40134  0.24425  Biso   1.000  Hf
  Hf61     1.0000 0.62491  0.00313  0.62491  Biso   1.000  Hf
  Hf62     1.0000 0.61980  0.24785  0.87461  Biso   1.000  Hf
  Hf63     1.0000 0.87461  0.24785  0.61979  Biso   1.000  Hf
  Hf64     1.0000 0.87470  0.00470  0.87470  Biso   1.000  Hf
  Hf65     1.0000 0.50427  0.15202  0.50427  Biso   1.000  Hf
  Hf66     1.0000 0.49729  0.10232  0.75253  Biso   1.000  Hf
  Hf67     1.0000 0.49595  0.35458  0.75386  Biso   1.000  Hf
  Hf68     1.0000 0.50332  0.40028  0.50332  Biso   1.000  Hf
  Hf69     1.0000 0.74555  0.15202  0.74555  Biso   1.000  Hf
  Hf70     1.0000 0.75253  0.10232  0.49729  Biso   1.000  Hf
  Hf71     1.0000 0.75386  0.35459  0.49596  Biso   1.000  Hf
  Hf72     1.0000 0.74649  0.40028  0.74650  Biso   1.000  Hf
  Hf73     1.0000 0.62491  0.50169  0.12491  Biso   1.000  Hf
  Hf74     1.0000 0.62502  0.75645  0.37569  Biso   1.000  Hf
  Hf75     1.0000 0.87116  0.74548  0.12279  Biso   1.000  Hf
  Hf76     1.0000 0.86975  0.50325  0.38006  Biso   1.000  Hf
  Hf77     1.0000 0.50503  0.64878  0.99821  Biso   1.000  Hf
  Hf78     1.0000 0.49506  0.60480  0.24717  Biso   1.000  Hf
  Hf79     1.0000 0.50279  0.85379  0.24744  Biso   1.000  Hf
  Hf80     1.0000 0.49879  0.89981  0.99937  Biso   1.000  Hf
  Hf81     1.0000 0.74478  0.64878  0.25160  Biso   1.000  Hf
  Hf82     1.0000 0.75475  0.60480  0.00264  Biso   1.000  Hf
  Hf83     1.0000 0.74702  0.85379  0.00238  Biso   1.000  Hf
  Hf84     1.0000 0.75103  0.89981  0.25045  Biso   1.000  Hf
  Hf85     1.0000 0.62491  0.50254  0.62491  Biso   1.000  Hf
  Hf86     1.0000 0.62480  0.75645  0.87413  Biso   1.000  Hf
  Hf87     1.0000 0.87413  0.75645  0.62480  Biso   1.000  Hf
  Hf88     1.0000 0.86971  0.50183  0.86971  Biso   1.000  Hf
  Hf89     1.0000 0.49820  0.65224  0.49820  Biso   1.000  Hf
  Hf90     1.0000 0.50170  0.60654  0.74812  Biso   1.000  Hf
  Hf91     1.0000 0.50208  0.85454  0.74774  Biso   1.000  Hf
  Hf92     1.0000 0.49910  0.90266  0.49910  Biso   1.000  Hf
  Hf93     1.0000 0.75161  0.65224  0.75161  Biso   1.000  Hf
  Hf94     1.0000 0.74812  0.60655  0.50170  Biso   1.000  Hf
  Hf95     1.0000 0.74775  0.85454  0.50207  Biso   1.000  Hf
  Hf96     1.0000 0.75072  0.90266  0.75072  Biso   1.000  Hf
  Cr1      1.0000 0.12491  0.19891  0.12491  Biso   1.000  Cr
