data_image0
_cell_length_a       10.016
_cell_length_b       5.20352
_cell_length_c       10.0577
_cell_angle_alpha    89.6958
_cell_angle_beta     89.797
_cell_angle_gamma    89.9781

_symmetry_space_group_name_H-M    "P 1"
_symmetry_int_tables_number       1

loop_
  _symmetry_equiv_pos_as_xyz
  'x, y, z'

loop_
  _atom_site_label
  _atom_site_occupancy
  _atom_site_fract_x
  _atom_site_fract_y
  _atom_site_fract_z
  _atom_site_thermal_displace_type
  _atom_site_B_iso_or_equiv
  _atom_site_type_symbol
  Hf1      1.0000 0.13547  0.07726  0.11820  Biso   1.000  Hf
  Hf2      1.0000 0.13671  0.46442  0.38749  Biso   1.000  Hf
  Hf3      1.0000 0.36685  0.53342  0.12472  Biso   1.000  Hf
  Hf4      1.0000 0.36567  0.96670  0.37627  Biso   1.000  Hf
  Hf5      1.0000 0.00837  0.33830  0.22668  Biso   1.000  Hf
  Hf6      1.0000 0.03769  0.12963  0.45440  Biso   1.000  Hf
  Hf7      1.0000 0.46163  0.86814  0.19540  Biso   1.000  Hf
  Hf8      1.0000 0.46523  0.63341  0.44537  Biso   1.000  Hf
  Hf9      1.0000 0.26936  0.24443  0.25243  Biso   1.000  Hf
  Hf10     1.0000 0.27361  0.26115  0.50210  Biso   1.000  Hf
  Hf11     1.0000 0.23234  0.76299  0.50344  Biso   1.000  Hf
  Hf12     1.0000 0.22956  0.73777  0.25529  Biso   1.000  Hf
  Hf13     1.0000 0.13549  0.02755  0.62967  Biso   1.000  Hf
  Hf14     1.0000 0.13772  0.46014  0.87069  Biso   1.000  Hf
  Hf15     1.0000 0.37015  0.53140  0.62635  Biso   1.000  Hf
  Hf16     1.0000 0.37153  0.96367  0.87331  Biso   1.000  Hf
  Hf17     1.0000 0.03785  0.36556  0.69262  Biso   1.000  Hf
  Hf18     1.0000 0.03802  0.12767  0.93984  Biso   1.000  Hf
  Hf19     1.0000 0.46906  0.86446  0.69281  Biso   1.000  Hf
  Hf20     1.0000 0.46800  0.63121  0.94462  Biso   1.000  Hf
  Hf21     1.0000 0.27253  0.23117  0.74795  Biso   1.000  Hf
  Hf22     1.0000 0.28664  0.25690  0.99149  Biso   1.000  Hf
  Hf23     1.0000 0.23230  0.77436  0.00142  Biso   1.000  Hf
  Hf24     1.0000 0.23538  0.73227  0.75089  Biso   1.000  Hf
  Hf25     1.0000 0.62924  0.02897  0.12424  Biso   1.000  Hf
  Hf26     1.0000 0.63263  0.46455  0.37657  Biso   1.000  Hf
  Hf27     1.0000 0.84824  0.52562  0.12593  Biso   1.000  Hf
  Hf28     1.0000 0.87350  0.97353  0.37075  Biso   1.000  Hf
  Hf29     1.0000 0.53431  0.36622  0.19413  Biso   1.000  Hf
  Hf30     1.0000 0.53553  0.13168  0.44504  Biso   1.000  Hf
  Hf31     1.0000 0.96444  0.85919  0.18726  Biso   1.000  Hf
  Hf32     1.0000 0.96828  0.64123  0.44793  Biso   1.000  Hf
  Hf33     1.0000 0.76029  0.22606  0.24887  Biso   1.000  Hf
  Hf34     1.0000 0.77240  0.26948  0.49676  Biso   1.000  Hf
  Hf35     1.0000 0.73447  0.77006  0.49677  Biso   1.000  Hf
  Hf36     1.0000 0.72671  0.73314  0.24978  Biso   1.000  Hf
  Hf37     1.0000 0.63827  0.03038  0.62302  Biso   1.000  Hf
  Hf38     1.0000 0.63493  0.46221  0.87241  Biso   1.000  Hf
  Hf39     1.0000 0.86816  0.53315  0.62435  Biso   1.000  Hf
  Hf40     1.0000 0.86694  0.95968  0.87537  Biso   1.000  Hf
  Hf41     1.0000 0.53888  0.36460  0.69331  Biso   1.000  Hf
  Hf42     1.0000 0.54104  0.12755  0.94120  Biso   1.000  Hf
  Hf43     1.0000 0.96766  0.86103  0.69920  Biso   1.000  Hf
  Hf44     1.0000 0.96089  0.62428  0.94304  Biso   1.000  Hf
  Hf45     1.0000 0.77324  0.23102  0.74761  Biso   1.000  Hf
  Hf46     1.0000 0.77022  0.25766  0.99852  Biso   1.000  Hf
  Hf47     1.0000 0.72675  0.75810  0.99938  Biso   1.000  Hf
  Hf48     1.0000 0.73182  0.73255  0.74798  Biso   1.000  Hf
  Cu1      1.0000 0.09931  0.58640  0.11391  Biso   1.000  Cu
