data_image0
_cell_length_a       10.0951
_cell_length_b       10.1804
_cell_length_c       10.0153
_cell_angle_alpha    90.2002
_cell_angle_beta     87.5755
_cell_angle_gamma    90.2585

_symmetry_space_group_name_H-M    "P 1"
_symmetry_int_tables_number       1

loop_
  _symmetry_equiv_pos_as_xyz
  'x, y, z'

loop_
  _atom_site_label
  _atom_site_occupancy
  _atom_site_fract_x
  _atom_site_fract_y
  _atom_site_fract_z
  _atom_site_thermal_displace_type
  _atom_site_B_iso_or_equiv
  _atom_site_type_symbol
  Cu1      1.0000 0.11434  0.95728  0.13807  Biso   1.000  Cu
  Hf1      1.0000 0.12608  0.25274  0.36432  Biso   1.000  Hf
  Hf2      1.0000 0.35106  0.26798  0.12356  Biso   1.000  Hf
  Hf3      1.0000 0.37764  0.99601  0.37196  Biso   1.000  Hf
  Hf4      1.0000 0.96879  0.16216  0.99433  Biso   1.000  Hf
  Hf5      1.0000 0.03679  0.07792  0.25985  Biso   1.000  Hf
  Hf6      1.0000 0.99532  0.34556  0.24645  Biso   1.000  Hf
  Hf7      1.0000 0.98296  0.40660  0.99828  Biso   1.000  Hf
  Hf8      1.0000 0.28951  0.16045  0.28573  Biso   1.000  Hf
  Hf9      1.0000 0.22711  0.12036  0.02492  Biso   1.000  Hf
  Hf10     1.0000 0.23140  0.36739  0.99717  Biso   1.000  Hf
  Hf11     1.0000 0.23721  0.40635  0.24594  Biso   1.000  Hf
  Hf12     1.0000 0.13589  0.00604  0.63428  Biso   1.000  Hf
  Hf13     1.0000 0.11187  0.24893  0.88865  Biso   1.000  Hf
  Hf14     1.0000 0.38788  0.24325  0.63207  Biso   1.000  Hf
  Hf15     1.0000 0.34949  0.01435  0.90074  Biso   1.000  Hf
  Hf16     1.0000 0.04680  0.15340  0.51887  Biso   1.000  Hf
  Hf17     1.0000 0.99636  0.10515  0.75640  Biso   1.000  Hf
  Hf18     1.0000 0.02192  0.35778  0.74809  Biso   1.000  Hf
  Hf19     1.0000 0.00644  0.39671  0.49797  Biso   1.000  Hf
  Hf20     1.0000 0.24558  0.14633  0.76951  Biso   1.000  Hf
  Hf21     1.0000 0.30064  0.08630  0.53667  Biso   1.000  Hf
  Hf22     1.0000 0.25973  0.34059  0.49804  Biso   1.000  Hf
  Hf23     1.0000 0.27672  0.39332  0.73957  Biso   1.000  Hf
  Hf24     1.0000 0.11443  0.51078  0.11723  Biso   1.000  Hf
  Hf25     1.0000 0.12689  0.75404  0.38488  Biso   1.000  Hf
  Hf26     1.0000 0.36501  0.74237  0.11694  Biso   1.000  Hf
  Hf27     1.0000 0.37735  0.48898  0.37882  Biso   1.000  Hf
  Hf28     1.0000 0.00271  0.66096  0.98380  Biso   1.000  Hf
  Hf29     1.0000 0.94807  0.58603  0.21720  Biso   1.000  Hf
  Hf30     1.0000 0.98399  0.83112  0.26327  Biso   1.000  Hf
  Hf31     1.0000 0.96790  0.91819  0.03490  Biso   1.000  Hf
  Hf32     1.0000 0.19910  0.66546  0.21672  Biso   1.000  Hf
  Hf33     1.0000 0.25503  0.61048  0.97933  Biso   1.000  Hf
  Hf34     1.0000 0.21722  0.86318  0.00805  Biso   1.000  Hf
  Hf35     1.0000 0.24316  0.90484  0.25326  Biso   1.000  Hf
  Hf36     1.0000 0.14430  0.48251  0.62263  Biso   1.000  Hf
  Hf37     1.0000 0.14158  0.74209  0.85569  Biso   1.000  Hf
  Hf38     1.0000 0.39624  0.76329  0.62397  Biso   1.000  Hf
  Hf39     1.0000 0.38833  0.50265  0.86203  Biso   1.000  Hf
  Hf40     1.0000 0.96815  0.65425  0.47397  Biso   1.000  Hf
  Hf41     1.0000 0.01425  0.61223  0.73092  Biso   1.000  Hf
  Hf42     1.0000 0.01932  0.86246  0.75846  Biso   1.000  Hf
  Hf43     1.0000 0.01339  0.90272  0.50666  Biso   1.000  Hf
  Hf44     1.0000 0.26158  0.63899  0.72411  Biso   1.000  Hf
  Hf45     1.0000 0.21830  0.58884  0.46533  Biso   1.000  Hf
  Hf46     1.0000 0.25889  0.84775  0.50136  Biso   1.000  Hf
  Hf47     1.0000 0.27170  0.89059  0.75793  Biso   1.000  Hf
  Hf48     1.0000 0.60400  0.97945  0.12334  Biso   1.000  Hf
  Hf49     1.0000 0.62573  0.25563  0.36929  Biso   1.000  Hf
  Hf50     1.0000 0.85541  0.26733  0.12214  Biso   1.000  Hf
  Hf51     1.0000 0.87869  0.99361  0.36766  Biso   1.000  Hf
  Hf52     1.0000 0.48087  0.13720  0.02482  Biso   1.000  Hf
  Hf53     1.0000 0.53844  0.08965  0.28101  Biso   1.000  Hf
  Hf54     1.0000 0.49384  0.34728  0.25015  Biso   1.000  Hf
  Hf55     1.0000 0.48086  0.39056  0.99930  Biso   1.000  Hf
  Hf56     1.0000 0.78941  0.15986  0.28297  Biso   1.000  Hf
  Hf57     1.0000 0.72970  0.10848  0.02329  Biso   1.000  Hf
  Hf58     1.0000 0.72804  0.35860  0.99982  Biso   1.000  Hf
  Hf59     1.0000 0.73776  0.40669  0.24801  Biso   1.000  Hf
  Hf60     1.0000 0.63615  0.00499  0.63434  Biso   1.000  Hf
  Hf61     1.0000 0.60839  0.23776  0.89399  Biso   1.000  Hf
  Hf62     1.0000 0.88646  0.24260  0.63038  Biso   1.000  Hf
  Hf63     1.0000 0.86657  0.01256  0.89307  Biso   1.000  Hf
  Hf64     1.0000 0.55049  0.16010  0.53292  Biso   1.000  Hf
  Hf65     1.0000 0.49376  0.09860  0.77181  Biso   1.000  Hf
  Hf66     1.0000 0.52331  0.35253  0.75291  Biso   1.000  Hf
  Hf67     1.0000 0.50472  0.39775  0.50178  Biso   1.000  Hf
  Hf68     1.0000 0.74653  0.14977  0.76907  Biso   1.000  Hf
  Hf69     1.0000 0.80022  0.08596  0.53252  Biso   1.000  Hf
  Hf70     1.0000 0.76057  0.34262  0.49869  Biso   1.000  Hf
  Hf71     1.0000 0.77960  0.39692  0.73800  Biso   1.000  Hf
  Hf72     1.0000 0.61551  0.50597  0.11624  Biso   1.000  Hf
  Hf73     1.0000 0.62695  0.75747  0.38095  Biso   1.000  Hf
  Hf74     1.0000 0.86407  0.74812  0.11939  Biso   1.000  Hf
  Hf75     1.0000 0.87542  0.49018  0.38079  Biso   1.000  Hf
  Hf76     1.0000 0.50484  0.64409  0.98191  Biso   1.000  Hf
  Hf77     1.0000 0.44697  0.58572  0.21442  Biso   1.000  Hf
  Hf78     1.0000 0.48597  0.84262  0.24925  Biso   1.000  Hf
  Hf79     1.0000 0.47242  0.88928  0.99968  Biso   1.000  Hf
  Hf80     1.0000 0.69690  0.66406  0.21523  Biso   1.000  Hf
  Hf81     1.0000 0.75414  0.60433  0.98174  Biso   1.000  Hf
  Hf82     1.0000 0.73283  0.85620  0.99724  Biso   1.000  Hf
  Hf83     1.0000 0.74305  0.90235  0.25099  Biso   1.000  Hf
  Hf84     1.0000 0.64429  0.48328  0.62445  Biso   1.000  Hf
  Hf85     1.0000 0.63848  0.74349  0.85940  Biso   1.000  Hf
  Hf86     1.0000 0.89390  0.77023  0.62921  Biso   1.000  Hf
  Hf87     1.0000 0.88733  0.50900  0.85936  Biso   1.000  Hf
  Hf88     1.0000 0.46863  0.65471  0.46772  Biso   1.000  Hf
  Hf89     1.0000 0.51035  0.60435  0.72923  Biso   1.000  Hf
  Hf90     1.0000 0.53012  0.85051  0.73705  Biso   1.000  Hf
  Hf91     1.0000 0.51325  0.90536  0.49865  Biso   1.000  Hf
  Hf92     1.0000 0.76083  0.64287  0.72760  Biso   1.000  Hf
  Hf93     1.0000 0.71704  0.59047  0.46649  Biso   1.000  Hf
  Hf94     1.0000 0.75881  0.84689  0.50044  Biso   1.000  Hf
  Hf95     1.0000 0.77108  0.89724  0.75234  Biso   1.000  Hf
