data_image0
_cell_length_a       10.0567
_cell_length_b       10.2715
_cell_length_c       5.25528
_cell_angle_alpha    89.8289
_cell_angle_beta     90.8192
_cell_angle_gamma    90.0116

_symmetry_space_group_name_H-M    "P 1"
_symmetry_int_tables_number       1

loop_
  _symmetry_equiv_pos_as_xyz
  'x, y, z'

loop_
  _atom_site_label
  _atom_site_occupancy
  _atom_site_fract_x
  _atom_site_fract_y
  _atom_site_fract_z
  _atom_site_thermal_displace_type
  _atom_site_B_iso_or_equiv
  _atom_site_type_symbol
  Hf1      1.0000 0.13967  0.02002  0.34699  Biso   1.000  Hf
  Hf2      1.0000 0.13724  0.22691  0.85143  Biso   1.000  Hf
  Hf3      1.0000 0.35236  0.26945  0.36491  Biso   1.000  Hf
  Hf4      1.0000 0.36104  0.48063  0.84686  Biso   1.000  Hf
  Hf5      1.0000 0.64228  0.02207  0.14926  Biso   1.000  Hf
  Hf6      1.0000 0.64275  0.22484  0.66300  Biso   1.000  Hf
  Hf7      1.0000 0.86026  0.26861  0.15448  Biso   1.000  Hf
  Hf8      1.0000 0.86499  0.47941  0.65463  Biso   1.000  Hf
  O1       1.0000 0.03429  0.16479  0.17095  Biso   1.000  O
  O2       1.0000 0.03565  0.08282  0.66778  Biso   1.000  O
  O3       1.0000 0.46503  0.42209  0.18341  Biso   1.000  O
  O4       1.0000 0.46842  0.33456  0.67496  Biso   1.000  O
  O5       1.0000 0.27470  0.12417  0.60050  Biso   1.000  O
  O6       1.0000 0.27740  0.12456  0.09836  Biso   1.000  O
  O7       1.0000 0.22231  0.37408  0.60025  Biso   1.000  O
  O8       1.0000 0.22482  0.37553  0.09811  Biso   1.000  O
  O9       1.0000 0.52217  0.15182  0.36160  Biso   1.000  O
  O10      1.0000 0.53464  0.07503  0.82797  Biso   1.000  O
  O11      1.0000 0.96705  0.41410  0.33459  Biso   1.000  O
  O12      1.0000 0.96894  0.33436  0.83469  Biso   1.000  O
  O13      1.0000 0.78954  0.11810  0.89887  Biso   1.000  O
  O14      1.0000 0.77749  0.12501  0.40827  Biso   1.000  O
  O15      1.0000 0.73155  0.38207  0.90489  Biso   1.000  O
  O16      1.0000 0.72272  0.37674  0.40850  Biso   1.000  O
  Hf9      1.0000 0.13822  0.52069  0.34337  Biso   1.000  Hf
  Hf10     1.0000 0.14015  0.72867  0.84468  Biso   1.000  Hf
  Hf11     1.0000 0.36239  0.77162  0.34687  Biso   1.000  Hf
  Hf12     1.0000 0.36230  0.97621  0.85070  Biso   1.000  Hf
  Hf13     1.0000 0.64321  0.53052  0.15735  Biso   1.000  Hf
  Hf14     1.0000 0.64048  0.73110  0.65682  Biso   1.000  Hf
  Hf15     1.0000 0.86409  0.77257  0.15648  Biso   1.000  Hf
  Hf16     1.0000 0.86378  0.97717  0.65458  Biso   1.000  Hf
  O17      1.0000 0.03446  0.66424  0.16601  Biso   1.000  O
  O18      1.0000 0.03532  0.58469  0.66641  Biso   1.000  O
  O19      1.0000 0.46913  0.91231  0.16837  Biso   1.000  O
  O20      1.0000 0.46747  0.83251  0.66987  Biso   1.000  O
  O21      1.0000 0.27730  0.62269  0.59139  Biso   1.000  O
  O22      1.0000 0.27719  0.62495  0.09182  Biso   1.000  O
  O23      1.0000 0.22529  0.87293  0.59445  Biso   1.000  O
  O24      1.0000 0.22397  0.87448  0.09542  Biso   1.000  O
  O25      1.0000 0.53467  0.66690  0.33534  Biso   1.000  O
  O26      1.0000 0.53365  0.58573  0.83613  Biso   1.000  O
  O27      1.0000 0.96988  0.91474  0.33156  Biso   1.000  O
  O28      1.0000 0.96923  0.83348  0.83384  Biso   1.000  O
  O29      1.0000 0.77813  0.62698  0.90788  Biso   1.000  O
  O30      1.0000 0.77911  0.62768  0.40877  Biso   1.000  O
  O31      1.0000 0.72596  0.87382  0.91054  Biso   1.000  O
  O32      1.0000 0.72652  0.87484  0.40949  Biso   1.000  O
  Cu1      1.0000 0.57962  0.27700  0.11717  Biso   1.000  Cu
