data_image0
_cell_length_a       10.136
_cell_length_b       10.3663
_cell_length_c       5.20086
_cell_angle_alpha    90.8392
_cell_angle_beta     79.5818
_cell_angle_gamma    90.2029

_symmetry_space_group_name_H-M    "P 1"
_symmetry_int_tables_number       1

loop_
  _symmetry_equiv_pos_as_xyz
  'x, y, z'

loop_
  _atom_site_label
  _atom_site_occupancy
  _atom_site_fract_x
  _atom_site_fract_y
  _atom_site_fract_z
  _atom_site_thermal_displace_type
  _atom_site_B_iso_or_equiv
  _atom_site_type_symbol
  Hf1      1.0000 0.13216  0.02136  0.29716  Biso   1.000  Hf
  Hf2      1.0000 0.14295  0.23381  0.77811  Biso   1.000  Hf
  Hf3      1.0000 0.35435  0.28122  0.20829  Biso   1.000  Hf
  Hf4      1.0000 0.35750  0.47409  0.69365  Biso   1.000  Hf
  O1       1.0000 0.04258  0.17201  0.15629  Biso   1.000  O
  O2       1.0000 0.03479  0.07954  0.66565  Biso   1.000  O
  O3       1.0000 0.45813  0.43545  0.31664  Biso   1.000  O
  O4       1.0000 0.47300  0.33305  0.83806  Biso   1.000  O
  O5       1.0000 0.27629  0.12529  0.46330  Biso   1.000  O
  O6       1.0000 0.29431  0.13479  0.94270  Biso   1.000  O
  O7       1.0000 0.21949  0.38453  0.00397  Biso   1.000  O
  O8       1.0000 0.20656  0.37908  0.49800  Biso   1.000  O
  Hf5      1.0000 0.13587  0.52584  0.28386  Biso   1.000  Hf
  Hf6      1.0000 0.13570  0.72865  0.79237  Biso   1.000  Hf
  Hf7      1.0000 0.35890  0.76808  0.20848  Biso   1.000  Hf
  Hf8      1.0000 0.36065  0.96619  0.70885  Biso   1.000  Hf
  O9       1.0000 0.03256  0.67537  0.16448  Biso   1.000  O
  O10      1.0000 0.03242  0.58310  0.66206  Biso   1.000  O
  O11      1.0000 0.46366  0.91945  0.33917  Biso   1.000  O
  O12      1.0000 0.46070  0.82049  0.83808  Biso   1.000  O
  O13      1.0000 0.27425  0.62904  0.48108  Biso   1.000  O
  O14      1.0000 0.27345  0.62270  0.97826  Biso   1.000  O
  O15      1.0000 0.22158  0.88353  0.02162  Biso   1.000  O
  O16      1.0000 0.21948  0.86728  0.51691  Biso   1.000  O
  Hf9      1.0000 0.63721  0.02117  0.30866  Biso   1.000  Hf
  Hf10     1.0000 0.64640  0.23164  0.80490  Biso   1.000  Hf
  Hf11     1.0000 0.86384  0.27160  0.21185  Biso   1.000  Hf
  Hf12     1.0000 0.86134  0.47863  0.71113  Biso   1.000  Hf
  O17      1.0000 0.52963  0.18279  0.23617  Biso   1.000  O
  O18      1.0000 0.54565  0.06380  0.70975  Biso   1.000  O
  O19      1.0000 0.96009  0.42515  0.33214  Biso   1.000  O
  O20      1.0000 0.96178  0.32939  0.83503  Biso   1.000  O
  O21      1.0000 0.77873  0.13073  0.49172  Biso   1.000  O
  O22      1.0000 0.77301  0.12054  0.99915  Biso   1.000  O
  O23      1.0000 0.72487  0.37911  0.02827  Biso   1.000  O
  O24      1.0000 0.72398  0.36947  0.52549  Biso   1.000  O
  Hf13     1.0000 0.63742  0.52335  0.29697  Biso   1.000  Hf
  Hf14     1.0000 0.63753  0.72644  0.79739  Biso   1.000  Hf
  Hf15     1.0000 0.85697  0.77196  0.21200  Biso   1.000  Hf
  Hf16     1.0000 0.85829  0.97874  0.71789  Biso   1.000  Hf
  O25      1.0000 0.53744  0.67488  0.17274  Biso   1.000  O
  O26      1.0000 0.53504  0.57614  0.66986  Biso   1.000  O
  O27      1.0000 0.96010  0.92203  0.34177  Biso   1.000  O
  O28      1.0000 0.96105  0.83147  0.84049  Biso   1.000  O
  O29      1.0000 0.77526  0.63025  0.48644  Biso   1.000  O
  O30      1.0000 0.77487  0.62080  0.98607  Biso   1.000  O
  O31      1.0000 0.72083  0.88067  0.02704  Biso   1.000  O
  O32      1.0000 0.72165  0.87089  0.52591  Biso   1.000  O
  Fe1      1.0000 0.41696  0.19438  0.62410  Biso   1.000  Fe
