data_image0
_cell_length_a       10.0297
_cell_length_b       10.1978
_cell_length_c       10.4492
_cell_angle_alpha    89.9652
_cell_angle_beta     90.3391
_cell_angle_gamma    89.7937

_symmetry_space_group_name_H-M    "P 1"
_symmetry_int_tables_number       1

loop_
  _symmetry_equiv_pos_as_xyz
  'x, y, z'

loop_
  _atom_site_label
  _atom_site_occupancy
  _atom_site_fract_x
  _atom_site_fract_y
  _atom_site_fract_z
  _atom_site_thermal_displace_type
  _atom_site_B_iso_or_equiv
  _atom_site_type_symbol
  Ga1      1.0000 0.12274  0.01128  0.18500  Biso   1.000  Ga
  Hf1      1.0000 0.13829  0.22813  0.41756  Biso   1.000  Hf
  Hf2      1.0000 0.35731  0.26776  0.17004  Biso   1.000  Hf
  Hf3      1.0000 0.36012  0.47887  0.42150  Biso   1.000  Hf
  Hf4      1.0000 0.63995  0.02136  0.07758  Biso   1.000  Hf
  Hf5      1.0000 0.63838  0.22963  0.32759  Biso   1.000  Hf
  Hf6      1.0000 0.86922  0.26579  0.08114  Biso   1.000  Hf
  Hf7      1.0000 0.86066  0.47922  0.32859  Biso   1.000  Hf
  O1       1.0000 0.04463  0.15640  0.08709  Biso   1.000  O
  O2       1.0000 0.02952  0.08325  0.33718  Biso   1.000  O
  O3       1.0000 0.46759  0.41397  0.08366  Biso   1.000  O
  O4       1.0000 0.46708  0.33499  0.33407  Biso   1.000  O
  O5       1.0000 0.27199  0.12121  0.28856  Biso   1.000  O
  O6       1.0000 0.29590  0.14032  0.03035  Biso   1.000  O
  O7       1.0000 0.22312  0.37422  0.29574  Biso   1.000  O
  O8       1.0000 0.22165  0.38088  0.04573  Biso   1.000  O
  O9       1.0000 0.53387  0.16524  0.16590  Biso   1.000  O
  O10      1.0000 0.53128  0.08496  0.41494  Biso   1.000  O
  O11      1.0000 0.96914  0.41388  0.16823  Biso   1.000  O
  O12      1.0000 0.96642  0.33543  0.41719  Biso   1.000  O
  O13      1.0000 0.77449  0.12409  0.45552  Biso   1.000  O
  O14      1.0000 0.77715  0.12531  0.20513  Biso   1.000  O
  O15      1.0000 0.72340  0.37444  0.45536  Biso   1.000  O
  O16      1.0000 0.72617  0.37462  0.20511  Biso   1.000  O
  Hf8      1.0000 0.13847  0.02100  0.66934  Biso   1.000  Hf
  Hf9      1.0000 0.14403  0.22500  0.92327  Biso   1.000  Hf
  Hf10     1.0000 0.36038  0.27132  0.67098  Biso   1.000  Hf
  Hf11     1.0000 0.36073  0.47887  0.92258  Biso   1.000  Hf
  Hf12     1.0000 0.63709  0.02092  0.57814  Biso   1.000  Hf
  Hf13     1.0000 0.64033  0.22949  0.82910  Biso   1.000  Hf
  Hf14     1.0000 0.86091  0.27094  0.57880  Biso   1.000  Hf
  Hf15     1.0000 0.86340  0.47757  0.83112  Biso   1.000  Hf
  O17      1.0000 0.03259  0.16514  0.58225  Biso   1.000  O
  O18      1.0000 0.03333  0.08542  0.83184  Biso   1.000  O
  O19      1.0000 0.46746  0.41538  0.58358  Biso   1.000  O
  O20      1.0000 0.46880  0.33617  0.83270  Biso   1.000  O
  O21      1.0000 0.27598  0.12225  0.78914  Biso   1.000  O
  O22      1.0000 0.27593  0.12736  0.54123  Biso   1.000  O
  O23      1.0000 0.22527  0.37324  0.79599  Biso   1.000  O
  O24      1.0000 0.22306  0.37657  0.54512  Biso   1.000  O
  O25      1.0000 0.53289  0.16617  0.66560  Biso   1.000  O
  O26      1.0000 0.53676  0.08288  0.91346  Biso   1.000  O
  O27      1.0000 0.96839  0.41352  0.66898  Biso   1.000  O
  O28      1.0000 0.97077  0.33300  0.92070  Biso   1.000  O
  O29      1.0000 0.77952  0.12308  0.95562  Biso   1.000  O
  O30      1.0000 0.77632  0.12633  0.70476  Biso   1.000  O
  O31      1.0000 0.72703  0.37192  0.95670  Biso   1.000  O
  O32      1.0000 0.72486  0.37643  0.70585  Biso   1.000  O
  Hf16     1.0000 0.13973  0.52229  0.17175  Biso   1.000  Hf
  Hf17     1.0000 0.13831  0.72974  0.42114  Biso   1.000  Hf
  Hf18     1.0000 0.35728  0.77594  0.17051  Biso   1.000  Hf
  Hf19     1.0000 0.35759  0.98111  0.41802  Biso   1.000  Hf
  Hf20     1.0000 0.63906  0.51954  0.07855  Biso   1.000  Hf
  Hf21     1.0000 0.63664  0.72883  0.32734  Biso   1.000  Hf
  Hf22     1.0000 0.86099  0.77129  0.07911  Biso   1.000  Hf
  Hf23     1.0000 0.85837  0.97841  0.32990  Biso   1.000  Hf
  O33      1.0000 0.03295  0.66543  0.08370  Biso   1.000  O
  O34      1.0000 0.03194  0.58556  0.33378  Biso   1.000  O
  O35      1.0000 0.46942  0.91423  0.08211  Biso   1.000  O
  O36      1.0000 0.46473  0.83608  0.33273  Biso   1.000  O
  O37      1.0000 0.27584  0.62524  0.29511  Biso   1.000  O
  O38      1.0000 0.27707  0.62985  0.04498  Biso   1.000  O
  O39      1.0000 0.21828  0.87517  0.29315  Biso   1.000  O
  O40      1.0000 0.22183  0.88446  0.04637  Biso   1.000  O
  O41      1.0000 0.53063  0.66462  0.16616  Biso   1.000  O
  O42      1.0000 0.53152  0.58560  0.41681  Biso   1.000  O
  O43      1.0000 0.96388  0.91343  0.16867  Biso   1.000  O
  O44      1.0000 0.96529  0.83397  0.41779  Biso   1.000  O
  O45      1.0000 0.77533  0.62371  0.45490  Biso   1.000  O
  O46      1.0000 0.77524  0.62592  0.20484  Biso   1.000  O
  O47      1.0000 0.72156  0.87327  0.45533  Biso   1.000  O
  O48      1.0000 0.72186  0.87571  0.20522  Biso   1.000  O
  Hf24     1.0000 0.13951  0.52107  0.67267  Biso   1.000  Hf
  Hf25     1.0000 0.14014  0.73258  0.92286  Biso   1.000  Hf
  Hf26     1.0000 0.36103  0.77184  0.67162  Biso   1.000  Hf
  Hf27     1.0000 0.35981  0.98132  0.92295  Biso   1.000  Hf
  Hf28     1.0000 0.63922  0.52087  0.57880  Biso   1.000  Hf
  Hf29     1.0000 0.63933  0.72897  0.82881  Biso   1.000  Hf
  Hf30     1.0000 0.86000  0.77015  0.57919  Biso   1.000  Hf
  Hf31     1.0000 0.86171  0.97938  0.82850  Biso   1.000  Hf
  O49      1.0000 0.03230  0.66430  0.58392  Biso   1.000  O
  O50      1.0000 0.03391  0.58552  0.83520  Biso   1.000  O
  O51      1.0000 0.46578  0.91573  0.58255  Biso   1.000  O
  O52      1.0000 0.46789  0.83548  0.83294  Biso   1.000  O
  O53      1.0000 0.27653  0.62434  0.79547  Biso   1.000  O
  O54      1.0000 0.27590  0.62653  0.54543  Biso   1.000  O
  O55      1.0000 0.22361  0.87390  0.79478  Biso   1.000  O
  O56      1.0000 0.22300  0.87681  0.54392  Biso   1.000  O
  O57      1.0000 0.53285  0.66512  0.66634  Biso   1.000  O
  O58      1.0000 0.53290  0.58471  0.91645  Biso   1.000  O
  O59      1.0000 0.96693  0.91437  0.66644  Biso   1.000  O
  O60      1.0000 0.96670  0.83496  0.91685  Biso   1.000  O
  O61      1.0000 0.77660  0.62252  0.95527  Biso   1.000  O
  O62      1.0000 0.77693  0.62537  0.70571  Biso   1.000  O
  O63      1.0000 0.72422  0.87339  0.95473  Biso   1.000  O
  O64      1.0000 0.72354  0.87611  0.70505  Biso   1.000  O
