data_image0
_cell_length_a       9.96603
_cell_length_b       10.3702
_cell_length_c       10.0095
_cell_angle_alpha    89.854
_cell_angle_beta     90.0808
_cell_angle_gamma    90.1677

_symmetry_space_group_name_H-M    "P 1"
_symmetry_int_tables_number       1

loop_
  _symmetry_equiv_pos_as_xyz
  'x, y, z'

loop_
  _atom_site_label
  _atom_site_occupancy
  _atom_site_fract_x
  _atom_site_fract_y
  _atom_site_fract_z
  _atom_site_thermal_displace_type
  _atom_site_B_iso_or_equiv
  _atom_site_type_symbol
  Hf1      1.0000 0.13846  0.01187  0.11970  Biso   1.000  Hf
  Hf2      1.0000 0.13688  0.23519  0.38465  Biso   1.000  Hf
  Hf3      1.0000 0.36217  0.26546  0.12448  Biso   1.000  Hf
  Hf4      1.0000 0.36671  0.48382  0.37543  Biso   1.000  Hf
  Hf5      1.0000 0.03028  0.19003  0.19690  Biso   1.000  Hf
  Hf6      1.0000 0.03675  0.06756  0.44455  Biso   1.000  Hf
  Hf7      1.0000 0.46072  0.43490  0.19352  Biso   1.000  Hf
  Hf8      1.0000 0.46263  0.31581  0.44452  Biso   1.000  Hf
  Hf9      1.0000 0.26449  0.11763  0.25018  Biso   1.000  Hf
  Hf10     1.0000 0.27333  0.13202  0.50090  Biso   1.000  Hf
  Hf11     1.0000 0.23033  0.38258  0.50168  Biso   1.000  Hf
  Hf12     1.0000 0.22493  0.36652  0.25097  Biso   1.000  Hf
  Hf13     1.0000 0.13486  0.01661  0.62676  Biso   1.000  Hf
  Hf14     1.0000 0.13705  0.23218  0.87907  Biso   1.000  Hf
  Hf15     1.0000 0.36663  0.26706  0.62834  Biso   1.000  Hf
  Hf16     1.0000 0.36741  0.48418  0.87576  Biso   1.000  Hf
  Hf17     1.0000 0.03680  0.18371  0.69494  Biso   1.000  Hf
  Hf18     1.0000 0.03892  0.06420  0.94426  Biso   1.000  Hf
  Hf19     1.0000 0.46550  0.43410  0.69468  Biso   1.000  Hf
  Hf20     1.0000 0.46432  0.31525  0.94294  Biso   1.000  Hf
  Hf21     1.0000 0.27188  0.11778  0.74868  Biso   1.000  Hf
  Hf22     1.0000 0.28401  0.12548  0.99467  Biso   1.000  Hf
  Hf23     1.0000 0.23215  0.38453  0.99977  Biso   1.000  Hf
  Hf24     1.0000 0.23035  0.36871  0.75084  Biso   1.000  Hf
  Hf25     1.0000 0.13265  0.51704  0.12581  Biso   1.000  Hf
  Hf26     1.0000 0.13426  0.73379  0.37598  Biso   1.000  Hf
  Hf27     1.0000 0.36669  0.76511  0.12552  Biso   1.000  Hf
  Hf28     1.0000 0.36572  0.98369  0.37438  Biso   1.000  Hf
  Hf29     1.0000 0.03638  0.68463  0.19435  Biso   1.000  Hf
  Hf30     1.0000 0.03634  0.56619  0.44502  Biso   1.000  Hf
  Hf31     1.0000 0.46301  0.93511  0.19247  Biso   1.000  Hf
  Hf32     1.0000 0.46370  0.81578  0.44255  Biso   1.000  Hf
  Hf33     1.0000 0.26985  0.61686  0.24963  Biso   1.000  Hf
  Hf34     1.0000 0.27094  0.63223  0.49940  Biso   1.000  Hf
  Hf35     1.0000 0.22963  0.88302  0.49867  Biso   1.000  Hf
  Hf36     1.0000 0.23121  0.86588  0.24861  Biso   1.000  Hf
  Hf37     1.0000 0.13457  0.51667  0.62721  Biso   1.000  Hf
  Hf38     1.0000 0.13452  0.73317  0.87517  Biso   1.000  Hf
  Hf39     1.0000 0.36734  0.76624  0.62468  Biso   1.000  Hf
  Hf40     1.0000 0.36887  0.98146  0.87351  Biso   1.000  Hf
  Hf41     1.0000 0.03707  0.68413  0.69382  Biso   1.000  Hf
  Hf42     1.0000 0.03698  0.56618  0.94398  Biso   1.000  Hf
  Hf43     1.0000 0.46538  0.93360  0.69168  Biso   1.000  Hf
  Hf44     1.0000 0.46597  0.81464  0.94483  Biso   1.000  Hf
  Hf45     1.0000 0.27163  0.61811  0.74957  Biso   1.000  Hf
  Hf46     1.0000 0.27076  0.63204  0.99965  Biso   1.000  Hf
  Hf47     1.0000 0.23124  0.87896  0.99828  Biso   1.000  Hf
  Hf48     1.0000 0.23064  0.86731  0.74847  Biso   1.000  Hf
  Hf49     1.0000 0.63315  0.01740  0.12432  Biso   1.000  Hf
  Hf50     1.0000 0.63158  0.23294  0.37681  Biso   1.000  Hf
  Hf51     1.0000 0.85112  0.27158  0.12474  Biso   1.000  Hf
  Hf52     1.0000 0.86619  0.48442  0.37629  Biso   1.000  Hf
  Hf53     1.0000 0.53478  0.18422  0.19410  Biso   1.000  Hf
  Hf54     1.0000 0.53659  0.06487  0.44346  Biso   1.000  Hf
  Hf55     1.0000 0.96066  0.43447  0.19373  Biso   1.000  Hf
  Hf56     1.0000 0.96472  0.31745  0.44593  Biso   1.000  Hf
  Hf57     1.0000 0.77043  0.12016  0.24953  Biso   1.000  Hf
  Hf58     1.0000 0.77097  0.13272  0.49908  Biso   1.000  Hf
  Hf59     1.0000 0.72986  0.38238  0.49998  Biso   1.000  Hf
  Hf60     1.0000 0.72364  0.37151  0.25135  Biso   1.000  Hf
  Hf61     1.0000 0.63582  0.01614  0.62520  Biso   1.000  Hf
  Hf62     1.0000 0.63259  0.23279  0.87344  Biso   1.000  Hf
  Hf63     1.0000 0.86719  0.26645  0.62641  Biso   1.000  Hf
  Hf64     1.0000 0.86722  0.48257  0.87664  Biso   1.000  Hf
  Hf65     1.0000 0.53775  0.18397  0.69206  Biso   1.000  Hf
  Hf66     1.0000 0.54128  0.06297  0.94031  Biso   1.000  Hf
  Hf67     1.0000 0.96475  0.43402  0.69641  Biso   1.000  Hf
  Hf68     1.0000 0.96481  0.31618  0.94965  Biso   1.000  Hf
  Hf69     1.0000 0.77197  0.11746  0.74886  Biso   1.000  Hf
  Hf70     1.0000 0.77164  0.13299  0.99843  Biso   1.000  Hf
  Hf71     1.0000 0.72640  0.38335  0.99997  Biso   1.000  Hf
  Hf72     1.0000 0.73074  0.36768  0.75003  Biso   1.000  Hf
  Hf73     1.0000 0.63161  0.51894  0.12708  Biso   1.000  Hf
  Hf74     1.0000 0.63506  0.73448  0.37656  Biso   1.000  Hf
  Hf75     1.0000 0.86647  0.76799  0.12626  Biso   1.000  Hf
  Hf76     1.0000 0.86682  0.98466  0.37541  Biso   1.000  Hf
  Hf77     1.0000 0.53649  0.68499  0.19563  Biso   1.000  Hf
  Hf78     1.0000 0.53660  0.56600  0.44424  Biso   1.000  Hf
  Hf79     1.0000 0.96612  0.93782  0.19473  Biso   1.000  Hf
  Hf80     1.0000 0.96418  0.81663  0.44392  Biso   1.000  Hf
  Hf81     1.0000 0.77062  0.61955  0.25058  Biso   1.000  Hf
  Hf82     1.0000 0.77115  0.63267  0.50024  Biso   1.000  Hf
  Hf83     1.0000 0.73039  0.88244  0.49972  Biso   1.000  Hf
  Hf84     1.0000 0.73015  0.86953  0.24974  Biso   1.000  Hf
  Hf85     1.0000 0.63558  0.51651  0.62615  Biso   1.000  Hf
  Hf86     1.0000 0.63603  0.73371  0.87604  Biso   1.000  Hf
  Hf87     1.0000 0.86704  0.76668  0.62607  Biso   1.000  Hf
  Hf88     1.0000 0.86698  0.98417  0.87571  Biso   1.000  Hf
  Hf89     1.0000 0.53749  0.68417  0.69395  Biso   1.000  Hf
  Hf90     1.0000 0.53704  0.56668  0.94512  Biso   1.000  Hf
  Hf91     1.0000 0.96504  0.93363  0.69478  Biso   1.000  Hf
  Hf92     1.0000 0.96544  0.81622  0.94525  Biso   1.000  Hf
  Hf93     1.0000 0.77189  0.61773  0.75049  Biso   1.000  Hf
  Hf94     1.0000 0.77168  0.63246  0.00087  Biso   1.000  Hf
  Hf95     1.0000 0.73132  0.88211  0.00022  Biso   1.000  Hf
  Hf96     1.0000 0.73090  0.86782  0.74976  Biso   1.000  Hf
  H1       1.0000 0.09575  0.23493  0.13081  Biso   1.000  H 
