data_image0
_cell_length_a       10.1815
_cell_length_b       5.12194
_cell_length_c       10.4498
_cell_angle_alpha    89.8022
_cell_angle_beta     79.702
_cell_angle_gamma    90.0592

_symmetry_space_group_name_H-M    "P 1"
_symmetry_int_tables_number       1

loop_
  _symmetry_equiv_pos_as_xyz
  'x, y, z'

loop_
  _atom_site_label
  _atom_site_occupancy
  _atom_site_fract_x
  _atom_site_fract_y
  _atom_site_fract_z
  _atom_site_thermal_displace_type
  _atom_site_B_iso_or_equiv
  _atom_site_type_symbol
  H1       1.0000 0.06119  0.88303  0.13155  Biso   1.000  H
  Hf1      1.0000 0.14471  0.45803  0.39273  Biso   1.000  Hf
  Hf2      1.0000 0.35315  0.54367  0.10587  Biso   1.000  Hf
  Hf3      1.0000 0.35695  0.95978  0.35028  Biso   1.000  Hf
  O1       1.0000 0.03530  0.35841  0.08067  Biso   1.000  O
  O2       1.0000 0.02852  0.18289  0.34065  Biso   1.000  O
  O3       1.0000 0.47076  0.82818  0.17175  Biso   1.000  O
  O4       1.0000 0.46866  0.67273  0.42292  Biso   1.000  O
  O5       1.0000 0.28824  0.26719  0.24959  Biso   1.000  O
  O6       1.0000 0.27690  0.24465  0.49410  Biso   1.000  O
  O7       1.0000 0.22815  0.75345  0.00403  Biso   1.000  O
  O8       1.0000 0.23179  0.73216  0.26248  Biso   1.000  O
  Hf4      1.0000 0.14208  0.04286  0.64710  Biso   1.000  Hf
  Hf5      1.0000 0.14210  0.45755  0.90241  Biso   1.000  Hf
  Hf6      1.0000 0.36106  0.54567  0.60477  Biso   1.000  Hf
  Hf7      1.0000 0.35743  0.95918  0.85891  Biso   1.000  Hf
  O9       1.0000 0.03344  0.33213  0.57937  Biso   1.000  O
  O10      1.0000 0.03378  0.17011  0.82848  Biso   1.000  O
  O11      1.0000 0.46713  0.83284  0.67348  Biso   1.000  O
  O12      1.0000 0.47203  0.67872  0.92306  Biso   1.000  O
  O13      1.0000 0.27693  0.25708  0.74091  Biso   1.000  O
  O14      1.0000 0.29131  0.26214  0.98169  Biso   1.000  O
  O15      1.0000 0.22495  0.75923  0.51064  Biso   1.000  O
  O16      1.0000 0.22422  0.74417  0.75854  Biso   1.000  O
  Hf8      1.0000 0.63891  0.04363  0.14635  Biso   1.000  Hf
  Hf9      1.0000 0.63954  0.46203  0.39569  Biso   1.000  Hf
  Hf10     1.0000 0.86102  0.53832  0.10196  Biso   1.000  Hf
  Hf11     1.0000 0.86521  0.96685  0.35276  Biso   1.000  Hf
  O17      1.0000 0.53578  0.33599  0.07966  Biso   1.000  O
  O18      1.0000 0.53546  0.16773  0.32975  Biso   1.000  O
  O19      1.0000 0.96571  0.84693  0.16590  Biso   1.000  O
  O20      1.0000 0.96869  0.67419  0.42045  Biso   1.000  O
  O21      1.0000 0.77558  0.25974  0.24076  Biso   1.000  O
  O22      1.0000 0.77586  0.24712  0.49049  Biso   1.000  O
  O23      1.0000 0.72500  0.76142  0.00804  Biso   1.000  O
  O24      1.0000 0.73046  0.74564  0.25801  Biso   1.000  O
  Hf12     1.0000 0.63920  0.04371  0.64662  Biso   1.000  Hf
  Hf13     1.0000 0.63893  0.45978  0.89714  Biso   1.000  Hf
  Hf14     1.0000 0.86127  0.54526  0.60263  Biso   1.000  Hf
  Hf15     1.0000 0.86115  0.95998  0.85351  Biso   1.000  Hf
  O25      1.0000 0.53491  0.33536  0.57951  Biso   1.000  O
  O26      1.0000 0.53613  0.16837  0.82933  Biso   1.000  O
  O27      1.0000 0.96749  0.83365  0.67045  Biso   1.000  O
  O28      1.0000 0.96659  0.66881  0.91781  Biso   1.000  O
  O29      1.0000 0.77706  0.25880  0.73983  Biso   1.000  O
  O30      1.0000 0.77797  0.24571  0.99026  Biso   1.000  O
  O31      1.0000 0.72564  0.76105  0.50889  Biso   1.000  O
  O32      1.0000 0.72567  0.74406  0.75822  Biso   1.000  O
