data_image0
_cell_length_a       10.0117
_cell_length_b       10.2085
_cell_length_c       10.0117
_cell_angle_alpha    90.0002
_cell_angle_beta     90
_cell_angle_gamma    90

_symmetry_space_group_name_H-M    "P 1"
_symmetry_int_tables_number       1

loop_
  _symmetry_equiv_pos_as_xyz
  'x, y, z'

loop_
  _atom_site_label
  _atom_site_occupancy
  _atom_site_fract_x
  _atom_site_fract_y
  _atom_site_fract_z
  _atom_site_thermal_displace_type
  _atom_site_B_iso_or_equiv
  _atom_site_type_symbol
  Hf1      1.0000 0.12491  0.99745  0.12491  Biso   1.000  Hf
  Hf2      1.0000 0.12490  0.25005  0.37255  Biso   1.000  Hf
  Hf3      1.0000 0.37254  0.25005  0.12491  Biso   1.000  Hf
  Hf4      1.0000 0.37621  0.99945  0.37621  Biso   1.000  Hf
  Hf5      1.0000 0.99220  0.14526  0.99220  Biso   1.000  Hf
  Hf6      1.0000 0.00159  0.10170  0.24823  Biso   1.000  Hf
  Hf7      1.0000 0.99219  0.35484  0.25762  Biso   1.000  Hf
  Hf8      1.0000 0.00159  0.39841  0.00159  Biso   1.000  Hf
  Hf9      1.0000 0.25762  0.14526  0.25763  Biso   1.000  Hf
  Hf10     1.0000 0.24822  0.10170  0.00160  Biso   1.000  Hf
  Hf11     1.0000 0.25762  0.35484  0.99219  Biso   1.000  Hf
  Hf12     1.0000 0.24822  0.39841  0.24822  Biso   1.000  Hf
  Hf13     1.0000 0.12491  0.00027  0.62491  Biso   1.000  Hf
  Hf14     1.0000 0.12490  0.25005  0.87727  Biso   1.000  Hf
  Hf15     1.0000 0.37353  0.25005  0.62491  Biso   1.000  Hf
  Hf16     1.0000 0.37495  0.99975  0.87487  Biso   1.000  Hf
  Hf17     1.0000 0.99974  0.14850  0.49693  Biso   1.000  Hf
  Hf18     1.0000 0.99851  0.10165  0.74632  Biso   1.000  Hf
  Hf19     1.0000 0.99973  0.35161  0.75288  Biso   1.000  Hf
  Hf20     1.0000 0.99851  0.39846  0.50350  Biso   1.000  Hf
  Hf21     1.0000 0.25008  0.14850  0.75289  Biso   1.000  Hf
  Hf22     1.0000 0.25131  0.10165  0.50351  Biso   1.000  Hf
  Hf23     1.0000 0.25008  0.35160  0.49693  Biso   1.000  Hf
  Hf24     1.0000 0.25131  0.39846  0.74631  Biso   1.000  Hf
  Hf25     1.0000 0.12491  0.50265  0.12490  Biso   1.000  Hf
  Hf26     1.0000 0.12491  0.75005  0.37544  Biso   1.000  Hf
  Hf27     1.0000 0.37544  0.75005  0.12491  Biso   1.000  Hf
  Hf28     1.0000 0.37495  0.50036  0.37495  Biso   1.000  Hf
  Hf29     1.0000 0.99957  0.64812  0.99956  Biso   1.000  Hf
  Hf30     1.0000 0.00013  0.60231  0.24968  Biso   1.000  Hf
  Hf31     1.0000 0.99957  0.85198  0.25025  Biso   1.000  Hf
  Hf32     1.0000 0.00013  0.89780  0.00013  Biso   1.000  Hf
  Hf33     1.0000 0.25025  0.64812  0.25025  Biso   1.000  Hf
  Hf34     1.0000 0.24969  0.60231  0.00013  Biso   1.000  Hf
  Hf35     1.0000 0.25025  0.85198  0.99957  Biso   1.000  Hf
  Hf36     1.0000 0.24969  0.89780  0.24969  Biso   1.000  Hf
  Hf37     1.0000 0.12491  0.49984  0.62491  Biso   1.000  Hf
  Hf38     1.0000 0.12491  0.75005  0.87438  Biso   1.000  Hf
  Hf39     1.0000 0.37564  0.75005  0.62491  Biso   1.000  Hf
  Hf40     1.0000 0.37621  0.50066  0.87361  Biso   1.000  Hf
  Hf41     1.0000 0.99785  0.64829  0.49879  Biso   1.000  Hf
  Hf42     1.0000 0.00161  0.60201  0.75004  Biso   1.000  Hf
  Hf43     1.0000 0.99785  0.85182  0.75102  Biso   1.000  Hf
  Hf44     1.0000 0.00161  0.89810  0.49977  Biso   1.000  Hf
  Hf45     1.0000 0.25196  0.64829  0.75102  Biso   1.000  Hf
  Hf46     1.0000 0.24820  0.60200  0.49977  Biso   1.000  Hf
  Hf47     1.0000 0.25196  0.85182  0.49880  Biso   1.000  Hf
  Hf48     1.0000 0.24820  0.89810  0.75005  Biso   1.000  Hf
  Hf49     1.0000 0.62491  0.00027  0.12491  Biso   1.000  Hf
  Hf50     1.0000 0.62491  0.25005  0.37354  Biso   1.000  Hf
  Hf51     1.0000 0.87726  0.25005  0.12491  Biso   1.000  Hf
  Hf52     1.0000 0.87487  0.99975  0.37495  Biso   1.000  Hf
  Hf53     1.0000 0.49693  0.14850  0.99974  Biso   1.000  Hf
  Hf54     1.0000 0.50350  0.10165  0.25131  Biso   1.000  Hf
  Hf55     1.0000 0.49693  0.35161  0.25008  Biso   1.000  Hf
  Hf56     1.0000 0.50350  0.39846  0.99850  Biso   1.000  Hf
  Hf57     1.0000 0.75288  0.14850  0.25008  Biso   1.000  Hf
  Hf58     1.0000 0.74631  0.10165  0.99851  Biso   1.000  Hf
  Hf59     1.0000 0.75288  0.35161  0.99973  Biso   1.000  Hf
  Hf60     1.0000 0.74631  0.39846  0.25131  Biso   1.000  Hf
  Hf61     1.0000 0.62491  0.00241  0.62491  Biso   1.000  Hf
  Hf62     1.0000 0.62490  0.25005  0.87628  Biso   1.000  Hf
  Hf63     1.0000 0.87627  0.25005  0.62491  Biso   1.000  Hf
  Hf64     1.0000 0.87361  0.99945  0.87361  Biso   1.000  Hf
  Hf65     1.0000 0.50006  0.14807  0.50006  Biso   1.000  Hf
  Hf66     1.0000 0.49968  0.10234  0.75014  Biso   1.000  Hf
  Hf67     1.0000 0.50006  0.35204  0.74975  Biso   1.000  Hf
  Hf68     1.0000 0.49968  0.39777  0.49967  Biso   1.000  Hf
  Hf69     1.0000 0.74975  0.14807  0.74976  Biso   1.000  Hf
  Hf70     1.0000 0.75014  0.10234  0.49968  Biso   1.000  Hf
  Hf71     1.0000 0.74975  0.35204  0.50006  Biso   1.000  Hf
  Hf72     1.0000 0.75014  0.39777  0.75014  Biso   1.000  Hf
  Hf73     1.0000 0.62491  0.49984  0.12490  Biso   1.000  Hf
  Hf74     1.0000 0.62491  0.75005  0.37564  Biso   1.000  Hf
  Hf75     1.0000 0.87438  0.75005  0.12491  Biso   1.000  Hf
  Hf76     1.0000 0.87361  0.50066  0.37620  Biso   1.000  Hf
  Hf77     1.0000 0.49880  0.64829  0.99785  Biso   1.000  Hf
  Hf78     1.0000 0.49977  0.60200  0.24820  Biso   1.000  Hf
  Hf79     1.0000 0.49880  0.85182  0.25196  Biso   1.000  Hf
  Hf80     1.0000 0.49977  0.89810  0.00162  Biso   1.000  Hf
  Hf81     1.0000 0.75103  0.64829  0.25196  Biso   1.000  Hf
  Hf82     1.0000 0.75005  0.60201  0.00161  Biso   1.000  Hf
  Hf83     1.0000 0.75102  0.85182  0.99786  Biso   1.000  Hf
  Hf84     1.0000 0.75005  0.89810  0.24820  Biso   1.000  Hf
  Hf85     1.0000 0.62491  0.49770  0.62491  Biso   1.000  Hf
  Hf86     1.0000 0.62491  0.75005  0.87418  Biso   1.000  Hf
  Hf87     1.0000 0.87418  0.75005  0.62491  Biso   1.000  Hf
  Hf88     1.0000 0.87487  0.50036  0.87487  Biso   1.000  Hf
  Hf89     1.0000 0.49723  0.64733  0.49723  Biso   1.000  Hf
  Hf90     1.0000 0.50202  0.60309  0.74780  Biso   1.000  Hf
  Hf91     1.0000 0.49723  0.85278  0.75259  Biso   1.000  Hf
  Hf92     1.0000 0.50202  0.89702  0.50202  Biso   1.000  Hf
  Hf93     1.0000 0.75259  0.64733  0.75258  Biso   1.000  Hf
  Hf94     1.0000 0.74780  0.60309  0.50201  Biso   1.000  Hf
  Hf95     1.0000 0.75259  0.85278  0.49723  Biso   1.000  Hf
  Hf96     1.0000 0.74780  0.89702  0.74780  Biso   1.000  Hf
  H1       1.0000 0.12492  0.25006  0.12491  Biso   1.000  H 
