data_image0
_cell_length_a       10.1648
_cell_length_b       10.2421
_cell_length_c       10.4623
_cell_angle_alpha    89.8863
_cell_angle_beta     79.9607
_cell_angle_gamma    90.0511

_symmetry_space_group_name_H-M    "P 1"
_symmetry_int_tables_number       1

loop_
  _symmetry_equiv_pos_as_xyz
  'x, y, z'

loop_
  _atom_site_label
  _atom_site_occupancy
  _atom_site_fract_x
  _atom_site_fract_y
  _atom_site_fract_z
  _atom_site_thermal_displace_type
  _atom_site_B_iso_or_equiv
  _atom_site_type_symbol
  H1       1.0000 0.01273  0.01035  0.12052  Biso   1.000  H
  Hf1      1.0000 0.14411  0.22779  0.39355  Biso   1.000  Hf
  Hf2      1.0000 0.35677  0.26437  0.10689  Biso   1.000  Hf
  Hf3      1.0000 0.36110  0.47810  0.35318  Biso   1.000  Hf
  O1       1.0000 0.02945  0.15966  0.07413  Biso   1.000  O
  O2       1.0000 0.02882  0.08981  0.34213  Biso   1.000  O
  O3       1.0000 0.46694  0.41356  0.17240  Biso   1.000  O
  O4       1.0000 0.46617  0.33334  0.42291  Biso   1.000  O
  O5       1.0000 0.29052  0.13725  0.25357  Biso   1.000  O
  O6       1.0000 0.27606  0.12055  0.49522  Biso   1.000  O
  O7       1.0000 0.22329  0.37762  0.01077  Biso   1.000  O
  O8       1.0000 0.22176  0.37338  0.25904  Biso   1.000  O
  Hf4      1.0000 0.14094  0.01986  0.64532  Biso   1.000  Hf
  Hf5      1.0000 0.14046  0.22313  0.90214  Biso   1.000  Hf
  Hf6      1.0000 0.36017  0.27043  0.60586  Biso   1.000  Hf
  Hf7      1.0000 0.36021  0.47706  0.85564  Biso   1.000  Hf
  O9       1.0000 0.03377  0.16623  0.57859  Biso   1.000  O
  O10      1.0000 0.03284  0.08429  0.82593  Biso   1.000  O
  O11      1.0000 0.46681  0.41610  0.67228  Biso   1.000  O
  O12      1.0000 0.46896  0.33591  0.92264  Biso   1.000  O
  O13      1.0000 0.27568  0.12663  0.74101  Biso   1.000  O
  O14      1.0000 0.29145  0.13164  0.98061  Biso   1.000  O
  O15      1.0000 0.22502  0.37889  0.51039  Biso   1.000  O
  O16      1.0000 0.22501  0.37002  0.76084  Biso   1.000  O
  Hf8      1.0000 0.14130  0.52091  0.14512  Biso   1.000  Hf
  Hf9      1.0000 0.14254  0.72858  0.39355  Biso   1.000  Hf
  Hf10     1.0000 0.35753  0.77604  0.10502  Biso   1.000  Hf
  Hf11     1.0000 0.35659  0.97883  0.35018  Biso   1.000  Hf
  O17      1.0000 0.03595  0.66986  0.08044  Biso   1.000  O
  O18      1.0000 0.03381  0.58426  0.32774  Biso   1.000  O
  O19      1.0000 0.47159  0.91536  0.17142  Biso   1.000  O
  O20      1.0000 0.46868  0.83522  0.42291  Biso   1.000  O
  O21      1.0000 0.27740  0.62363  0.23881  Biso   1.000  O
  O22      1.0000 0.27774  0.62125  0.49028  Biso   1.000  O
  O23      1.0000 0.23462  0.87046  0.99785  Biso   1.000  O
  O24      1.0000 0.23567  0.86071  0.26402  Biso   1.000  O
  Hf12     1.0000 0.14128  0.52151  0.64711  Biso   1.000  Hf
  Hf13     1.0000 0.14334  0.73219  0.89662  Biso   1.000  Hf
  Hf14     1.0000 0.36221  0.77249  0.60308  Biso   1.000  Hf
  Hf15     1.0000 0.35926  0.97923  0.85749  Biso   1.000  Hf
  O25      1.0000 0.03527  0.66637  0.57970  Biso   1.000  O
  O26      1.0000 0.03618  0.58225  0.82994  Biso   1.000  O
  O27      1.0000 0.46722  0.91526  0.67381  Biso   1.000  O
  O28      1.0000 0.47463  0.83925  0.92372  Biso   1.000  O
  O29      1.0000 0.27799  0.62933  0.74079  Biso   1.000  O
  O30      1.0000 0.27726  0.61867  0.99086  Biso   1.000  O
  O31      1.0000 0.22394  0.87801  0.50969  Biso   1.000  O
  O32      1.0000 0.22381  0.87214  0.75590  Biso   1.000  O
  Hf16     1.0000 0.64153  0.02123  0.14695  Biso   1.000  Hf
  Hf17     1.0000 0.63835  0.22856  0.39637  Biso   1.000  Hf
  Hf18     1.0000 0.86354  0.27040  0.10389  Biso   1.000  Hf
  Hf19     1.0000 0.86108  0.47893  0.35389  Biso   1.000  Hf
  O33      1.0000 0.53718  0.16727  0.07997  Biso   1.000  O
  O34      1.0000 0.53613  0.08174  0.32975  Biso   1.000  O
  O35      1.0000 0.96654  0.41621  0.17157  Biso   1.000  O
  O36      1.0000 0.96763  0.33652  0.42226  Biso   1.000  O
  O37      1.0000 0.77578  0.13051  0.24221  Biso   1.000  O
  O38      1.0000 0.77539  0.12219  0.49138  Biso   1.000  O
  O39      1.0000 0.72561  0.37942  0.00951  Biso   1.000  O
  O40      1.0000 0.72398  0.37205  0.26084  Biso   1.000  O
  Hf20     1.0000 0.63954  0.02065  0.64690  Biso   1.000  Hf
  Hf21     1.0000 0.63986  0.22896  0.89707  Biso   1.000  Hf
  Hf22     1.0000 0.86115  0.27200  0.60349  Biso   1.000  Hf
  Hf23     1.0000 0.86283  0.47888  0.85474  Biso   1.000  Hf
  O41      1.0000 0.53423  0.16637  0.58040  Biso   1.000  O
  O42      1.0000 0.53732  0.08282  0.82972  Biso   1.000  O
  O43      1.0000 0.96779  0.41587  0.67167  Biso   1.000  O
  O44      1.0000 0.96830  0.33489  0.92203  Biso   1.000  O
  O45      1.0000 0.77737  0.12885  0.74022  Biso   1.000  O
  O46      1.0000 0.77742  0.12104  0.99009  Biso   1.000  O
  O47      1.0000 0.72417  0.37897  0.51021  Biso   1.000  O
  O48      1.0000 0.72564  0.37154  0.75957  Biso   1.000  O
  Hf24     1.0000 0.63862  0.52071  0.14636  Biso   1.000  Hf
  Hf25     1.0000 0.63997  0.72982  0.39605  Biso   1.000  Hf
  Hf26     1.0000 0.86282  0.77174  0.10302  Biso   1.000  Hf
  Hf27     1.0000 0.86433  0.98206  0.35406  Biso   1.000  Hf
  O49      1.0000 0.53384  0.66545  0.07865  Biso   1.000  O
  O50      1.0000 0.53450  0.58365  0.32902  Biso   1.000  O
  O51      1.0000 0.95742  0.93276  0.16233  Biso   1.000  O
  O52      1.0000 0.96678  0.83168  0.41728  Biso   1.000  O
  O53      1.0000 0.77650  0.62896  0.23998  Biso   1.000  O
  O54      1.0000 0.77664  0.62131  0.49056  Biso   1.000  O
  O55      1.0000 0.72590  0.87841  0.00928  Biso   1.000  O
  O56      1.0000 0.72759  0.87040  0.25981  Biso   1.000  O
  Hf28     1.0000 0.63956  0.52114  0.64671  Biso   1.000  Hf
  Hf29     1.0000 0.64007  0.72844  0.89738  Biso   1.000  Hf
  Hf30     1.0000 0.86223  0.77051  0.60292  Biso   1.000  Hf
  Hf31     1.0000 0.86051  0.97862  0.85330  Biso   1.000  Hf
  O57      1.0000 0.53525  0.66645  0.57930  Biso   1.000  O
  O58      1.0000 0.53420  0.58402  0.82921  Biso   1.000  O
  O59      1.0000 0.96579  0.91713  0.66902  Biso   1.000  O
  O60      1.0000 0.96701  0.83303  0.91897  Biso   1.000  O
  O61      1.0000 0.77728  0.62822  0.74046  Biso   1.000  O
  O62      1.0000 0.77846  0.62234  0.99125  Biso   1.000  O
  O63      1.0000 0.72575  0.87900  0.50976  Biso   1.000  O
  O64      1.0000 0.72576  0.87049  0.75900  Biso   1.000  O
