data_image0
_cell_length_a       10.0884
_cell_length_b       10.3781
_cell_length_c       5.27866
_cell_angle_alpha    90.1173
_cell_angle_beta     92.0449
_cell_angle_gamma    89.7571

_symmetry_space_group_name_H-M    "P 1"
_symmetry_int_tables_number       1

loop_
  _symmetry_equiv_pos_as_xyz
  'x, y, z'

loop_
  _atom_site_label
  _atom_site_occupancy
  _atom_site_fract_x
  _atom_site_fract_y
  _atom_site_fract_z
  _atom_site_thermal_displace_type
  _atom_site_B_iso_or_equiv
  _atom_site_type_symbol
  Hf1      1.0000 0.13704  0.01806  0.35182  Biso   1.000  Hf
  Hf2      1.0000 0.13699  0.22666  0.86363  Biso   1.000  Hf
  Hf3      1.0000 0.34099  0.26366  0.38984  Biso   1.000  Hf
  Hf4      1.0000 0.36194  0.48657  0.85096  Biso   1.000  Hf
  Hf5      1.0000 0.64365  0.01451  0.15029  Biso   1.000  Hf
  Hf6      1.0000 0.65220  0.22294  0.63668  Biso   1.000  Hf
  Hf7      1.0000 0.85879  0.27120  0.14497  Biso   1.000  Hf
  Hf8      1.0000 0.86784  0.48101  0.65107  Biso   1.000  Hf
  O1       1.0000 0.03311  0.16628  0.17592  Biso   1.000  O
  O2       1.0000 0.03642  0.08163  0.67213  Biso   1.000  O
  O3       1.0000 0.46742  0.44666  0.18944  Biso   1.000  O
  O4       1.0000 0.47283  0.33817  0.66127  Biso   1.000  O
  O5       1.0000 0.27138  0.12237  0.61434  Biso   1.000  O
  O6       1.0000 0.27226  0.11759  0.11143  Biso   1.000  O
  O7       1.0000 0.21984  0.37660  0.61703  Biso   1.000  O
  O8       1.0000 0.22430  0.37431  0.11420  Biso   1.000  O
  O9       1.0000 0.51922  0.13725  0.38896  Biso   1.000  O
  O10      1.0000 0.53369  0.06686  0.83016  Biso   1.000  O
  O11      1.0000 0.96684  0.41501  0.33223  Biso   1.000  O
  O12      1.0000 0.96968  0.33286  0.83252  Biso   1.000  O
  O13      1.0000 0.79033  0.11966  0.88664  Biso   1.000  O
  O14      1.0000 0.78204  0.12276  0.39421  Biso   1.000  O
  O15      1.0000 0.73871  0.39297  0.89624  Biso   1.000  O
  O16      1.0000 0.72417  0.37544  0.40156  Biso   1.000  O
  Hf9      1.0000 0.13863  0.51989  0.34450  Biso   1.000  Hf
  Hf10     1.0000 0.14030  0.72933  0.84456  Biso   1.000  Hf
  Hf11     1.0000 0.36294  0.77071  0.34959  Biso   1.000  Hf
  Hf12     1.0000 0.36196  0.97294  0.85732  Biso   1.000  Hf
  Hf13     1.0000 0.64710  0.53574  0.15034  Biso   1.000  Hf
  Hf14     1.0000 0.64155  0.73275  0.65362  Biso   1.000  Hf
  Hf15     1.0000 0.86661  0.77116  0.15677  Biso   1.000  Hf
  Hf16     1.0000 0.86626  0.97712  0.65659  Biso   1.000  Hf
  O17      1.0000 0.03613  0.66431  0.16627  Biso   1.000  O
  O18      1.0000 0.03749  0.58461  0.66794  Biso   1.000  O
  O19      1.0000 0.47041  0.91007  0.17251  Biso   1.000  O
  O20      1.0000 0.46693  0.83005  0.67414  Biso   1.000  O
  O21      1.0000 0.27780  0.62409  0.58937  Biso   1.000  O
  O22      1.0000 0.27570  0.62487  0.08946  Biso   1.000  O
  O23      1.0000 0.22504  0.87235  0.59801  Biso   1.000  O
  O24      1.0000 0.22448  0.87195  0.10050  Biso   1.000  O
  O25      1.0000 0.53957  0.67532  0.32690  Biso   1.000  O
  O26      1.0000 0.53541  0.58750  0.82465  Biso   1.000  O
  O27      1.0000 0.96945  0.91477  0.33241  Biso   1.000  O
  O28      1.0000 0.96988  0.83347  0.83597  Biso   1.000  O
  O29      1.0000 0.77985  0.63240  0.90252  Biso   1.000  O
  O30      1.0000 0.78213  0.62827  0.40613  Biso   1.000  O
  O31      1.0000 0.72892  0.87566  0.91232  Biso   1.000  O
  O32      1.0000 0.72929  0.87372  0.41125  Biso   1.000  O
  In1      1.0000 0.54331  0.26626  0.06940  Biso   1.000  In
