data_image0
_cell_length_a       10.1715
_cell_length_b       10.3164
_cell_length_c       10.5184
_cell_angle_alpha    90.0736
_cell_angle_beta     79.5682
_cell_angle_gamma    89.9812

_symmetry_space_group_name_H-M    "P 1"
_symmetry_int_tables_number       1

loop_
  _symmetry_equiv_pos_as_xyz
  'x, y, z'

loop_
  _atom_site_label
  _atom_site_occupancy
  _atom_site_fract_x
  _atom_site_fract_y
  _atom_site_fract_z
  _atom_site_thermal_displace_type
  _atom_site_B_iso_or_equiv
  _atom_site_type_symbol
  Hf1      1.0000 0.13136  0.02061  0.14256  Biso   1.000  Hf
  Hf2      1.0000 0.14107  0.22848  0.39065  Biso   1.000  Hf
  Hf3      1.0000 0.34727  0.27470  0.09448  Biso   1.000  Hf
  Hf4      1.0000 0.35758  0.48176  0.34869  Biso   1.000  Hf
  O1       1.0000 0.03145  0.16873  0.07692  Biso   1.000  O
  O2       1.0000 0.03102  0.08184  0.32911  Biso   1.000  O
  O3       1.0000 0.45564  0.43687  0.15417  Biso   1.000  O
  O4       1.0000 0.48724  0.36371  0.45050  Biso   1.000  O
  O5       1.0000 0.26488  0.11755  0.23188  Biso   1.000  O
  O6       1.0000 0.28429  0.11890  0.48485  Biso   1.000  O
  O7       1.0000 0.21583  0.38325  0.00301  Biso   1.000  O
  O8       1.0000 0.20614  0.37559  0.25162  Biso   1.000  O
  Hf5      1.0000 0.13970  0.02140  0.64455  Biso   1.000  Hf
  Hf6      1.0000 0.13429  0.22917  0.89218  Biso   1.000  Hf
  Hf7      1.0000 0.36440  0.27675  0.60858  Biso   1.000  Hf
  Hf8      1.0000 0.36001  0.48022  0.85614  Biso   1.000  Hf
  O9       1.0000 0.04219  0.16943  0.57769  Biso   1.000  O
  O10      1.0000 0.03306  0.08281  0.82668  Biso   1.000  O
  O11      1.0000 0.46906  0.41363  0.68473  Biso   1.000  O
  O12      1.0000 0.46240  0.33163  0.92159  Biso   1.000  O
  O13      1.0000 0.27531  0.12893  0.73757  Biso   1.000  O
  O14      1.0000 0.27069  0.12387  0.98466  Biso   1.000  O
  O15      1.0000 0.22788  0.37681  0.50749  Biso   1.000  O
  O16      1.0000 0.22408  0.37223  0.75782  Biso   1.000  O
  Hf9      1.0000 0.13635  0.52390  0.14378  Biso   1.000  Hf
  Hf10     1.0000 0.13614  0.72656  0.39685  Biso   1.000  Hf
  Hf11     1.0000 0.35913  0.77224  0.10298  Biso   1.000  Hf
  Hf12     1.0000 0.35628  0.96377  0.35596  Biso   1.000  Hf
  O17      1.0000 0.03194  0.67022  0.07765  Biso   1.000  O
  O18      1.0000 0.03285  0.58521  0.32706  Biso   1.000  O
  O19      1.0000 0.46319  0.91675  0.17212  Biso   1.000  O
  O20      1.0000 0.46005  0.82197  0.42200  Biso   1.000  O
  O21      1.0000 0.27388  0.62942  0.24080  Biso   1.000  O
  O22      1.0000 0.27303  0.61966  0.49026  Biso   1.000  O
  O23      1.0000 0.22266  0.88044  0.00866  Biso   1.000  O
  O24      1.0000 0.21968  0.86654  0.25919  Biso   1.000  O
  Hf13     1.0000 0.13930  0.52157  0.64540  Biso   1.000  Hf
  Hf14     1.0000 0.13631  0.72935  0.89600  Biso   1.000  Hf
  Hf15     1.0000 0.36105  0.76910  0.60603  Biso   1.000  Hf
  Hf16     1.0000 0.35966  0.97917  0.85288  Biso   1.000  Hf
  O25      1.0000 0.03178  0.66534  0.57942  Biso   1.000  O
  O26      1.0000 0.03410  0.58321  0.82867  Biso   1.000  O
  O27      1.0000 0.46478  0.91652  0.67051  Biso   1.000  O
  O28      1.0000 0.46396  0.83463  0.92061  Biso   1.000  O
  O29      1.0000 0.27574  0.62758  0.74055  Biso   1.000  O
  O30      1.0000 0.27464  0.62457  0.99079  Biso   1.000  O
  O31      1.0000 0.22120  0.87558  0.51146  Biso   1.000  O
  O32      1.0000 0.22306  0.87101  0.75970  Biso   1.000  O
  Hf17     1.0000 0.63965  0.01714  0.14813  Biso   1.000  Hf
  Hf18     1.0000 0.66411  0.23442  0.41181  Biso   1.000  Hf
  Hf19     1.0000 0.85792  0.27317  0.10754  Biso   1.000  Hf
  Hf20     1.0000 0.86369  0.48059  0.35455  Biso   1.000  Hf
  O33      1.0000 0.52796  0.16277  0.07940  Biso   1.000  O
  O34      1.0000 0.53995  0.05839  0.34186  Biso   1.000  O
  O35      1.0000 0.96163  0.42184  0.16841  Biso   1.000  O
  O36      1.0000 0.96516  0.33105  0.42111  Biso   1.000  O
  O37      1.0000 0.77639  0.12930  0.24562  Biso   1.000  O
  O38      1.0000 0.78713  0.11542  0.49961  Biso   1.000  O
  O39      1.0000 0.72008  0.37802  0.01425  Biso   1.000  O
  O40      1.0000 0.72584  0.37379  0.26522  Biso   1.000  O
  Hf21     1.0000 0.63864  0.02072  0.64835  Biso   1.000  Hf
  Hf22     1.0000 0.63705  0.22815  0.89914  Biso   1.000  Hf
  Hf23     1.0000 0.86796  0.27078  0.60968  Biso   1.000  Hf
  Hf24     1.0000 0.86004  0.47890  0.85655  Biso   1.000  Hf
  O41      1.0000 0.53907  0.16799  0.57957  Biso   1.000  O
  O42      1.0000 0.53300  0.08327  0.82881  Biso   1.000  O
  O43      1.0000 0.96785  0.41705  0.67394  Biso   1.000  O
  O44      1.0000 0.96073  0.33187  0.92155  Biso   1.000  O
  O45      1.0000 0.77560  0.12960  0.74478  Biso   1.000  O
  O46      1.0000 0.77317  0.12101  0.99421  Biso   1.000  O
  O47      1.0000 0.73351  0.38097  0.51832  Biso   1.000  O
  O48      1.0000 0.72521  0.37137  0.76476  Biso   1.000  O
  Hf25     1.0000 0.63467  0.52450  0.14505  Biso   1.000  Hf
  Hf26     1.0000 0.63818  0.72530  0.39658  Biso   1.000  Hf
  Hf27     1.0000 0.85807  0.77038  0.10455  Biso   1.000  Hf
  Hf28     1.0000 0.85992  0.97589  0.35561  Biso   1.000  Hf
  O49      1.0000 0.53655  0.67564  0.07953  Biso   1.000  O
  O50      1.0000 0.53174  0.58450  0.32539  Biso   1.000  O
  O51      1.0000 0.96031  0.91549  0.17274  Biso   1.000  O
  O52      1.0000 0.96382  0.83159  0.42284  Biso   1.000  O
  O53      1.0000 0.77496  0.62929  0.24136  Biso   1.000  O
  O54      1.0000 0.77469  0.62108  0.49103  Biso   1.000  O
  O55      1.0000 0.72282  0.87948  0.01050  Biso   1.000  O
  O56      1.0000 0.72108  0.86920  0.26055  Biso   1.000  O
  Hf29     1.0000 0.63875  0.52232  0.65013  Biso   1.000  Hf
  Hf30     1.0000 0.63711  0.73037  0.89680  Biso   1.000  Hf
  Hf31     1.0000 0.86030  0.77217  0.60483  Biso   1.000  Hf
  Hf32     1.0000 0.86008  0.97913  0.85478  Biso   1.000  Hf
  O57      1.0000 0.53299  0.66377  0.58048  Biso   1.000  O
  O58      1.0000 0.53337  0.58500  0.83214  Biso   1.000  O
  O59      1.0000 0.96485  0.91797  0.67131  Biso   1.000  O
  O60      1.0000 0.96379  0.83391  0.92130  Biso   1.000  O
  O61      1.0000 0.77518  0.62935  0.74113  Biso   1.000  O
  O62      1.0000 0.77424  0.62131  0.99053  Biso   1.000  O
  O63      1.0000 0.72078  0.87678  0.51101  Biso   1.000  O
  O64      1.0000 0.72361  0.87230  0.76098  Biso   1.000  O
  In1      1.0000 0.45054  0.23244  0.29923  Biso   1.000  In
