data_image0
_cell_length_a       10.0687
_cell_length_b       5.29485
_cell_length_c       10.064
_cell_angle_alpha    84.9574
_cell_angle_beta     89.315
_cell_angle_gamma    89.9876

_symmetry_space_group_name_H-M    "P 1"
_symmetry_int_tables_number       1

loop_
  _symmetry_equiv_pos_as_xyz
  'x, y, z'

loop_
  _atom_site_label
  _atom_site_occupancy
  _atom_site_fract_x
  _atom_site_fract_y
  _atom_site_fract_z
  _atom_site_thermal_displace_type
  _atom_site_B_iso_or_equiv
  _atom_site_type_symbol
  Hf1      1.0000 0.10872  0.87742  0.10357  Biso   1.000  Hf
  Hf2      1.0000 0.14382  0.55249  0.40559  Biso   1.000  Hf
  Hf3      1.0000 0.40644  0.43874  0.11143  Biso   1.000  Hf
  Hf4      1.0000 0.35914  0.04957  0.38088  Biso   1.000  Hf
  Hf5      1.0000 0.02164  0.25358  0.98325  Biso   1.000  Hf
  Hf6      1.0000 0.98662  0.09748  0.21838  Biso   1.000  Hf
  Hf7      1.0000 0.02597  0.57681  0.22268  Biso   1.000  Hf
  Hf8      1.0000 0.97302  0.73841  0.97837  Biso   1.000  Hf
  Hf9      1.0000 0.27432  0.36909  0.27766  Biso   1.000  Hf
  Hf10     1.0000 0.27070  0.11460  0.04021  Biso   1.000  Hf
  Hf11     1.0000 0.22560  0.60056  0.02622  Biso   1.000  Hf
  Hf12     1.0000 0.22333  0.86219  0.27727  Biso   1.000  Hf
  Hf13     1.0000 0.10939  0.97689  0.61378  Biso   1.000  Hf
  Hf14     1.0000 0.11090  0.53678  0.84023  Biso   1.000  Hf
  Hf15     1.0000 0.38426  0.50108  0.61657  Biso   1.000  Hf
  Hf16     1.0000 0.37492  0.03870  0.86733  Biso   1.000  Hf
  Hf17     1.0000 0.00156  0.28056  0.47601  Biso   1.000  Hf
  Hf18     1.0000 0.01458  0.24604  0.73543  Biso   1.000  Hf
  Hf19     1.0000 0.96006  0.77638  0.73478  Biso   1.000  Hf
  Hf20     1.0000 0.99881  0.79689  0.46783  Biso   1.000  Hf
  Hf21     1.0000 0.28451  0.37195  0.78811  Biso   1.000  Hf
  Hf22     1.0000 0.25147  0.25665  0.52677  Biso   1.000  Hf
  Hf23     1.0000 0.26509  0.78019  0.51747  Biso   1.000  Hf
  Hf24     1.0000 0.21257  0.87908  0.78695  Biso   1.000  Hf
  Hf25     1.0000 0.61225  0.93119  0.11000  Biso   1.000  Hf
  Hf26     1.0000 0.64534  0.55351  0.38910  Biso   1.000  Hf
  Hf27     1.0000 0.87144  0.42701  0.10140  Biso   1.000  Hf
  Hf28     1.0000 0.85988  0.05113  0.38108  Biso   1.000  Hf
  Hf29     1.0000 0.51954  0.25374  0.98044  Biso   1.000  Hf
  Hf30     1.0000 0.48610  0.12072  0.22547  Biso   1.000  Hf
  Hf31     1.0000 0.52250  0.61947  0.23038  Biso   1.000  Hf
  Hf32     1.0000 0.47879  0.75654  0.98495  Biso   1.000  Hf
  Hf33     1.0000 0.77260  0.36179  0.27545  Biso   1.000  Hf
  Hf34     1.0000 0.77488  0.12569  0.02850  Biso   1.000  Hf
  Hf35     1.0000 0.71592  0.62539  0.02400  Biso   1.000  Hf
  Hf36     1.0000 0.73178  0.85850  0.27395  Biso   1.000  Hf
  Hf37     1.0000 0.60976  0.01066  0.61000  Biso   1.000  Hf
  Hf38     1.0000 0.61808  0.54338  0.85514  Biso   1.000  Hf
  Hf39     1.0000 0.90182  0.50745  0.60900  Biso   1.000  Hf
  Hf40     1.0000 0.87533  0.04010  0.85925  Biso   1.000  Hf
  Hf41     1.0000 0.49894  0.29911  0.48242  Biso   1.000  Hf
  Hf42     1.0000 0.51665  0.25960  0.73342  Biso   1.000  Hf
  Hf43     1.0000 0.47651  0.76034  0.73320  Biso   1.000  Hf
  Hf44     1.0000 0.50617  0.80048  0.48020  Biso   1.000  Hf
  Hf45     1.0000 0.78113  0.38549  0.77920  Biso   1.000  Hf
  Hf46     1.0000 0.75174  0.26202  0.52328  Biso   1.000  Hf
  Hf47     1.0000 0.75286  0.76085  0.52559  Biso   1.000  Hf
  Hf48     1.0000 0.70861  0.89030  0.78249  Biso   1.000  Hf
  Mg1      1.0000 0.14015  0.33603  0.14459  Biso   1.000  Mg
