data_image0
_cell_length_a       10.0387
_cell_length_b       10.4437
_cell_length_c       10.0617
_cell_angle_alpha    87.8032
_cell_angle_beta     91.1622
_cell_angle_gamma    91.581

_symmetry_space_group_name_H-M    "P 1"
_symmetry_int_tables_number       1

loop_
  _symmetry_equiv_pos_as_xyz
  'x, y, z'

loop_
  _atom_site_label
  _atom_site_occupancy
  _atom_site_fract_x
  _atom_site_fract_y
  _atom_site_fract_z
  _atom_site_thermal_displace_type
  _atom_site_B_iso_or_equiv
  _atom_site_type_symbol
  Hf1      1.0000 0.12275  0.02665  0.13580  Biso   1.000  Hf
  Hf2      1.0000 0.11945  0.24758  0.38939  Biso   1.000  Hf
  Hf3      1.0000 0.40421  0.24253  0.10145  Biso   1.000  Hf
  Hf4      1.0000 0.38697  0.98363  0.38722  Biso   1.000  Hf
  Hf5      1.0000 0.02311  0.19512  0.02998  Biso   1.000  Hf
  Hf6      1.0000 0.99782  0.10330  0.27022  Biso   1.000  Hf
  Hf7      1.0000 0.97999  0.34245  0.26060  Biso   1.000  Hf
  Hf8      1.0000 0.03137  0.44914  0.00327  Biso   1.000  Hf
  Hf9      1.0000 0.23029  0.19643  0.22461  Biso   1.000  Hf
  Hf10     1.0000 0.24905  0.10275  0.98572  Biso   1.000  Hf
  Hf11     1.0000 0.26856  0.34841  0.99177  Biso   1.000  Hf
  Hf12     1.0000 0.21081  0.44475  0.25189  Biso   1.000  Hf
  Hf13     1.0000 0.11735  0.01317  0.64229  Biso   1.000  Hf
  Hf14     1.0000 0.13638  0.24964  0.86072  Biso   1.000  Hf
  Hf15     1.0000 0.39404  0.22941  0.60888  Biso   1.000  Hf
  Hf16     1.0000 0.37153  0.99077  0.88163  Biso   1.000  Hf
  Hf17     1.0000 0.00899  0.14595  0.52260  Biso   1.000  Hf
  Hf18     1.0000 0.99628  0.10470  0.77383  Biso   1.000  Hf
  Hf19     1.0000 0.99811  0.35286  0.75227  Biso   1.000  Hf
  Hf20     1.0000 0.00851  0.38944  0.50278  Biso   1.000  Hf
  Hf21     1.0000 0.24156  0.15291  0.73136  Biso   1.000  Hf
  Hf22     1.0000 0.25180  0.08795  0.48816  Biso   1.000  Hf
  Hf23     1.0000 0.26207  0.34009  0.49450  Biso   1.000  Hf
  Hf24     1.0000 0.24916  0.40113  0.75278  Biso   1.000  Hf
  Hf25     1.0000 0.11019  0.57558  0.13203  Biso   1.000  Hf
  Hf26     1.0000 0.11240  0.74643  0.39691  Biso   1.000  Hf
  Hf27     1.0000 0.38207  0.77011  0.12735  Biso   1.000  Hf
  Hf28     1.0000 0.36275  0.49302  0.37914  Biso   1.000  Hf
  Hf29     1.0000 0.00516  0.69941  0.00817  Biso   1.000  Hf
  Hf30     1.0000 0.96877  0.61945  0.26180  Biso   1.000  Hf
  Hf31     1.0000 0.01003  0.86293  0.26632  Biso   1.000  Hf
  Hf32     1.0000 0.97884  0.94042  0.02730  Biso   1.000  Hf
  Hf33     1.0000 0.22748  0.69768  0.24253  Biso   1.000  Hf
  Hf34     1.0000 0.25521  0.61574  0.99726  Biso   1.000  Hf
  Hf35     1.0000 0.24903  0.85571  0.99056  Biso   1.000  Hf
  Hf36     1.0000 0.27572  0.93818  0.22874  Biso   1.000  Hf
  Hf37     1.0000 0.11680  0.49868  0.63437  Biso   1.000  Hf
  Hf38     1.0000 0.14277  0.75088  0.86201  Biso   1.000  Hf
  Hf39     1.0000 0.38684  0.74197  0.62409  Biso   1.000  Hf
  Hf40     1.0000 0.36602  0.50317  0.88372  Biso   1.000  Hf
  Hf41     1.0000 0.98425  0.63341  0.51262  Biso   1.000  Hf
  Hf42     1.0000 0.01090  0.61019  0.75999  Biso   1.000  Hf
  Hf43     1.0000 0.99813  0.86242  0.76817  Biso   1.000  Hf
  Hf44     1.0000 0.01893  0.88749  0.51631  Biso   1.000  Hf
  Hf45     1.0000 0.25891  0.64281  0.74694  Biso   1.000  Hf
  Hf46     1.0000 0.23272  0.59046  0.49342  Biso   1.000  Hf
  Hf47     1.0000 0.27432  0.83327  0.48137  Biso   1.000  Hf
  Hf48     1.0000 0.24991  0.89195  0.73762  Biso   1.000  Hf
  Hf49     1.0000 0.61633  0.01796  0.13715  Biso   1.000  Hf
  Hf50     1.0000 0.60780  0.26005  0.34574  Biso   1.000  Hf
  Hf51     1.0000 0.84845  0.23484  0.14519  Biso   1.000  Hf
  Hf52     1.0000 0.87422  0.98722  0.38432  Biso   1.000  Hf
  Hf53     1.0000 0.49788  0.13449  0.96985  Biso   1.000  Hf
  Hf54     1.0000 0.47940  0.11155  0.24731  Biso   1.000  Hf
  Hf55     1.0000 0.47186  0.37361  0.23831  Biso   1.000  Hf
  Hf56     1.0000 0.51744  0.39763  0.98293  Biso   1.000  Hf
  Hf57     1.0000 0.74585  0.13059  0.29043  Biso   1.000  Hf
  Hf58     1.0000 0.76081  0.09322  0.01379  Biso   1.000  Hf
  Hf59     1.0000 0.79770  0.33889  0.98141  Biso   1.000  Hf
  Hf60     1.0000 0.73845  0.39853  0.23880  Biso   1.000  Hf
  Hf61     1.0000 0.61845  0.99223  0.63649  Biso   1.000  Hf
  Hf62     1.0000 0.64205  0.25537  0.89170  Biso   1.000  Hf
  Hf63     1.0000 0.86414  0.23251  0.63307  Biso   1.000  Hf
  Hf64     1.0000 0.85689  0.98594  0.87627  Biso   1.000  Hf
  Hf65     1.0000 0.51926  0.13062  0.48993  Biso   1.000  Hf
  Hf66     1.0000 0.47142  0.07493  0.72488  Biso   1.000  Hf
  Hf67     1.0000 0.51441  0.32585  0.73399  Biso   1.000  Hf
  Hf68     1.0000 0.50371  0.38158  0.48509  Biso   1.000  Hf
  Hf69     1.0000 0.73478  0.13094  0.76544  Biso   1.000  Hf
  Hf70     1.0000 0.78132  0.06214  0.54105  Biso   1.000  Hf
  Hf71     1.0000 0.75712  0.31881  0.48602  Biso   1.000  Hf
  Hf72     1.0000 0.75643  0.38359  0.73992  Biso   1.000  Hf
  Hf73     1.0000 0.60617  0.51914  0.12893  Biso   1.000  Hf
  Hf74     1.0000 0.62326  0.73083  0.37705  Biso   1.000  Hf
  Hf75     1.0000 0.87482  0.77775  0.13663  Biso   1.000  Hf
  Hf76     1.0000 0.87304  0.47699  0.38068  Biso   1.000  Hf
  Hf77     1.0000 0.49962  0.65275  0.00019  Biso   1.000  Hf
  Hf78     1.0000 0.47504  0.61268  0.24931  Biso   1.000  Hf
  Hf79     1.0000 0.50933  0.85956  0.26335  Biso   1.000  Hf
  Hf80     1.0000 0.49537  0.90606  0.01775  Biso   1.000  Hf
  Hf81     1.0000 0.71953  0.66368  0.21759  Biso   1.000  Hf
  Hf82     1.0000 0.73983  0.57721  0.97870  Biso   1.000  Hf
  Hf83     1.0000 0.75129  0.83556  0.98157  Biso   1.000  Hf
  Hf84     1.0000 0.76074  0.90801  0.23501  Biso   1.000  Hf
  Hf85     1.0000 0.61830  0.48086  0.62451  Biso   1.000  Hf
  Hf86     1.0000 0.63972  0.72144  0.86191  Biso   1.000  Hf
  Hf87     1.0000 0.88779  0.75346  0.63616  Biso   1.000  Hf
  Hf88     1.0000 0.87822  0.48955  0.87191  Biso   1.000  Hf
  Hf89     1.0000 0.48916  0.62994  0.50179  Biso   1.000  Hf
  Hf90     1.0000 0.50596  0.58161  0.75104  Biso   1.000  Hf
  Hf91     1.0000 0.49977  0.83444  0.76318  Biso   1.000  Hf
  Hf92     1.0000 0.52065  0.87626  0.50897  Biso   1.000  Hf
  Hf93     1.0000 0.75503  0.62807  0.72722  Biso   1.000  Hf
  Hf94     1.0000 0.72203  0.56425  0.46597  Biso   1.000  Hf
  Hf95     1.0000 0.77715  0.81556  0.47592  Biso   1.000  Hf
  Hf96     1.0000 0.74981  0.87366  0.73766  Biso   1.000  Hf
  Mg1      1.0000 0.12599  0.32357  0.12394  Biso   1.000  Mg
