data_image0
_cell_length_a       4.99298
_cell_length_b       10.1584
_cell_length_c       9.98213
_cell_angle_alpha    89.9935
_cell_angle_beta     90.7395
_cell_angle_gamma    90.0002

_symmetry_space_group_name_H-M    "P 1"
_symmetry_int_tables_number       1

loop_
  _symmetry_equiv_pos_as_xyz
  'x, y, z'

loop_
  _atom_site_label
  _atom_site_occupancy
  _atom_site_fract_x
  _atom_site_fract_y
  _atom_site_fract_z
  _atom_site_thermal_displace_type
  _atom_site_B_iso_or_equiv
  _atom_site_type_symbol
  Mn1      1.0000 0.24992  0.01875  0.12529  Biso   1.000  Mn
  Hf1      1.0000 0.24999  0.99819  0.62530  Biso   1.000  Hf
  Hf2      1.0000 0.25003  0.49645  0.12530  Biso   1.000  Hf
  Hf3      1.0000 0.24999  0.50352  0.62531  Biso   1.000  Hf
  Hf4      1.0000 0.25383  0.24938  0.37751  Biso   1.000  Hf
  Hf5      1.0000 0.24629  0.24935  0.87313  Biso   1.000  Hf
  Hf6      1.0000 0.23359  0.75207  0.36982  Biso   1.000  Hf
  Hf7      1.0000 0.26651  0.75206  0.88076  Biso   1.000  Hf
  Hf8      1.0000 0.75006  0.24828  0.12532  Biso   1.000  Hf
  Hf9      1.0000 0.75006  0.24812  0.62530  Biso   1.000  Hf
  Hf10     1.0000 0.75010  0.74279  0.12529  Biso   1.000  Hf
  Hf11     1.0000 0.75002  0.75297  0.62530  Biso   1.000  Hf
  Hf12     1.0000 0.73360  0.99826  0.37140  Biso   1.000  Hf
  Hf13     1.0000 0.76637  0.99825  0.87920  Biso   1.000  Hf
  Hf14     1.0000 0.74743  0.50111  0.37895  Biso   1.000  Hf
  Hf15     1.0000 0.75258  0.50106  0.87166  Biso   1.000  Hf
  Hf16     1.0000 0.97884  0.14827  0.98900  Biso   1.000  Hf
  Hf17     1.0000 0.97346  0.14610  0.48327  Biso   1.000  Hf
  Hf18     1.0000 0.00709  0.64858  0.99785  Biso   1.000  Hf
  Hf19     1.0000 0.99966  0.64645  0.49722  Biso   1.000  Hf
  Hf20     1.0000 0.01696  0.09248  0.23546  Biso   1.000  Hf
  Hf21     1.0000 0.01422  0.10784  0.74124  Biso   1.000  Hf
  Hf22     1.0000 0.99579  0.59834  0.24640  Biso   1.000  Hf
  Hf23     1.0000 0.99591  0.60686  0.74571  Biso   1.000  Hf
  Hf24     1.0000 0.00407  0.34796  0.25057  Biso   1.000  Hf
  Hf25     1.0000 0.99570  0.35676  0.75227  Biso   1.000  Hf
  Hf26     1.0000 0.92153  0.84205  0.27675  Biso   1.000  Hf
  Hf27     1.0000 0.99810  0.85638  0.76713  Biso   1.000  Hf
  Hf28     1.0000 0.99502  0.39683  0.00159  Biso   1.000  Hf
  Hf29     1.0000 0.00346  0.39516  0.50222  Biso   1.000  Hf
  Hf30     1.0000 0.06401  0.90619  0.02175  Biso   1.000  Hf
  Hf31     1.0000 0.99033  0.89635  0.51379  Biso   1.000  Hf
  Hf32     1.0000 0.52117  0.14831  0.26163  Biso   1.000  Hf
  Hf33     1.0000 0.52664  0.14610  0.76735  Biso   1.000  Hf
  Hf34     1.0000 0.49305  0.64861  0.25275  Biso   1.000  Hf
  Hf35     1.0000 0.50032  0.64643  0.75338  Biso   1.000  Hf
  Hf36     1.0000 0.48296  0.09248  0.01515  Biso   1.000  Hf
  Hf37     1.0000 0.48587  0.10786  0.50940  Biso   1.000  Hf
  Hf38     1.0000 0.50437  0.59834  0.00421  Biso   1.000  Hf
  Hf39     1.0000 0.50406  0.60688  0.50488  Biso   1.000  Hf
  Hf40     1.0000 0.49601  0.34795  0.00004  Biso   1.000  Hf
  Hf41     1.0000 0.50433  0.35678  0.49836  Biso   1.000  Hf
  Hf42     1.0000 0.57837  0.84208  0.97391  Biso   1.000  Hf
  Hf43     1.0000 0.50184  0.85640  0.48352  Biso   1.000  Hf
  Hf44     1.0000 0.50507  0.39686  0.24903  Biso   1.000  Hf
  Hf45     1.0000 0.49655  0.39515  0.74841  Biso   1.000  Hf
  Hf46     1.0000 0.43584  0.90624  0.22892  Biso   1.000  Hf
  Hf47     1.0000 0.50961  0.89633  0.73686  Biso   1.000  Hf
