data_image0
_cell_length_a       5.05548
_cell_length_b       10.5489
_cell_length_c       10.0792
_cell_angle_alpha    89.0021
_cell_angle_beta     89.2518
_cell_angle_gamma    89.8771

_symmetry_space_group_name_H-M    "P 1"
_symmetry_int_tables_number       1

loop_
  _symmetry_equiv_pos_as_xyz
  'x, y, z'

loop_
  _atom_site_label
  _atom_site_occupancy
  _atom_site_fract_x
  _atom_site_fract_y
  _atom_site_fract_z
  _atom_site_thermal_displace_type
  _atom_site_B_iso_or_equiv
  _atom_site_type_symbol
  Hf1      1.0000 0.26011  0.01515  0.12347  Biso   1.000  Hf
  Hf2      1.0000 0.26640  0.22516  0.37957  Biso   1.000  Hf
  Hf3      1.0000 0.73498  0.25808  0.12630  Biso   1.000  Hf
  Hf4      1.0000 0.74361  0.47928  0.37346  Biso   1.000  Hf
  Hf5      1.0000 0.02305  0.16535  0.22766  Biso   1.000  Hf
  Hf6      1.0000 0.07220  0.05713  0.45342  Biso   1.000  Hf
  Hf7      1.0000 0.96659  0.43036  0.20576  Biso   1.000  Hf
  Hf8      1.0000 0.94587  0.31787  0.45680  Biso   1.000  Hf
  Hf9      1.0000 0.51859  0.10167  0.25065  Biso   1.000  Hf
  Hf10     1.0000 0.54706  0.13036  0.50087  Biso   1.000  Hf
  Hf11     1.0000 0.47413  0.38380  0.50574  Biso   1.000  Hf
  Hf12     1.0000 0.50103  0.34959  0.26433  Biso   1.000  Hf
  Hf13     1.0000 0.27756  0.00655  0.61968  Biso   1.000  Hf
  Hf14     1.0000 0.24046  0.22478  0.85609  Biso   1.000  Hf
  Hf15     1.0000 0.72947  0.26470  0.62484  Biso   1.000  Hf
  Hf16     1.0000 0.73971  0.48955  0.87106  Biso   1.000  Hf
  Hf17     1.0000 0.04446  0.16280  0.69191  Biso   1.000  Hf
  Hf18     1.0000 0.03158  0.07039  0.95401  Biso   1.000  Hf
  Hf19     1.0000 0.94579  0.42058  0.70339  Biso   1.000  Hf
  Hf20     1.0000 0.94530  0.32295  0.95088  Biso   1.000  Hf
  Hf21     1.0000 0.52480  0.10661  0.75019  Biso   1.000  Hf
  Hf22     1.0000 0.48044  0.16305  0.00646  Biso   1.000  Hf
  Hf23     1.0000 0.50709  0.41773  0.01364  Biso   1.000  Hf
  Hf24     1.0000 0.46794  0.36076  0.75696  Biso   1.000  Hf
  Hf25     1.0000 0.26005  0.54465  0.11360  Biso   1.000  Hf
  Hf26     1.0000 0.27012  0.73096  0.37351  Biso   1.000  Hf
  Hf27     1.0000 0.72824  0.77106  0.12334  Biso   1.000  Hf
  Hf28     1.0000 0.74433  0.98350  0.37112  Biso   1.000  Hf
  Hf29     1.0000 0.04927  0.68959  0.20577  Biso   1.000  Hf
  Hf30     1.0000 0.06639  0.56621  0.45141  Biso   1.000  Hf
  Hf31     1.0000 0.92707  0.93071  0.19554  Biso   1.000  Hf
  Hf32     1.0000 0.94028  0.81540  0.44579  Biso   1.000  Hf
  Hf33     1.0000 0.54063  0.61379  0.24556  Biso   1.000  Hf
  Hf34     1.0000 0.53898  0.63044  0.49479  Biso   1.000  Hf
  Hf35     1.0000 0.47285  0.88016  0.49306  Biso   1.000  Hf
  Hf36     1.0000 0.45363  0.86152  0.24323  Biso   1.000  Hf
  Hf37     1.0000 0.26863  0.51079  0.62365  Biso   1.000  Hf
  Hf38     1.0000 0.25833  0.74087  0.86227  Biso   1.000  Hf
  Hf39     1.0000 0.73917  0.75624  0.61557  Biso   1.000  Hf
  Hf40     1.0000 0.74996  0.97709  0.86177  Biso   1.000  Hf
  Hf41     1.0000 0.06509  0.67388  0.69449  Biso   1.000  Hf
  Hf42     1.0000 0.05886  0.57837  0.94247  Biso   1.000  Hf
  Hf43     1.0000 0.95803  0.91446  0.70027  Biso   1.000  Hf
  Hf44     1.0000 0.94475  0.82146  0.95039  Biso   1.000  Hf
  Hf45     1.0000 0.53518  0.60945  0.74266  Biso   1.000  Hf
  Hf46     1.0000 0.52911  0.65968  0.98788  Biso   1.000  Hf
  Hf47     1.0000 0.47062  0.90349  0.99126  Biso   1.000  Hf
  Hf48     1.0000 0.48158  0.85802  0.73954  Biso   1.000  Hf
  Mo1      1.0000 0.23123  0.30510  0.11064  Biso   1.000  Mo
