data_image0
_cell_length_a       10.0872
_cell_length_b       5.1783
_cell_length_c       10.1076
_cell_angle_alpha    90.4801
_cell_angle_beta     91.032
_cell_angle_gamma    87.6577

_symmetry_space_group_name_H-M    "P 1"
_symmetry_int_tables_number       1

loop_
  _symmetry_equiv_pos_as_xyz
  'x, y, z'

loop_
  _atom_site_label
  _atom_site_occupancy
  _atom_site_fract_x
  _atom_site_fract_y
  _atom_site_fract_z
  _atom_site_thermal_displace_type
  _atom_site_B_iso_or_equiv
  _atom_site_type_symbol
  Hf1      1.0000 0.12798  0.07124  0.12482  Biso   1.000  Hf
  Hf2      1.0000 0.13815  0.50916  0.39995  Biso   1.000  Hf
  Hf3      1.0000 0.40733  0.47244  0.11322  Biso   1.000  Hf
  Hf4      1.0000 0.38000  0.96081  0.38296  Biso   1.000  Hf
  Hf5      1.0000 0.00627  0.35354  0.00788  Biso   1.000  Hf
  Hf6      1.0000 0.01249  0.33340  0.25023  Biso   1.000  Hf
  Hf7      1.0000 0.97160  0.81603  0.21068  Biso   1.000  Hf
  Hf8      1.0000 0.03089  0.83742  0.97409  Biso   1.000  Hf
  Hf9      1.0000 0.25356  0.33518  0.24227  Biso   1.000  Hf
  Hf10     1.0000 0.24835  0.29923  0.99735  Biso   1.000  Hf
  Hf11     1.0000 0.27512  0.78729  0.03736  Biso   1.000  Hf
  Hf12     1.0000 0.21446  0.83259  0.27783  Biso   1.000  Hf
  Hf13     1.0000 0.12807  0.01826  0.62232  Biso   1.000  Hf
  Hf14     1.0000 0.11395  0.51296  0.85248  Biso   1.000  Hf
  Hf15     1.0000 0.39018  0.44894  0.62373  Biso   1.000  Hf
  Hf16     1.0000 0.38106  0.95364  0.87985  Biso   1.000  Hf
  Hf17     1.0000 0.00939  0.32287  0.51961  Biso   1.000  Hf
  Hf18     1.0000 0.99179  0.21997  0.76056  Biso   1.000  Hf
  Hf19     1.0000 0.98027  0.72116  0.72505  Biso   1.000  Hf
  Hf20     1.0000 0.02317  0.82707  0.47365  Biso   1.000  Hf
  Hf21     1.0000 0.23599  0.31533  0.72875  Biso   1.000  Hf
  Hf22     1.0000 0.25355  0.20867  0.49170  Biso   1.000  Hf
  Hf23     1.0000 0.26386  0.71647  0.52644  Biso   1.000  Hf
  Hf24     1.0000 0.22101  0.82603  0.77937  Biso   1.000  Hf
  Hf25     1.0000 0.64018  0.03857  0.11269  Biso   1.000  Hf
  Hf26     1.0000 0.61885  0.46633  0.35889  Biso   1.000  Hf
  Hf27     1.0000 0.85220  0.49686  0.13580  Biso   1.000  Hf
  Hf28     1.0000 0.86193  0.94785  0.37183  Biso   1.000  Hf
  Hf29     1.0000 0.50443  0.23507  0.97230  Biso   1.000  Hf
  Hf30     1.0000 0.49806  0.15710  0.24417  Biso   1.000  Hf
  Hf31     1.0000 0.46201  0.65823  0.27797  Biso   1.000  Hf
  Hf32     1.0000 0.51735  0.76287  0.01313  Biso   1.000  Hf
  Hf33     1.0000 0.76565  0.23681  0.25883  Biso   1.000  Hf
  Hf34     1.0000 0.77323  0.22615  0.99425  Biso   1.000  Hf
  Hf35     1.0000 0.76821  0.74565  0.99588  Biso   1.000  Hf
  Hf36     1.0000 0.72415  0.75482  0.25207  Biso   1.000  Hf
  Hf37     1.0000 0.63018  0.98053  0.61364  Biso   1.000  Hf
  Hf38     1.0000 0.63750  0.50111  0.89866  Biso   1.000  Hf
  Hf39     1.0000 0.85731  0.45690  0.63256  Biso   1.000  Hf
  Hf40     1.0000 0.87139  0.96892  0.85936  Biso   1.000  Hf
  Hf41     1.0000 0.50588  0.24200  0.48817  Biso   1.000  Hf
  Hf42     1.0000 0.47548  0.11476  0.72139  Biso   1.000  Hf
  Hf43     1.0000 0.47268  0.62790  0.78159  Biso   1.000  Hf
  Hf44     1.0000 0.51151  0.73556  0.51168  Biso   1.000  Hf
  Hf45     1.0000 0.73386  0.24663  0.75004  Biso   1.000  Hf
  Hf46     1.0000 0.75621  0.19036  0.50414  Biso   1.000  Hf
  Hf47     1.0000 0.76330  0.69192  0.49195  Biso   1.000  Hf
  Hf48     1.0000 0.73224  0.74365  0.75116  Biso   1.000  Hf
  Mo1      1.0000 0.12694  0.57503  0.12642  Biso   1.000  Mo
