data_image0
_cell_length_a       10.0874
_cell_length_b       10.2368
_cell_length_c       5.29834
_cell_angle_alpha    90.0203
_cell_angle_beta     91.3747
_cell_angle_gamma    90.4472

_symmetry_space_group_name_H-M    "P 1"
_symmetry_int_tables_number       1

loop_
  _symmetry_equiv_pos_as_xyz
  'x, y, z'

loop_
  _atom_site_label
  _atom_site_occupancy
  _atom_site_fract_x
  _atom_site_fract_y
  _atom_site_fract_z
  _atom_site_thermal_displace_type
  _atom_site_B_iso_or_equiv
  _atom_site_type_symbol
  Hf1      1.0000 0.14191  0.02220  0.34358  Biso   1.000  Hf
  Hf2      1.0000 0.14265  0.22868  0.84244  Biso   1.000  Hf
  Hf3      1.0000 0.36559  0.26675  0.35996  Biso   1.000  Hf
  Hf4      1.0000 0.35792  0.48042  0.84402  Biso   1.000  Hf
  Hf5      1.0000 0.64366  0.00428  0.15083  Biso   1.000  Hf
  Hf6      1.0000 0.63480  0.22650  0.67185  Biso   1.000  Hf
  Hf7      1.0000 0.87353  0.26908  0.14221  Biso   1.000  Hf
  Hf8      1.0000 0.86212  0.47928  0.65487  Biso   1.000  Hf
  O1       1.0000 0.03441  0.15624  0.14454  Biso   1.000  O
  O2       1.0000 0.03061  0.09321  0.64268  Biso   1.000  O
  O3       1.0000 0.46926  0.41429  0.15713  Biso   1.000  O
  O4       1.0000 0.46576  0.34127  0.67550  Biso   1.000  O
  O5       1.0000 0.27270  0.12504  0.60208  Biso   1.000  O
  O6       1.0000 0.27543  0.12366  0.09755  Biso   1.000  O
  O7       1.0000 0.22189  0.37546  0.59282  Biso   1.000  O
  O8       1.0000 0.22374  0.37660  0.09207  Biso   1.000  O
  O9       1.0000 0.51472  0.12074  0.40991  Biso   1.000  O
  O10      1.0000 0.51912  0.11317  0.91191  Biso   1.000  O
  O11      1.0000 0.96594  0.41326  0.33762  Biso   1.000  O
  O12      1.0000 0.97091  0.33825  0.82923  Biso   1.000  O
  O13      1.0000 0.78490  0.11471  0.87865  Biso   1.000  O
  O14      1.0000 0.76238  0.13630  0.37564  Biso   1.000  O
  O15      1.0000 0.72651  0.37729  0.93259  Biso   1.000  O
  O16      1.0000 0.71402  0.38525  0.42977  Biso   1.000  O
  Hf9      1.0000 0.13999  0.51929  0.34162  Biso   1.000  Hf
  Hf10     1.0000 0.14003  0.72853  0.84117  Biso   1.000  Hf
  Hf11     1.0000 0.36141  0.77258  0.34759  Biso   1.000  Hf
  Hf12     1.0000 0.36330  0.97947  0.85230  Biso   1.000  Hf
  Hf13     1.0000 0.64014  0.53267  0.15356  Biso   1.000  Hf
  Hf14     1.0000 0.63940  0.72938  0.65328  Biso   1.000  Hf
  Hf15     1.0000 0.86787  0.76992  0.15405  Biso   1.000  Hf
  Hf16     1.0000 0.86734  0.97688  0.65034  Biso   1.000  Hf
  O17      1.0000 0.03394  0.66068  0.15404  Biso   1.000  O
  O18      1.0000 0.03175  0.58901  0.65428  Biso   1.000  O
  O19      1.0000 0.47341  0.89494  0.13904  Biso   1.000  O
  O20      1.0000 0.47598  0.85062  0.64690  Biso   1.000  O
  O21      1.0000 0.27502  0.62569  0.59030  Biso   1.000  O
  O22      1.0000 0.27557  0.62609  0.09153  Biso   1.000  O
  O23      1.0000 0.22652  0.87394  0.59292  Biso   1.000  O
  O24      1.0000 0.22630  0.87707  0.09145  Biso   1.000  O
  O25      1.0000 0.52858  0.65966  0.35082  Biso   1.000  O
  O26      1.0000 0.52829  0.59672  0.84710  Biso   1.000  O
  O27      1.0000 0.97218  0.91254  0.33160  Biso   1.000  O
  O28      1.0000 0.97188  0.83933  0.83581  Biso   1.000  O
  O29      1.0000 0.77804  0.62448  0.90050  Biso   1.000  O
  O30      1.0000 0.77887  0.62992  0.40362  Biso   1.000  O
  O31      1.0000 0.72911  0.87007  0.90798  Biso   1.000  O
  O32      1.0000 0.73188  0.87209  0.41190  Biso   1.000  O
  Mo1      1.0000 0.60753  0.25682  0.18741  Biso   1.000  Mo
