data_image0
_cell_length_a       9.96571
_cell_length_b       5.19865
_cell_length_c       10.076
_cell_angle_alpha    89.5002
_cell_angle_beta     89.0637
_cell_angle_gamma    90.5917

_symmetry_space_group_name_H-M    "P 1"
_symmetry_int_tables_number       1

loop_
  _symmetry_equiv_pos_as_xyz
  'x, y, z'

loop_
  _atom_site_label
  _atom_site_occupancy
  _atom_site_fract_x
  _atom_site_fract_y
  _atom_site_fract_z
  _atom_site_thermal_displace_type
  _atom_site_B_iso_or_equiv
  _atom_site_type_symbol
  Hf1      1.0000 0.14616  0.00854  0.12097  Biso   1.000  Hf
  Hf2      1.0000 0.14452  0.47449  0.39812  Biso   1.000  Hf
  Hf3      1.0000 0.36552  0.52299  0.12789  Biso   1.000  Hf
  Hf4      1.0000 0.37066  0.97065  0.37564  Biso   1.000  Hf
  Hf5      1.0000 0.00881  0.42714  0.24318  Biso   1.000  Hf
  Hf6      1.0000 0.04052  0.13764  0.45115  Biso   1.000  Hf
  Hf7      1.0000 0.45966  0.87058  0.19103  Biso   1.000  Hf
  Hf8      1.0000 0.46698  0.63591  0.44397  Biso   1.000  Hf
  Hf9      1.0000 0.25869  0.23321  0.25505  Biso   1.000  Hf
  Hf10     1.0000 0.28088  0.26317  0.50647  Biso   1.000  Hf
  Hf11     1.0000 0.23698  0.77266  0.50673  Biso   1.000  Hf
  Hf12     1.0000 0.23032  0.72487  0.25493  Biso   1.000  Hf
  Hf13     1.0000 0.13813  0.03630  0.63334  Biso   1.000  Hf
  Hf14     1.0000 0.13325  0.45780  0.87996  Biso   1.000  Hf
  Hf15     1.0000 0.37138  0.53702  0.63049  Biso   1.000  Hf
  Hf16     1.0000 0.37013  0.96337  0.87555  Biso   1.000  Hf
  Hf17     1.0000 0.04377  0.37962  0.68981  Biso   1.000  Hf
  Hf18     1.0000 0.04979  0.10246  0.92244  Biso   1.000  Hf
  Hf19     1.0000 0.46887  0.87035  0.69542  Biso   1.000  Hf
  Hf20     1.0000 0.46605  0.62872  0.94518  Biso   1.000  Hf
  Hf21     1.0000 0.27543  0.24024  0.75377  Biso   1.000  Hf
  Hf22     1.0000 0.28044  0.24768  0.00147  Biso   1.000  Hf
  Hf23     1.0000 0.23257  0.74519  0.00016  Biso   1.000  Hf
  Hf24     1.0000 0.23190  0.73531  0.75369  Biso   1.000  Hf
  Hf25     1.0000 0.63363  0.03771  0.12535  Biso   1.000  Hf
  Hf26     1.0000 0.63816  0.47162  0.37523  Biso   1.000  Hf
  Hf27     1.0000 0.85539  0.54840  0.11245  Biso   1.000  Hf
  Hf28     1.0000 0.87198  0.97728  0.37296  Biso   1.000  Hf
  Hf29     1.0000 0.53329  0.36722  0.19739  Biso   1.000  Hf
  Hf30     1.0000 0.54013  0.13274  0.44328  Biso   1.000  Hf
  Hf31     1.0000 0.96442  0.88953  0.18652  Biso   1.000  Hf
  Hf32     1.0000 0.97226  0.65210  0.45072  Biso   1.000  Hf
  Hf33     1.0000 0.76802  0.24210  0.24538  Biso   1.000  Hf
  Hf34     1.0000 0.77557  0.27297  0.49555  Biso   1.000  Hf
  Hf35     1.0000 0.73465  0.77021  0.49715  Biso   1.000  Hf
  Hf36     1.0000 0.72707  0.74827  0.24916  Biso   1.000  Hf
  Hf37     1.0000 0.63966  0.03578  0.62267  Biso   1.000  Hf
  Hf38     1.0000 0.63419  0.46807  0.87149  Biso   1.000  Hf
  Hf39     1.0000 0.87123  0.54084  0.62455  Biso   1.000  Hf
  Hf40     1.0000 0.86803  0.97318  0.86896  Biso   1.000  Hf
  Hf41     1.0000 0.54072  0.36993  0.69188  Biso   1.000  Hf
  Hf42     1.0000 0.53879  0.13140  0.94238  Biso   1.000  Hf
  Hf43     1.0000 0.96237  0.87859  0.68858  Biso   1.000  Hf
  Hf44     1.0000 0.95552  0.62929  0.92463  Biso   1.000  Hf
  Hf45     1.0000 0.77316  0.24005  0.74527  Biso   1.000  Hf
  Hf46     1.0000 0.76909  0.26789  0.99498  Biso   1.000  Hf
  Hf47     1.0000 0.72697  0.77161  0.99671  Biso   1.000  Hf
  Hf48     1.0000 0.73051  0.74072  0.74656  Biso   1.000  Hf
  N1       1.0000 0.03901  0.35891  0.12054  Biso   1.000  N 
