data_image0
_cell_length_a       10.095
_cell_length_b       5.13065
_cell_length_c       10.4419
_cell_angle_alpha    90.0114
_cell_angle_beta     80.1257
_cell_angle_gamma    89.8772

_symmetry_space_group_name_H-M    "P 1"
_symmetry_int_tables_number       1

loop_
  _symmetry_equiv_pos_as_xyz
  'x, y, z'

loop_
  _atom_site_label
  _atom_site_occupancy
  _atom_site_fract_x
  _atom_site_fract_y
  _atom_site_fract_z
  _atom_site_thermal_displace_type
  _atom_site_B_iso_or_equiv
  _atom_site_type_symbol
  Nb1      1.0000 0.13864  0.04607  0.14679  Biso   1.000  Nb
  Hf1      1.0000 0.13995  0.45807  0.39526  Biso   1.000  Hf
  Hf2      1.0000 0.35901  0.54784  0.10513  Biso   1.000  Hf
  Hf3      1.0000 0.36147  0.95796  0.35391  Biso   1.000  Hf
  O1       1.0000 0.03666  0.33231  0.08142  Biso   1.000  O
  O2       1.0000 0.03978  0.15545  0.32699  Biso   1.000  O
  O3       1.0000 0.46515  0.83924  0.17019  Biso   1.000  O
  O4       1.0000 0.46484  0.66144  0.41975  Biso   1.000  O
  O5       1.0000 0.27715  0.25861  0.24072  Biso   1.000  O
  O6       1.0000 0.27756  0.24248  0.49099  Biso   1.000  O
  O7       1.0000 0.21751  0.76101  0.01081  Biso   1.000  O
  O8       1.0000 0.22332  0.74473  0.26008  Biso   1.000  O
  Hf4      1.0000 0.13876  0.04271  0.64576  Biso   1.000  Hf
  Hf5      1.0000 0.13872  0.45663  0.89559  Biso   1.000  Hf
  Hf6      1.0000 0.36144  0.54328  0.60426  Biso   1.000  Hf
  Hf7      1.0000 0.35956  0.95797  0.85520  Biso   1.000  Hf
  O9       1.0000 0.03538  0.33629  0.57851  Biso   1.000  O
  O10      1.0000 0.03501  0.16153  0.82968  Biso   1.000  O
  O11      1.0000 0.46351  0.84008  0.67015  Biso   1.000  O
  O12      1.0000 0.46109  0.66018  0.92028  Biso   1.000  O
  O13      1.0000 0.27662  0.25818  0.74095  Biso   1.000  O
  O14      1.0000 0.27462  0.24177  0.99275  Biso   1.000  O
  O15      1.0000 0.22324  0.75744  0.50933  Biso   1.000  O
  O16      1.0000 0.22268  0.74181  0.75962  Biso   1.000  O
  Hf8      1.0000 0.63894  0.04518  0.14564  Biso   1.000  Hf
  Hf9      1.0000 0.63992  0.45711  0.39559  Biso   1.000  Hf
  Hf10     1.0000 0.86204  0.54406  0.10346  Biso   1.000  Hf
  Hf11     1.0000 0.86160  0.95650  0.35310  Biso   1.000  Hf
  O17      1.0000 0.53465  0.34108  0.08122  Biso   1.000  O
  O18      1.0000 0.53704  0.16122  0.33084  Biso   1.000  O
  O19      1.0000 0.97019  0.83616  0.16787  Biso   1.000  O
  O20      1.0000 0.96410  0.65862  0.41826  Biso   1.000  O
  O21      1.0000 0.77848  0.25756  0.24023  Biso   1.000  O
  O22      1.0000 0.77810  0.24042  0.49001  Biso   1.000  O
  O23      1.0000 0.72205  0.75917  0.00916  Biso   1.000  O
  O24      1.0000 0.72586  0.74215  0.25891  Biso   1.000  O
  Hf12     1.0000 0.63863  0.04254  0.64622  Biso   1.000  Hf
  Hf13     1.0000 0.63770  0.45762  0.89655  Biso   1.000  Hf
  Hf14     1.0000 0.86073  0.54219  0.60397  Biso   1.000  Hf
  Hf15     1.0000 0.86041  0.95674  0.85423  Biso   1.000  Hf
  O25      1.0000 0.53701  0.34048  0.58071  Biso   1.000  O
  O26      1.0000 0.53489  0.16055  0.83136  Biso   1.000  O
  O27      1.0000 0.96411  0.83731  0.66937  Biso   1.000  O
  O28      1.0000 0.96345  0.65910  0.91972  Biso   1.000  O
  O29      1.0000 0.77606  0.25801  0.74060  Biso   1.000  O
  O30      1.0000 0.77615  0.24301  0.99025  Biso   1.000  O
  O31      1.0000 0.72372  0.75840  0.50910  Biso   1.000  O
  O32      1.0000 0.72250  0.74171  0.75951  Biso   1.000  O
