data_image0
_cell_length_a       9.97797
_cell_length_b       10.3889
_cell_length_c       10.0197
_cell_angle_alpha    89.8926
_cell_angle_beta     89.7202
_cell_angle_gamma    90.0155

_symmetry_space_group_name_H-M    "P 1"
_symmetry_int_tables_number       1

loop_
  _symmetry_equiv_pos_as_xyz
  'x, y, z'

loop_
  _atom_site_label
  _atom_site_occupancy
  _atom_site_fract_x
  _atom_site_fract_y
  _atom_site_fract_z
  _atom_site_thermal_displace_type
  _atom_site_B_iso_or_equiv
  _atom_site_type_symbol
  Hf1      1.0000 0.13568  0.01889  0.12407  Biso   1.000  Hf
  Hf2      1.0000 0.13676  0.23134  0.38369  Biso   1.000  Hf
  Hf3      1.0000 0.36867  0.26435  0.12550  Biso   1.000  Hf
  Hf4      1.0000 0.36765  0.48388  0.37761  Biso   1.000  Hf
  Hf5      1.0000 0.01799  0.17038  0.21415  Biso   1.000  Hf
  Hf6      1.0000 0.03733  0.06424  0.44990  Biso   1.000  Hf
  Hf7      1.0000 0.46481  0.43346  0.19467  Biso   1.000  Hf
  Hf8      1.0000 0.46518  0.31672  0.44685  Biso   1.000  Hf
  Hf9      1.0000 0.26912  0.11801  0.25250  Biso   1.000  Hf
  Hf10     1.0000 0.27313  0.13144  0.50238  Biso   1.000  Hf
  Hf11     1.0000 0.23141  0.38208  0.50388  Biso   1.000  Hf
  Hf12     1.0000 0.23433  0.37136  0.25683  Biso   1.000  Hf
  Hf13     1.0000 0.13464  0.01509  0.62803  Biso   1.000  Hf
  Hf14     1.0000 0.13355  0.22847  0.87563  Biso   1.000  Hf
  Hf15     1.0000 0.36645  0.26701  0.62852  Biso   1.000  Hf
  Hf16     1.0000 0.36571  0.48290  0.87622  Biso   1.000  Hf
  Hf17     1.0000 0.03633  0.18266  0.69308  Biso   1.000  Hf
  Hf18     1.0000 0.03712  0.06138  0.94308  Biso   1.000  Hf
  Hf19     1.0000 0.46381  0.43489  0.69568  Biso   1.000  Hf
  Hf20     1.0000 0.46259  0.31514  0.94298  Biso   1.000  Hf
  Hf21     1.0000 0.27052  0.11659  0.74991  Biso   1.000  Hf
  Hf22     1.0000 0.28186  0.12481  0.99630  Biso   1.000  Hf
  Hf23     1.0000 0.22574  0.38070  0.00397  Biso   1.000  Hf
  Hf24     1.0000 0.22925  0.36756  0.75277  Biso   1.000  Hf
  Hf25     1.0000 0.13544  0.52992  0.12712  Biso   1.000  Hf
  Hf26     1.0000 0.13579  0.73570  0.37838  Biso   1.000  Hf
  Hf27     1.0000 0.36708  0.76823  0.12676  Biso   1.000  Hf
  Hf28     1.0000 0.36682  0.98357  0.37684  Biso   1.000  Hf
  Hf29     1.0000 0.03518  0.68677  0.19782  Biso   1.000  Hf
  Hf30     1.0000 0.03836  0.56611  0.44297  Biso   1.000  Hf
  Hf31     1.0000 0.46334  0.93443  0.19485  Biso   1.000  Hf
  Hf32     1.0000 0.46504  0.81550  0.44353  Biso   1.000  Hf
  Hf33     1.0000 0.27406  0.62241  0.25159  Biso   1.000  Hf
  Hf34     1.0000 0.27156  0.63217  0.50080  Biso   1.000  Hf
  Hf35     1.0000 0.23100  0.88211  0.50073  Biso   1.000  Hf
  Hf36     1.0000 0.22952  0.86965  0.25035  Biso   1.000  Hf
  Hf37     1.0000 0.13446  0.51640  0.62662  Biso   1.000  Hf
  Hf38     1.0000 0.13406  0.73442  0.87478  Biso   1.000  Hf
  Hf39     1.0000 0.36801  0.76571  0.62564  Biso   1.000  Hf
  Hf40     1.0000 0.36808  0.98142  0.87522  Biso   1.000  Hf
  Hf41     1.0000 0.03720  0.68479  0.69336  Biso   1.000  Hf
  Hf42     1.0000 0.03631  0.56650  0.94557  Biso   1.000  Hf
  Hf43     1.0000 0.46542  0.93348  0.69209  Biso   1.000  Hf
  Hf44     1.0000 0.46542  0.81555  0.94532  Biso   1.000  Hf
  Hf45     1.0000 0.27074  0.61699  0.75055  Biso   1.000  Hf
  Hf46     1.0000 0.27142  0.63340  0.99969  Biso   1.000  Hf
  Hf47     1.0000 0.22892  0.88023  0.00017  Biso   1.000  Hf
  Hf48     1.0000 0.23170  0.86649  0.74984  Biso   1.000  Hf
  Hf49     1.0000 0.63311  0.01442  0.12475  Biso   1.000  Hf
  Hf50     1.0000 0.63404  0.23307  0.37653  Biso   1.000  Hf
  Hf51     1.0000 0.85564  0.26450  0.12093  Biso   1.000  Hf
  Hf52     1.0000 0.86841  0.48269  0.37532  Biso   1.000  Hf
  Hf53     1.0000 0.53584  0.18230  0.19511  Biso   1.000  Hf
  Hf54     1.0000 0.53688  0.06570  0.44447  Biso   1.000  Hf
  Hf55     1.0000 0.96482  0.43220  0.19038  Biso   1.000  Hf
  Hf56     1.0000 0.96685  0.31753  0.44657  Biso   1.000  Hf
  Hf57     1.0000 0.76559  0.11545  0.24859  Biso   1.000  Hf
  Hf58     1.0000 0.77200  0.13386  0.49844  Biso   1.000  Hf
  Hf59     1.0000 0.73113  0.38267  0.49869  Biso   1.000  Hf
  Hf60     1.0000 0.72938  0.36755  0.24964  Biso   1.000  Hf
  Hf61     1.0000 0.63554  0.01624  0.62453  Biso   1.000  Hf
  Hf62     1.0000 0.63323  0.23254  0.87351  Biso   1.000  Hf
  Hf63     1.0000 0.86692  0.26716  0.62678  Biso   1.000  Hf
  Hf64     1.0000 0.86596  0.48330  0.87442  Biso   1.000  Hf
  Hf65     1.0000 0.53686  0.18387  0.69354  Biso   1.000  Hf
  Hf66     1.0000 0.53928  0.06394  0.94173  Biso   1.000  Hf
  Hf67     1.0000 0.96272  0.43643  0.69162  Biso   1.000  Hf
  Hf68     1.0000 0.95260  0.31235  0.92864  Biso   1.000  Hf
  Hf69     1.0000 0.77097  0.11701  0.74857  Biso   1.000  Hf
  Hf70     1.0000 0.76933  0.12996  0.99787  Biso   1.000  Hf
  Hf71     1.0000 0.72511  0.38156  0.99918  Biso   1.000  Hf
  Hf72     1.0000 0.72772  0.36842  0.74816  Biso   1.000  Hf
  Hf73     1.0000 0.63360  0.51729  0.12627  Biso   1.000  Hf
  Hf74     1.0000 0.63576  0.73349  0.37556  Biso   1.000  Hf
  Hf75     1.0000 0.86503  0.76653  0.12495  Biso   1.000  Hf
  Hf76     1.0000 0.86898  0.98511  0.37312  Biso   1.000  Hf
  Hf77     1.0000 0.53767  0.68495  0.19397  Biso   1.000  Hf
  Hf78     1.0000 0.53811  0.56604  0.44395  Biso   1.000  Hf
  Hf79     1.0000 0.96459  0.93164  0.19235  Biso   1.000  Hf
  Hf80     1.0000 0.96501  0.81705  0.44442  Biso   1.000  Hf
  Hf81     1.0000 0.77178  0.61668  0.24919  Biso   1.000  Hf
  Hf82     1.0000 0.77214  0.63242  0.49876  Biso   1.000  Hf
  Hf83     1.0000 0.73182  0.88354  0.49813  Biso   1.000  Hf
  Hf84     1.0000 0.72991  0.86705  0.24879  Biso   1.000  Hf
  Hf85     1.0000 0.63502  0.51604  0.62508  Biso   1.000  Hf
  Hf86     1.0000 0.63456  0.73226  0.87529  Biso   1.000  Hf
  Hf87     1.0000 0.86675  0.76626  0.62476  Biso   1.000  Hf
  Hf88     1.0000 0.86570  0.98175  0.87452  Biso   1.000  Hf
  Hf89     1.0000 0.53697  0.68358  0.69414  Biso   1.000  Hf
  Hf90     1.0000 0.53509  0.56556  0.94416  Biso   1.000  Hf
  Hf91     1.0000 0.96490  0.93220  0.69582  Biso   1.000  Hf
  Hf92     1.0000 0.96281  0.81391  0.94310  Biso   1.000  Hf
  Hf93     1.0000 0.77047  0.61755  0.74839  Biso   1.000  Hf
  Hf94     1.0000 0.76973  0.63142  0.99908  Biso   1.000  Hf
  Hf95     1.0000 0.72970  0.88080  0.99905  Biso   1.000  Hf
  Hf96     1.0000 0.72985  0.86699  0.74874  Biso   1.000  Hf
  Ni1      1.0000 0.10614  0.29207  0.11917  Biso   1.000  Ni
