data_image0
_cell_length_a       9.98606
_cell_length_b       5.08395
_cell_length_c       10.3977
_cell_angle_alpha    90.0708
_cell_angle_beta     90.6883
_cell_angle_gamma    89.358

_symmetry_space_group_name_H-M    "P 1"
_symmetry_int_tables_number       1

loop_
  _symmetry_equiv_pos_as_xyz
  'x, y, z'

loop_
  _atom_site_label
  _atom_site_occupancy
  _atom_site_fract_x
  _atom_site_fract_y
  _atom_site_fract_z
  _atom_site_thermal_displace_type
  _atom_site_B_iso_or_equiv
  _atom_site_type_symbol
  Ni1      1.0000 0.12349  0.02221  0.19325  Biso   1.000  Ni
  Hf1      1.0000 0.13835  0.03881  0.66925  Biso   1.000  Hf
  Hf2      1.0000 0.13725  0.45958  0.41600  Biso   1.000  Hf
  Hf3      1.0000 0.14349  0.45429  0.92312  Biso   1.000  Hf
  Hf4      1.0000 0.35400  0.55526  0.16573  Biso   1.000  Hf
  Hf5      1.0000 0.36151  0.54499  0.67130  Biso   1.000  Hf
  Hf6      1.0000 0.35707  0.96336  0.41777  Biso   1.000  Hf
  Hf7      1.0000 0.36050  0.96698  0.92407  Biso   1.000  Hf
  Hf8      1.0000 0.64038  0.04371  0.07797  Biso   1.000  Hf
  Hf9      1.0000 0.63626  0.03989  0.58058  Biso   1.000  Hf
  Hf10     1.0000 0.63373  0.45567  0.32760  Biso   1.000  Hf
  Hf11     1.0000 0.64046  0.46099  0.83112  Biso   1.000  Hf
  Hf12     1.0000 0.87179  0.52895  0.08447  Biso   1.000  Hf
  Hf13     1.0000 0.85878  0.53679  0.58065  Biso   1.000  Hf
  Hf14     1.0000 0.85603  0.95412  0.33143  Biso   1.000  Hf
  Hf15     1.0000 0.86481  0.95387  0.83291  Biso   1.000  Hf
  O1       1.0000 0.04914  0.30746  0.09393  Biso   1.000  O
  O2       1.0000 0.03001  0.31549  0.57466  Biso   1.000  O
  O3       1.0000 0.03476  0.15611  0.33151  Biso   1.000  O
  O4       1.0000 0.03503  0.17183  0.83242  Biso   1.000  O
  O5       1.0000 0.46829  0.83994  0.08608  Biso   1.000  O
  O6       1.0000 0.46172  0.84381  0.58555  Biso   1.000  O
  O7       1.0000 0.45467  0.65194  0.33909  Biso   1.000  O
  O8       1.0000 0.46790  0.67002  0.83435  Biso   1.000  O
  O9       1.0000 0.26549  0.23869  0.27885  Biso   1.000  O
  O10      1.0000 0.27650  0.24227  0.78596  Biso   1.000  O
  O11      1.0000 0.30351  0.30987  0.02278  Biso   1.000  O
  O12      1.0000 0.27583  0.25718  0.53768  Biso   1.000  O
  O13      1.0000 0.21100  0.75922  0.29119  Biso   1.000  O
  O14      1.0000 0.22412  0.74483  0.79804  Biso   1.000  O
  O15      1.0000 0.21571  0.80328  0.05286  Biso   1.000  O
  O16      1.0000 0.22079  0.75138  0.54217  Biso   1.000  O
  O17      1.0000 0.53479  0.34443  0.16177  Biso   1.000  O
  O18      1.0000 0.53604  0.34332  0.66146  Biso   1.000  O
  O19      1.0000 0.53249  0.15590  0.40977  Biso   1.000  O
  O20      1.0000 0.54053  0.15883  0.91038  Biso   1.000  O
  O21      1.0000 0.96945  0.83755  0.16974  Biso   1.000  O
  O22      1.0000 0.96921  0.81664  0.67106  Biso   1.000  O
  O23      1.0000 0.96247  0.66198  0.41678  Biso   1.000  O
  O24      1.0000 0.97041  0.66246  0.92489  Biso   1.000  O
  O25      1.0000 0.78264  0.24671  0.95881  Biso   1.000  O
  O26      1.0000 0.77365  0.24343  0.45610  Biso   1.000  O
  O27      1.0000 0.77693  0.24917  0.20742  Biso   1.000  O
  O28      1.0000 0.77815  0.24930  0.70731  Biso   1.000  O
  O29      1.0000 0.72846  0.74349  0.95877  Biso   1.000  O
  O30      1.0000 0.71929  0.74294  0.45703  Biso   1.000  O
  O31      1.0000 0.72865  0.74745  0.20691  Biso   1.000  O
  O32      1.0000 0.72445  0.75362  0.70747  Biso   1.000  O
