data_image0
_cell_length_a       9.98714
_cell_length_b       9.98712
_cell_length_c       5.05617
_cell_angle_alpha    90
_cell_angle_beta     89.9998
_cell_angle_gamma    90

_symmetry_space_group_name_H-M    "P 1"
_symmetry_int_tables_number       1

loop_
  _symmetry_equiv_pos_as_xyz
  'x, y, z'

loop_
  _atom_site_label
  _atom_site_occupancy
  _atom_site_fract_x
  _atom_site_fract_y
  _atom_site_fract_z
  _atom_site_thermal_displace_type
  _atom_site_B_iso_or_equiv
  _atom_site_type_symbol
  Os1      1.0000 0.12491  0.00013  0.24982  Biso   1.000  Os
  Hf1      1.0000 0.12491  0.24662  0.74982  Biso   1.000  Hf
  Hf2      1.0000 0.37382  0.24905  0.24605  Biso   1.000  Hf
  Hf3      1.0000 0.37140  0.00013  0.74981  Biso   1.000  Hf
  Hf4      1.0000 0.99972  0.12532  0.97956  Biso   1.000  Hf
  Hf5      1.0000 0.00537  0.11967  0.46982  Biso   1.000  Hf
  Hf6      1.0000 0.99436  0.36864  0.54296  Biso   1.000  Hf
  Hf7      1.0000 0.00286  0.37737  0.04042  Biso   1.000  Hf
  Hf8      1.0000 0.25010  0.12532  0.52007  Biso   1.000  Hf
  Hf9      1.0000 0.24444  0.11967  0.02981  Biso   1.000  Hf
  Hf10     1.0000 0.25545  0.36864  0.95668  Biso   1.000  Hf
  Hf11     1.0000 0.24696  0.37737  0.45922  Biso   1.000  Hf
  Hf12     1.0000 0.12491  0.50014  0.24982  Biso   1.000  Hf
  Hf13     1.0000 0.12491  0.75364  0.74982  Biso   1.000  Hf
  Hf14     1.0000 0.37382  0.75122  0.25359  Biso   1.000  Hf
  Hf15     1.0000 0.37558  0.50013  0.74982  Biso   1.000  Hf
  Hf16     1.0000 0.99437  0.63162  0.95668  Biso   1.000  Hf
  Hf17     1.0000 0.00285  0.62289  0.45922  Biso   1.000  Hf
  Hf18     1.0000 0.99972  0.87494  0.52007  Biso   1.000  Hf
  Hf19     1.0000 0.00537  0.88059  0.02981  Biso   1.000  Hf
  Hf20     1.0000 0.25545  0.63163  0.54295  Biso   1.000  Hf
  Hf21     1.0000 0.24696  0.62289  0.04041  Biso   1.000  Hf
  Hf22     1.0000 0.25010  0.87494  0.97956  Biso   1.000  Hf
  Hf23     1.0000 0.24444  0.88059  0.46982  Biso   1.000  Hf
  Hf24     1.0000 0.62491  0.00013  0.24982  Biso   1.000  Hf
  Hf25     1.0000 0.62491  0.25080  0.74982  Biso   1.000  Hf
  Hf26     1.0000 0.87599  0.24905  0.25359  Biso   1.000  Hf
  Hf27     1.0000 0.87841  0.00013  0.74982  Biso   1.000  Hf
  Hf28     1.0000 0.49342  0.13067  0.95669  Biso   1.000  Hf
  Hf29     1.0000 0.50214  0.12218  0.45922  Biso   1.000  Hf
  Hf30     1.0000 0.49497  0.37019  0.53886  Biso   1.000  Hf
  Hf31     1.0000 0.50284  0.37806  0.03854  Biso   1.000  Hf
  Hf32     1.0000 0.75640  0.13067  0.54295  Biso   1.000  Hf
  Hf33     1.0000 0.74767  0.12218  0.04041  Biso   1.000  Hf
  Hf34     1.0000 0.75485  0.37019  0.96077  Biso   1.000  Hf
  Hf35     1.0000 0.74697  0.37806  0.46110  Biso   1.000  Hf
  Hf36     1.0000 0.62491  0.50013  0.24982  Biso   1.000  Hf
  Hf37     1.0000 0.62491  0.74946  0.74982  Biso   1.000  Hf
  Hf38     1.0000 0.87599  0.75122  0.24604  Biso   1.000  Hf
  Hf39     1.0000 0.87424  0.50013  0.74982  Biso   1.000  Hf
  Hf40     1.0000 0.49497  0.63007  0.96078  Biso   1.000  Hf
  Hf41     1.0000 0.50283  0.62220  0.46110  Biso   1.000  Hf
  Hf42     1.0000 0.49341  0.86959  0.54295  Biso   1.000  Hf
  Hf43     1.0000 0.50215  0.87807  0.04042  Biso   1.000  Hf
  Hf44     1.0000 0.75484  0.63007  0.53886  Biso   1.000  Hf
  Hf45     1.0000 0.74698  0.62220  0.03854  Biso   1.000  Hf
  Hf46     1.0000 0.75640  0.86959  0.95668  Biso   1.000  Hf
  Hf47     1.0000 0.74767  0.87808  0.45921  Biso   1.000  Hf
