data_image0
_cell_length_a       10.1005
_cell_length_b       10.2624
_cell_length_c       10.431
_cell_angle_alpha    89.904
_cell_angle_beta     80.2096
_cell_angle_gamma    90.0048

_symmetry_space_group_name_H-M    "P 1"
_symmetry_int_tables_number       1

loop_
  _symmetry_equiv_pos_as_xyz
  'x, y, z'

loop_
  _atom_site_label
  _atom_site_occupancy
  _atom_site_fract_x
  _atom_site_fract_y
  _atom_site_fract_z
  _atom_site_thermal_displace_type
  _atom_site_B_iso_or_equiv
  _atom_site_type_symbol
  Os1      1.0000 0.14151  0.02150  0.15127  Biso   1.000  Os
  Hf1      1.0000 0.14019  0.22988  0.39522  Biso   1.000  Hf
  Hf2      1.0000 0.36000  0.27128  0.10549  Biso   1.000  Hf
  Hf3      1.0000 0.36184  0.47952  0.35417  Biso   1.000  Hf
  O1       1.0000 0.03548  0.16564  0.07979  Biso   1.000  O
  O2       1.0000 0.03918  0.08386  0.31913  Biso   1.000  O
  O3       1.0000 0.46373  0.42025  0.16911  Biso   1.000  O
  O4       1.0000 0.46336  0.33008  0.41963  Biso   1.000  O
  O5       1.0000 0.27896  0.12689  0.24167  Biso   1.000  O
  O6       1.0000 0.27738  0.12130  0.49158  Biso   1.000  O
  O7       1.0000 0.22289  0.37853  0.01030  Biso   1.000  O
  O8       1.0000 0.22373  0.37138  0.25965  Biso   1.000  O
  Hf4      1.0000 0.13892  0.02112  0.64577  Biso   1.000  Hf
  Hf5      1.0000 0.13690  0.22571  0.89881  Biso   1.000  Hf
  Hf6      1.0000 0.36082  0.27150  0.60538  Biso   1.000  Hf
  Hf7      1.0000 0.35997  0.47819  0.85458  Biso   1.000  Hf
  O9       1.0000 0.03427  0.16576  0.57553  Biso   1.000  O
  O10      1.0000 0.03420  0.08188  0.82718  Biso   1.000  O
  O11      1.0000 0.46360  0.42026  0.66940  Biso   1.000  O
  O12      1.0000 0.46112  0.32729  0.91909  Biso   1.000  O
  O13      1.0000 0.27694  0.12871  0.74372  Biso   1.000  O
  O14      1.0000 0.27223  0.11536  0.00028  Biso   1.000  O
  O15      1.0000 0.22297  0.37876  0.50950  Biso   1.000  O
  O16      1.0000 0.22263  0.37020  0.76005  Biso   1.000  O
  Hf8      1.0000 0.13914  0.52182  0.14585  Biso   1.000  Hf
  Hf9      1.0000 0.13838  0.72918  0.39550  Biso   1.000  Hf
  Hf10     1.0000 0.35891  0.77466  0.10398  Biso   1.000  Hf
  Hf11     1.0000 0.36100  0.97848  0.35377  Biso   1.000  Hf
  O17      1.0000 0.03592  0.66854  0.07966  Biso   1.000  O
  O18      1.0000 0.03570  0.58126  0.33015  Biso   1.000  O
  O19      1.0000 0.46532  0.91863  0.17076  Biso   1.000  O
  O20      1.0000 0.46470  0.82954  0.41877  Biso   1.000  O
  O21      1.0000 0.27673  0.63117  0.24104  Biso   1.000  O
  O22      1.0000 0.27667  0.62095  0.49072  Biso   1.000  O
  O23      1.0000 0.21937  0.88121  0.00924  Biso   1.000  O
  O24      1.0000 0.21991  0.87360  0.25672  Biso   1.000  O
  Hf12     1.0000 0.13877  0.52120  0.64627  Biso   1.000  Hf
  Hf13     1.0000 0.13870  0.72925  0.89582  Biso   1.000  Hf
  Hf14     1.0000 0.36153  0.77107  0.60371  Biso   1.000  Hf
  Hf15     1.0000 0.35948  0.97792  0.85522  Biso   1.000  Hf
  O25      1.0000 0.03525  0.66882  0.57940  Biso   1.000  O
  O26      1.0000 0.03551  0.58076  0.83018  Biso   1.000  O
  O27      1.0000 0.46342  0.91968  0.66963  Biso   1.000  O
  O28      1.0000 0.46246  0.82974  0.91922  Biso   1.000  O
  O29      1.0000 0.27680  0.62892  0.74064  Biso   1.000  O
  O30      1.0000 0.27657  0.62150  0.99061  Biso   1.000  O
  O31      1.0000 0.22367  0.87891  0.50829  Biso   1.000  O
  O32      1.0000 0.22311  0.87063  0.75843  Biso   1.000  O
  Hf16     1.0000 0.63874  0.02202  0.14558  Biso   1.000  Hf
  Hf17     1.0000 0.63860  0.22892  0.39575  Biso   1.000  Hf
  Hf18     1.0000 0.86392  0.26942  0.10455  Biso   1.000  Hf
  Hf19     1.0000 0.86095  0.47877  0.35350  Biso   1.000  Hf
  O33      1.0000 0.53590  0.17059  0.08180  Biso   1.000  O
  O34      1.0000 0.53637  0.07970  0.33159  Biso   1.000  O
  O35      1.0000 0.96429  0.42016  0.16958  Biso   1.000  O
  O36      1.0000 0.96446  0.33078  0.41912  Biso   1.000  O
  O37      1.0000 0.77620  0.12907  0.24067  Biso   1.000  O
  O38      1.0000 0.77780  0.12050  0.48934  Biso   1.000  O
  O39      1.0000 0.72345  0.37922  0.00929  Biso   1.000  O
  O40      1.0000 0.72352  0.37077  0.25935  Biso   1.000  O
  Hf20     1.0000 0.63819  0.02109  0.64614  Biso   1.000  Hf
  Hf21     1.0000 0.63829  0.22864  0.89622  Biso   1.000  Hf
  Hf22     1.0000 0.86085  0.27134  0.60363  Biso   1.000  Hf
  Hf23     1.0000 0.86084  0.47830  0.85480  Biso   1.000  Hf
  O41      1.0000 0.53660  0.17058  0.58156  Biso   1.000  O
  O42      1.0000 0.53496  0.07945  0.83204  Biso   1.000  O
  O43      1.0000 0.96457  0.41767  0.67030  Biso   1.000  O
  O44      1.0000 0.96489  0.33010  0.92052  Biso   1.000  O
  O45      1.0000 0.77578  0.12904  0.74017  Biso   1.000  O
  O46      1.0000 0.77571  0.12102  0.99003  Biso   1.000  O
  O47      1.0000 0.72338  0.37901  0.50953  Biso   1.000  O
  O48      1.0000 0.72301  0.37084  0.75958  Biso   1.000  O
  Hf24     1.0000 0.63935  0.52195  0.14541  Biso   1.000  Hf
  Hf25     1.0000 0.63992  0.72883  0.39561  Biso   1.000  Hf
  Hf26     1.0000 0.86394  0.77313  0.10325  Biso   1.000  Hf
  Hf27     1.0000 0.86149  0.97990  0.35222  Biso   1.000  Hf
  O49      1.0000 0.53481  0.67004  0.08095  Biso   1.000  O
  O50      1.0000 0.53706  0.57980  0.33124  Biso   1.000  O
  O51      1.0000 0.97241  0.92142  0.16629  Biso   1.000  O
  O52      1.0000 0.96516  0.83366  0.41948  Biso   1.000  O
  O53      1.0000 0.77706  0.63024  0.24020  Biso   1.000  O
  O54      1.0000 0.77720  0.62109  0.49051  Biso   1.000  O
  O55      1.0000 0.72278  0.87924  0.00965  Biso   1.000  O
  O56      1.0000 0.72864  0.87226  0.25860  Biso   1.000  O
  Hf28     1.0000 0.63898  0.52131  0.64633  Biso   1.000  Hf
  Hf29     1.0000 0.63817  0.72810  0.89691  Biso   1.000  Hf
  Hf30     1.0000 0.86071  0.77172  0.60403  Biso   1.000  Hf
  Hf31     1.0000 0.86025  0.97875  0.85392  Biso   1.000  Hf
  O57      1.0000 0.53684  0.67011  0.58079  Biso   1.000  O
  O58      1.0000 0.53596  0.57906  0.83153  Biso   1.000  O
  O59      1.0000 0.96437  0.91861  0.66948  Biso   1.000  O
  O60      1.0000 0.96369  0.83064  0.91878  Biso   1.000  O
  O61      1.0000 0.77671  0.62897  0.74106  Biso   1.000  O
  O62      1.0000 0.77738  0.62169  0.99103  Biso   1.000  O
  O63      1.0000 0.72330  0.87948  0.50881  Biso   1.000  O
  O64      1.0000 0.72273  0.87072  0.75940  Biso   1.000  O
