data_image0
_cell_length_a       10.1421
_cell_length_b       10.5116
_cell_length_c       5.03464
_cell_angle_alpha    89.6532
_cell_angle_beta     89.1178
_cell_angle_gamma    90.8918

_symmetry_space_group_name_H-M    "P 1"
_symmetry_int_tables_number       1

loop_
  _symmetry_equiv_pos_as_xyz
  'x, y, z'

loop_
  _atom_site_label
  _atom_site_occupancy
  _atom_site_fract_x
  _atom_site_fract_y
  _atom_site_fract_z
  _atom_site_thermal_displace_type
  _atom_site_B_iso_or_equiv
  _atom_site_type_symbol
  Hf1      1.0000 0.10918  0.94257  0.23839  Biso   1.000  Hf
  Hf2      1.0000 0.14192  0.28790  0.79772  Biso   1.000  Hf
  Hf3      1.0000 0.36936  0.24650  0.29720  Biso   1.000  Hf
  Hf4      1.0000 0.35594  0.99454  0.76407  Biso   1.000  Hf
  Hf5      1.0000 0.99371  0.16645  0.95567  Biso   1.000  Hf
  Hf6      1.0000 0.95909  0.05251  0.43266  Biso   1.000  Hf
  Hf7      1.0000 0.01369  0.31632  0.48348  Biso   1.000  Hf
  Hf8      1.0000 0.01702  0.41690  0.98904  Biso   1.000  Hf
  Hf9      1.0000 0.24845  0.15206  0.59191  Biso   1.000  Hf
  Hf10     1.0000 0.25792  0.07530  0.08997  Biso   1.000  Hf
  Hf11     1.0000 0.30491  0.37107  0.99976  Biso   1.000  Hf
  Hf12     1.0000 0.26541  0.40107  0.52168  Biso   1.000  Hf
  Hf13     1.0000 0.14729  0.48770  0.25955  Biso   1.000  Hf
  Hf14     1.0000 0.12576  0.72487  0.72257  Biso   1.000  Hf
  Hf15     1.0000 0.38505  0.76510  0.25208  Biso   1.000  Hf
  Hf16     1.0000 0.38806  0.51708  0.75100  Biso   1.000  Hf
  Hf17     1.0000 0.97784  0.65768  0.97652  Biso   1.000  Hf
  Hf18     1.0000 0.02573  0.56340  0.52730  Biso   1.000  Hf
  Hf19     1.0000 0.00398  0.80273  0.44244  Biso   1.000  Hf
  Hf20     1.0000 0.97938  0.89762  0.94984  Biso   1.000  Hf
  Hf21     1.0000 0.26270  0.64297  0.46300  Biso   1.000  Hf
  Hf22     1.0000 0.22976  0.59057  0.95305  Biso   1.000  Hf
  Hf23     1.0000 0.23746  0.83140  0.00024  Biso   1.000  Hf
  Hf24     1.0000 0.24260  0.88634  0.51743  Biso   1.000  Hf
  Hf25     1.0000 0.60860  0.01914  0.27541  Biso   1.000  Hf
  Hf26     1.0000 0.62254  0.27062  0.77098  Biso   1.000  Hf
  Hf27     1.0000 0.86434  0.24086  0.25806  Biso   1.000  Hf
  Hf28     1.0000 0.84971  0.00730  0.75344  Biso   1.000  Hf
  Hf29     1.0000 0.51327  0.17940  0.04938  Biso   1.000  Hf
  Hf30     1.0000 0.48719  0.10944  0.54315  Biso   1.000  Hf
  Hf31     1.0000 0.51293  0.36304  0.47887  Biso   1.000  Hf
  Hf32     1.0000 0.54380  0.43956  0.94380  Biso   1.000  Hf
  Hf33     1.0000 0.73518  0.15230  0.52552  Biso   1.000  Hf
  Hf34     1.0000 0.74605  0.11013  0.02597  Biso   1.000  Hf
  Hf35     1.0000 0.76704  0.36163  0.00700  Biso   1.000  Hf
  Hf36     1.0000 0.76817  0.39635  0.50587  Biso   1.000  Hf
  Hf37     1.0000 0.64335  0.49442  0.26957  Biso   1.000  Hf
  Hf38     1.0000 0.63055  0.74743  0.70942  Biso   1.000  Hf
  Hf39     1.0000 0.85234  0.76128  0.19791  Biso   1.000  Hf
  Hf40     1.0000 0.87650  0.50991  0.77482  Biso   1.000  Hf
  Hf41     1.0000 0.47444  0.68190  0.93916  Biso   1.000  Hf
  Hf42     1.0000 0.51553  0.61802  0.45164  Biso   1.000  Hf
  Hf43     1.0000 0.49399  0.86469  0.53252  Biso   1.000  Hf
  Hf44     1.0000 0.47333  0.92906  0.05429  Biso   1.000  Hf
  Hf45     1.0000 0.76720  0.64347  0.49148  Biso   1.000  Hf
  Hf46     1.0000 0.73503  0.61790  0.99044  Biso   1.000  Hf
  Hf47     1.0000 0.72516  0.86570  0.97258  Biso   1.000  Hf
  Hf48     1.0000 0.74297  0.89597  0.47591  Biso   1.000  Hf
  Os1      1.0000 0.11921  0.18005  0.28232  Biso   1.000  Os
