data_image0
_cell_length_a       5.03379
_cell_length_b       10.6165
_cell_length_c       10.1135
_cell_angle_alpha    93.067
_cell_angle_beta     89.3298
_cell_angle_gamma    91.2745

_symmetry_space_group_name_H-M    "P 1"
_symmetry_int_tables_number       1

loop_
  _symmetry_equiv_pos_as_xyz
  'x, y, z'

loop_
  _atom_site_label
  _atom_site_occupancy
  _atom_site_fract_x
  _atom_site_fract_y
  _atom_site_fract_z
  _atom_site_thermal_displace_type
  _atom_site_B_iso_or_equiv
  _atom_site_type_symbol
  Hf1      1.0000 0.27426  0.93843  0.11785  Biso   1.000  Hf
  Hf2      1.0000 0.26792  0.24386  0.36274  Biso   1.000  Hf
  Hf3      1.0000 0.79247  0.28515  0.13756  Biso   1.000  Hf
  Hf4      1.0000 0.76912  0.01784  0.37543  Biso   1.000  Hf
  Hf5      1.0000 0.95987  0.16715  0.98212  Biso   1.000  Hf
  Hf6      1.0000 0.08569  0.07138  0.24936  Biso   1.000  Hf
  Hf7      1.0000 0.00136  0.37626  0.29835  Biso   1.000  Hf
  Hf8      1.0000 0.99612  0.41314  0.00782  Biso   1.000  Hf
  Hf9      1.0000 0.58299  0.15462  0.24726  Biso   1.000  Hf
  Hf10     1.0000 0.49034  0.03928  0.98376  Biso   1.000  Hf
  Hf11     1.0000 0.48478  0.31149  0.00779  Biso   1.000  Hf
  Hf12     1.0000 0.51980  0.39810  0.26545  Biso   1.000  Hf
  Hf13     1.0000 0.28998  0.00064  0.62771  Biso   1.000  Hf
  Hf14     1.0000 0.23753  0.25672  0.85656  Biso   1.000  Hf
  Hf15     1.0000 0.73000  0.27200  0.61571  Biso   1.000  Hf
  Hf16     1.0000 0.78193  0.01347  0.85730  Biso   1.000  Hf
  Hf17     1.0000 0.95267  0.18551  0.47498  Biso   1.000  Hf
  Hf18     1.0000 0.02766  0.11581  0.73069  Biso   1.000  Hf
  Hf19     1.0000 0.98408  0.36522  0.75896  Biso   1.000  Hf
  Hf20     1.0000 0.91632  0.44146  0.54184  Biso   1.000  Hf
  Hf21     1.0000 0.52459  0.15128  0.74807  Biso   1.000  Hf
  Hf22     1.0000 0.48333  0.11218  0.49385  Biso   1.000  Hf
  Hf23     1.0000 0.43752  0.35830  0.51489  Biso   1.000  Hf
  Hf24     1.0000 0.48387  0.40035  0.76534  Biso   1.000  Hf
  Hf25     1.0000 0.26059  0.48211  0.14896  Biso   1.000  Hf
  Hf26     1.0000 0.25823  0.76887  0.38549  Biso   1.000  Hf
  Hf27     1.0000 0.73075  0.72165  0.13369  Biso   1.000  Hf
  Hf28     1.0000 0.75193  0.52003  0.38376  Biso   1.000  Hf
  Hf29     1.0000 0.97376  0.66019  0.97794  Biso   1.000  Hf
  Hf30     1.0000 0.95612  0.58664  0.22710  Biso   1.000  Hf
  Hf31     1.0000 0.03847  0.81935  0.23021  Biso   1.000  Hf
  Hf32     1.0000 0.99429  0.90399  0.97366  Biso   1.000  Hf
  Hf33     1.0000 0.47023  0.64075  0.26787  Biso   1.000  Hf
  Hf34     1.0000 0.53248  0.55634  0.02913  Biso   1.000  Hf
  Hf35     1.0000 0.45822  0.79258  0.01092  Biso   1.000  Hf
  Hf36     1.0000 0.54852  0.88802  0.25498  Biso   1.000  Hf
  Hf37     1.0000 0.25550  0.49751  0.63938  Biso   1.000  Hf
  Hf38     1.0000 0.20579  0.76207  0.85742  Biso   1.000  Hf
  Hf39     1.0000 0.71391  0.74432  0.63447  Biso   1.000  Hf
  Hf40     1.0000 0.77164  0.51225  0.87587  Biso   1.000  Hf
  Hf41     1.0000 0.94661  0.68481  0.47567  Biso   1.000  Hf
  Hf42     1.0000 0.98766  0.62133  0.73507  Biso   1.000  Hf
  Hf43     1.0000 0.00134  0.86722  0.72084  Biso   1.000  Hf
  Hf44     1.0000 0.06116  0.93546  0.47236  Biso   1.000  Hf
  Hf45     1.0000 0.49181  0.64204  0.76921  Biso   1.000  Hf
  Hf46     1.0000 0.45570  0.61630  0.51671  Biso   1.000  Hf
  Hf47     1.0000 0.53586  0.86595  0.50737  Biso   1.000  Hf
  Hf48     1.0000 0.50056  0.89150  0.75575  Biso   1.000  Hf
  Os1      1.0000 0.27807  0.17724  0.11093  Biso   1.000  Os
