data_image0
_cell_length_a       10.0188
_cell_length_b       10.0689
_cell_length_c       10.069
_cell_angle_alpha    90
_cell_angle_beta     90
_cell_angle_gamma    90

_symmetry_space_group_name_H-M    "P 1"
_symmetry_int_tables_number       1

loop_
  _symmetry_equiv_pos_as_xyz
  'x, y, z'

loop_
  _atom_site_label
  _atom_site_occupancy
  _atom_site_fract_x
  _atom_site_fract_y
  _atom_site_fract_z
  _atom_site_thermal_displace_type
  _atom_site_B_iso_or_equiv
  _atom_site_type_symbol
  P1       1.0000 0.12491  0.00005  0.12491  Biso   1.000  P 
  Hf1      1.0000 0.13047  0.25268  0.37754  Biso   1.000  Hf
  Hf2      1.0000 0.37699  0.25340  0.13208  Biso   1.000  Hf
  Hf3      1.0000 0.37699  0.00722  0.37826  Biso   1.000  Hf
  Hf4      1.0000 0.97144  0.15618  0.96878  Biso   1.000  Hf
  Hf5      1.0000 0.03326  0.08927  0.21412  Biso   1.000  Hf
  Hf6      1.0000 0.99277  0.34759  0.26012  Biso   1.000  Hf
  Hf7      1.0000 0.00179  0.39695  0.00873  Biso   1.000  Hf
  Hf8      1.0000 0.27838  0.15618  0.28104  Biso   1.000  Hf
  Hf9      1.0000 0.21655  0.08927  0.03570  Biso   1.000  Hf
  Hf10     1.0000 0.25705  0.34759  0.98969  Biso   1.000  Hf
  Hf11     1.0000 0.24803  0.39695  0.24109  Biso   1.000  Hf
  Hf12     1.0000 0.12491  0.00005  0.62491  Biso   1.000  Hf
  Hf13     1.0000 0.11935  0.25268  0.87228  Biso   1.000  Hf
  Hf14     1.0000 0.37549  0.25094  0.62777  Biso   1.000  Hf
  Hf15     1.0000 0.37699  0.99289  0.87156  Biso   1.000  Hf
  Hf16     1.0000 0.99278  0.13526  0.47244  Biso   1.000  Hf
  Hf17     1.0000 0.00179  0.11625  0.72800  Biso   1.000  Hf
  Hf18     1.0000 0.99217  0.36493  0.76004  Biso   1.000  Hf
  Hf19     1.0000 0.00388  0.38515  0.51001  Biso   1.000  Hf
  Hf20     1.0000 0.25704  0.13526  0.77737  Biso   1.000  Hf
  Hf21     1.0000 0.24803  0.11625  0.52182  Biso   1.000  Hf
  Hf22     1.0000 0.25765  0.36493  0.48977  Biso   1.000  Hf
  Hf23     1.0000 0.24594  0.38515  0.73980  Biso   1.000  Hf
  Hf24     1.0000 0.12491  0.50005  0.12491  Biso   1.000  Hf
  Hf25     1.0000 0.11935  0.74743  0.37754  Biso   1.000  Hf
  Hf26     1.0000 0.37699  0.74671  0.11774  Biso   1.000  Hf
  Hf27     1.0000 0.37549  0.50292  0.37578  Biso   1.000  Hf
  Hf28     1.0000 0.99277  0.65251  0.98969  Biso   1.000  Hf
  Hf29     1.0000 0.00179  0.60315  0.24109  Biso   1.000  Hf
  Hf30     1.0000 0.97144  0.84393  0.28104  Biso   1.000  Hf
  Hf31     1.0000 0.03326  0.91084  0.03570  Biso   1.000  Hf
  Hf32     1.0000 0.25705  0.65251  0.26012  Biso   1.000  Hf
  Hf33     1.0000 0.24803  0.60315  0.00873  Biso   1.000  Hf
  Hf34     1.0000 0.27838  0.84393  0.96878  Biso   1.000  Hf
  Hf35     1.0000 0.21655  0.91084  0.21412  Biso   1.000  Hf
  Hf36     1.0000 0.12491  0.50005  0.62491  Biso   1.000  Hf
  Hf37     1.0000 0.13047  0.74743  0.87228  Biso   1.000  Hf
  Hf38     1.0000 0.37549  0.74917  0.62205  Biso   1.000  Hf
  Hf39     1.0000 0.37549  0.49719  0.87403  Biso   1.000  Hf
  Hf40     1.0000 0.99217  0.63518  0.48977  Biso   1.000  Hf
  Hf41     1.0000 0.00388  0.61496  0.73980  Biso   1.000  Hf
  Hf42     1.0000 0.99278  0.86485  0.77737  Biso   1.000  Hf
  Hf43     1.0000 0.00179  0.88386  0.52182  Biso   1.000  Hf
  Hf44     1.0000 0.25765  0.63518  0.76004  Biso   1.000  Hf
  Hf45     1.0000 0.24594  0.61496  0.51001  Biso   1.000  Hf
  Hf46     1.0000 0.25704  0.86485  0.47244  Biso   1.000  Hf
  Hf47     1.0000 0.24803  0.88386  0.72800  Biso   1.000  Hf
  Hf48     1.0000 0.62491  0.00005  0.12491  Biso   1.000  Hf
  Hf49     1.0000 0.62980  0.24816  0.37301  Biso   1.000  Hf
  Hf50     1.0000 0.87282  0.25340  0.11774  Biso   1.000  Hf
  Hf51     1.0000 0.87282  0.99289  0.37826  Biso   1.000  Hf
  Hf52     1.0000 0.47437  0.13804  0.98691  Biso   1.000  Hf
  Hf53     1.0000 0.51606  0.11579  0.24064  Biso   1.000  Hf
  Hf54     1.0000 0.49383  0.36277  0.26430  Biso   1.000  Hf
  Hf55     1.0000 0.50337  0.38655  0.01214  Biso   1.000  Hf
  Hf56     1.0000 0.77545  0.13804  0.26290  Biso   1.000  Hf
  Hf57     1.0000 0.73376  0.11579  0.00918  Biso   1.000  Hf
  Hf58     1.0000 0.75599  0.36277  0.98552  Biso   1.000  Hf
  Hf59     1.0000 0.74645  0.38655  0.23768  Biso   1.000  Hf
  Hf60     1.0000 0.62491  0.00005  0.62491  Biso   1.000  Hf
  Hf61     1.0000 0.62002  0.24816  0.87681  Biso   1.000  Hf
  Hf62     1.0000 0.87432  0.25094  0.62205  Biso   1.000  Hf
  Hf63     1.0000 0.87282  0.00722  0.87156  Biso   1.000  Hf
  Hf64     1.0000 0.49383  0.13943  0.48762  Biso   1.000  Hf
  Hf65     1.0000 0.50337  0.11283  0.73841  Biso   1.000  Hf
  Hf66     1.0000 0.49217  0.36116  0.76381  Biso   1.000  Hf
  Hf67     1.0000 0.50227  0.38721  0.51207  Biso   1.000  Hf
  Hf68     1.0000 0.75598  0.13943  0.76220  Biso   1.000  Hf
  Hf69     1.0000 0.74645  0.11283  0.51141  Biso   1.000  Hf
  Hf70     1.0000 0.75765  0.36116  0.48601  Biso   1.000  Hf
  Hf71     1.0000 0.74755  0.38721  0.73775  Biso   1.000  Hf
  Hf72     1.0000 0.62491  0.50005  0.12491  Biso   1.000  Hf
  Hf73     1.0000 0.62002  0.75195  0.37301  Biso   1.000  Hf
  Hf74     1.0000 0.87282  0.74671  0.13208  Biso   1.000  Hf
  Hf75     1.0000 0.87433  0.49719  0.37578  Biso   1.000  Hf
  Hf76     1.0000 0.49383  0.63734  0.98552  Biso   1.000  Hf
  Hf77     1.0000 0.50337  0.61356  0.23768  Biso   1.000  Hf
  Hf78     1.0000 0.47437  0.86207  0.26290  Biso   1.000  Hf
  Hf79     1.0000 0.51606  0.88431  0.00918  Biso   1.000  Hf
  Hf80     1.0000 0.75599  0.63734  0.26430  Biso   1.000  Hf
  Hf81     1.0000 0.74645  0.61356  0.01214  Biso   1.000  Hf
  Hf82     1.0000 0.77545  0.86207  0.98691  Biso   1.000  Hf
  Hf83     1.0000 0.73376  0.88431  0.24064  Biso   1.000  Hf
  Hf84     1.0000 0.62491  0.50005  0.62491  Biso   1.000  Hf
  Hf85     1.0000 0.62980  0.75195  0.87681  Biso   1.000  Hf
  Hf86     1.0000 0.87432  0.74917  0.62777  Biso   1.000  Hf
  Hf87     1.0000 0.87433  0.50292  0.87403  Biso   1.000  Hf
  Hf88     1.0000 0.49217  0.63895  0.48601  Biso   1.000  Hf
  Hf89     1.0000 0.50227  0.61290  0.73775  Biso   1.000  Hf
  Hf90     1.0000 0.49383  0.86067  0.76220  Biso   1.000  Hf
  Hf91     1.0000 0.50337  0.88728  0.51141  Biso   1.000  Hf
  Hf92     1.0000 0.75765  0.63895  0.76381  Biso   1.000  Hf
  Hf93     1.0000 0.74755  0.61290  0.51207  Biso   1.000  Hf
  Hf94     1.0000 0.75598  0.86067  0.48762  Biso   1.000  Hf
  Hf95     1.0000 0.74645  0.88728  0.73841  Biso   1.000  Hf
