data_image0
_cell_length_a       10.117
_cell_length_b       10.2445
_cell_length_c       10.4691
_cell_angle_alpha    90.0441
_cell_angle_beta     80.404
_cell_angle_gamma    89.778

_symmetry_space_group_name_H-M    "P 1"
_symmetry_int_tables_number       1

loop_
  _symmetry_equiv_pos_as_xyz
  'x, y, z'

loop_
  _atom_site_label
  _atom_site_occupancy
  _atom_site_fract_x
  _atom_site_fract_y
  _atom_site_fract_z
  _atom_site_thermal_displace_type
  _atom_site_B_iso_or_equiv
  _atom_site_type_symbol
  P1       1.0000 0.08447  0.03225  0.16456  Biso   1.000  P
  Hf1      1.0000 0.14528  0.23114  0.39489  Biso   1.000  Hf
  Hf2      1.0000 0.35737  0.26614  0.10424  Biso   1.000  Hf
  Hf3      1.0000 0.36044  0.47870  0.35235  Biso   1.000  Hf
  O1       1.0000 0.03862  0.15151  0.08358  Biso   1.000  O
  O2       1.0000 0.03391  0.08346  0.31186  Biso   1.000  O
  O3       1.0000 0.46327  0.41666  0.17081  Biso   1.000  O
  O4       1.0000 0.46416  0.33144  0.42063  Biso   1.000  O
  O5       1.0000 0.28009  0.13484  0.24738  Biso   1.000  O
  O6       1.0000 0.27716  0.12071  0.49148  Biso   1.000  O
  O7       1.0000 0.22209  0.37909  0.00952  Biso   1.000  O
  O8       1.0000 0.22108  0.37371  0.25905  Biso   1.000  O
  Hf4      1.0000 0.13917  0.02010  0.64443  Biso   1.000  Hf
  Hf5      1.0000 0.14620  0.22671  0.89304  Biso   1.000  Hf
  Hf6      1.0000 0.36256  0.27136  0.60400  Biso   1.000  Hf
  Hf7      1.0000 0.36246  0.47903  0.85519  Biso   1.000  Hf
  O9       1.0000 0.03246  0.15939  0.56859  Biso   1.000  O
  O10      1.0000 0.03539  0.08435  0.82702  Biso   1.000  O
  O11      1.0000 0.46591  0.41835  0.67087  Biso   1.000  O
  O12      1.0000 0.46882  0.33651  0.92191  Biso   1.000  O
  O13      1.0000 0.27594  0.12825  0.73616  Biso   1.000  O
  O14      1.0000 0.28909  0.13338  0.97702  Biso   1.000  O
  O15      1.0000 0.22280  0.37785  0.50872  Biso   1.000  O
  O16      1.0000 0.22596  0.37006  0.75944  Biso   1.000  O
  Hf8      1.0000 0.13968  0.52164  0.14502  Biso   1.000  Hf
  Hf9      1.0000 0.14003  0.72860  0.39439  Biso   1.000  Hf
  Hf10     1.0000 0.35545  0.77769  0.10453  Biso   1.000  Hf
  Hf11     1.0000 0.35798  0.97909  0.35049  Biso   1.000  Hf
  O17      1.0000 0.03547  0.67096  0.08106  Biso   1.000  O
  O18      1.0000 0.03360  0.58299  0.32819  Biso   1.000  O
  O19      1.0000 0.46684  0.91840  0.17079  Biso   1.000  O
  O20      1.0000 0.46585  0.83237  0.42084  Biso   1.000  O
  O21      1.0000 0.27599  0.62760  0.23927  Biso   1.000  O
  O22      1.0000 0.27660  0.62053  0.49000  Biso   1.000  O
  O23      1.0000 0.22589  0.87815  0.00343  Biso   1.000  O
  O24      1.0000 0.22621  0.86646  0.26303  Biso   1.000  O
  Hf12     1.0000 0.14003  0.52265  0.64677  Biso   1.000  Hf
  Hf13     1.0000 0.14210  0.73262  0.89611  Biso   1.000  Hf
  Hf14     1.0000 0.36210  0.77268  0.60340  Biso   1.000  Hf
  Hf15     1.0000 0.35855  0.98035  0.85722  Biso   1.000  Hf
  O25      1.0000 0.03455  0.66647  0.57898  Biso   1.000  O
  O26      1.0000 0.03707  0.58121  0.83015  Biso   1.000  O
  O27      1.0000 0.46470  0.91794  0.67232  Biso   1.000  O
  O28      1.0000 0.46737  0.83599  0.92245  Biso   1.000  O
  O29      1.0000 0.27745  0.62976  0.73984  Biso   1.000  O
  O30      1.0000 0.27653  0.62084  0.99062  Biso   1.000  O
  O31      1.0000 0.22330  0.87856  0.50926  Biso   1.000  O
  O32      1.0000 0.22327  0.87173  0.75734  Biso   1.000  O
  Hf16     1.0000 0.63790  0.02213  0.14558  Biso   1.000  Hf
  Hf17     1.0000 0.63735  0.22841  0.39595  Biso   1.000  Hf
  Hf18     1.0000 0.85671  0.27278  0.10588  Biso   1.000  Hf
  Hf19     1.0000 0.86206  0.47759  0.35363  Biso   1.000  Hf
  O33      1.0000 0.53744  0.16960  0.07966  Biso   1.000  O
  O34      1.0000 0.53819  0.07948  0.33001  Biso   1.000  O
  O35      1.0000 0.96633  0.41376  0.17156  Biso   1.000  O
  O36      1.0000 0.96581  0.33011  0.41959  Biso   1.000  O
  O37      1.0000 0.77844  0.12804  0.24115  Biso   1.000  O
  O38      1.0000 0.77588  0.11935  0.49115  Biso   1.000  O
  O39      1.0000 0.72550  0.37981  0.01068  Biso   1.000  O
  O40      1.0000 0.72291  0.37001  0.25934  Biso   1.000  O
  Hf20     1.0000 0.63682  0.02099  0.64904  Biso   1.000  Hf
  Hf21     1.0000 0.63867  0.22924  0.89576  Biso   1.000  Hf
  Hf22     1.0000 0.86267  0.27052  0.60332  Biso   1.000  Hf
  Hf23     1.0000 0.86548  0.47649  0.85511  Biso   1.000  Hf
  O41      1.0000 0.53658  0.16911  0.57984  Biso   1.000  O
  O42      1.0000 0.53720  0.08201  0.82997  Biso   1.000  O
  O43      1.0000 0.96927  0.41243  0.67367  Biso   1.000  O
  O44      1.0000 0.96794  0.32928  0.92812  Biso   1.000  O
  O45      1.0000 0.77772  0.12909  0.73981  Biso   1.000  O
  O46      1.0000 0.77837  0.12190  0.99091  Biso   1.000  O
  O47      1.0000 0.72502  0.37787  0.50991  Biso   1.000  O
  O48      1.0000 0.72626  0.37138  0.76031  Biso   1.000  O
  Hf24     1.0000 0.63412  0.52197  0.14542  Biso   1.000  Hf
  Hf25     1.0000 0.63692  0.72643  0.39632  Biso   1.000  Hf
  Hf26     1.0000 0.86006  0.76655  0.10094  Biso   1.000  Hf
  Hf27     1.0000 0.85053  0.97614  0.36140  Biso   1.000  Hf
  O49      1.0000 0.53392  0.66940  0.07901  Biso   1.000  O
  O50      1.0000 0.53455  0.58053  0.32920  Biso   1.000  O
  O51      1.0000 0.96640  0.92864  0.16848  Biso   1.000  O
  O52      1.0000 0.96476  0.83570  0.42030  Biso   1.000  O
  O53      1.0000 0.77515  0.62714  0.23945  Biso   1.000  O
  O54      1.0000 0.77711  0.62037  0.49028  Biso   1.000  O
  O55      1.0000 0.72463  0.87973  0.01044  Biso   1.000  O
  O56      1.0000 0.72989  0.86936  0.25949  Biso   1.000  O
  Hf28     1.0000 0.64000  0.52098  0.64678  Biso   1.000  Hf
  Hf29     1.0000 0.63730  0.72954  0.89697  Biso   1.000  Hf
  Hf30     1.0000 0.86125  0.76994  0.60547  Biso   1.000  Hf
  Hf31     1.0000 0.86232  0.97930  0.85371  Biso   1.000  Hf
  O57      1.0000 0.53597  0.66710  0.57848  Biso   1.000  O
  O58      1.0000 0.53561  0.58386  0.82813  Biso   1.000  O
  O59      1.0000 0.96492  0.91600  0.67174  Biso   1.000  O
  O60      1.0000 0.96476  0.83214  0.92183  Biso   1.000  O
  O61      1.0000 0.77841  0.62774  0.74121  Biso   1.000  O
  O62      1.0000 0.77810  0.62187  0.99117  Biso   1.000  O
  O63      1.0000 0.72108  0.87735  0.51132  Biso   1.000  O
  O64      1.0000 0.72438  0.87064  0.76027  Biso   1.000  O
