data_image0
_cell_length_a       10.1281
_cell_length_b       10.312
_cell_length_c       5.23107
_cell_angle_alpha    90.0133
_cell_angle_beta     80.6424
_cell_angle_gamma    89.9843

_symmetry_space_group_name_H-M    "P 1"
_symmetry_int_tables_number       1

loop_
  _symmetry_equiv_pos_as_xyz
  'x, y, z'

loop_
  _atom_site_label
  _atom_site_occupancy
  _atom_site_fract_x
  _atom_site_fract_y
  _atom_site_fract_z
  _atom_site_thermal_displace_type
  _atom_site_B_iso_or_equiv
  _atom_site_type_symbol
  Pb1      1.0000 0.13554  0.01762  0.29138  Biso   1.000  Pb
  Hf1      1.0000 0.13881  0.52135  0.29023  Biso   1.000  Hf
  Hf2      1.0000 0.63940  0.02172  0.29290  Biso   1.000  Hf
  Hf3      1.0000 0.63863  0.52005  0.29174  Biso   1.000  Hf
  Hf4      1.0000 0.13942  0.23051  0.78911  Biso   1.000  Hf
  Hf5      1.0000 0.13806  0.72728  0.79161  Biso   1.000  Hf
  Hf6      1.0000 0.63882  0.22936  0.79297  Biso   1.000  Hf
  Hf7      1.0000 0.63862  0.72760  0.79007  Biso   1.000  Hf
  Hf8      1.0000 0.36146  0.27152  0.20611  Biso   1.000  Hf
  Hf9      1.0000 0.36384  0.76967  0.20849  Biso   1.000  Hf
  Hf10     1.0000 0.86034  0.27222  0.21008  Biso   1.000  Hf
  Hf11     1.0000 0.85922  0.76867  0.20692  Biso   1.000  Hf
  Hf12     1.0000 0.36117  0.47877  0.70702  Biso   1.000  Hf
  Hf13     1.0000 0.36404  0.97907  0.70629  Biso   1.000  Hf
  Hf14     1.0000 0.86150  0.47840  0.70793  Biso   1.000  Hf
  Hf15     1.0000 0.85723  0.97842  0.71643  Biso   1.000  Hf
  O1       1.0000 0.03858  0.18017  0.16059  Biso   1.000  O
  O2       1.0000 0.03663  0.67153  0.16305  Biso   1.000  O
  O3       1.0000 0.53667  0.17014  0.16125  Biso   1.000  O
  O4       1.0000 0.53752  0.66881  0.16026  Biso   1.000  O
  O5       1.0000 0.03263  0.07994  0.67677  Biso   1.000  O
  O6       1.0000 0.03651  0.57930  0.66114  Biso   1.000  O
  O7       1.0000 0.53817  0.07975  0.66133  Biso   1.000  O
  O8       1.0000 0.53591  0.57986  0.65997  Biso   1.000  O
  O9       1.0000 0.46407  0.41939  0.33873  Biso   1.000  O
  O10      1.0000 0.46514  0.91982  0.33759  Biso   1.000  O
  O11      1.0000 0.96226  0.42263  0.33747  Biso   1.000  O
  O12      1.0000 0.95137  0.92073  0.34232  Biso   1.000  O
  O13      1.0000 0.46461  0.33071  0.83809  Biso   1.000  O
  O14      1.0000 0.46461  0.82906  0.83853  Biso   1.000  O
  O15      1.0000 0.96283  0.33057  0.83874  Biso   1.000  O
  O16      1.0000 0.96337  0.82954  0.83944  Biso   1.000  O
  O17      1.0000 0.27962  0.13052  0.48148  Biso   1.000  O
  O18      1.0000 0.27689  0.62736  0.47954  Biso   1.000  O
  O19      1.0000 0.77657  0.13035  0.48408  Biso   1.000  O
  O20      1.0000 0.77574  0.62865  0.48058  Biso   1.000  O
  O21      1.0000 0.28118  0.12424  0.96879  Biso   1.000  O
  O22      1.0000 0.27643  0.62092  0.98014  Biso   1.000  O
  O23      1.0000 0.77589  0.12106  0.98491  Biso   1.000  O
  O24      1.0000 0.77640  0.61984  0.97968  Biso   1.000  O
  O25      1.0000 0.22440  0.38095  0.01624  Biso   1.000  O
  O26      1.0000 0.22847  0.87676  0.01252  Biso   1.000  O
  O27      1.0000 0.72320  0.37916  0.01937  Biso   1.000  O
  O28      1.0000 0.72215  0.87853  0.02025  Biso   1.000  O
  O29      1.0000 0.22357  0.37107  0.51611  Biso   1.000  O
  O30      1.0000 0.22768  0.86538  0.52071  Biso   1.000  O
  O31      1.0000 0.72329  0.37108  0.51980  Biso   1.000  O
  O32      1.0000 0.72158  0.86997  0.52125  Biso   1.000  O
