data_image0
_cell_length_a       9.98296
_cell_length_b       10.3964
_cell_length_c       5.01537
_cell_angle_alpha    90.0778
_cell_angle_beta     89.948
_cell_angle_gamma    89.9326

_symmetry_space_group_name_H-M    "P 1"
_symmetry_int_tables_number       1

loop_
  _symmetry_equiv_pos_as_xyz
  'x, y, z'

loop_
  _atom_site_label
  _atom_site_occupancy
  _atom_site_fract_x
  _atom_site_fract_y
  _atom_site_fract_z
  _atom_site_thermal_displace_type
  _atom_site_B_iso_or_equiv
  _atom_site_type_symbol
  Pb1      1.0000 0.12942  0.01568  0.24586  Biso   1.000  Pb
  Hf1      1.0000 0.13387  0.51653  0.25239  Biso   1.000  Hf
  Hf2      1.0000 0.63414  0.01627  0.25271  Biso   1.000  Hf
  Hf3      1.0000 0.63393  0.51590  0.25244  Biso   1.000  Hf
  Hf4      1.0000 0.13519  0.23619  0.75023  Biso   1.000  Hf
  Hf5      1.0000 0.13346  0.73266  0.75334  Biso   1.000  Hf
  Hf6      1.0000 0.63411  0.23328  0.75133  Biso   1.000  Hf
  Hf7      1.0000 0.63358  0.73275  0.75300  Biso   1.000  Hf
  Hf8      1.0000 0.36708  0.26737  0.25162  Biso   1.000  Hf
  Hf9      1.0000 0.36771  0.76447  0.25329  Biso   1.000  Hf
  Hf10     1.0000 0.86397  0.26772  0.25050  Biso   1.000  Hf
  Hf11     1.0000 0.86486  0.76364  0.25061  Biso   1.000  Hf
  Hf12     1.0000 0.36617  0.48383  0.75222  Biso   1.000  Hf
  Hf13     1.0000 0.36826  0.98400  0.74980  Biso   1.000  Hf
  Hf14     1.0000 0.86636  0.48312  0.75194  Biso   1.000  Hf
  Hf15     1.0000 0.86237  0.98263  0.75387  Biso   1.000  Hf
  Hf16     1.0000 0.03549  0.19174  0.38854  Biso   1.000  Hf
  Hf17     1.0000 0.03622  0.68475  0.38978  Biso   1.000  Hf
  Hf18     1.0000 0.53718  0.18470  0.38703  Biso   1.000  Hf
  Hf19     1.0000 0.53696  0.68312  0.39155  Biso   1.000  Hf
  Hf20     1.0000 0.03469  0.06749  0.86105  Biso   1.000  Hf
  Hf21     1.0000 0.03546  0.56580  0.89050  Biso   1.000  Hf
  Hf22     1.0000 0.53847  0.06515  0.88683  Biso   1.000  Hf
  Hf23     1.0000 0.53547  0.56602  0.89174  Biso   1.000  Hf
  Hf24     1.0000 0.46469  0.43416  0.38991  Biso   1.000  Hf
  Hf25     1.0000 0.46500  0.93387  0.38749  Biso   1.000  Hf
  Hf26     1.0000 0.96344  0.43507  0.38959  Biso   1.000  Hf
  Hf27     1.0000 0.95377  0.93275  0.38821  Biso   1.000  Hf
  Hf28     1.0000 0.46422  0.31591  0.88761  Biso   1.000  Hf
  Hf29     1.0000 0.46416  0.81562  0.88950  Biso   1.000  Hf
  Hf30     1.0000 0.96395  0.31700  0.89006  Biso   1.000  Hf
  Hf31     1.0000 0.96441  0.81664  0.89257  Biso   1.000  Hf
  Hf32     1.0000 0.27498  0.12109  0.50118  Biso   1.000  Hf
  Hf33     1.0000 0.27027  0.61566  0.49984  Biso   1.000  Hf
  Hf34     1.0000 0.76940  0.11779  0.50108  Biso   1.000  Hf
  Hf35     1.0000 0.77033  0.61675  0.49953  Biso   1.000  Hf
  Hf36     1.0000 0.27381  0.13459  0.99249  Biso   1.000  Hf
  Hf37     1.0000 0.27020  0.63235  0.00030  Biso   1.000  Hf
  Hf38     1.0000 0.77104  0.13205  0.00114  Biso   1.000  Hf
  Hf39     1.0000 0.76990  0.63120  0.99848  Biso   1.000  Hf
  Hf40     1.0000 0.23016  0.38347  0.99972  Biso   1.000  Hf
  Hf41     1.0000 0.23292  0.87996  0.99964  Biso   1.000  Hf
  Hf42     1.0000 0.72906  0.38225  0.99910  Biso   1.000  Hf
  Hf43     1.0000 0.72792  0.88048  0.00195  Biso   1.000  Hf
  Hf44     1.0000 0.23032  0.36890  0.49901  Biso   1.000  Hf
  Hf45     1.0000 0.23547  0.86150  0.50782  Biso   1.000  Hf
  Hf46     1.0000 0.72926  0.36779  0.50004  Biso   1.000  Hf
  Hf47     1.0000 0.72884  0.86656  0.50121  Biso   1.000  Hf
