data_image0
_cell_length_a       9.94181
_cell_length_b       10.3782
_cell_length_c       5.0042
_cell_angle_alpha    90.3858
_cell_angle_beta     89.1996
_cell_angle_gamma    90.3071

_symmetry_space_group_name_H-M    "P 1"
_symmetry_int_tables_number       1

loop_
  _symmetry_equiv_pos_as_xyz
  'x, y, z'

loop_
  _atom_site_label
  _atom_site_occupancy
  _atom_site_fract_x
  _atom_site_fract_y
  _atom_site_fract_z
  _atom_site_thermal_displace_type
  _atom_site_B_iso_or_equiv
  _atom_site_type_symbol
  Pd1      1.0000 0.12769  0.03838  0.21235  Biso   1.000  Pd
  Hf1      1.0000 0.13402  0.51511  0.25428  Biso   1.000  Hf
  Hf2      1.0000 0.63303  0.01476  0.24830  Biso   1.000  Hf
  Hf3      1.0000 0.63518  0.51840  0.25820  Biso   1.000  Hf
  Hf4      1.0000 0.13373  0.23547  0.74690  Biso   1.000  Hf
  Hf5      1.0000 0.13377  0.73294  0.76001  Biso   1.000  Hf
  Hf6      1.0000 0.63268  0.23208  0.75337  Biso   1.000  Hf
  Hf7      1.0000 0.63474  0.73448  0.75656  Biso   1.000  Hf
  Hf8      1.0000 0.36798  0.26571  0.25642  Biso   1.000  Hf
  Hf9      1.0000 0.36642  0.76528  0.26419  Biso   1.000  Hf
  Hf10     1.0000 0.86159  0.26683  0.24766  Biso   1.000  Hf
  Hf11     1.0000 0.87391  0.76884  0.24634  Biso   1.000  Hf
  Hf12     1.0000 0.36679  0.48472  0.75545  Biso   1.000  Hf
  Hf13     1.0000 0.36268  0.97952  0.75773  Biso   1.000  Hf
  Hf14     1.0000 0.86492  0.48438  0.75275  Biso   1.000  Hf
  Hf15     1.0000 0.86534  0.98348  0.74089  Biso   1.000  Hf
  Hf16     1.0000 0.03674  0.18787  0.37883  Biso   1.000  Hf
  Hf17     1.0000 0.03770  0.68380  0.39370  Biso   1.000  Hf
  Hf18     1.0000 0.53456  0.18309  0.39449  Biso   1.000  Hf
  Hf19     1.0000 0.53538  0.68234  0.40313  Biso   1.000  Hf
  Hf20     1.0000 0.03601  0.06356  0.87347  Biso   1.000  Hf
  Hf21     1.0000 0.03415  0.56368  0.89656  Biso   1.000  Hf
  Hf22     1.0000 0.53326  0.06721  0.89716  Biso   1.000  Hf
  Hf23     1.0000 0.53655  0.56606  0.89715  Biso   1.000  Hf
  Hf24     1.0000 0.46511  0.43240  0.39295  Biso   1.000  Hf
  Hf25     1.0000 0.47021  0.93134  0.40426  Biso   1.000  Hf
  Hf26     1.0000 0.96413  0.43075  0.39209  Biso   1.000  Hf
  Hf27     1.0000 0.97207  0.94039  0.37833  Biso   1.000  Hf
  Hf28     1.0000 0.46114  0.31412  0.89085  Biso   1.000  Hf
  Hf29     1.0000 0.46552  0.81758  0.90518  Biso   1.000  Hf
  Hf30     1.0000 0.96175  0.31403  0.88322  Biso   1.000  Hf
  Hf31     1.0000 0.96235  0.81667  0.88161  Biso   1.000  Hf
  Hf32     1.0000 0.26558  0.11083  0.50237  Biso   1.000  Hf
  Hf33     1.0000 0.26888  0.60950  0.50304  Biso   1.000  Hf
  Hf34     1.0000 0.76849  0.11769  0.49504  Biso   1.000  Hf
  Hf35     1.0000 0.77216  0.61734  0.50300  Biso   1.000  Hf
  Hf36     1.0000 0.26674  0.13414  0.00225  Biso   1.000  Hf
  Hf37     1.0000 0.27019  0.63463  0.00416  Biso   1.000  Hf
  Hf38     1.0000 0.77087  0.13234  0.99362  Biso   1.000  Hf
  Hf39     1.0000 0.77035  0.63408  0.00403  Biso   1.000  Hf
  Hf40     1.0000 0.22880  0.38248  0.00029  Biso   1.000  Hf
  Hf41     1.0000 0.22625  0.88992  0.03411  Biso   1.000  Hf
  Hf42     1.0000 0.72846  0.38207  0.00258  Biso   1.000  Hf
  Hf43     1.0000 0.72993  0.88340  0.99432  Biso   1.000  Hf
  Hf44     1.0000 0.23079  0.36481  0.50026  Biso   1.000  Hf
  Hf45     1.0000 0.24651  0.85127  0.53888  Biso   1.000  Hf
  Hf46     1.0000 0.72764  0.36782  0.50174  Biso   1.000  Hf
  Hf47     1.0000 0.73640  0.86629  0.49365  Biso   1.000  Hf
