data_image0
_cell_length_a       4.97184
_cell_length_b       10.3774
_cell_length_c       10.0041
_cell_angle_alpha    90.3757
_cell_angle_beta     89.1276
_cell_angle_gamma    90.3512

_symmetry_space_group_name_H-M    "P 1"
_symmetry_int_tables_number       1

loop_
  _symmetry_equiv_pos_as_xyz
  'x, y, z'

loop_
  _atom_site_label
  _atom_site_occupancy
  _atom_site_fract_x
  _atom_site_fract_y
  _atom_site_fract_z
  _atom_site_thermal_displace_type
  _atom_site_B_iso_or_equiv
  _atom_site_type_symbol
  Pd1      1.0000 0.25177  0.03836  0.10351  Biso   1.000  Pd
  Hf1      1.0000 0.26518  0.01536  0.62483  Biso   1.000  Hf
  Hf2      1.0000 0.26984  0.51633  0.12883  Biso   1.000  Hf
  Hf3      1.0000 0.26803  0.51773  0.62531  Biso   1.000  Hf
  Hf4      1.0000 0.27140  0.22875  0.37643  Biso   1.000  Hf
  Hf5      1.0000 0.26054  0.23901  0.87134  Biso   1.000  Hf
  Hf6      1.0000 0.27866  0.73428  0.37681  Biso   1.000  Hf
  Hf7      1.0000 0.26139  0.73458  0.87943  Biso   1.000  Hf
  Hf8      1.0000 0.72496  0.26691  0.12543  Biso   1.000  Hf
  Hf9      1.0000 0.73146  0.26577  0.62393  Biso   1.000  Hf
  Hf10     1.0000 0.74699  0.76590  0.12571  Biso   1.000  Hf
  Hf11     1.0000 0.73565  0.76741  0.62649  Biso   1.000  Hf
  Hf12     1.0000 0.73524  0.48256  0.37675  Biso   1.000  Hf
  Hf13     1.0000 0.72875  0.48686  0.87515  Biso   1.000  Hf
  Hf14     1.0000 0.73996  0.98167  0.37155  Biso   1.000  Hf
  Hf15     1.0000 0.71431  0.98172  0.87552  Biso   1.000  Hf
  Hf16     1.0000 0.06989  0.18552  0.19019  Biso   1.000  Hf
  Hf17     1.0000 0.07057  0.18559  0.69414  Biso   1.000  Hf
  Hf18     1.0000 0.07844  0.68359  0.19809  Biso   1.000  Hf
  Hf19     1.0000 0.06940  0.68325  0.69858  Biso   1.000  Hf
  Hf20     1.0000 0.07381  0.06571  0.44792  Biso   1.000  Hf
  Hf21     1.0000 0.06259  0.06499  0.93474  Biso   1.000  Hf
  Hf22     1.0000 0.07546  0.56405  0.44578  Biso   1.000  Hf
  Hf23     1.0000 0.06549  0.56692  0.94913  Biso   1.000  Hf
  Hf24     1.0000 0.93003  0.42964  0.19509  Biso   1.000  Hf
  Hf25     1.0000 0.92777  0.43360  0.69515  Biso   1.000  Hf
  Hf26     1.0000 0.95709  0.93792  0.19192  Biso   1.000  Hf
  Hf27     1.0000 0.92393  0.93498  0.69620  Biso   1.000  Hf
  Hf28     1.0000 0.92874  0.31359  0.44220  Biso   1.000  Hf
  Hf29     1.0000 0.91726  0.31511  0.94283  Biso   1.000  Hf
  Hf30     1.0000 0.94166  0.81715  0.45035  Biso   1.000  Hf
  Hf31     1.0000 0.91360  0.81727  0.93986  Biso   1.000  Hf
  Hf32     1.0000 0.52753  0.10922  0.24691  Biso   1.000  Hf
  Hf33     1.0000 0.53723  0.11846  0.74906  Biso   1.000  Hf
  Hf34     1.0000 0.54575  0.60880  0.24939  Biso   1.000  Hf
  Hf35     1.0000 0.53679  0.61822  0.75136  Biso   1.000  Hf
  Hf36     1.0000 0.54566  0.13186  0.49744  Biso   1.000  Hf
  Hf37     1.0000 0.52768  0.13541  0.99738  Biso   1.000  Hf
  Hf38     1.0000 0.54506  0.63254  0.50063  Biso   1.000  Hf
  Hf39     1.0000 0.53593  0.63617  0.00089  Biso   1.000  Hf
  Hf40     1.0000 0.45958  0.38083  0.50017  Biso   1.000  Hf
  Hf41     1.0000 0.45526  0.38415  0.99946  Biso   1.000  Hf
  Hf42     1.0000 0.46638  0.88315  0.50381  Biso   1.000  Hf
  Hf43     1.0000 0.44563  0.88972  0.00991  Biso   1.000  Hf
  Hf44     1.0000 0.45831  0.36375  0.25018  Biso   1.000  Hf
  Hf45     1.0000 0.45737  0.36914  0.74883  Biso   1.000  Hf
  Hf46     1.0000 0.51204  0.85086  0.26134  Biso   1.000  Hf
  Hf47     1.0000 0.45356  0.86705  0.75347  Biso   1.000  Hf
