data_image0
_cell_length_a       10.1087
_cell_length_b       10.2479
_cell_length_c       10.4533
_cell_angle_alpha    90.0301
_cell_angle_beta     80.5685
_cell_angle_gamma    89.6718

_symmetry_space_group_name_H-M    "P 1"
_symmetry_int_tables_number       1

loop_
  _symmetry_equiv_pos_as_xyz
  'x, y, z'

loop_
  _atom_site_label
  _atom_site_occupancy
  _atom_site_fract_x
  _atom_site_fract_y
  _atom_site_fract_z
  _atom_site_thermal_displace_type
  _atom_site_B_iso_or_equiv
  _atom_site_type_symbol
  Pd1      1.0000 0.12483  0.00959  0.16869  Biso   1.000  Pd
  Hf1      1.0000 0.13760  0.02072  0.64330  Biso   1.000  Hf
  Hf2      1.0000 0.13936  0.52298  0.14559  Biso   1.000  Hf
  Hf3      1.0000 0.14012  0.52080  0.64721  Biso   1.000  Hf
  Hf4      1.0000 0.63814  0.02182  0.14513  Biso   1.000  Hf
  Hf5      1.0000 0.63842  0.02183  0.64672  Biso   1.000  Hf
  Hf6      1.0000 0.63739  0.51947  0.14484  Biso   1.000  Hf
  Hf7      1.0000 0.63893  0.52119  0.64689  Biso   1.000  Hf
  Hf8      1.0000 0.14033  0.23091  0.39272  Biso   1.000  Hf
  Hf9      1.0000 0.14323  0.22383  0.89571  Biso   1.000  Hf
  Hf10     1.0000 0.13653  0.72669  0.39814  Biso   1.000  Hf
  Hf11     1.0000 0.13882  0.73207  0.89625  Biso   1.000  Hf
  Hf12     1.0000 0.63857  0.22898  0.39574  Biso   1.000  Hf
  Hf13     1.0000 0.64056  0.23011  0.89689  Biso   1.000  Hf
  Hf14     1.0000 0.63746  0.72689  0.39574  Biso   1.000  Hf
  Hf15     1.0000 0.63737  0.72920  0.89597  Biso   1.000  Hf
  Hf16     1.0000 0.35906  0.26912  0.10025  Biso   1.000  Hf
  Hf17     1.0000 0.36117  0.27181  0.60339  Biso   1.000  Hf
  Hf18     1.0000 0.35912  0.77543  0.10266  Biso   1.000  Hf
  Hf19     1.0000 0.36142  0.77224  0.60512  Biso   1.000  Hf
  Hf20     1.0000 0.86723  0.26658  0.10662  Biso   1.000  Hf
  Hf21     1.0000 0.86169  0.27146  0.60453  Biso   1.000  Hf
  Hf22     1.0000 0.85914  0.76869  0.10254  Biso   1.000  Hf
  Hf23     1.0000 0.85963  0.77039  0.60574  Biso   1.000  Hf
  Hf24     1.0000 0.36168  0.47900  0.35292  Biso   1.000  Hf
  Hf25     1.0000 0.36132  0.47986  0.85455  Biso   1.000  Hf
  Hf26     1.0000 0.36103  0.97892  0.35265  Biso   1.000  Hf
  Hf27     1.0000 0.36133  0.98418  0.85453  Biso   1.000  Hf
  Hf28     1.0000 0.86070  0.47830  0.35390  Biso   1.000  Hf
  Hf29     1.0000 0.86439  0.47647  0.85657  Biso   1.000  Hf
  Hf30     1.0000 0.85455  0.97594  0.35681  Biso   1.000  Hf
  Hf31     1.0000 0.86169  0.97932  0.85415  Biso   1.000  Hf
  O1       1.0000 0.04364  0.15755  0.08142  Biso   1.000  O
  O2       1.0000 0.03474  0.16559  0.57355  Biso   1.000  O
  O3       1.0000 0.03587  0.67047  0.08027  Biso   1.000  O
  O4       1.0000 0.03423  0.66649  0.58029  Biso   1.000  O
  O5       1.0000 0.53656  0.16954  0.07972  Biso   1.000  O
  O6       1.0000 0.53602  0.16958  0.57937  Biso   1.000  O
  O7       1.0000 0.53485  0.66952  0.07936  Biso   1.000  O
  O8       1.0000 0.53573  0.66866  0.57931  Biso   1.000  O
  O9       1.0000 0.03037  0.08399  0.32875  Biso   1.000  O
  O10      1.0000 0.03551  0.08193  0.82637  Biso   1.000  O
  O11      1.0000 0.03531  0.58064  0.33004  Biso   1.000  O
  O12      1.0000 0.03715  0.58212  0.83130  Biso   1.000  O
  O13      1.0000 0.53426  0.08141  0.32983  Biso   1.000  O
  O14      1.0000 0.53955  0.08151  0.82934  Biso   1.000  O
  O15      1.0000 0.53630  0.57925  0.32978  Biso   1.000  O
  O16      1.0000 0.53484  0.58371  0.82825  Biso   1.000  O
  O17      1.0000 0.46390  0.41863  0.16987  Biso   1.000  O
  O18      1.0000 0.46464  0.41883  0.67042  Biso   1.000  O
  O19      1.0000 0.46376  0.91838  0.17149  Biso   1.000  O
  O20      1.0000 0.46460  0.92008  0.66926  Biso   1.000  O
  O21      1.0000 0.96690  0.41717  0.17162  Biso   1.000  O
  O22      1.0000 0.96736  0.41507  0.67387  Biso   1.000  O
  O23      1.0000 0.95722  0.91841  0.17159  Biso   1.000  O
  O24      1.0000 0.96403  0.91692  0.67074  Biso   1.000  O
  O25      1.0000 0.46414  0.33137  0.41992  Biso   1.000  O
  O26      1.0000 0.47039  0.33827  0.92178  Biso   1.000  O
  O27      1.0000 0.46295  0.82998  0.41924  Biso   1.000  O
  O28      1.0000 0.46137  0.83213  0.92005  Biso   1.000  O
  O29      1.0000 0.96472  0.33199  0.42114  Biso   1.000  O
  O30      1.0000 0.96841  0.32947  0.92651  Biso   1.000  O
  O31      1.0000 0.96337  0.83225  0.42209  Biso   1.000  O
  O32      1.0000 0.96282  0.83075  0.92063  Biso   1.000  O
  O33      1.0000 0.27101  0.12230  0.23260  Biso   1.000  O
  O34      1.0000 0.27514  0.12728  0.73321  Biso   1.000  O
  O35      1.0000 0.27621  0.63182  0.24122  Biso   1.000  O
  O36      1.0000 0.27641  0.62990  0.74055  Biso   1.000  O
  O37      1.0000 0.77487  0.12711  0.24167  Biso   1.000  O
  O38      1.0000 0.77831  0.12982  0.74002  Biso   1.000  O
  O39      1.0000 0.77587  0.62770  0.23998  Biso   1.000  O
  O40      1.0000 0.77716  0.62822  0.74158  Biso   1.000  O
  O41      1.0000 0.27707  0.12240  0.48509  Biso   1.000  O
  O42      1.0000 0.29558  0.13787  0.97150  Biso   1.000  O
  O43      1.0000 0.27641  0.62030  0.49145  Biso   1.000  O
  O44      1.0000 0.27639  0.62569  0.99045  Biso   1.000  O
  O45      1.0000 0.77658  0.12026  0.49076  Biso   1.000  O
  O46      1.0000 0.77810  0.12062  0.99141  Biso   1.000  O
  O47      1.0000 0.77646  0.62034  0.49081  Biso   1.000  O
  O48      1.0000 0.77624  0.62031  0.99030  Biso   1.000  O
  O49      1.0000 0.22393  0.38353  0.00874  Biso   1.000  O
  O50      1.0000 0.22247  0.37883  0.50844  Biso   1.000  O
  O51      1.0000 0.22235  0.89377  0.01356  Biso   1.000  O
  O52      1.0000 0.22345  0.87875  0.50855  Biso   1.000  O
  O53      1.0000 0.72789  0.37740  0.01134  Biso   1.000  O
  O54      1.0000 0.72356  0.37843  0.51008  Biso   1.000  O
  O55      1.0000 0.72169  0.87924  0.00938  Biso   1.000  O
  O56      1.0000 0.72110  0.87784  0.51002  Biso   1.000  O
  O57      1.0000 0.22518  0.37007  0.25834  Biso   1.000  O
  O58      1.0000 0.22551  0.36984  0.75972  Biso   1.000  O
  O59      1.0000 0.21564  0.87058  0.25945  Biso   1.000  O
  O60      1.0000 0.22382  0.87167  0.76037  Biso   1.000  O
  O61      1.0000 0.72552  0.36915  0.25956  Biso   1.000  O
  O62      1.0000 0.72558  0.37196  0.76075  Biso   1.000  O
  O63      1.0000 0.72291  0.86958  0.25962  Biso   1.000  O
  O64      1.0000 0.72330  0.87096  0.75983  Biso   1.000  O
