data_image0
_cell_length_a       10.0721
_cell_length_b       10.3194
_cell_length_c       5.25544
_cell_angle_alpha    89.3661
_cell_angle_beta     90.2458
_cell_angle_gamma    90.1034

_symmetry_space_group_name_H-M    "P 1"
_symmetry_int_tables_number       1

loop_
  _symmetry_equiv_pos_as_xyz
  'x, y, z'

loop_
  _atom_site_label
  _atom_site_occupancy
  _atom_site_fract_x
  _atom_site_fract_y
  _atom_site_fract_z
  _atom_site_thermal_displace_type
  _atom_site_B_iso_or_equiv
  _atom_site_type_symbol
  Hf1      1.0000 0.13994  0.01966  0.34470  Biso   1.000  Hf
  Hf2      1.0000 0.13644  0.22683  0.84907  Biso   1.000  Hf
  Hf3      1.0000 0.34869  0.27178  0.35850  Biso   1.000  Hf
  Hf4      1.0000 0.36298  0.48160  0.84415  Biso   1.000  Hf
  Hf5      1.0000 0.64410  0.01792  0.14299  Biso   1.000  Hf
  Hf6      1.0000 0.64115  0.21989  0.64487  Biso   1.000  Hf
  Hf7      1.0000 0.86213  0.26979  0.16394  Biso   1.000  Hf
  Hf8      1.0000 0.86718  0.48188  0.66618  Biso   1.000  Hf
  O1       1.0000 0.03313  0.16379  0.17060  Biso   1.000  O
  O2       1.0000 0.03488  0.08369  0.66538  Biso   1.000  O
  O3       1.0000 0.44985  0.44396  0.20227  Biso   1.000  O
  O4       1.0000 0.46851  0.33365  0.66224  Biso   1.000  O
  O5       1.0000 0.27329  0.12507  0.59673  Biso   1.000  O
  O6       1.0000 0.27509  0.12431  0.09202  Biso   1.000  O
  O7       1.0000 0.22140  0.37465  0.59862  Biso   1.000  O
  O8       1.0000 0.22258  0.37465  0.09184  Biso   1.000  O
  O9       1.0000 0.51367  0.14205  0.35587  Biso   1.000  O
  O10      1.0000 0.53961  0.06546  0.80775  Biso   1.000  O
  O11      1.0000 0.97078  0.41393  0.34042  Biso   1.000  O
  O12      1.0000 0.96716  0.33590  0.84282  Biso   1.000  O
  O13      1.0000 0.78920  0.11877  0.89436  Biso   1.000  O
  O14      1.0000 0.77806  0.12053  0.40569  Biso   1.000  O
  O15      1.0000 0.72397  0.37739  0.92158  Biso   1.000  O
  O16      1.0000 0.73548  0.38285  0.43502  Biso   1.000  O
  Hf9      1.0000 0.14012  0.52110  0.34192  Biso   1.000  Hf
  Hf10     1.0000 0.14103  0.72936  0.84295  Biso   1.000  Hf
  Hf11     1.0000 0.36277  0.77163  0.34368  Biso   1.000  Hf
  Hf12     1.0000 0.36270  0.97636  0.84438  Biso   1.000  Hf
  Hf13     1.0000 0.64061  0.53084  0.17168  Biso   1.000  Hf
  Hf14     1.0000 0.64046  0.73146  0.66100  Biso   1.000  Hf
  Hf15     1.0000 0.86528  0.77115  0.16033  Biso   1.000  Hf
  Hf16     1.0000 0.86484  0.97655  0.65591  Biso   1.000  Hf
  O17      1.0000 0.03434  0.66309  0.16394  Biso   1.000  O
  O18      1.0000 0.03677  0.58756  0.66225  Biso   1.000  O
  O19      1.0000 0.46891  0.91302  0.16329  Biso   1.000  O
  O20      1.0000 0.46496  0.82836  0.67189  Biso   1.000  O
  O21      1.0000 0.27881  0.62281  0.58901  Biso   1.000  O
  O22      1.0000 0.27637  0.62764  0.08603  Biso   1.000  O
  O23      1.0000 0.22645  0.87415  0.59109  Biso   1.000  O
  O24      1.0000 0.22455  0.87501  0.09251  Biso   1.000  O
  O25      1.0000 0.53852  0.67454  0.33288  Biso   1.000  O
  O26      1.0000 0.53749  0.58183  0.83483  Biso   1.000  O
  O27      1.0000 0.97123  0.91307  0.33330  Biso   1.000  O
  O28      1.0000 0.96997  0.83374  0.83614  Biso   1.000  O
  O29      1.0000 0.77815  0.62537  0.91705  Biso   1.000  O
  O30      1.0000 0.77922  0.62894  0.41719  Biso   1.000  O
  O31      1.0000 0.72734  0.87178  0.91231  Biso   1.000  O
  O32      1.0000 0.72731  0.87525  0.41088  Biso   1.000  O
  Pt1      1.0000 0.58137  0.27566  0.11652  Biso   1.000  Pt
