data_image0
_cell_length_a       5.09708
_cell_length_b       10.3645
_cell_length_c       10.6176
_cell_angle_alpha    90.0708
_cell_angle_beta     79.2973
_cell_angle_gamma    90.206

_symmetry_space_group_name_H-M    "P 1"
_symmetry_int_tables_number       1

loop_
  _symmetry_equiv_pos_as_xyz
  'x, y, z'

loop_
  _atom_site_label
  _atom_site_occupancy
  _atom_site_fract_x
  _atom_site_fract_y
  _atom_site_fract_z
  _atom_site_thermal_displace_type
  _atom_site_B_iso_or_equiv
  _atom_site_type_symbol
  Hf1      1.0000 0.27179  0.01503  0.14775  Biso   1.000  Hf
  Hf2      1.0000 0.29732  0.22959  0.40949  Biso   1.000  Hf
  Hf3      1.0000 0.69008  0.27529  0.08525  Biso   1.000  Hf
  Hf4      1.0000 0.71826  0.48775  0.35677  Biso   1.000  Hf
  O1       1.0000 0.05316  0.15844  0.06636  Biso   1.000  O
  O2       1.0000 0.09688  0.04772  0.35170  Biso   1.000  O
  O3       1.0000 0.91782  0.43134  0.16171  Biso   1.000  O
  O4       1.0000 0.96275  0.36882  0.45191  Biso   1.000  O
  O5       1.0000 0.51365  0.13248  0.23286  Biso   1.000  O
  O6       1.0000 0.57463  0.12065  0.48866  Biso   1.000  O
  O7       1.0000 0.42586  0.38364  0.00592  Biso   1.000  O
  O8       1.0000 0.44430  0.37376  0.25940  Biso   1.000  O
  Hf5      1.0000 0.27753  0.02157  0.64425  Biso   1.000  Hf
  Hf6      1.0000 0.26403  0.22473  0.89170  Biso   1.000  Hf
  Hf7      1.0000 0.73277  0.27869  0.61090  Biso   1.000  Hf
  Hf8      1.0000 0.71321  0.48285  0.85658  Biso   1.000  Hf
  O9       1.0000 0.07764  0.17031  0.58375  Biso   1.000  O
  O10      1.0000 0.06006  0.08336  0.82215  Biso   1.000  O
  O11      1.0000 0.93573  0.41530  0.68713  Biso   1.000  O
  O12      1.0000 0.92148  0.33484  0.91877  Biso   1.000  O
  O13      1.0000 0.54703  0.12811  0.73921  Biso   1.000  O
  O14      1.0000 0.54240  0.12276  0.98467  Biso   1.000  O
  O15      1.0000 0.45986  0.37686  0.51440  Biso   1.000  O
  O16      1.0000 0.44770  0.37263  0.76143  Biso   1.000  O
  Hf9      1.0000 0.26776  0.52566  0.14685  Biso   1.000  Hf
  Hf10     1.0000 0.27519  0.72620  0.39837  Biso   1.000  Hf
  Hf11     1.0000 0.71541  0.77171  0.10535  Biso   1.000  Hf
  Hf12     1.0000 0.72595  0.96277  0.36137  Biso   1.000  Hf
  O17      1.0000 0.06719  0.67432  0.07941  Biso   1.000  O
  O18      1.0000 0.06378  0.58942  0.32421  Biso   1.000  O
  O19      1.0000 0.91940  0.91695  0.17755  Biso   1.000  O
  O20      1.0000 0.91690  0.81835  0.42554  Biso   1.000  O
  O21      1.0000 0.54970  0.63022  0.24362  Biso   1.000  O
  O22      1.0000 0.54193  0.62049  0.49367  Biso   1.000  O
  O23      1.0000 0.44503  0.88006  0.01135  Biso   1.000  O
  O24      1.0000 0.44430  0.86577  0.26076  Biso   1.000  O
  Hf13     1.0000 0.27285  0.52119  0.64975  Biso   1.000  Hf
  Hf14     1.0000 0.26873  0.73068  0.89857  Biso   1.000  Hf
  Hf15     1.0000 0.71965  0.76863  0.60928  Biso   1.000  Hf
  Hf16     1.0000 0.71716  0.97814  0.85268  Biso   1.000  Hf
  O25      1.0000 0.06177  0.66240  0.58069  Biso   1.000  O
  O26      1.0000 0.06200  0.58773  0.83058  Biso   1.000  O
  O27      1.0000 0.92967  0.91464  0.67163  Biso   1.000  O
  O28      1.0000 0.92761  0.83743  0.92420  Biso   1.000  O
  O29      1.0000 0.54702  0.62767  0.74281  Biso   1.000  O
  O30      1.0000 0.54655  0.62509  0.99292  Biso   1.000  O
  O31      1.0000 0.44547  0.87470  0.51417  Biso   1.000  O
  O32      1.0000 0.44422  0.87110  0.76221  Biso   1.000  O
  Rb1      1.0000 0.90143  0.23211  0.28471  Biso   1.000  Rb
