data_image0
_cell_length_a       10.1231
_cell_length_b       5.16301
_cell_length_c       10.6406
_cell_angle_alpha    89.0649
_cell_angle_beta     91.1494
_cell_angle_gamma    89.974

_symmetry_space_group_name_H-M    "P 1"
_symmetry_int_tables_number       1

loop_
  _symmetry_equiv_pos_as_xyz
  'x, y, z'

loop_
  _atom_site_label
  _atom_site_occupancy
  _atom_site_fract_x
  _atom_site_fract_y
  _atom_site_fract_z
  _atom_site_thermal_displace_type
  _atom_site_B_iso_or_equiv
  _atom_site_type_symbol
  Hf1      1.0000 0.13996  0.04107  0.17418  Biso   1.000  Hf
  Hf2      1.0000 0.13467  0.45076  0.42478  Biso   1.000  Hf
  Hf3      1.0000 0.34970  0.54595  0.18758  Biso   1.000  Hf
  Hf4      1.0000 0.36071  0.95181  0.42802  Biso   1.000  Hf
  Hf5      1.0000 0.63603  0.04768  0.09297  Biso   1.000  Hf
  Hf6      1.0000 0.63621  0.45397  0.33526  Biso   1.000  Hf
  Hf7      1.0000 0.87730  0.55156  0.07498  Biso   1.000  Hf
  Hf8      1.0000 0.86118  0.95865  0.32859  Biso   1.000  Hf
  O1       1.0000 0.03607  0.31534  0.07615  Biso   1.000  O
  O2       1.0000 0.02749  0.18315  0.32725  Biso   1.000  O
  O3       1.0000 0.44836  0.86581  0.10698  Biso   1.000  O
  O4       1.0000 0.46400  0.66698  0.34209  Biso   1.000  O
  O5       1.0000 0.26857  0.24599  0.30118  Biso   1.000  O
  O6       1.0000 0.27886  0.25729  0.04673  Biso   1.000  O
  O7       1.0000 0.21941  0.74840  0.30358  Biso   1.000  O
  O8       1.0000 0.21953  0.75246  0.05012  Biso   1.000  O
  O9       1.0000 0.51803  0.31272  0.19281  Biso   1.000  O
  O10      1.0000 0.52990  0.16486  0.42407  Biso   1.000  O
  O11      1.0000 0.97180  0.82118  0.17756  Biso   1.000  O
  O12      1.0000 0.96793  0.67910  0.42337  Biso   1.000  O
  O13      1.0000 0.77568  0.24016  0.44948  Biso   1.000  O
  O14      1.0000 0.77266  0.26499  0.19886  Biso   1.000  O
  O15      1.0000 0.72513  0.73754  0.46053  Biso   1.000  O
  O16      1.0000 0.71827  0.75588  0.21519  Biso   1.000  O
  Hf9      1.0000 0.14021  0.03544  0.67383  Biso   1.000  Hf
  Hf10     1.0000 0.14484  0.45816  0.92142  Biso   1.000  Hf
  Hf11     1.0000 0.35817  0.53729  0.67303  Biso   1.000  Hf
  Hf12     1.0000 0.35978  0.95965  0.92668  Biso   1.000  Hf
  Hf13     1.0000 0.64103  0.02196  0.57279  Biso   1.000  Hf
  Hf14     1.0000 0.64205  0.42184  0.79486  Biso   1.000  Hf
  Hf15     1.0000 0.86758  0.54325  0.58005  Biso   1.000  Hf
  Hf16     1.0000 0.86986  0.97235  0.83218  Biso   1.000  Hf
  O17      1.0000 0.03163  0.31606  0.57916  Biso   1.000  O
  O18      1.0000 0.03788  0.18258  0.82723  Biso   1.000  O
  O19      1.0000 0.47096  0.80677  0.58120  Biso   1.000  O
  O20      1.0000 0.46845  0.65897  0.82408  Biso   1.000  O
  O21      1.0000 0.27972  0.24146  0.79694  Biso   1.000  O
  O22      1.0000 0.27292  0.24321  0.54750  Biso   1.000  O
  O23      1.0000 0.22716  0.74466  0.79827  Biso   1.000  O
  O24      1.0000 0.22368  0.74552  0.54978  Biso   1.000  O
  O25      1.0000 0.52491  0.29834  0.65972  Biso   1.000  O
  O26      1.0000 0.53938  0.13017  0.91984  Biso   1.000  O
  O27      1.0000 0.97296  0.81680  0.67296  Biso   1.000  O
  O28      1.0000 0.98184  0.68258  0.91941  Biso   1.000  O
  O29      1.0000 0.78454  0.30575  0.93182  Biso   1.000  O
  O30      1.0000 0.78113  0.23212  0.68751  Biso   1.000  O
  O31      1.0000 0.76740  0.83913  0.98197  Biso   1.000  O
  O32      1.0000 0.72936  0.74008  0.71320  Biso   1.000  O
  Rb1      1.0000 0.58394  0.55317  0.01755  Biso   1.000  Rb
