data_image0
_cell_length_a       10.058
_cell_length_b       10.2436
_cell_length_c       10.0581
_cell_angle_alpha    90.001
_cell_angle_beta     89.9988
_cell_angle_gamma    90.001

_symmetry_space_group_name_H-M    "P 1"
_symmetry_int_tables_number       1

loop_
  _symmetry_equiv_pos_as_xyz
  'x, y, z'

loop_
  _atom_site_label
  _atom_site_occupancy
  _atom_site_fract_x
  _atom_site_fract_y
  _atom_site_fract_z
  _atom_site_thermal_displace_type
  _atom_site_B_iso_or_equiv
  _atom_site_type_symbol
  Rb1      1.0000 0.12589  0.00050  0.12594  Biso   1.000  Rb
  Hf1      1.0000 0.12589  0.00050  0.62593  Biso   1.000  Hf
  Hf2      1.0000 0.12588  0.50050  0.12593  Biso   1.000  Hf
  Hf3      1.0000 0.12588  0.50050  0.62592  Biso   1.000  Hf
  Hf4      1.0000 0.62589  0.00050  0.12593  Biso   1.000  Hf
  Hf5      1.0000 0.62588  0.00051  0.62593  Biso   1.000  Hf
  Hf6      1.0000 0.62588  0.50050  0.12592  Biso   1.000  Hf
  Hf7      1.0000 0.62589  0.50050  0.62594  Biso   1.000  Hf
  Hf8      1.0000 0.12453  0.25410  0.37646  Biso   1.000  Hf
  Hf9      1.0000 0.12722  0.25410  0.87538  Biso   1.000  Hf
  Hf10     1.0000 0.12725  0.74690  0.37647  Biso   1.000  Hf
  Hf11     1.0000 0.12455  0.74691  0.87538  Biso   1.000  Hf
  Hf12     1.0000 0.62613  0.24973  0.37601  Biso   1.000  Hf
  Hf13     1.0000 0.62563  0.24972  0.87584  Biso   1.000  Hf
  Hf14     1.0000 0.62563  0.75128  0.37602  Biso   1.000  Hf
  Hf15     1.0000 0.62613  0.75128  0.87584  Biso   1.000  Hf
  Hf16     1.0000 0.37642  0.25410  0.12457  Biso   1.000  Hf
  Hf17     1.0000 0.37597  0.24973  0.62618  Biso   1.000  Hf
  Hf18     1.0000 0.37643  0.74690  0.12729  Biso   1.000  Hf
  Hf19     1.0000 0.37598  0.75127  0.62567  Biso   1.000  Hf
  Hf20     1.0000 0.87534  0.25410  0.12727  Biso   1.000  Hf
  Hf21     1.0000 0.87579  0.24973  0.62567  Biso   1.000  Hf
  Hf22     1.0000 0.87534  0.74691  0.12459  Biso   1.000  Hf
  Hf23     1.0000 0.87579  0.75128  0.62618  Biso   1.000  Hf
  Hf24     1.0000 0.37668  0.00334  0.37672  Biso   1.000  Hf
  Hf25     1.0000 0.37668  0.99766  0.87514  Biso   1.000  Hf
  Hf26     1.0000 0.37744  0.49921  0.37749  Biso   1.000  Hf
  Hf27     1.0000 0.37744  0.50178  0.87436  Biso   1.000  Hf
  Hf28     1.0000 0.87510  0.99766  0.37673  Biso   1.000  Hf
  Hf29     1.0000 0.87510  0.00334  0.87513  Biso   1.000  Hf
  Hf30     1.0000 0.87432  0.50178  0.37749  Biso   1.000  Hf
  Hf31     1.0000 0.87433  0.49924  0.87437  Biso   1.000  Hf
  Hf32     1.0000 0.99010  0.15717  0.99015  Biso   1.000  Hf
  Hf33     1.0000 0.01064  0.15065  0.51128  Biso   1.000  Hf
  Hf34     1.0000 0.00657  0.64266  0.00662  Biso   1.000  Hf
  Hf35     1.0000 0.00142  0.64759  0.50573  Biso   1.000  Hf
  Hf36     1.0000 0.51124  0.15065  0.01069  Biso   1.000  Hf
  Hf37     1.0000 0.50690  0.14917  0.50695  Biso   1.000  Hf
  Hf38     1.0000 0.50568  0.64759  0.00147  Biso   1.000  Hf
  Hf39     1.0000 0.50061  0.64826  0.50066  Biso   1.000  Hf
  Hf40     1.0000 0.98258  0.12562  0.26924  Biso   1.000  Hf
  Hf41     1.0000 0.99550  0.10120  0.75006  Biso   1.000  Hf
  Hf42     1.0000 0.99827  0.60108  0.25350  Biso   1.000  Hf
  Hf43     1.0000 0.00166  0.60185  0.75520  Biso   1.000  Hf
  Hf44     1.0000 0.50177  0.10119  0.25633  Biso   1.000  Hf
  Hf45     1.0000 0.49804  0.10275  0.75379  Biso   1.000  Hf
  Hf46     1.0000 0.49657  0.60184  0.25013  Biso   1.000  Hf
  Hf47     1.0000 0.50117  0.60303  0.75062  Biso   1.000  Hf
  Hf48     1.0000 0.00659  0.35835  0.24521  Biso   1.000  Hf
  Hf49     1.0000 0.00145  0.35341  0.74610  Biso   1.000  Hf
  Hf50     1.0000 0.99010  0.84383  0.26172  Biso   1.000  Hf
  Hf51     1.0000 0.01060  0.85036  0.74059  Biso   1.000  Hf
  Hf52     1.0000 0.50569  0.35340  0.25037  Biso   1.000  Hf
  Hf53     1.0000 0.50064  0.35274  0.75117  Biso   1.000  Hf
  Hf54     1.0000 0.51125  0.85035  0.24118  Biso   1.000  Hf
  Hf55     1.0000 0.50688  0.85184  0.74492  Biso   1.000  Hf
  Hf56     1.0000 0.99829  0.39993  0.99832  Biso   1.000  Hf
  Hf57     1.0000 0.00166  0.39915  0.49663  Biso   1.000  Hf
  Hf58     1.0000 0.98259  0.87539  0.98263  Biso   1.000  Hf
  Hf59     1.0000 0.99550  0.89981  0.50181  Biso   1.000  Hf
  Hf60     1.0000 0.49659  0.39916  0.00170  Biso   1.000  Hf
  Hf61     1.0000 0.50118  0.39798  0.50122  Biso   1.000  Hf
  Hf62     1.0000 0.50178  0.89981  0.99553  Biso   1.000  Hf
  Hf63     1.0000 0.49804  0.89826  0.49808  Biso   1.000  Hf
  Hf64     1.0000 0.26168  0.15715  0.26172  Biso   1.000  Hf
  Hf65     1.0000 0.24115  0.15065  0.74058  Biso   1.000  Hf
  Hf66     1.0000 0.24514  0.64265  0.24518  Biso   1.000  Hf
  Hf67     1.0000 0.25032  0.64759  0.74608  Biso   1.000  Hf
  Hf68     1.0000 0.74054  0.15065  0.24118  Biso   1.000  Hf
  Hf69     1.0000 0.74488  0.14917  0.74492  Biso   1.000  Hf
  Hf70     1.0000 0.74605  0.64760  0.25036  Biso   1.000  Hf
  Hf71     1.0000 0.75112  0.64826  0.75116  Biso   1.000  Hf
  Hf72     1.0000 0.26920  0.12563  0.98262  Biso   1.000  Hf
  Hf73     1.0000 0.25628  0.10119  0.50181  Biso   1.000  Hf
  Hf74     1.0000 0.25345  0.60108  0.99830  Biso   1.000  Hf
  Hf75     1.0000 0.25008  0.60184  0.49661  Biso   1.000  Hf
  Hf76     1.0000 0.75001  0.10120  0.99554  Biso   1.000  Hf
  Hf77     1.0000 0.75374  0.10275  0.49808  Biso   1.000  Hf
  Hf78     1.0000 0.75515  0.60185  0.00169  Biso   1.000  Hf
  Hf79     1.0000 0.75057  0.60303  0.50120  Biso   1.000  Hf
  Hf80     1.0000 0.24517  0.35835  0.00663  Biso   1.000  Hf
  Hf81     1.0000 0.25033  0.35340  0.50574  Biso   1.000  Hf
  Hf82     1.0000 0.26168  0.84383  0.99016  Biso   1.000  Hf
  Hf83     1.0000 0.24113  0.85034  0.51131  Biso   1.000  Hf
  Hf84     1.0000 0.74606  0.35341  0.00149  Biso   1.000  Hf
  Hf85     1.0000 0.75113  0.35274  0.50068  Biso   1.000  Hf
  Hf86     1.0000 0.74055  0.85036  0.01066  Biso   1.000  Hf
  Hf87     1.0000 0.74488  0.85184  0.50693  Biso   1.000  Hf
  Hf88     1.0000 0.25347  0.39991  0.25352  Biso   1.000  Hf
  Hf89     1.0000 0.25011  0.39915  0.75520  Biso   1.000  Hf
  Hf90     1.0000 0.26920  0.87537  0.26926  Biso   1.000  Hf
  Hf91     1.0000 0.25624  0.89980  0.75008  Biso   1.000  Hf
  Hf92     1.0000 0.75516  0.39916  0.25015  Biso   1.000  Hf
  Hf93     1.0000 0.75059  0.39798  0.75064  Biso   1.000  Hf
  Hf94     1.0000 0.75002  0.89981  0.25631  Biso   1.000  Hf
  Hf95     1.0000 0.75372  0.89827  0.75378  Biso   1.000  Hf
