data_image0
_cell_length_a       10.0986
_cell_length_b       10.2616
_cell_length_c       10.4364
_cell_angle_alpha    89.9485
_cell_angle_beta     80.1984
_cell_angle_gamma    89.963

_symmetry_space_group_name_H-M    "P 1"
_symmetry_int_tables_number       1

loop_
  _symmetry_equiv_pos_as_xyz
  'x, y, z'

loop_
  _atom_site_label
  _atom_site_occupancy
  _atom_site_fract_x
  _atom_site_fract_y
  _atom_site_fract_z
  _atom_site_thermal_displace_type
  _atom_site_B_iso_or_equiv
  _atom_site_type_symbol
  Re1      1.0000 0.14118  0.02251  0.14985  Biso   1.000  Re
  Hf1      1.0000 0.14033  0.22959  0.39522  Biso   1.000  Hf
  Hf2      1.0000 0.36005  0.27114  0.10513  Biso   1.000  Hf
  Hf3      1.0000 0.36176  0.47934  0.35402  Biso   1.000  Hf
  O1       1.0000 0.03661  0.16567  0.08055  Biso   1.000  O
  O2       1.0000 0.04104  0.08061  0.32088  Biso   1.000  O
  O3       1.0000 0.46366  0.42014  0.16906  Biso   1.000  O
  O4       1.0000 0.46372  0.33036  0.41962  Biso   1.000  O
  O5       1.0000 0.27903  0.12698  0.24159  Biso   1.000  O
  O6       1.0000 0.27756  0.12124  0.49149  Biso   1.000  O
  O7       1.0000 0.22278  0.37865  0.01002  Biso   1.000  O
  O8       1.0000 0.22379  0.37121  0.25956  Biso   1.000  O
  Hf4      1.0000 0.13886  0.02113  0.64570  Biso   1.000  Hf
  Hf5      1.0000 0.13768  0.22650  0.89758  Biso   1.000  Hf
  Hf6      1.0000 0.36104  0.27154  0.60494  Biso   1.000  Hf
  Hf7      1.0000 0.36018  0.47843  0.85460  Biso   1.000  Hf
  O9       1.0000 0.03463  0.16632  0.57616  Biso   1.000  O
  O10      1.0000 0.03442  0.08168  0.82784  Biso   1.000  O
  O11      1.0000 0.46374  0.42013  0.66956  Biso   1.000  O
  O12      1.0000 0.46186  0.32827  0.91933  Biso   1.000  O
  O13      1.0000 0.27682  0.12885  0.74275  Biso   1.000  O
  O14      1.0000 0.27309  0.11703  0.99771  Biso   1.000  O
  O15      1.0000 0.22293  0.37871  0.50931  Biso   1.000  O
  O16      1.0000 0.22276  0.37035  0.75986  Biso   1.000  O
  Hf8      1.0000 0.13922  0.52178  0.14582  Biso   1.000  Hf
  Hf9      1.0000 0.13861  0.72901  0.39563  Biso   1.000  Hf
  Hf10     1.0000 0.35820  0.77548  0.10438  Biso   1.000  Hf
  Hf11     1.0000 0.36103  0.97843  0.35386  Biso   1.000  Hf
  O17      1.0000 0.03564  0.66806  0.07964  Biso   1.000  O
  O18      1.0000 0.03575  0.58081  0.33036  Biso   1.000  O
  O19      1.0000 0.46545  0.91870  0.17126  Biso   1.000  O
  O20      1.0000 0.46488  0.82997  0.41935  Biso   1.000  O
  O21      1.0000 0.27643  0.63128  0.24091  Biso   1.000  O
  O22      1.0000 0.27686  0.62087  0.49073  Biso   1.000  O
  O23      1.0000 0.21729  0.88119  0.00970  Biso   1.000  O
  O24      1.0000 0.21925  0.87399  0.25780  Biso   1.000  O
  Hf12     1.0000 0.13875  0.52127  0.64613  Biso   1.000  Hf
  Hf13     1.0000 0.13867  0.72896  0.89583  Biso   1.000  Hf
  Hf14     1.0000 0.36148  0.77118  0.60391  Biso   1.000  Hf
  Hf15     1.0000 0.35942  0.97839  0.85515  Biso   1.000  Hf
  O25      1.0000 0.03539  0.66892  0.57966  Biso   1.000  O
  O26      1.0000 0.03539  0.58056  0.83010  Biso   1.000  O
  O27      1.0000 0.46347  0.91968  0.66994  Biso   1.000  O
  O28      1.0000 0.46212  0.83082  0.92010  Biso   1.000  O
  O29      1.0000 0.27670  0.62892  0.74060  Biso   1.000  O
  O30      1.0000 0.27661  0.62167  0.99070  Biso   1.000  O
  O31      1.0000 0.22363  0.87881  0.50866  Biso   1.000  O
  O32      1.0000 0.22306  0.87074  0.75880  Biso   1.000  O
  Hf16     1.0000 0.63890  0.02202  0.14587  Biso   1.000  Hf
  Hf17     1.0000 0.63901  0.22882  0.39569  Biso   1.000  Hf
  Hf18     1.0000 0.86312  0.27008  0.10430  Biso   1.000  Hf
  Hf19     1.0000 0.86103  0.47859  0.35345  Biso   1.000  Hf
  O33      1.0000 0.53586  0.17019  0.08140  Biso   1.000  O
  O34      1.0000 0.53671  0.07997  0.33147  Biso   1.000  O
  O35      1.0000 0.96466  0.41942  0.16956  Biso   1.000  O
  O36      1.0000 0.96411  0.32968  0.41850  Biso   1.000  O
  O37      1.0000 0.77729  0.12894  0.24060  Biso   1.000  O
  O38      1.0000 0.77800  0.12025  0.48941  Biso   1.000  O
  O39      1.0000 0.72338  0.37927  0.00935  Biso   1.000  O
  O40      1.0000 0.72345  0.37070  0.25908  Biso   1.000  O
  Hf20     1.0000 0.63829  0.02113  0.64611  Biso   1.000  Hf
  Hf21     1.0000 0.63839  0.22862  0.89610  Biso   1.000  Hf
  Hf22     1.0000 0.86089  0.27118  0.60361  Biso   1.000  Hf
  Hf23     1.0000 0.86075  0.47837  0.85463  Biso   1.000  Hf
  O41      1.0000 0.53675  0.17048  0.58122  Biso   1.000  O
  O42      1.0000 0.53490  0.07995  0.83155  Biso   1.000  O
  O43      1.0000 0.96448  0.41785  0.66997  Biso   1.000  O
  O44      1.0000 0.96471  0.33000  0.92050  Biso   1.000  O
  O45      1.0000 0.77592  0.12903  0.74017  Biso   1.000  O
  O46      1.0000 0.77606  0.12112  0.99014  Biso   1.000  O
  O47      1.0000 0.72348  0.37902  0.50944  Biso   1.000  O
  O48      1.0000 0.72301  0.37085  0.75956  Biso   1.000  O
  Hf24     1.0000 0.63883  0.52234  0.14535  Biso   1.000  Hf
  Hf25     1.0000 0.63986  0.72871  0.39571  Biso   1.000  Hf
  Hf26     1.0000 0.86355  0.77305  0.10342  Biso   1.000  Hf
  Hf27     1.0000 0.86163  0.97917  0.35251  Biso   1.000  Hf
  O49      1.0000 0.53411  0.67035  0.08102  Biso   1.000  O
  O50      1.0000 0.53675  0.58010  0.33098  Biso   1.000  O
  O51      1.0000 0.97255  0.92035  0.16659  Biso   1.000  O
  O52      1.0000 0.96486  0.83279  0.41965  Biso   1.000  O
  O53      1.0000 0.77702  0.62991  0.24017  Biso   1.000  O
  O54      1.0000 0.77724  0.62094  0.49054  Biso   1.000  O
  O55      1.0000 0.72252  0.87940  0.00973  Biso   1.000  O
  O56      1.0000 0.72809  0.87205  0.25889  Biso   1.000  O
  Hf28     1.0000 0.63901  0.52137  0.64631  Biso   1.000  Hf
  Hf29     1.0000 0.63781  0.72845  0.89711  Biso   1.000  Hf
  Hf30     1.0000 0.86064  0.77155  0.60424  Biso   1.000  Hf
  Hf31     1.0000 0.86035  0.97861  0.85400  Biso   1.000  Hf
  O57      1.0000 0.53676  0.66993  0.58067  Biso   1.000  O
  O58      1.0000 0.53567  0.57981  0.83126  Biso   1.000  O
  O59      1.0000 0.96420  0.91877  0.66949  Biso   1.000  O
  O60      1.0000 0.96335  0.83028  0.91878  Biso   1.000  O
  O61      1.0000 0.77659  0.62899  0.74110  Biso   1.000  O
  O62      1.0000 0.77674  0.62163  0.99094  Biso   1.000  O
  O63      1.0000 0.72336  0.87934  0.50892  Biso   1.000  O
  O64      1.0000 0.72255  0.87077  0.75956  Biso   1.000  O
