data_image0
_cell_length_a       5.04318
_cell_length_b       10.2484
_cell_length_c       10.4297
_cell_angle_alpha    89.9003
_cell_angle_beta     80.0582
_cell_angle_gamma    89.9057

_symmetry_space_group_name_H-M    "P 1"
_symmetry_int_tables_number       1

loop_
  _symmetry_equiv_pos_as_xyz
  'x, y, z'

loop_
  _atom_site_label
  _atom_site_occupancy
  _atom_site_fract_x
  _atom_site_fract_y
  _atom_site_fract_z
  _atom_site_thermal_displace_type
  _atom_site_B_iso_or_equiv
  _atom_site_type_symbol
  Re1      1.0000 0.28419  0.02225  0.15013  Biso   1.000  Re
  Hf1      1.0000 0.28074  0.22999  0.39490  Biso   1.000  Hf
  Hf2      1.0000 0.72497  0.26981  0.10537  Biso   1.000  Hf
  Hf3      1.0000 0.72314  0.47937  0.35334  Biso   1.000  Hf
  O1       1.0000 0.07405  0.16629  0.08190  Biso   1.000  O
  O2       1.0000 0.08345  0.07994  0.32158  Biso   1.000  O
  O3       1.0000 0.92857  0.42022  0.16902  Biso   1.000  O
  O4       1.0000 0.92734  0.32957  0.41848  Biso   1.000  O
  O5       1.0000 0.55859  0.12766  0.24183  Biso   1.000  O
  O6       1.0000 0.55764  0.12047  0.49015  Biso   1.000  O
  O7       1.0000 0.44620  0.37871  0.01004  Biso   1.000  O
  O8       1.0000 0.44757  0.37138  0.25921  Biso   1.000  O
  Hf4      1.0000 0.27650  0.02087  0.64592  Biso   1.000  Hf
  Hf5      1.0000 0.27459  0.22629  0.89809  Biso   1.000  Hf
  Hf6      1.0000 0.72141  0.27125  0.60440  Biso   1.000  Hf
  Hf7      1.0000 0.71963  0.47809  0.85520  Biso   1.000  Hf
  O9       1.0000 0.07059  0.16709  0.57677  Biso   1.000  O
  O10      1.0000 0.06656  0.08125  0.82893  Biso   1.000  O
  O11      1.0000 0.92850  0.41815  0.67006  Biso   1.000  O
  O12      1.0000 0.92589  0.32808  0.92051  Biso   1.000  O
  O13      1.0000 0.55206  0.12867  0.74217  Biso   1.000  O
  O14      1.0000 0.54561  0.11731  0.99698  Biso   1.000  O
  O15      1.0000 0.44583  0.37847  0.50937  Biso   1.000  O
  O16      1.0000 0.44501  0.37024  0.76012  Biso   1.000  O
  Hf8      1.0000 0.27850  0.52275  0.14534  Biso   1.000  Hf
  Hf9      1.0000 0.27907  0.72882  0.39570  Biso   1.000  Hf
  Hf10     1.0000 0.72128  0.77728  0.10364  Biso   1.000  Hf
  Hf11     1.0000 0.72313  0.97906  0.35224  Biso   1.000  Hf
  O17      1.0000 0.06741  0.66926  0.08051  Biso   1.000  O
  O18      1.0000 0.07287  0.58044  0.33095  Biso   1.000  O
  O19      1.0000 0.94672  0.92117  0.16663  Biso   1.000  O
  O20      1.0000 0.93127  0.83219  0.41903  Biso   1.000  O
  O21      1.0000 0.55356  0.63207  0.24062  Biso   1.000  O
  O22      1.0000 0.55472  0.62080  0.49090  Biso   1.000  O
  O23      1.0000 0.43284  0.88098  0.00993  Biso   1.000  O
  O24      1.0000 0.44712  0.87492  0.25792  Biso   1.000  O
  Hf12     1.0000 0.27766  0.52109  0.64680  Biso   1.000  Hf
  Hf13     1.0000 0.27516  0.72882  0.89711  Biso   1.000  Hf
  Hf14     1.0000 0.72177  0.77126  0.60405  Biso   1.000  Hf
  Hf15     1.0000 0.71737  0.97838  0.85488  Biso   1.000  Hf
  O25      1.0000 0.07197  0.66910  0.58002  Biso   1.000  O
  O26      1.0000 0.07002  0.57992  0.83102  Biso   1.000  O
  O27      1.0000 0.92733  0.91884  0.66967  Biso   1.000  O
  O28      1.0000 0.92311  0.83067  0.91902  Biso   1.000  O
  O29      1.0000 0.55320  0.62876  0.74120  Biso   1.000  O
  O30      1.0000 0.55333  0.62242  0.99119  Biso   1.000  O
  O31      1.0000 0.44741  0.87896  0.50821  Biso   1.000  O
  O32      1.0000 0.44456  0.87061  0.75894  Biso   1.000  O
