data_image0
_cell_length_a       5.03183
_cell_length_b       10.4626
_cell_length_c       10.0903
_cell_angle_alpha    89.5611
_cell_angle_beta     90.0376
_cell_angle_gamma    90.3046

_symmetry_space_group_name_H-M    "P 1"
_symmetry_int_tables_number       1

loop_
  _symmetry_equiv_pos_as_xyz
  'x, y, z'

loop_
  _atom_site_label
  _atom_site_occupancy
  _atom_site_fract_x
  _atom_site_fract_y
  _atom_site_fract_z
  _atom_site_thermal_displace_type
  _atom_site_B_iso_or_equiv
  _atom_site_type_symbol
  Hf1      1.0000 0.26362  0.01900  0.11398  Biso   1.000  Hf
  Hf2      1.0000 0.26351  0.22747  0.39237  Biso   1.000  Hf
  Hf3      1.0000 0.68404  0.25033  0.12320  Biso   1.000  Hf
  Hf4      1.0000 0.73703  0.48355  0.37598  Biso   1.000  Hf
  Hf5      1.0000 0.99891  0.17949  0.23844  Biso   1.000  Hf
  Hf6      1.0000 0.07366  0.06075  0.45595  Biso   1.000  Hf
  Hf7      1.0000 0.90847  0.43908  0.19425  Biso   1.000  Hf
  Hf8      1.0000 0.94047  0.32409  0.45606  Biso   1.000  Hf
  Hf9      1.0000 0.50243  0.10860  0.25434  Biso   1.000  Hf
  Hf10     1.0000 0.55415  0.13231  0.50078  Biso   1.000  Hf
  Hf11     1.0000 0.46918  0.38334  0.50302  Biso   1.000  Hf
  Hf12     1.0000 0.43848  0.35926  0.25694  Biso   1.000  Hf
  Hf13     1.0000 0.27862  0.01181  0.62665  Biso   1.000  Hf
  Hf14     1.0000 0.28465  0.22169  0.86661  Biso   1.000  Hf
  Hf15     1.0000 0.74245  0.26712  0.62780  Biso   1.000  Hf
  Hf16     1.0000 0.73457  0.48511  0.87494  Biso   1.000  Hf
  Hf17     1.0000 0.08150  0.18073  0.68814  Biso   1.000  Hf
  Hf18     1.0000 0.09676  0.05411  0.92637  Biso   1.000  Hf
  Hf19     1.0000 0.94077  0.43237  0.70340  Biso   1.000  Hf
  Hf20     1.0000 0.93963  0.31426  0.94470  Biso   1.000  Hf
  Hf21     1.0000 0.55453  0.11263  0.74585  Biso   1.000  Hf
  Hf22     1.0000 0.58639  0.11526  0.99010  Biso   1.000  Hf
  Hf23     1.0000 0.46523  0.38867  0.00066  Biso   1.000  Hf
  Hf24     1.0000 0.47262  0.36565  0.75103  Biso   1.000  Hf
  Hf25     1.0000 0.26037  0.54077  0.12198  Biso   1.000  Hf
  Hf26     1.0000 0.27325  0.73707  0.37726  Biso   1.000  Hf
  Hf27     1.0000 0.72747  0.77055  0.12664  Biso   1.000  Hf
  Hf28     1.0000 0.73921  0.98719  0.37160  Biso   1.000  Hf
  Hf29     1.0000 0.06238  0.69138  0.20185  Biso   1.000  Hf
  Hf30     1.0000 0.06704  0.56876  0.44758  Biso   1.000  Hf
  Hf31     1.0000 0.92616  0.93884  0.18879  Biso   1.000  Hf
  Hf32     1.0000 0.93236  0.81755  0.44159  Biso   1.000  Hf
  Hf33     1.0000 0.54116  0.62058  0.25110  Biso   1.000  Hf
  Hf34     1.0000 0.53904  0.63265  0.49891  Biso   1.000  Hf
  Hf35     1.0000 0.47030  0.88408  0.49762  Biso   1.000  Hf
  Hf36     1.0000 0.46268  0.86663  0.24855  Biso   1.000  Hf
  Hf37     1.0000 0.27170  0.51426  0.62515  Biso   1.000  Hf
  Hf38     1.0000 0.27035  0.73638  0.87060  Biso   1.000  Hf
  Hf39     1.0000 0.74360  0.76348  0.61987  Biso   1.000  Hf
  Hf40     1.0000 0.74590  0.97434  0.87064  Biso   1.000  Hf
  Hf41     1.0000 0.07727  0.68161  0.69268  Biso   1.000  Hf
  Hf42     1.0000 0.06937  0.57163  0.94418  Biso   1.000  Hf
  Hf43     1.0000 0.94521  0.92546  0.69365  Biso   1.000  Hf
  Hf44     1.0000 0.93605  0.81349  0.94752  Biso   1.000  Hf
  Hf45     1.0000 0.54336  0.61372  0.74826  Biso   1.000  Hf
  Hf46     1.0000 0.54155  0.63893  0.99605  Biso   1.000  Hf
  Hf47     1.0000 0.46069  0.88054  0.99800  Biso   1.000  Hf
  Hf48     1.0000 0.47680  0.86218  0.74601  Biso   1.000  Hf
  Re1      1.0000 0.17561  0.30244  0.10906  Biso   1.000  Re
