data_image0
_cell_length_a       5.02456
_cell_length_b       10.4685
_cell_length_c       10.0613
_cell_angle_alpha    89.249
_cell_angle_beta     90.0779
_cell_angle_gamma    89.9471

_symmetry_space_group_name_H-M    "P 1"
_symmetry_int_tables_number       1

loop_
  _symmetry_equiv_pos_as_xyz
  'x, y, z'

loop_
  _atom_site_label
  _atom_site_occupancy
  _atom_site_fract_x
  _atom_site_fract_y
  _atom_site_fract_z
  _atom_site_thermal_displace_type
  _atom_site_B_iso_or_equiv
  _atom_site_type_symbol
  Hf1      1.0000 0.26180  0.01440  0.11946  Biso   1.000  Hf
  Hf2      1.0000 0.26365  0.23033  0.38491  Biso   1.000  Hf
  Hf3      1.0000 0.69161  0.25513  0.12303  Biso   1.000  Hf
  Hf4      1.0000 0.74011  0.48461  0.37823  Biso   1.000  Hf
  Hf5      1.0000 0.00856  0.16764  0.22358  Biso   1.000  Hf
  Hf6      1.0000 0.07168  0.06303  0.45229  Biso   1.000  Hf
  Hf7      1.0000 0.92173  0.44548  0.20102  Biso   1.000  Hf
  Hf8      1.0000 0.93538  0.31945  0.45149  Biso   1.000  Hf
  Hf9      1.0000 0.50684  0.11278  0.25023  Biso   1.000  Hf
  Hf10     1.0000 0.54759  0.13363  0.49832  Biso   1.000  Hf
  Hf11     1.0000 0.46378  0.38268  0.50345  Biso   1.000  Hf
  Hf12     1.0000 0.46076  0.36604  0.25817  Biso   1.000  Hf
  Hf13     1.0000 0.27432  0.01164  0.62449  Biso   1.000  Hf
  Hf14     1.0000 0.27802  0.22111  0.86479  Biso   1.000  Hf
  Hf15     1.0000 0.73668  0.26705  0.62712  Biso   1.000  Hf
  Hf16     1.0000 0.74238  0.48481  0.87374  Biso   1.000  Hf
  Hf17     1.0000 0.07685  0.17906  0.68945  Biso   1.000  Hf
  Hf18     1.0000 0.08763  0.05651  0.93527  Biso   1.000  Hf
  Hf19     1.0000 0.93282  0.43360  0.69421  Biso   1.000  Hf
  Hf20     1.0000 0.92952  0.31061  0.92910  Biso   1.000  Hf
  Hf21     1.0000 0.54815  0.11161  0.74487  Biso   1.000  Hf
  Hf22     1.0000 0.57413  0.11989  0.99147  Biso   1.000  Hf
  Hf23     1.0000 0.47963  0.39474  0.00397  Biso   1.000  Hf
  Hf24     1.0000 0.46591  0.36485  0.75199  Biso   1.000  Hf
  Hf25     1.0000 0.26745  0.53353  0.12855  Biso   1.000  Hf
  Hf26     1.0000 0.27258  0.73685  0.37801  Biso   1.000  Hf
  Hf27     1.0000 0.72885  0.76792  0.12718  Biso   1.000  Hf
  Hf28     1.0000 0.73827  0.98667  0.37167  Biso   1.000  Hf
  Hf29     1.0000 0.07208  0.69115  0.19918  Biso   1.000  Hf
  Hf30     1.0000 0.07370  0.56959  0.44790  Biso   1.000  Hf
  Hf31     1.0000 0.92531  0.93349  0.19175  Biso   1.000  Hf
  Hf32     1.0000 0.93272  0.81841  0.44402  Biso   1.000  Hf
  Hf33     1.0000 0.54334  0.62224  0.25356  Biso   1.000  Hf
  Hf34     1.0000 0.54161  0.63378  0.50132  Biso   1.000  Hf
  Hf35     1.0000 0.46936  0.88448  0.49763  Biso   1.000  Hf
  Hf36     1.0000 0.46009  0.86850  0.24869  Biso   1.000  Hf
  Hf37     1.0000 0.27282  0.51510  0.62622  Biso   1.000  Hf
  Hf38     1.0000 0.27064  0.73440  0.87388  Biso   1.000  Hf
  Hf39     1.0000 0.74090  0.76413  0.62331  Biso   1.000  Hf
  Hf40     1.0000 0.74170  0.97605  0.87280  Biso   1.000  Hf
  Hf41     1.0000 0.07390  0.68104  0.69637  Biso   1.000  Hf
  Hf42     1.0000 0.07243  0.56845  0.94791  Biso   1.000  Hf
  Hf43     1.0000 0.94189  0.92736  0.69527  Biso   1.000  Hf
  Hf44     1.0000 0.93437  0.81351  0.94761  Biso   1.000  Hf
  Hf45     1.0000 0.54185  0.61453  0.75010  Biso   1.000  Hf
  Hf46     1.0000 0.54018  0.63880  0.99961  Biso   1.000  Hf
  Hf47     1.0000 0.46098  0.88113  0.99882  Biso   1.000  Hf
  Hf48     1.0000 0.47247  0.86257  0.74767  Biso   1.000  Hf
  Rh1      1.0000 0.18157  0.29678  0.10308  Biso   1.000  Rh
