data_image0
_cell_length_a       10.0802
_cell_length_b       10.2667
_cell_length_c       10.1368
_cell_angle_alpha    90.4612
_cell_angle_beta     87.1336
_cell_angle_gamma    90.9169

_symmetry_space_group_name_H-M    "P 1"
_symmetry_int_tables_number       1

loop_
  _symmetry_equiv_pos_as_xyz
  'x, y, z'

loop_
  _atom_site_label
  _atom_site_occupancy
  _atom_site_fract_x
  _atom_site_fract_y
  _atom_site_fract_z
  _atom_site_thermal_displace_type
  _atom_site_B_iso_or_equiv
  _atom_site_type_symbol
  Hf1      1.0000 0.13485  0.95550  0.13222  Biso   1.000  Hf
  Hf2      1.0000 0.12780  0.26047  0.37150  Biso   1.000  Hf
  Hf3      1.0000 0.37741  0.24687  0.14243  Biso   1.000  Hf
  Hf4      1.0000 0.39194  0.00854  0.39186  Biso   1.000  Hf
  Hf5      1.0000 0.95408  0.16423  0.97078  Biso   1.000  Hf
  Hf6      1.0000 0.03656  0.08747  0.26523  Biso   1.000  Hf
  Hf7      1.0000 0.99853  0.34700  0.24067  Biso   1.000  Hf
  Hf8      1.0000 0.99239  0.41636  0.98365  Biso   1.000  Hf
  Hf9      1.0000 0.29442  0.16170  0.32050  Biso   1.000  Hf
  Hf10     1.0000 0.28167  0.07922  0.05970  Biso   1.000  Hf
  Hf11     1.0000 0.23795  0.33956  0.00919  Biso   1.000  Hf
  Hf12     1.0000 0.25282  0.40736  0.25758  Biso   1.000  Hf
  Hf13     1.0000 0.12630  0.98582  0.62229  Biso   1.000  Hf
  Hf14     1.0000 0.11117  0.25983  0.86004  Biso   1.000  Hf
  Hf15     1.0000 0.38297  0.24397  0.63878  Biso   1.000  Hf
  Hf16     1.0000 0.38624  0.01346  0.88732  Biso   1.000  Hf
  Hf17     1.0000 0.02678  0.14978  0.51401  Biso   1.000  Hf
  Hf18     1.0000 0.03553  0.09284  0.76143  Biso   1.000  Hf
  Hf19     1.0000 0.99864  0.35094  0.73167  Biso   1.000  Hf
  Hf20     1.0000 0.00349  0.40611  0.48309  Biso   1.000  Hf
  Hf21     1.0000 0.28097  0.16380  0.80471  Biso   1.000  Hf
  Hf22     1.0000 0.28913  0.08439  0.55811  Biso   1.000  Hf
  Hf23     1.0000 0.25240  0.34359  0.51308  Biso   1.000  Hf
  Hf24     1.0000 0.24771  0.40172  0.75378  Biso   1.000  Hf
  Hf25     1.0000 0.13019  0.49655  0.12582  Biso   1.000  Hf
  Hf26     1.0000 0.13558  0.74826  0.38069  Biso   1.000  Hf
  Hf27     1.0000 0.38697  0.76373  0.14721  Biso   1.000  Hf
  Hf28     1.0000 0.37930  0.48220  0.39821  Biso   1.000  Hf
  Hf29     1.0000 0.96621  0.66665  0.95227  Biso   1.000  Hf
  Hf30     1.0000 0.96590  0.58401  0.20308  Biso   1.000  Hf
  Hf31     1.0000 0.00658  0.83169  0.24430  Biso   1.000  Hf
  Hf32     1.0000 0.00909  0.90546  0.99169  Biso   1.000  Hf
  Hf33     1.0000 0.22096  0.65893  0.21379  Biso   1.000  Hf
  Hf34     1.0000 0.21590  0.58922  0.96406  Biso   1.000  Hf
  Hf35     1.0000 0.25644  0.83634  0.00794  Biso   1.000  Hf
  Hf36     1.0000 0.26454  0.89649  0.26913  Biso   1.000  Hf
  Hf37     1.0000 0.12804  0.49337  0.62502  Biso   1.000  Hf
  Hf38     1.0000 0.13006  0.75541  0.87336  Biso   1.000  Hf
  Hf39     1.0000 0.37753  0.76755  0.64853  Biso   1.000  Hf
  Hf40     1.0000 0.37235  0.48663  0.89223  Biso   1.000  Hf
  Hf41     1.0000 0.96848  0.65954  0.45774  Biso   1.000  Hf
  Hf42     1.0000 0.96679  0.58932  0.70395  Biso   1.000  Hf
  Hf43     1.0000 0.00067  0.84437  0.73929  Biso   1.000  Hf
  Hf44     1.0000 0.00800  0.89577  0.49107  Biso   1.000  Hf
  Hf45     1.0000 0.21901  0.65744  0.71550  Biso   1.000  Hf
  Hf46     1.0000 0.21967  0.58785  0.46526  Biso   1.000  Hf
  Hf47     1.0000 0.25568  0.84388  0.50900  Biso   1.000  Hf
  Hf48     1.0000 0.25153  0.90504  0.76418  Biso   1.000  Hf
  Hf49     1.0000 0.64271  0.00039  0.12394  Biso   1.000  Hf
  Hf50     1.0000 0.63952  0.24435  0.35855  Biso   1.000  Hf
  Hf51     1.0000 0.86372  0.28454  0.10422  Biso   1.000  Hf
  Hf52     1.0000 0.88902  0.98631  0.36345  Biso   1.000  Hf
  Hf53     1.0000 0.49586  0.16567  0.98835  Biso   1.000  Hf
  Hf54     1.0000 0.51833  0.10648  0.24489  Biso   1.000  Hf
  Hf55     1.0000 0.50124  0.35657  0.27471  Biso   1.000  Hf
  Hf56     1.0000 0.47133  0.40939  0.03869  Biso   1.000  Hf
  Hf57     1.0000 0.76911  0.15105  0.22728  Biso   1.000  Hf
  Hf58     1.0000 0.72732  0.09284  0.96883  Biso   1.000  Hf
  Hf59     1.0000 0.73482  0.36359  0.98043  Biso   1.000  Hf
  Hf60     1.0000 0.74367  0.40518  0.23428  Biso   1.000  Hf
  Hf61     1.0000 0.64756  0.00532  0.61456  Biso   1.000  Hf
  Hf62     1.0000 0.63892  0.23812  0.85695  Biso   1.000  Hf
  Hf63     1.0000 0.87873  0.26259  0.59824  Biso   1.000  Hf
  Hf64     1.0000 0.88261  0.99735  0.86638  Biso   1.000  Hf
  Hf65     1.0000 0.52189  0.14718  0.49715  Biso   1.000  Hf
  Hf66     1.0000 0.51809  0.10455  0.74276  Biso   1.000  Hf
  Hf67     1.0000 0.49881  0.35813  0.77584  Biso   1.000  Hf
  Hf68     1.0000 0.49730  0.39295  0.52787  Biso   1.000  Hf
  Hf69     1.0000 0.77394  0.14390  0.72976  Biso   1.000  Hf
  Hf70     1.0000 0.77025  0.10419  0.48076  Biso   1.000  Hf
  Hf71     1.0000 0.76086  0.35158  0.47319  Biso   1.000  Hf
  Hf72     1.0000 0.74777  0.39461  0.72917  Biso   1.000  Hf
  Hf73     1.0000 0.60765  0.50965  0.13652  Biso   1.000  Hf
  Hf74     1.0000 0.61193  0.74254  0.39603  Biso   1.000  Hf
  Hf75     1.0000 0.86719  0.74198  0.11943  Biso   1.000  Hf
  Hf76     1.0000 0.86639  0.50771  0.37043  Biso   1.000  Hf
  Hf77     1.0000 0.48605  0.64945  0.01010  Biso   1.000  Hf
  Hf78     1.0000 0.47809  0.61128  0.26393  Biso   1.000  Hf
  Hf79     1.0000 0.51377  0.86016  0.27123  Biso   1.000  Hf
  Hf80     1.0000 0.50194  0.90199  0.02200  Biso   1.000  Hf
  Hf81     1.0000 0.73138  0.65445  0.25510  Biso   1.000  Hf
  Hf82     1.0000 0.73370  0.60568  0.00549  Biso   1.000  Hf
  Hf83     1.0000 0.75532  0.85281  0.98938  Biso   1.000  Hf
  Hf84     1.0000 0.77391  0.90321  0.22877  Biso   1.000  Hf
  Hf85     1.0000 0.60868  0.50591  0.64525  Biso   1.000  Hf
  Hf86     1.0000 0.61698  0.75509  0.88875  Biso   1.000  Hf
  Hf87     1.0000 0.86940  0.74561  0.62149  Biso   1.000  Hf
  Hf88     1.0000 0.86220  0.51066  0.86597  Biso   1.000  Hf
  Hf89     1.0000 0.47702  0.64104  0.51405  Biso   1.000  Hf
  Hf90     1.0000 0.47660  0.61027  0.76262  Biso   1.000  Hf
  Hf91     1.0000 0.49556  0.86002  0.77760  Biso   1.000  Hf
  Hf92     1.0000 0.50687  0.89295  0.52310  Biso   1.000  Hf
  Hf93     1.0000 0.73114  0.64929  0.75501  Biso   1.000  Hf
  Hf94     1.0000 0.72874  0.59928  0.50433  Biso   1.000  Hf
  Hf95     1.0000 0.75438  0.85295  0.48604  Biso   1.000  Hf
  Hf96     1.0000 0.75506  0.89646  0.73612  Biso   1.000  Hf
  Rh1      1.0000 0.11507  0.20168  0.11074  Biso   1.000  Rh
