data_image0
_cell_length_a       10.2063
_cell_length_b       5.32045
_cell_length_c       10.233
_cell_angle_alpha    85.2589
_cell_angle_beta     92.692
_cell_angle_gamma    100.136

_symmetry_space_group_name_H-M    "P 1"
_symmetry_int_tables_number       1

loop_
  _symmetry_equiv_pos_as_xyz
  'x, y, z'

loop_
  _atom_site_label
  _atom_site_occupancy
  _atom_site_fract_x
  _atom_site_fract_y
  _atom_site_fract_z
  _atom_site_thermal_displace_type
  _atom_site_B_iso_or_equiv
  _atom_site_type_symbol
  Hf1      1.0000 0.14094  0.93402  0.15153  Biso   1.000  Hf
  Hf2      1.0000 0.16517  0.42074  0.36153  Biso   1.000  Hf
  Hf3      1.0000 0.36304  0.53476  0.10693  Biso   1.000  Hf
  Hf4      1.0000 0.37579  0.98459  0.40066  Biso   1.000  Hf
  Hf5      1.0000 0.94678  0.42975  0.94589  Biso   1.000  Hf
  Hf6      1.0000 0.03768  0.10764  0.27606  Biso   1.000  Hf
  Hf7      1.0000 0.02022  0.61760  0.24774  Biso   1.000  Hf
  Hf8      1.0000 0.96917  0.90325  0.02760  Biso   1.000  Hf
  Hf9      1.0000 0.29555  0.23713  0.25699  Biso   1.000  Hf
  Hf10     1.0000 0.21672  0.23848  0.00273  Biso   1.000  Hf
  Hf11     1.0000 0.22629  0.74286  0.99635  Biso   1.000  Hf
  Hf12     1.0000 0.28599  0.74975  0.25484  Biso   1.000  Hf
  Hf13     1.0000 0.10798  0.02705  0.64313  Biso   1.000  Hf
  Hf14     1.0000 0.12859  0.52335  0.84503  Biso   1.000  Hf
  Hf15     1.0000 0.39745  0.48175  0.60734  Biso   1.000  Hf
  Hf16     1.0000 0.34971  0.07545  0.89579  Biso   1.000  Hf
  Hf17     1.0000 0.01249  0.29784  0.49784  Biso   1.000  Hf
  Hf18     1.0000 0.99272  0.20589  0.75130  Biso   1.000  Hf
  Hf19     1.0000 0.00027  0.70158  0.73495  Biso   1.000  Hf
  Hf20     1.0000 0.00324  0.81212  0.50241  Biso   1.000  Hf
  Hf21     1.0000 0.24898  0.33753  0.74517  Biso   1.000  Hf
  Hf22     1.0000 0.25693  0.17252  0.50638  Biso   1.000  Hf
  Hf23     1.0000 0.26383  0.66011  0.49746  Biso   1.000  Hf
  Hf24     1.0000 0.24218  0.85264  0.75678  Biso   1.000  Hf
  Hf25     1.0000 0.63327  0.96354  0.14674  Biso   1.000  Hf
  Hf26     1.0000 0.65159  0.43104  0.35495  Biso   1.000  Hf
  Hf27     1.0000 0.85448  0.55580  0.10464  Biso   1.000  Hf
  Hf28     1.0000 0.87135  0.99082  0.39529  Biso   1.000  Hf
  Hf29     1.0000 0.46577  0.39929  0.97240  Biso   1.000  Hf
  Hf30     1.0000 0.53805  0.09792  0.28297  Biso   1.000  Hf
  Hf31     1.0000 0.53232  0.60083  0.22508  Biso   1.000  Hf
  Hf32     1.0000 0.46671  0.89701  0.02738  Biso   1.000  Hf
  Hf33     1.0000 0.78018  0.26565  0.24945  Biso   1.000  Hf
  Hf34     1.0000 0.71565  0.24569  0.00151  Biso   1.000  Hf
  Hf35     1.0000 0.71761  0.74957  0.99887  Biso   1.000  Hf
  Hf36     1.0000 0.77604  0.76939  0.24674  Biso   1.000  Hf
  Hf37     1.0000 0.61066  0.02289  0.64690  Biso   1.000  Hf
  Hf38     1.0000 0.63031  0.51440  0.85358  Biso   1.000  Hf
  Hf39     1.0000 0.89378  0.48206  0.59984  Biso   1.000  Hf
  Hf40     1.0000 0.84675  0.07530  0.89415  Biso   1.000  Hf
  Hf41     1.0000 0.51226  0.29353  0.50097  Biso   1.000  Hf
  Hf42     1.0000 0.49275  0.20604  0.75359  Biso   1.000  Hf
  Hf43     1.0000 0.49948  0.69954  0.74654  Biso   1.000  Hf
  Hf44     1.0000 0.50954  0.80103  0.50849  Biso   1.000  Hf
  Hf45     1.0000 0.74724  0.33392  0.74238  Biso   1.000  Hf
  Hf46     1.0000 0.75588  0.16946  0.50503  Biso   1.000  Hf
  Hf47     1.0000 0.76095  0.65827  0.48865  Biso   1.000  Hf
  Hf48     1.0000 0.74425  0.84536  0.75761  Biso   1.000  Hf
  Rh1      1.0000 0.07878  0.39887  0.11593  Biso   1.000  Rh
