data_image0
_cell_length_a       10.117
_cell_length_b       10.213
_cell_length_c       5.29636
_cell_angle_alpha    90.038
_cell_angle_beta     91.0717
_cell_angle_gamma    89.6972

_symmetry_space_group_name_H-M    "P 1"
_symmetry_int_tables_number       1

loop_
  _symmetry_equiv_pos_as_xyz
  'x, y, z'

loop_
  _atom_site_label
  _atom_site_occupancy
  _atom_site_fract_x
  _atom_site_fract_y
  _atom_site_fract_z
  _atom_site_thermal_displace_type
  _atom_site_B_iso_or_equiv
  _atom_site_type_symbol
  Hf1      1.0000 0.13815  0.01842  0.34949  Biso   1.000  Hf
  Hf2      1.0000 0.14217  0.22781  0.84767  Biso   1.000  Hf
  Hf3      1.0000 0.35522  0.26702  0.36200  Biso   1.000  Hf
  Hf4      1.0000 0.36199  0.47863  0.85371  Biso   1.000  Hf
  Hf5      1.0000 0.63641  0.00095  0.15964  Biso   1.000  Hf
  Hf6      1.0000 0.63938  0.22822  0.63532  Biso   1.000  Hf
  Hf7      1.0000 0.87872  0.27582  0.14424  Biso   1.000  Hf
  Hf8      1.0000 0.86171  0.47913  0.64917  Biso   1.000  Hf
  O1       1.0000 0.03359  0.15493  0.15078  Biso   1.000  O
  O2       1.0000 0.02777  0.09428  0.65295  Biso   1.000  O
  O3       1.0000 0.47186  0.41048  0.17458  Biso   1.000  O
  O4       1.0000 0.47101  0.33990  0.66626  Biso   1.000  O
  O5       1.0000 0.27089  0.12374  0.60160  Biso   1.000  O
  O6       1.0000 0.27387  0.12283  0.10070  Biso   1.000  O
  O7       1.0000 0.22475  0.37535  0.60325  Biso   1.000  O
  O8       1.0000 0.22562  0.37455  0.10012  Biso   1.000  O
  O9       1.0000 0.51229  0.13432  0.37300  Biso   1.000  O
  O10      1.0000 0.52448  0.09992  0.87537  Biso   1.000  O
  O11      1.0000 0.97459  0.41254  0.34680  Biso   1.000  O
  O12      1.0000 0.97752  0.34369  0.83933  Biso   1.000  O
  O13      1.0000 0.76893  0.12746  0.90194  Biso   1.000  O
  O14      1.0000 0.76634  0.12978  0.37945  Biso   1.000  O
  O15      1.0000 0.72978  0.37963  0.89850  Biso   1.000  O
  O16      1.0000 0.72511  0.37800  0.39033  Biso   1.000  O
  Hf9      1.0000 0.14148  0.52238  0.35167  Biso   1.000  Hf
  Hf10     1.0000 0.13754  0.72979  0.84836  Biso   1.000  Hf
  Hf11     1.0000 0.36060  0.76924  0.35352  Biso   1.000  Hf
  Hf12     1.0000 0.36301  0.97885  0.85289  Biso   1.000  Hf
  Hf13     1.0000 0.64304  0.53125  0.15095  Biso   1.000  Hf
  Hf14     1.0000 0.63973  0.72851  0.65625  Biso   1.000  Hf
  Hf15     1.0000 0.86605  0.77157  0.15716  Biso   1.000  Hf
  Hf16     1.0000 0.86103  0.98423  0.65670  Biso   1.000  Hf
  O17      1.0000 0.03351  0.66177  0.16041  Biso   1.000  O
  O18      1.0000 0.03140  0.59176  0.65916  Biso   1.000  O
  O19      1.0000 0.46864  0.89591  0.14784  Biso   1.000  O
  O20      1.0000 0.47361  0.84603  0.65299  Biso   1.000  O
  O21      1.0000 0.27625  0.62423  0.60128  Biso   1.000  O
  O22      1.0000 0.27601  0.62432  0.09829  Biso   1.000  O
  O23      1.0000 0.22547  0.87320  0.59977  Biso   1.000  O
  O24      1.0000 0.22408  0.87557  0.09936  Biso   1.000  O
  O25      1.0000 0.52995  0.65920  0.35162  Biso   1.000  O
  O26      1.0000 0.52933  0.59177  0.84551  Biso   1.000  O
  O27      1.0000 0.96873  0.91253  0.34536  Biso   1.000  O
  O28      1.0000 0.96992  0.84400  0.84446  Biso   1.000  O
  O29      1.0000 0.77959  0.62711  0.90266  Biso   1.000  O
  O30      1.0000 0.77880  0.62835  0.40626  Biso   1.000  O
  O31      1.0000 0.72702  0.87308  0.91009  Biso   1.000  O
  O32      1.0000 0.72992  0.87134  0.41777  Biso   1.000  O
  Sc1      1.0000 0.61199  0.25693  0.12400  Biso   1.000  Sc
