data_image0
_cell_length_a       9.97601
_cell_length_b       5.16238
_cell_length_c       10.0183
_cell_angle_alpha    90.0415
_cell_angle_beta     90.0058
_cell_angle_gamma    90.0466

_symmetry_space_group_name_H-M    "P 1"
_symmetry_int_tables_number       1

loop_
  _symmetry_equiv_pos_as_xyz
  'x, y, z'

loop_
  _atom_site_label
  _atom_site_occupancy
  _atom_site_fract_x
  _atom_site_fract_y
  _atom_site_fract_z
  _atom_site_thermal_displace_type
  _atom_site_B_iso_or_equiv
  _atom_site_type_symbol
  Sc1      1.0000 0.13601  0.03281  0.12415  Biso   1.000  Sc
  Hf1      1.0000 0.13529  0.46627  0.37471  Biso   1.000  Hf
  Hf2      1.0000 0.36256  0.53084  0.12666  Biso   1.000  Hf
  Hf3      1.0000 0.36312  0.96791  0.37428  Biso   1.000  Hf
  Hf4      1.0000 0.03278  0.36710  0.19764  Biso   1.000  Hf
  Hf5      1.0000 0.03525  0.13249  0.44684  Biso   1.000  Hf
  Hf6      1.0000 0.46494  0.86696  0.19490  Biso   1.000  Hf
  Hf7      1.0000 0.46462  0.63278  0.44579  Biso   1.000  Hf
  Hf8      1.0000 0.27207  0.23798  0.25062  Biso   1.000  Hf
  Hf9      1.0000 0.27032  0.26468  0.50034  Biso   1.000  Hf
  Hf10     1.0000 0.22927  0.76525  0.50054  Biso   1.000  Hf
  Hf11     1.0000 0.23153  0.73191  0.25158  Biso   1.000  Hf
  Hf12     1.0000 0.13429  0.03399  0.62682  Biso   1.000  Hf
  Hf13     1.0000 0.13572  0.46565  0.87799  Biso   1.000  Hf
  Hf14     1.0000 0.36545  0.53412  0.62623  Biso   1.000  Hf
  Hf15     1.0000 0.36368  0.96599  0.87816  Biso   1.000  Hf
  Hf16     1.0000 0.03666  0.37091  0.69408  Biso   1.000  Hf
  Hf17     1.0000 0.03495  0.13488  0.94113  Biso   1.000  Hf
  Hf18     1.0000 0.46409  0.86846  0.69542  Biso   1.000  Hf
  Hf19     1.0000 0.46542  0.63290  0.94492  Biso   1.000  Hf
  Hf20     1.0000 0.27120  0.23665  0.74991  Biso   1.000  Hf
  Hf21     1.0000 0.27252  0.26240  0.99896  Biso   1.000  Hf
  Hf22     1.0000 0.22994  0.75951  0.00002  Biso   1.000  Hf
  Hf23     1.0000 0.22915  0.73686  0.75007  Biso   1.000  Hf
  Hf24     1.0000 0.63369  0.03247  0.12513  Biso   1.000  Hf
  Hf25     1.0000 0.63351  0.46739  0.37525  Biso   1.000  Hf
  Hf26     1.0000 0.86610  0.53384  0.12571  Biso   1.000  Hf
  Hf27     1.0000 0.86730  0.96735  0.37472  Biso   1.000  Hf
  Hf28     1.0000 0.53582  0.36810  0.19400  Biso   1.000  Hf
  Hf29     1.0000 0.53495  0.13171  0.44406  Biso   1.000  Hf
  Hf30     1.0000 0.96532  0.86542  0.19622  Biso   1.000  Hf
  Hf31     1.0000 0.96452  0.63214  0.44481  Biso   1.000  Hf
  Hf32     1.0000 0.76987  0.23355  0.24868  Biso   1.000  Hf
  Hf33     1.0000 0.76973  0.26600  0.49856  Biso   1.000  Hf
  Hf34     1.0000 0.72997  0.76586  0.49839  Biso   1.000  Hf
  Hf35     1.0000 0.72894  0.73415  0.24874  Biso   1.000  Hf
  Hf36     1.0000 0.63364  0.03202  0.62485  Biso   1.000  Hf
  Hf37     1.0000 0.63420  0.46795  0.87518  Biso   1.000  Hf
  Hf38     1.0000 0.86629  0.53241  0.62496  Biso   1.000  Hf
  Hf39     1.0000 0.86625  0.96865  0.87526  Biso   1.000  Hf
  Hf40     1.0000 0.53603  0.36842  0.69388  Biso   1.000  Hf
  Hf41     1.0000 0.53606  0.13194  0.94387  Biso   1.000  Hf
  Hf42     1.0000 0.96346  0.86930  0.69385  Biso   1.000  Hf
  Hf43     1.0000 0.96419  0.63275  0.94429  Biso   1.000  Hf
  Hf44     1.0000 0.77044  0.23496  0.74841  Biso   1.000  Hf
  Hf45     1.0000 0.77045  0.26602  0.99863  Biso   1.000  Hf
  Hf46     1.0000 0.72961  0.76602  0.99869  Biso   1.000  Hf
  Hf47     1.0000 0.72933  0.73478  0.74834  Biso   1.000  Hf
