data_image0
_cell_length_a       4.99472
_cell_length_b       10.1863
_cell_length_c       9.99934
_cell_angle_alpha    89.9989
_cell_angle_beta     90.0014
_cell_angle_gamma    89.997

_symmetry_space_group_name_H-M    "P 1"
_symmetry_int_tables_number       1

loop_
  _symmetry_equiv_pos_as_xyz
  'x, y, z'

loop_
  _atom_site_label
  _atom_site_occupancy
  _atom_site_fract_x
  _atom_site_fract_y
  _atom_site_fract_z
  _atom_site_thermal_displace_type
  _atom_site_B_iso_or_equiv
  _atom_site_type_symbol
  Sc1      1.0000 0.25155  0.00013  0.12485  Biso   1.000  Sc
  Hf1      1.0000 0.25175  0.24920  0.37307  Biso   1.000  Hf
  Hf2      1.0000 0.75155  0.24882  0.12486  Biso   1.000  Hf
  Hf3      1.0000 0.75154  0.00012  0.37002  Biso   1.000  Hf
  Hf4      1.0000 0.99511  0.14518  0.99722  Biso   1.000  Hf
  Hf5      1.0000 0.00344  0.10783  0.25033  Biso   1.000  Hf
  Hf6      1.0000 0.00301  0.35592  0.24940  Biso   1.000  Hf
  Hf7      1.0000 0.00067  0.39526  0.99996  Biso   1.000  Hf
  Hf8      1.0000 0.50801  0.14519  0.25250  Biso   1.000  Hf
  Hf9      1.0000 0.49967  0.10783  0.99939  Biso   1.000  Hf
  Hf10     1.0000 0.50006  0.35591  0.00031  Biso   1.000  Hf
  Hf11     1.0000 0.50241  0.39526  0.24976  Biso   1.000  Hf
  Hf12     1.0000 0.25155  0.00011  0.62485  Biso   1.000  Hf
  Hf13     1.0000 0.25134  0.24921  0.87665  Biso   1.000  Hf
  Hf14     1.0000 0.75154  0.24915  0.62486  Biso   1.000  Hf
  Hf15     1.0000 0.75155  0.00012  0.87968  Biso   1.000  Hf
  Hf16     1.0000 0.00664  0.14673  0.50091  Biso   1.000  Hf
  Hf17     1.0000 0.99701  0.10321  0.74917  Biso   1.000  Hf
  Hf18     1.0000 0.00180  0.35355  0.74984  Biso   1.000  Hf
  Hf19     1.0000 0.00100  0.39663  0.49982  Biso   1.000  Hf
  Hf20     1.0000 0.49645  0.14674  0.74880  Biso   1.000  Hf
  Hf21     1.0000 0.50608  0.10320  0.50054  Biso   1.000  Hf
  Hf22     1.0000 0.50124  0.35355  0.49987  Biso   1.000  Hf
  Hf23     1.0000 0.50205  0.39663  0.74990  Biso   1.000  Hf
  Hf24     1.0000 0.25153  0.50012  0.12486  Biso   1.000  Hf
  Hf25     1.0000 0.25134  0.75102  0.37307  Biso   1.000  Hf
  Hf26     1.0000 0.75155  0.75141  0.12486  Biso   1.000  Hf
  Hf27     1.0000 0.75153  0.50011  0.37488  Biso   1.000  Hf
  Hf28     1.0000 0.00301  0.64432  0.00032  Biso   1.000  Hf
  Hf29     1.0000 0.00069  0.60497  0.24977  Biso   1.000  Hf
  Hf30     1.0000 0.99508  0.85505  0.25250  Biso   1.000  Hf
  Hf31     1.0000 0.00345  0.89240  0.99939  Biso   1.000  Hf
  Hf32     1.0000 0.50009  0.64431  0.24941  Biso   1.000  Hf
  Hf33     1.0000 0.50240  0.60496  0.99997  Biso   1.000  Hf
  Hf34     1.0000 0.50802  0.85504  0.99721  Biso   1.000  Hf
  Hf35     1.0000 0.49965  0.89240  0.25032  Biso   1.000  Hf
  Hf36     1.0000 0.25153  0.50012  0.62485  Biso   1.000  Hf
  Hf37     1.0000 0.25175  0.75102  0.87666  Biso   1.000  Hf
  Hf38     1.0000 0.75155  0.75107  0.62486  Biso   1.000  Hf
  Hf39     1.0000 0.75152  0.50012  0.87481  Biso   1.000  Hf
  Hf40     1.0000 0.00187  0.64669  0.49988  Biso   1.000  Hf
  Hf41     1.0000 0.00101  0.60360  0.74991  Biso   1.000  Hf
  Hf42     1.0000 0.00669  0.85350  0.74880  Biso   1.000  Hf
  Hf43     1.0000 0.99699  0.89702  0.50055  Biso   1.000  Hf
  Hf44     1.0000 0.50127  0.64669  0.74986  Biso   1.000  Hf
  Hf45     1.0000 0.50212  0.60360  0.49983  Biso   1.000  Hf
  Hf46     1.0000 0.49643  0.85350  0.50091  Biso   1.000  Hf
  Hf47     1.0000 0.50613  0.89703  0.74916  Biso   1.000  Hf
