data_image0
_cell_length_a       10.0174
_cell_length_b       5.09984
_cell_length_c       10.0174
_cell_angle_alpha    89.9998
_cell_angle_beta     90
_cell_angle_gamma    90.0001

_symmetry_space_group_name_H-M    "P 1"
_symmetry_int_tables_number       1

loop_
  _symmetry_equiv_pos_as_xyz
  'x, y, z'

loop_
  _atom_site_label
  _atom_site_occupancy
  _atom_site_fract_x
  _atom_site_fract_y
  _atom_site_fract_z
  _atom_site_thermal_displace_type
  _atom_site_B_iso_or_equiv
  _atom_site_type_symbol
  Sn1      1.0000 0.12491  0.00011  0.12491  Biso   1.000  Sn
  Hf1      1.0000 0.12491  0.50010  0.37564  Biso   1.000  Hf
  Hf2      1.0000 0.37564  0.50011  0.12491  Biso   1.000  Hf
  Hf3      1.0000 0.37558  0.00391  0.37558  Biso   1.000  Hf
  Hf4      1.0000 0.98974  0.30316  0.98974  Biso   1.000  Hf
  Hf5      1.0000 0.00491  0.20207  0.24490  Biso   1.000  Hf
  Hf6      1.0000 0.98975  0.69705  0.26007  Biso   1.000  Hf
  Hf7      1.0000 0.00491  0.79815  0.00491  Biso   1.000  Hf
  Hf8      1.0000 0.26007  0.30316  0.26007  Biso   1.000  Hf
  Hf9      1.0000 0.24491  0.20206  0.00491  Biso   1.000  Hf
  Hf10     1.0000 0.26007  0.69705  0.98974  Biso   1.000  Hf
  Hf11     1.0000 0.24490  0.79815  0.24491  Biso   1.000  Hf
  Hf12     1.0000 0.12491  0.00011  0.62491  Biso   1.000  Hf
  Hf13     1.0000 0.12491  0.50010  0.87418  Biso   1.000  Hf
  Hf14     1.0000 0.37441  0.50011  0.62491  Biso   1.000  Hf
  Hf15     1.0000 0.37558  0.99630  0.87424  Biso   1.000  Hf
  Hf16     1.0000 0.99436  0.29280  0.49320  Biso   1.000  Hf
  Hf17     1.0000 0.00206  0.20772  0.74475  Biso   1.000  Hf
  Hf18     1.0000 0.99437  0.70742  0.75662  Biso   1.000  Hf
  Hf19     1.0000 0.00206  0.79250  0.50506  Biso   1.000  Hf
  Hf20     1.0000 0.25545  0.29279  0.75662  Biso   1.000  Hf
  Hf21     1.0000 0.24775  0.20771  0.50506  Biso   1.000  Hf
  Hf22     1.0000 0.25545  0.70742  0.49320  Biso   1.000  Hf
  Hf23     1.0000 0.24775  0.79250  0.74476  Biso   1.000  Hf
  Hf24     1.0000 0.62491  0.00011  0.12491  Biso   1.000  Hf
  Hf25     1.0000 0.62491  0.50011  0.37441  Biso   1.000  Hf
  Hf26     1.0000 0.87418  0.50011  0.12491  Biso   1.000  Hf
  Hf27     1.0000 0.87424  0.99630  0.37558  Biso   1.000  Hf
  Hf28     1.0000 0.49320  0.29280  0.99437  Biso   1.000  Hf
  Hf29     1.0000 0.50506  0.20772  0.24775  Biso   1.000  Hf
  Hf30     1.0000 0.49320  0.70742  0.25545  Biso   1.000  Hf
  Hf31     1.0000 0.50506  0.79250  0.00206  Biso   1.000  Hf
  Hf32     1.0000 0.75662  0.29280  0.25545  Biso   1.000  Hf
  Hf33     1.0000 0.74475  0.20772  0.00206  Biso   1.000  Hf
  Hf34     1.0000 0.75662  0.70742  0.99436  Biso   1.000  Hf
  Hf35     1.0000 0.74475  0.79250  0.24776  Biso   1.000  Hf
  Hf36     1.0000 0.62491  0.00011  0.62491  Biso   1.000  Hf
  Hf37     1.0000 0.62491  0.50010  0.87541  Biso   1.000  Hf
  Hf38     1.0000 0.87541  0.50011  0.62491  Biso   1.000  Hf
  Hf39     1.0000 0.87424  0.00391  0.87423  Biso   1.000  Hf
  Hf40     1.0000 0.49515  0.29478  0.49515  Biso   1.000  Hf
  Hf41     1.0000 0.50276  0.20623  0.74706  Biso   1.000  Hf
  Hf42     1.0000 0.49515  0.70543  0.75466  Biso   1.000  Hf
  Hf43     1.0000 0.50276  0.79398  0.50276  Biso   1.000  Hf
  Hf44     1.0000 0.75466  0.29478  0.75466  Biso   1.000  Hf
  Hf45     1.0000 0.74706  0.20623  0.50276  Biso   1.000  Hf
  Hf46     1.0000 0.75467  0.70543  0.49515  Biso   1.000  Hf
  Hf47     1.0000 0.74706  0.79398  0.74706  Biso   1.000  Hf
