data_image0
_cell_length_a       10.1813
_cell_length_b       10.2943
_cell_length_c       10.4707
_cell_angle_alpha    90.013
_cell_angle_beta     80.2562
_cell_angle_gamma    90.143

_symmetry_space_group_name_H-M    "P 1"
_symmetry_int_tables_number       1

loop_
  _symmetry_equiv_pos_as_xyz
  'x, y, z'

loop_
  _atom_site_label
  _atom_site_occupancy
  _atom_site_fract_x
  _atom_site_fract_y
  _atom_site_fract_z
  _atom_site_thermal_displace_type
  _atom_site_B_iso_or_equiv
  _atom_site_type_symbol
  Sr1      1.0000 0.13652  0.01232  0.14307  Biso   1.000  Sr
  Hf1      1.0000 0.13992  0.02128  0.64622  Biso   1.000  Hf
  Hf2      1.0000 0.13978  0.52017  0.14419  Biso   1.000  Hf
  Hf3      1.0000 0.13970  0.52128  0.64602  Biso   1.000  Hf
  Hf4      1.0000 0.64074  0.02036  0.14642  Biso   1.000  Hf
  Hf5      1.0000 0.63949  0.02186  0.64689  Biso   1.000  Hf
  Hf6      1.0000 0.63738  0.51859  0.14604  Biso   1.000  Hf
  Hf7      1.0000 0.63887  0.52102  0.64515  Biso   1.000  Hf
  Hf8      1.0000 0.13998  0.22730  0.39662  Biso   1.000  Hf
  Hf9      1.0000 0.13869  0.23070  0.89623  Biso   1.000  Hf
  Hf10     1.0000 0.14109  0.72692  0.39558  Biso   1.000  Hf
  Hf11     1.0000 0.14194  0.72923  0.89483  Biso   1.000  Hf
  Hf12     1.0000 0.63750  0.22952  0.39634  Biso   1.000  Hf
  Hf13     1.0000 0.63962  0.22888  0.89657  Biso   1.000  Hf
  Hf14     1.0000 0.63601  0.72735  0.39661  Biso   1.000  Hf
  Hf15     1.0000 0.64133  0.72877  0.89436  Biso   1.000  Hf
  Hf16     1.0000 0.35878  0.26677  0.10451  Biso   1.000  Hf
  Hf17     1.0000 0.36010  0.27051  0.60431  Biso   1.000  Hf
  Hf18     1.0000 0.36475  0.76893  0.10323  Biso   1.000  Hf
  Hf19     1.0000 0.36026  0.77227  0.60395  Biso   1.000  Hf
  Hf20     1.0000 0.85955  0.27248  0.10238  Biso   1.000  Hf
  Hf21     1.0000 0.86091  0.27155  0.60413  Biso   1.000  Hf
  Hf22     1.0000 0.85743  0.76691  0.10327  Biso   1.000  Hf
  Hf23     1.0000 0.86206  0.77158  0.60314  Biso   1.000  Hf
  Hf24     1.0000 0.35892  0.47683  0.35262  Biso   1.000  Hf
  Hf25     1.0000 0.36198  0.47756  0.85440  Biso   1.000  Hf
  Hf26     1.0000 0.36083  0.97963  0.35377  Biso   1.000  Hf
  Hf27     1.0000 0.36219  0.97923  0.85367  Biso   1.000  Hf
  Hf28     1.0000 0.86021  0.47933  0.35391  Biso   1.000  Hf
  Hf29     1.0000 0.86031  0.47964  0.85224  Biso   1.000  Hf
  Hf30     1.0000 0.85665  0.97962  0.35777  Biso   1.000  Hf
  Hf31     1.0000 0.86185  0.97839  0.85500  Biso   1.000  Hf
  O1       1.0000 0.03462  0.19073  0.07673  Biso   1.000  O
  O2       1.0000 0.03635  0.17332  0.58654  Biso   1.000  O
  O3       1.0000 0.03702  0.67201  0.08077  Biso   1.000  O
  O4       1.0000 0.03565  0.66885  0.58094  Biso   1.000  O
  O5       1.0000 0.53618  0.16746  0.07917  Biso   1.000  O
  O6       1.0000 0.53299  0.16688  0.58011  Biso   1.000  O
  O7       1.0000 0.53670  0.66534  0.07751  Biso   1.000  O
  O8       1.0000 0.53323  0.66622  0.57984  Biso   1.000  O
  O9       1.0000 0.02384  0.08492  0.35057  Biso   1.000  O
  O10      1.0000 0.03667  0.07927  0.83309  Biso   1.000  O
  O11      1.0000 0.03442  0.58227  0.32932  Biso   1.000  O
  O12      1.0000 0.03555  0.58020  0.82970  Biso   1.000  O
  O13      1.0000 0.53662  0.08127  0.33039  Biso   1.000  O
  O14      1.0000 0.53750  0.08274  0.82829  Biso   1.000  O
  O15      1.0000 0.53207  0.58200  0.32851  Biso   1.000  O
  O16      1.0000 0.53498  0.58337  0.82799  Biso   1.000  O
  O17      1.0000 0.46463  0.41463  0.17150  Biso   1.000  O
  O18      1.0000 0.46601  0.41641  0.67090  Biso   1.000  O
  O19      1.0000 0.46733  0.91858  0.16926  Biso   1.000  O
  O20      1.0000 0.46676  0.91631  0.67160  Biso   1.000  O
  O21      1.0000 0.96024  0.42504  0.16781  Biso   1.000  O
  O22      1.0000 0.96413  0.42151  0.66687  Biso   1.000  O
  O23      1.0000 0.93313  0.91965  0.17477  Biso   1.000  O
  O24      1.0000 0.96498  0.91926  0.66980  Biso   1.000  O
  O25      1.0000 0.46414  0.33199  0.42132  Biso   1.000  O
  O26      1.0000 0.46872  0.33508  0.92127  Biso   1.000  O
  O27      1.0000 0.46513  0.83298  0.42357  Biso   1.000  O
  O28      1.0000 0.47606  0.83750  0.92103  Biso   1.000  O
  O29      1.0000 0.96498  0.33392  0.42049  Biso   1.000  O
  O30      1.0000 0.96141  0.33188  0.91258  Biso   1.000  O
  O31      1.0000 0.96625  0.83139  0.41889  Biso   1.000  O
  O32      1.0000 0.96627  0.83059  0.91956  Biso   1.000  O
  O33      1.0000 0.28620  0.13614  0.25133  Biso   1.000  O
  O34      1.0000 0.27595  0.12842  0.73879  Biso   1.000  O
  O35      1.0000 0.27662  0.62258  0.23839  Biso   1.000  O
  O36      1.0000 0.27662  0.62934  0.74029  Biso   1.000  O
  O37      1.0000 0.77462  0.13147  0.24237  Biso   1.000  O
  O38      1.0000 0.77788  0.12896  0.74114  Biso   1.000  O
  O39      1.0000 0.77352  0.62812  0.24084  Biso   1.000  O
  O40      1.0000 0.77630  0.62923  0.73833  Biso   1.000  O
  O41      1.0000 0.27487  0.12006  0.49396  Biso   1.000  O
  O42      1.0000 0.28718  0.12925  0.97885  Biso   1.000  O
  O43      1.0000 0.27603  0.62050  0.49020  Biso   1.000  O
  O44      1.0000 0.27698  0.61707  0.99007  Biso   1.000  O
  O45      1.0000 0.77190  0.12328  0.49352  Biso   1.000  O
  O46      1.0000 0.77665  0.12064  0.99073  Biso   1.000  O
  O47      1.0000 0.77540  0.62160  0.48993  Biso   1.000  O
  O48      1.0000 0.77538  0.61895  0.98895  Biso   1.000  O
  O49      1.0000 0.22521  0.37940  0.00817  Biso   1.000  O
  O50      1.0000 0.22379  0.37898  0.50939  Biso   1.000  O
  O51      1.0000 0.24073  0.86404  0.99469  Biso   1.000  O
  O52      1.0000 0.22347  0.87894  0.51050  Biso   1.000  O
  O53      1.0000 0.72253  0.37954  0.00830  Biso   1.000  O
  O54      1.0000 0.72355  0.37955  0.50926  Biso   1.000  O
  O55      1.0000 0.72518  0.87781  0.00838  Biso   1.000  O
  O56      1.0000 0.72435  0.87864  0.51081  Biso   1.000  O
  O57      1.0000 0.21980  0.37149  0.25827  Biso   1.000  O
  O58      1.0000 0.22460  0.37225  0.75864  Biso   1.000  O
  O59      1.0000 0.23860  0.85770  0.26489  Biso   1.000  O
  O60      1.0000 0.22368  0.87197  0.75626  Biso   1.000  O
  O61      1.0000 0.72226  0.37233  0.26059  Biso   1.000  O
  O62      1.0000 0.72414  0.37098  0.75803  Biso   1.000  O
  O63      1.0000 0.70954  0.86935  0.26347  Biso   1.000  O
  O64      1.0000 0.72657  0.87109  0.75853  Biso   1.000  O
