data_image0
_cell_length_a       10.0944
_cell_length_b       10.2678
_cell_length_c       10.447
_cell_angle_alpha    90.0047
_cell_angle_beta     80.2127
_cell_angle_gamma    89.9252

_symmetry_space_group_name_H-M    "P 1"
_symmetry_int_tables_number       1

loop_
  _symmetry_equiv_pos_as_xyz
  'x, y, z'

loop_
  _atom_site_label
  _atom_site_occupancy
  _atom_site_fract_x
  _atom_site_fract_y
  _atom_site_fract_z
  _atom_site_thermal_displace_type
  _atom_site_B_iso_or_equiv
  _atom_site_type_symbol
  Ta1      1.0000 0.14003  0.02303  0.14682  Biso   1.000  Ta
  Hf1      1.0000 0.13995  0.22911  0.39568  Biso   1.000  Hf
  Hf2      1.0000 0.36132  0.27222  0.10415  Biso   1.000  Hf
  Hf3      1.0000 0.36158  0.47926  0.35413  Biso   1.000  Hf
  O1       1.0000 0.03658  0.16393  0.08116  Biso   1.000  O
  O2       1.0000 0.04094  0.07777  0.32543  Biso   1.000  O
  O3       1.0000 0.46379  0.42069  0.16880  Biso   1.000  O
  O4       1.0000 0.46415  0.33054  0.41919  Biso   1.000  O
  O5       1.0000 0.27693  0.12742  0.23942  Biso   1.000  O
  O6       1.0000 0.27793  0.12119  0.49048  Biso   1.000  O
  O7       1.0000 0.22234  0.37862  0.00965  Biso   1.000  O
  O8       1.0000 0.22448  0.37054  0.25975  Biso   1.000  O
  Hf4      1.0000 0.13901  0.02115  0.64551  Biso   1.000  Hf
  Hf5      1.0000 0.13905  0.22856  0.89482  Biso   1.000  Hf
  Hf6      1.0000 0.36147  0.27168  0.60384  Biso   1.000  Hf
  Hf7      1.0000 0.36060  0.47887  0.85429  Biso   1.000  Hf
  O9       1.0000 0.03556  0.16796  0.57828  Biso   1.000  O
  O10      1.0000 0.03549  0.08104  0.82944  Biso   1.000  O
  O11      1.0000 0.46390  0.42007  0.66954  Biso   1.000  O
  O12      1.0000 0.46274  0.32945  0.91927  Biso   1.000  O
  O13      1.0000 0.27689  0.12932  0.74081  Biso   1.000  O
  O14      1.0000 0.27332  0.11965  0.99288  Biso   1.000  O
  O15      1.0000 0.22299  0.37914  0.50920  Biso   1.000  O
  O16      1.0000 0.22294  0.37077  0.75929  Biso   1.000  O
  Hf8      1.0000 0.13908  0.52164  0.14608  Biso   1.000  Hf
  Hf9      1.0000 0.13909  0.72862  0.39585  Biso   1.000  Hf
  Hf10     1.0000 0.35898  0.77428  0.10460  Biso   1.000  Hf
  Hf11     1.0000 0.36127  0.97796  0.35385  Biso   1.000  Hf
  O17      1.0000 0.03560  0.66842  0.08038  Biso   1.000  O
  O18      1.0000 0.03608  0.57984  0.33081  Biso   1.000  O
  O19      1.0000 0.46469  0.91952  0.17084  Biso   1.000  O
  O20      1.0000 0.46523  0.83074  0.41999  Biso   1.000  O
  O21      1.0000 0.27637  0.63074  0.24071  Biso   1.000  O
  O22      1.0000 0.27755  0.62100  0.49083  Biso   1.000  O
  O23      1.0000 0.21515  0.88219  0.01100  Biso   1.000  O
  O24      1.0000 0.21899  0.87354  0.25878  Biso   1.000  O
  Hf12     1.0000 0.13892  0.52161  0.64578  Biso   1.000  Hf
  Hf13     1.0000 0.13854  0.72826  0.89603  Biso   1.000  Hf
  Hf14     1.0000 0.36141  0.77138  0.60431  Biso   1.000  Hf
  Hf15     1.0000 0.36016  0.97880  0.85444  Biso   1.000  Hf
  O25      1.0000 0.03594  0.66939  0.58014  Biso   1.000  O
  O26      1.0000 0.03547  0.58033  0.83023  Biso   1.000  O
  O27      1.0000 0.46362  0.91998  0.67001  Biso   1.000  O
  O28      1.0000 0.46116  0.83060  0.92046  Biso   1.000  O
  O29      1.0000 0.27668  0.62900  0.74061  Biso   1.000  O
  O30      1.0000 0.27662  0.62136  0.99086  Biso   1.000  O
  O31      1.0000 0.22375  0.87879  0.50939  Biso   1.000  O
  O32      1.0000 0.22294  0.87085  0.75966  Biso   1.000  O
  Hf16     1.0000 0.63935  0.02191  0.14629  Biso   1.000  Hf
  Hf17     1.0000 0.63962  0.22846  0.39570  Biso   1.000  Hf
  Hf18     1.0000 0.86061  0.27145  0.10427  Biso   1.000  Hf
  Hf19     1.0000 0.86111  0.47837  0.35379  Biso   1.000  Hf
  O33      1.0000 0.53549  0.16962  0.08047  Biso   1.000  O
  O34      1.0000 0.53675  0.08060  0.33086  Biso   1.000  O
  O35      1.0000 0.96524  0.41766  0.16980  Biso   1.000  O
  O36      1.0000 0.96373  0.32869  0.41842  Biso   1.000  O
  O37      1.0000 0.77890  0.12899  0.24078  Biso   1.000  O
  O38      1.0000 0.77828  0.12016  0.49013  Biso   1.000  O
  O39      1.0000 0.72287  0.37910  0.00952  Biso   1.000  O
  O40      1.0000 0.72323  0.37067  0.25899  Biso   1.000  O
  Hf20     1.0000 0.63883  0.02129  0.64586  Biso   1.000  Hf
  Hf21     1.0000 0.63870  0.22843  0.89573  Biso   1.000  Hf
  Hf22     1.0000 0.86093  0.27113  0.60388  Biso   1.000  Hf
  Hf23     1.0000 0.86079  0.47833  0.85432  Biso   1.000  Hf
  O41      1.0000 0.53693  0.17033  0.58065  Biso   1.000  O
  O42      1.0000 0.53513  0.08033  0.83083  Biso   1.000  O
  O43      1.0000 0.96438  0.41852  0.66977  Biso   1.000  O
  O44      1.0000 0.96425  0.32970  0.92073  Biso   1.000  O
  O45      1.0000 0.77631  0.12906  0.74034  Biso   1.000  O
  O46      1.0000 0.77642  0.12120  0.99021  Biso   1.000  O
  O47      1.0000 0.72353  0.37927  0.50945  Biso   1.000  O
  O48      1.0000 0.72300  0.37086  0.75959  Biso   1.000  O
  Hf24     1.0000 0.63877  0.52265  0.14564  Biso   1.000  Hf
  Hf25     1.0000 0.63991  0.72841  0.39588  Biso   1.000  Hf
  Hf26     1.0000 0.86169  0.77249  0.10361  Biso   1.000  Hf
  Hf27     1.0000 0.86132  0.97827  0.35358  Biso   1.000  Hf
  O49      1.0000 0.53487  0.67117  0.08153  Biso   1.000  O
  O50      1.0000 0.53659  0.58035  0.33077  Biso   1.000  O
  O51      1.0000 0.97064  0.91947  0.16814  Biso   1.000  O
  O52      1.0000 0.96465  0.83132  0.41983  Biso   1.000  O
  O53      1.0000 0.77746  0.62921  0.24025  Biso   1.000  O
  O54      1.0000 0.77762  0.62079  0.49076  Biso   1.000  O
  O55      1.0000 0.72155  0.87964  0.00930  Biso   1.000  O
  O56      1.0000 0.72617  0.87118  0.25929  Biso   1.000  O
  Hf28     1.0000 0.63912  0.52155  0.64622  Biso   1.000  Hf
  Hf29     1.0000 0.63803  0.72895  0.89686  Biso   1.000  Hf
  Hf30     1.0000 0.86084  0.77144  0.60445  Biso   1.000  Hf
  Hf31     1.0000 0.86060  0.97845  0.85431  Biso   1.000  Hf
  O57      1.0000 0.53675  0.66993  0.58069  Biso   1.000  O
  O58      1.0000 0.53559  0.58038  0.83112  Biso   1.000  O
  O59      1.0000 0.96405  0.91928  0.66972  Biso   1.000  O
  O60      1.0000 0.96301  0.82986  0.91931  Biso   1.000  O
  O61      1.0000 0.77667  0.62910  0.74114  Biso   1.000  O
  O62      1.0000 0.77647  0.62103  0.99074  Biso   1.000  O
  O63      1.0000 0.72358  0.87920  0.50939  Biso   1.000  O
  O64      1.0000 0.72242  0.87091  0.75960  Biso   1.000  O
