data_image0
_cell_length_a       9.9438
_cell_length_b       10.3491
_cell_length_c       4.99418
_cell_angle_alpha    89.9438
_cell_angle_beta     89.8937
_cell_angle_gamma    89.9776

_symmetry_space_group_name_H-M    "P 1"
_symmetry_int_tables_number       1

loop_
  _symmetry_equiv_pos_as_xyz
  'x, y, z'

loop_
  _atom_site_label
  _atom_site_occupancy
  _atom_site_fract_x
  _atom_site_fract_y
  _atom_site_fract_z
  _atom_site_thermal_displace_type
  _atom_site_B_iso_or_equiv
  _atom_site_type_symbol
  Ta1      1.0000 0.13484  0.01962  0.26007  Biso   1.000  Ta
  Hf1      1.0000 0.13363  0.23217  0.75365  Biso   1.000  Hf
  Hf2      1.0000 0.36706  0.26761  0.25041  Biso   1.000  Hf
  Hf3      1.0000 0.36572  0.48407  0.75152  Biso   1.000  Hf
  Hf4      1.0000 0.03722  0.18194  0.39761  Biso   1.000  Hf
  Hf5      1.0000 0.03314  0.06680  0.92200  Biso   1.000  Hf
  Hf6      1.0000 0.46332  0.43492  0.38667  Biso   1.000  Hf
  Hf7      1.0000 0.46312  0.31531  0.88538  Biso   1.000  Hf
  Hf8      1.0000 0.27418  0.11890  0.49163  Biso   1.000  Hf
  Hf9      1.0000 0.26845  0.12965  0.00033  Biso   1.000  Hf
  Hf10     1.0000 0.22953  0.38172  0.00007  Biso   1.000  Hf
  Hf11     1.0000 0.22940  0.36763  0.50072  Biso   1.000  Hf
  Hf12     1.0000 0.13412  0.51615  0.25248  Biso   1.000  Hf
  Hf13     1.0000 0.13366  0.73393  0.75202  Biso   1.000  Hf
  Hf14     1.0000 0.36594  0.76705  0.25175  Biso   1.000  Hf
  Hf15     1.0000 0.36415  0.98295  0.75250  Biso   1.000  Hf
  Hf16     1.0000 0.03665  0.68399  0.38706  Biso   1.000  Hf
  Hf17     1.0000 0.03647  0.56553  0.88827  Biso   1.000  Hf
  Hf18     1.0000 0.46389  0.93393  0.38912  Biso   1.000  Hf
  Hf19     1.0000 0.46156  0.81552  0.88720  Biso   1.000  Hf
  Hf20     1.0000 0.27086  0.61868  0.49968  Biso   1.000  Hf
  Hf21     1.0000 0.27054  0.63261  0.99966  Biso   1.000  Hf
  Hf22     1.0000 0.22402  0.88448  0.00414  Biso   1.000  Hf
  Hf23     1.0000 0.22759  0.86943  0.49691  Biso   1.000  Hf
  Hf24     1.0000 0.63425  0.01612  0.25015  Biso   1.000  Hf
  Hf25     1.0000 0.63386  0.23272  0.75046  Biso   1.000  Hf
  Hf26     1.0000 0.86573  0.26535  0.25136  Biso   1.000  Hf
  Hf27     1.0000 0.86607  0.48330  0.75146  Biso   1.000  Hf
  Hf28     1.0000 0.53792  0.18485  0.38530  Biso   1.000  Hf
  Hf29     1.0000 0.53486  0.06548  0.88723  Biso   1.000  Hf
  Hf30     1.0000 0.96406  0.43282  0.38933  Biso   1.000  Hf
  Hf31     1.0000 0.96463  0.31568  0.89111  Biso   1.000  Hf
  Hf32     1.0000 0.77181  0.11687  0.49769  Biso   1.000  Hf
  Hf33     1.0000 0.77019  0.13198  0.99719  Biso   1.000  Hf
  Hf34     1.0000 0.72959  0.38160  0.99968  Biso   1.000  Hf
  Hf35     1.0000 0.72943  0.36759  0.49923  Biso   1.000  Hf
  Hf36     1.0000 0.63457  0.51667  0.25133  Biso   1.000  Hf
  Hf37     1.0000 0.63429  0.73415  0.74998  Biso   1.000  Hf
  Hf38     1.0000 0.86690  0.76653  0.24871  Biso   1.000  Hf
  Hf39     1.0000 0.86876  0.98382  0.75119  Biso   1.000  Hf
  Hf40     1.0000 0.53646  0.68477  0.38733  Biso   1.000  Hf
  Hf41     1.0000 0.53675  0.56577  0.88686  Biso   1.000  Hf
  Hf42     1.0000 0.96843  0.93447  0.38261  Biso   1.000  Hf
  Hf43     1.0000 0.96214  0.81507  0.88333  Biso   1.000  Hf
  Hf44     1.0000 0.77069  0.61769  0.49934  Biso   1.000  Hf
  Hf45     1.0000 0.77055  0.63226  0.99905  Biso   1.000  Hf
  Hf46     1.0000 0.72889  0.88272  0.99472  Biso   1.000  Hf
  Hf47     1.0000 0.73141  0.86819  0.49604  Biso   1.000  Hf
