data_image0
_cell_length_a       10.078
_cell_length_b       10.5726
_cell_length_c       5.04564
_cell_angle_alpha    89.7008
_cell_angle_beta     88.784
_cell_angle_gamma    90.0289

_symmetry_space_group_name_H-M    "P 1"
_symmetry_int_tables_number       1

loop_
  _symmetry_equiv_pos_as_xyz
  'x, y, z'

loop_
  _atom_site_label
  _atom_site_occupancy
  _atom_site_fract_x
  _atom_site_fract_y
  _atom_site_fract_z
  _atom_site_thermal_displace_type
  _atom_site_B_iso_or_equiv
  _atom_site_type_symbol
  Hf1      1.0000 0.13416  0.00759  0.24414  Biso   1.000  Hf
  Hf2      1.0000 0.12334  0.21363  0.73236  Biso   1.000  Hf
  Hf3      1.0000 0.38199  0.27299  0.26614  Biso   1.000  Hf
  Hf4      1.0000 0.36911  0.49061  0.74937  Biso   1.000  Hf
  Hf5      1.0000 0.00818  0.16170  0.40587  Biso   1.000  Hf
  Hf6      1.0000 0.02482  0.05713  0.90584  Biso   1.000  Hf
  Hf7      1.0000 0.48187  0.42901  0.42226  Biso   1.000  Hf
  Hf8      1.0000 0.47834  0.32258  0.91770  Biso   1.000  Hf
  Hf9      1.0000 0.25649  0.09156  0.52308  Biso   1.000  Hf
  Hf10     1.0000 0.24829  0.16212  0.04410  Biso   1.000  Hf
  Hf11     1.0000 0.26510  0.41855  0.06682  Biso   1.000  Hf
  Hf12     1.0000 0.25808  0.34644  0.57806  Biso   1.000  Hf
  Hf13     1.0000 0.12682  0.54078  0.22000  Biso   1.000  Hf
  Hf14     1.0000 0.13063  0.74197  0.72893  Biso   1.000  Hf
  Hf15     1.0000 0.37312  0.75992  0.23588  Biso   1.000  Hf
  Hf16     1.0000 0.37998  0.97815  0.72861  Biso   1.000  Hf
  Hf17     1.0000 0.02406  0.68745  0.39715  Biso   1.000  Hf
  Hf18     1.0000 0.03446  0.57046  0.86881  Biso   1.000  Hf
  Hf19     1.0000 0.47055  0.92296  0.38507  Biso   1.000  Hf
  Hf20     1.0000 0.47283  0.81672  0.88633  Biso   1.000  Hf
  Hf21     1.0000 0.26892  0.61203  0.48289  Biso   1.000  Hf
  Hf22     1.0000 0.26389  0.65423  0.97451  Biso   1.000  Hf
  Hf23     1.0000 0.23728  0.89711  0.97432  Biso   1.000  Hf
  Hf24     1.0000 0.23426  0.85526  0.46871  Biso   1.000  Hf
  Hf25     1.0000 0.63434  0.01325  0.24601  Biso   1.000  Hf
  Hf26     1.0000 0.63168  0.23415  0.74798  Biso   1.000  Hf
  Hf27     1.0000 0.85656  0.26183  0.23110  Biso   1.000  Hf
  Hf28     1.0000 0.86898  0.48068  0.73638  Biso   1.000  Hf
  Hf29     1.0000 0.52735  0.16882  0.42382  Biso   1.000  Hf
  Hf30     1.0000 0.52440  0.07089  0.91438  Biso   1.000  Hf
  Hf31     1.0000 0.97396  0.42559  0.37913  Biso   1.000  Hf
  Hf32     1.0000 0.95992  0.31772  0.87136  Biso   1.000  Hf
  Hf33     1.0000 0.76207  0.10928  0.49192  Biso   1.000  Hf
  Hf34     1.0000 0.76149  0.13374  0.98959  Biso   1.000  Hf
  Hf35     1.0000 0.73172  0.38613  0.99126  Biso   1.000  Hf
  Hf36     1.0000 0.73393  0.36174  0.49262  Biso   1.000  Hf
  Hf37     1.0000 0.63698  0.51513  0.24571  Biso   1.000  Hf
  Hf38     1.0000 0.63653  0.72898  0.74554  Biso   1.000  Hf
  Hf39     1.0000 0.86235  0.76618  0.24105  Biso   1.000  Hf
  Hf40     1.0000 0.86557  0.98183  0.73824  Biso   1.000  Hf
  Hf41     1.0000 0.53377  0.67820  0.40225  Biso   1.000  Hf
  Hf42     1.0000 0.53151  0.57259  0.91391  Biso   1.000  Hf
  Hf43     1.0000 0.96777  0.92407  0.39947  Biso   1.000  Hf
  Hf44     1.0000 0.96633  0.81748  0.89632  Biso   1.000  Hf
  Hf45     1.0000 0.76846  0.61119  0.48951  Biso   1.000  Hf
  Hf46     1.0000 0.77119  0.63388  0.98944  Biso   1.000  Hf
  Hf47     1.0000 0.73115  0.88455  0.99188  Biso   1.000  Hf
  Hf48     1.0000 0.72976  0.86214  0.49255  Biso   1.000  Hf
  Tc1      1.0000 0.12094  0.30019  0.22508  Biso   1.000  Tc
