data_image0
_cell_length_a       10.073
_cell_length_b       5.17443
_cell_length_c       10.5174
_cell_angle_alpha    89.8732
_cell_angle_beta     90.8042
_cell_angle_gamma    90.0969

_symmetry_space_group_name_H-M    "P 1"
_symmetry_int_tables_number       1

loop_
  _symmetry_equiv_pos_as_xyz
  'x, y, z'

loop_
  _atom_site_label
  _atom_site_occupancy
  _atom_site_fract_x
  _atom_site_fract_y
  _atom_site_fract_z
  _atom_site_thermal_displace_type
  _atom_site_B_iso_or_equiv
  _atom_site_type_symbol
  Hf1      1.0000 0.14044  0.03674  0.17059  Biso   1.000  Hf
  Hf2      1.0000 0.13613  0.45756  0.42105  Biso   1.000  Hf
  Hf3      1.0000 0.35734  0.53693  0.17641  Biso   1.000  Hf
  Hf4      1.0000 0.35939  0.95885  0.42516  Biso   1.000  Hf
  Hf5      1.0000 0.64151  0.06968  0.06900  Biso   1.000  Hf
  Hf6      1.0000 0.63134  0.46032  0.34395  Biso   1.000  Hf
  Hf7      1.0000 0.87975  0.54275  0.06874  Biso   1.000  Hf
  Hf8      1.0000 0.86283  0.95650  0.33395  Biso   1.000  Hf
  O1       1.0000 0.04075  0.32034  0.07589  Biso   1.000  O
  O2       1.0000 0.02767  0.18149  0.32576  Biso   1.000  O
  O3       1.0000 0.46575  0.82847  0.07937  Biso   1.000  O
  O4       1.0000 0.45883  0.66355  0.34285  Biso   1.000  O
  O5       1.0000 0.26944  0.24682  0.29682  Biso   1.000  O
  O6       1.0000 0.28067  0.24266  0.04297  Biso   1.000  O
  O7       1.0000 0.21992  0.74790  0.29518  Biso   1.000  O
  O8       1.0000 0.22310  0.74573  0.04374  Biso   1.000  O
  O9       1.0000 0.51248  0.27577  0.18873  Biso   1.000  O
  O10      1.0000 0.53029  0.16745  0.42812  Biso   1.000  O
  O11      1.0000 0.96580  0.83176  0.16819  Biso   1.000  O
  O12      1.0000 0.96457  0.67246  0.41813  Biso   1.000  O
  O13      1.0000 0.77724  0.23992  0.45549  Biso   1.000  O
  O14      1.0000 0.76157  0.31971  0.19548  Biso   1.000  O
  O15      1.0000 0.72336  0.74144  0.46547  Biso   1.000  O
  O16      1.0000 0.71519  0.81856  0.21913  Biso   1.000  O
  Hf9      1.0000 0.13977  0.03850  0.66827  Biso   1.000  Hf
  Hf10     1.0000 0.14762  0.44996  0.91688  Biso   1.000  Hf
  Hf11     1.0000 0.36526  0.53701  0.67074  Biso   1.000  Hf
  Hf12     1.0000 0.36031  0.94983  0.91672  Biso   1.000  Hf
  Hf13     1.0000 0.63961  0.03823  0.58418  Biso   1.000  Hf
  Hf14     1.0000 0.64061  0.45270  0.83345  Biso   1.000  Hf
  Hf15     1.0000 0.86127  0.53700  0.58252  Biso   1.000  Hf
  Hf16     1.0000 0.86728  0.95646  0.82660  Biso   1.000  Hf
  O17      1.0000 0.03272  0.32550  0.57974  Biso   1.000  O
  O18      1.0000 0.03909  0.16636  0.82847  Biso   1.000  O
  O19      1.0000 0.46598  0.83323  0.58933  Biso   1.000  O
  O20      1.0000 0.46602  0.65421  0.83616  Biso   1.000  O
  O21      1.0000 0.27959  0.24165  0.79193  Biso   1.000  O
  O22      1.0000 0.27424  0.25117  0.54437  Biso   1.000  O
  O23      1.0000 0.22642  0.74240  0.79161  Biso   1.000  O
  O24      1.0000 0.22406  0.74967  0.54380  Biso   1.000  O
  O25      1.0000 0.53653  0.33366  0.66706  Biso   1.000  O
  O26      1.0000 0.53634  0.13871  0.90216  Biso   1.000  O
  O27      1.0000 0.96869  0.82879  0.66278  Biso   1.000  O
  O28      1.0000 0.97720  0.66681  0.90924  Biso   1.000  O
  O29      1.0000 0.79283  0.23963  0.94670  Biso   1.000  O
  O30      1.0000 0.77896  0.24646  0.70398  Biso   1.000  O
  O31      1.0000 0.73227  0.75364  0.96184  Biso   1.000  O
  O32      1.0000 0.72727  0.74583  0.71199  Biso   1.000  O
  Tc1      1.0000 0.61354  0.55984  0.10459  Biso   1.000  Tc
