data_image0
_cell_length_a       5.0412
_cell_length_b       10.2523
_cell_length_c       10.4167
_cell_angle_alpha    89.8987
_cell_angle_beta     80.1208
_cell_angle_gamma    89.9234

_symmetry_space_group_name_H-M    "P 1"
_symmetry_int_tables_number       1

loop_
  _symmetry_equiv_pos_as_xyz
  'x, y, z'

loop_
  _atom_site_label
  _atom_site_occupancy
  _atom_site_fract_x
  _atom_site_fract_y
  _atom_site_fract_z
  _atom_site_thermal_displace_type
  _atom_site_B_iso_or_equiv
  _atom_site_type_symbol
  Tc1      1.0000 0.28213  0.02253  0.15028  Biso   1.000  Tc
  Hf1      1.0000 0.28051  0.22969  0.39469  Biso   1.000  Hf
  Hf2      1.0000 0.72478  0.26951  0.10545  Biso   1.000  Hf
  Hf3      1.0000 0.72319  0.47941  0.35351  Biso   1.000  Hf
  O1       1.0000 0.07485  0.16685  0.08227  Biso   1.000  O
  O2       1.0000 0.08190  0.08022  0.32185  Biso   1.000  O
  O3       1.0000 0.92844  0.42038  0.16867  Biso   1.000  O
  O4       1.0000 0.92711  0.32918  0.41815  Biso   1.000  O
  O5       1.0000 0.55620  0.12797  0.24147  Biso   1.000  O
  O6       1.0000 0.55722  0.12051  0.49005  Biso   1.000  O
  O7       1.0000 0.44648  0.37881  0.01001  Biso   1.000  O
  O8       1.0000 0.44784  0.37125  0.25920  Biso   1.000  O
  Hf4      1.0000 0.27644  0.02080  0.64600  Biso   1.000  Hf
  Hf5      1.0000 0.27491  0.22626  0.89835  Biso   1.000  Hf
  Hf6      1.0000 0.72131  0.27118  0.60441  Biso   1.000  Hf
  Hf7      1.0000 0.71996  0.47812  0.85514  Biso   1.000  Hf
  O9       1.0000 0.07092  0.16747  0.57720  Biso   1.000  O
  O10      1.0000 0.06732  0.08062  0.82971  Biso   1.000  O
  O11      1.0000 0.92803  0.41873  0.66960  Biso   1.000  O
  O12      1.0000 0.92518  0.32730  0.92003  Biso   1.000  O
  O13      1.0000 0.55234  0.12874  0.74244  Biso   1.000  O
  O14      1.0000 0.54511  0.11714  0.99749  Biso   1.000  O
  O15      1.0000 0.44590  0.37859  0.50930  Biso   1.000  O
  O16      1.0000 0.44505  0.37017  0.76008  Biso   1.000  O
  Hf8      1.0000 0.27869  0.52256  0.14546  Biso   1.000  Hf
  Hf9      1.0000 0.27904  0.72927  0.39548  Biso   1.000  Hf
  Hf10     1.0000 0.72153  0.77664  0.10375  Biso   1.000  Hf
  Hf11     1.0000 0.72332  0.97926  0.35146  Biso   1.000  Hf
  O17      1.0000 0.06853  0.66972  0.08099  Biso   1.000  O
  O18      1.0000 0.07363  0.57996  0.33136  Biso   1.000  O
  O19      1.0000 0.94492  0.92176  0.16596  Biso   1.000  O
  O20      1.0000 0.93013  0.83164  0.41825  Biso   1.000  O
  O21      1.0000 0.55409  0.63183  0.24074  Biso   1.000  O
  O22      1.0000 0.55462  0.62083  0.49090  Biso   1.000  O
  O23      1.0000 0.43565  0.88140  0.01015  Biso   1.000  O
  O24      1.0000 0.44880  0.87450  0.25759  Biso   1.000  O
  Hf12     1.0000 0.27779  0.52116  0.64668  Biso   1.000  Hf
  Hf13     1.0000 0.27540  0.72900  0.89716  Biso   1.000  Hf
  Hf14     1.0000 0.72175  0.77138  0.60397  Biso   1.000  Hf
  Hf15     1.0000 0.71711  0.97839  0.85525  Biso   1.000  Hf
  O25      1.0000 0.07250  0.66980  0.58043  Biso   1.000  O
  O26      1.0000 0.07117  0.57927  0.83160  Biso   1.000  O
  O27      1.0000 0.92672  0.91938  0.66932  Biso   1.000  O
  O28      1.0000 0.92288  0.82981  0.91844  Biso   1.000  O
  O29      1.0000 0.55348  0.62891  0.74129  Biso   1.000  O
  O30      1.0000 0.55369  0.62232  0.99129  Biso   1.000  O
  O31      1.0000 0.44696  0.87918  0.50813  Biso   1.000  O
  O32      1.0000 0.44447  0.87060  0.75901  Biso   1.000  O
