data_image0
_cell_length_a       10.1528
_cell_length_b       10.2656
_cell_length_c       10.5346
_cell_angle_alpha    89.8081
_cell_angle_beta     80.0161
_cell_angle_gamma    90.188

_symmetry_space_group_name_H-M    "P 1"
_symmetry_int_tables_number       1

loop_
  _symmetry_equiv_pos_as_xyz
  'x, y, z'

loop_
  _atom_site_label
  _atom_site_occupancy
  _atom_site_fract_x
  _atom_site_fract_y
  _atom_site_fract_z
  _atom_site_thermal_displace_type
  _atom_site_B_iso_or_equiv
  _atom_site_type_symbol
  Hf1      1.0000 0.13617  0.02152  0.14537  Biso   1.000  Hf
  Hf2      1.0000 0.13757  0.23216  0.39617  Biso   1.000  Hf
  Hf3      1.0000 0.35819  0.26821  0.09341  Biso   1.000  Hf
  Hf4      1.0000 0.35363  0.48623  0.35716  Biso   1.000  Hf
  O1       1.0000 0.03432  0.16676  0.07585  Biso   1.000  O
  O2       1.0000 0.03450  0.08526  0.32588  Biso   1.000  O
  O3       1.0000 0.47356  0.38923  0.19245  Biso   1.000  O
  O4       1.0000 0.48554  0.36452  0.44046  Biso   1.000  O
  O5       1.0000 0.27921  0.12313  0.23434  Biso   1.000  O
  O6       1.0000 0.28621  0.12168  0.48036  Biso   1.000  O
  O7       1.0000 0.22195  0.38019  0.00522  Biso   1.000  O
  O8       1.0000 0.21773  0.37463  0.25327  Biso   1.000  O
  Hf5      1.0000 0.13802  0.02107  0.64598  Biso   1.000  Hf
  Hf6      1.0000 0.13637  0.22880  0.89234  Biso   1.000  Hf
  Hf7      1.0000 0.36153  0.27718  0.60249  Biso   1.000  Hf
  Hf8      1.0000 0.36008  0.47970  0.85410  Biso   1.000  Hf
  O9       1.0000 0.03826  0.16707  0.57747  Biso   1.000  O
  O10      1.0000 0.03302  0.08296  0.82632  Biso   1.000  O
  O11      1.0000 0.46780  0.41265  0.68117  Biso   1.000  O
  O12      1.0000 0.47121  0.34259  0.92722  Biso   1.000  O
  O13      1.0000 0.27484  0.12935  0.73645  Biso   1.000  O
  O14      1.0000 0.27335  0.12163  0.98457  Biso   1.000  O
  O15      1.0000 0.21838  0.38478  0.51511  Biso   1.000  O
  O16      1.0000 0.22355  0.37261  0.75917  Biso   1.000  O
  Hf9      1.0000 0.13850  0.52155  0.14436  Biso   1.000  Hf
  Hf10     1.0000 0.13411  0.72919  0.39713  Biso   1.000  Hf
  Hf11     1.0000 0.36012  0.77067  0.10299  Biso   1.000  Hf
  Hf12     1.0000 0.36090  0.96723  0.35382  Biso   1.000  Hf
  O17      1.0000 0.03254  0.66795  0.07832  Biso   1.000  O
  O18      1.0000 0.03341  0.58615  0.32597  Biso   1.000  O
  O19      1.0000 0.46797  0.90941  0.17519  Biso   1.000  O
  O20      1.0000 0.46463  0.82930  0.42579  Biso   1.000  O
  O21      1.0000 0.27553  0.62830  0.24050  Biso   1.000  O
  O22      1.0000 0.27077  0.62582  0.49358  Biso   1.000  O
  O23      1.0000 0.22368  0.87934  0.01013  Biso   1.000  O
  O24      1.0000 0.22138  0.86801  0.25898  Biso   1.000  O
  Hf13     1.0000 0.13574  0.52475  0.64857  Biso   1.000  Hf
  Hf14     1.0000 0.13671  0.72953  0.89739  Biso   1.000  Hf
  Hf15     1.0000 0.36099  0.77062  0.60597  Biso   1.000  Hf
  Hf16     1.0000 0.36121  0.97879  0.85250  Biso   1.000  Hf
  O25      1.0000 0.02929  0.66652  0.57806  Biso   1.000  O
  O26      1.0000 0.03181  0.58524  0.83020  Biso   1.000  O
  O27      1.0000 0.46610  0.91475  0.67311  Biso   1.000  O
  O28      1.0000 0.46660  0.83691  0.92458  Biso   1.000  O
  O29      1.0000 0.27478  0.62933  0.74197  Biso   1.000  O
  O30      1.0000 0.27437  0.62264  0.99036  Biso   1.000  O
  O31      1.0000 0.22264  0.87919  0.51106  Biso   1.000  O
  O32      1.0000 0.22289  0.87181  0.76053  Biso   1.000  O
  Hf17     1.0000 0.63945  0.02040  0.14553  Biso   1.000  Hf
  Hf18     1.0000 0.64421  0.23264  0.40116  Biso   1.000  Hf
  Hf19     1.0000 0.86161  0.27227  0.10519  Biso   1.000  Hf
  Hf20     1.0000 0.86217  0.47942  0.35511  Biso   1.000  Hf
  O33      1.0000 0.52974  0.15413  0.06798  Biso   1.000  O
  O34      1.0000 0.54189  0.07055  0.33507  Biso   1.000  O
  O35      1.0000 0.96557  0.41728  0.17200  Biso   1.000  O
  O36      1.0000 0.96700  0.33774  0.42511  Biso   1.000  O
  O37      1.0000 0.77647  0.12927  0.23925  Biso   1.000  O
  O38      1.0000 0.78008  0.12079  0.49225  Biso   1.000  O
  O39      1.0000 0.72286  0.37733  0.01274  Biso   1.000  O
  O40      1.0000 0.72753  0.37310  0.26220  Biso   1.000  O
  Hf21     1.0000 0.63788  0.02334  0.64483  Biso   1.000  Hf
  Hf22     1.0000 0.63928  0.22711  0.89604  Biso   1.000  Hf
  Hf23     1.0000 0.86341  0.27247  0.60685  Biso   1.000  Hf
  Hf24     1.0000 0.85908  0.47874  0.85660  Biso   1.000  Hf
  O41      1.0000 0.53374  0.16754  0.57742  Biso   1.000  O
  O42      1.0000 0.53173  0.08818  0.82292  Biso   1.000  O
  O43      1.0000 0.96489  0.41689  0.67587  Biso   1.000  O
  O44      1.0000 0.96398  0.33357  0.92206  Biso   1.000  O
  O45      1.0000 0.77611  0.12873  0.74079  Biso   1.000  O
  O46      1.0000 0.77623  0.12109  0.99014  Biso   1.000  O
  O47      1.0000 0.72905  0.37888  0.51428  Biso   1.000  O
  O48      1.0000 0.72402  0.37177  0.76219  Biso   1.000  O
  Hf25     1.0000 0.63701  0.51947  0.14934  Biso   1.000  Hf
  Hf26     1.0000 0.63805  0.72686  0.39589  Biso   1.000  Hf
  Hf27     1.0000 0.86005  0.77117  0.10481  Biso   1.000  Hf
  Hf28     1.0000 0.85977  0.98001  0.35415  Biso   1.000  Hf
  O49      1.0000 0.52761  0.65515  0.07339  Biso   1.000  O
  O50      1.0000 0.52902  0.59129  0.32104  Biso   1.000  O
  O51      1.0000 0.96453  0.91678  0.17235  Biso   1.000  O
  O52      1.0000 0.96396  0.83620  0.42366  Biso   1.000  O
  O53      1.0000 0.77407  0.62714  0.23973  Biso   1.000  O
  O54      1.0000 0.77484  0.62184  0.48988  Biso   1.000  O
  O55      1.0000 0.72220  0.87808  0.01142  Biso   1.000  O
  O56      1.0000 0.72442  0.86980  0.26042  Biso   1.000  O
  Hf29     1.0000 0.63836  0.52124  0.64732  Biso   1.000  Hf
  Hf30     1.0000 0.63710  0.72728  0.89666  Biso   1.000  Hf
  Hf31     1.0000 0.85824  0.77316  0.60493  Biso   1.000  Hf
  Hf32     1.0000 0.85954  0.97804  0.85458  Biso   1.000  Hf
  O57      1.0000 0.53177  0.66179  0.57615  Biso   1.000  O
  O58      1.0000 0.53157  0.58889  0.82450  Biso   1.000  O
  O59      1.0000 0.96519  0.91609  0.67339  Biso   1.000  O
  O60      1.0000 0.96407  0.83450  0.92324  Biso   1.000  O
  O61      1.0000 0.77477  0.62914  0.74101  Biso   1.000  O
  O62      1.0000 0.77343  0.62118  0.99178  Biso   1.000  O
  O63      1.0000 0.72168  0.87893  0.51020  Biso   1.000  O
  O64      1.0000 0.72237  0.87193  0.76078  Biso   1.000  O
  Tc1      1.0000 0.40807  0.23384  0.32739  Biso   1.000  Tc
