data_image0
_cell_length_a       5.05164
_cell_length_b       10.431
_cell_length_c       10.1639
_cell_angle_alpha    88.9578
_cell_angle_beta     92.262
_cell_angle_gamma    91.6741

_symmetry_space_group_name_H-M    "P 1"
_symmetry_int_tables_number       1

loop_
  _symmetry_equiv_pos_as_xyz
  'x, y, z'

loop_
  _atom_site_label
  _atom_site_occupancy
  _atom_site_fract_x
  _atom_site_fract_y
  _atom_site_fract_z
  _atom_site_thermal_displace_type
  _atom_site_B_iso_or_equiv
  _atom_site_type_symbol
  Hf1      1.0000 0.28082  0.98556  0.10332  Biso   1.000  Hf
  Hf2      1.0000 0.24027  0.22944  0.41043  Biso   1.000  Hf
  Hf3      1.0000 0.59597  0.25635  0.15532  Biso   1.000  Hf
  Hf4      1.0000 0.73698  0.48692  0.38210  Biso   1.000  Hf
  Hf5      1.0000 0.88075  0.18322  0.28514  Biso   1.000  Hf
  Hf6      1.0000 0.07931  0.05514  0.46255  Biso   1.000  Hf
  Hf7      1.0000 0.89374  0.44221  0.20234  Biso   1.000  Hf
  Hf8      1.0000 0.95805  0.33902  0.47284  Biso   1.000  Hf
  Hf9      1.0000 0.41087  0.10361  0.25912  Biso   1.000  Hf
  Hf10     1.0000 0.56416  0.13823  0.50580  Biso   1.000  Hf
  Hf11     1.0000 0.48180  0.38459  0.50683  Biso   1.000  Hf
  Hf12     1.0000 0.39175  0.37484  0.26795  Biso   1.000  Hf
  Hf13     1.0000 0.30271  0.00838  0.62515  Biso   1.000  Hf
  Hf14     1.0000 0.30816  0.22693  0.85119  Biso   1.000  Hf
  Hf15     1.0000 0.77049  0.27710  0.64030  Biso   1.000  Hf
  Hf16     1.0000 0.73975  0.48240  0.86984  Biso   1.000  Hf
  Hf17     1.0000 0.12778  0.18410  0.66725  Biso   1.000  Hf
  Hf18     1.0000 0.11214  0.05583  0.92231  Biso   1.000  Hf
  Hf19     1.0000 0.92093  0.46088  0.68224  Biso   1.000  Hf
  Hf20     1.0000 0.92980  0.30335  0.85278  Biso   1.000  Hf
  Hf21     1.0000 0.57380  0.11411  0.75321  Biso   1.000  Hf
  Hf22     1.0000 0.57787  0.11692  0.00873  Biso   1.000  Hf
  Hf23     1.0000 0.48742  0.37972  0.99844  Biso   1.000  Hf
  Hf24     1.0000 0.46195  0.37407  0.74522  Biso   1.000  Hf
  Hf25     1.0000 0.25496  0.52635  0.13528  Biso   1.000  Hf
  Hf26     1.0000 0.27905  0.74300  0.37817  Biso   1.000  Hf
  Hf27     1.0000 0.74161  0.76180  0.12830  Biso   1.000  Hf
  Hf28     1.0000 0.74521  0.00229  0.36347  Biso   1.000  Hf
  Hf29     1.0000 0.08397  0.68819  0.19624  Biso   1.000  Hf
  Hf30     1.0000 0.07712  0.57818  0.44131  Biso   1.000  Hf
  Hf31     1.0000 0.93412  0.94355  0.18685  Biso   1.000  Hf
  Hf32     1.0000 0.94118  0.82166  0.43946  Biso   1.000  Hf
  Hf33     1.0000 0.54350  0.62161  0.25434  Biso   1.000  Hf
  Hf34     1.0000 0.54577  0.63777  0.50040  Biso   1.000  Hf
  Hf35     1.0000 0.48394  0.88884  0.49425  Biso   1.000  Hf
  Hf36     1.0000 0.48104  0.86363  0.24195  Biso   1.000  Hf
  Hf37     1.0000 0.27508  0.51776  0.61809  Biso   1.000  Hf
  Hf38     1.0000 0.28478  0.72750  0.87096  Biso   1.000  Hf
  Hf39     1.0000 0.75917  0.76992  0.61845  Biso   1.000  Hf
  Hf40     1.0000 0.76098  0.97491  0.87203  Biso   1.000  Hf
  Hf41     1.0000 0.09160  0.68874  0.69252  Biso   1.000  Hf
  Hf42     1.0000 0.07552  0.56141  0.95045  Biso   1.000  Hf
  Hf43     1.0000 0.96047  0.93084  0.70043  Biso   1.000  Hf
  Hf44     1.0000 0.97462  0.81597  0.95847  Biso   1.000  Hf
  Hf45     1.0000 0.54860  0.61731  0.75208  Biso   1.000  Hf
  Hf46     1.0000 0.54434  0.62948  0.00412  Biso   1.000  Hf
  Hf47     1.0000 0.49559  0.86993  0.99107  Biso   1.000  Hf
  Hf48     1.0000 0.49480  0.86149  0.74653  Biso   1.000  Hf
  Tl1      1.0000 0.06623  0.24610  0.08111  Biso   1.000  Tl
