data_image0
_cell_length_a       10.2458
_cell_length_b       5.17864
_cell_length_c       10.641
_cell_angle_alpha    90.0088
_cell_angle_beta     78.7322
_cell_angle_gamma    89.9178

_symmetry_space_group_name_H-M    "P 1"
_symmetry_int_tables_number       1

loop_
  _symmetry_equiv_pos_as_xyz
  'x, y, z'

loop_
  _atom_site_label
  _atom_site_occupancy
  _atom_site_fract_x
  _atom_site_fract_y
  _atom_site_fract_z
  _atom_site_thermal_displace_type
  _atom_site_B_iso_or_equiv
  _atom_site_type_symbol
  Hf1      1.0000 0.13000  0.04490  0.14268  Biso   1.000  Hf
  Hf2      1.0000 0.13729  0.45522  0.39240  Biso   1.000  Hf
  Hf3      1.0000 0.34558  0.55222  0.09011  Biso   1.000  Hf
  Hf4      1.0000 0.35090  0.94568  0.35027  Biso   1.000  Hf
  O1       1.0000 0.02713  0.33404  0.07443  Biso   1.000  O
  O2       1.0000 0.02724  0.17498  0.32617  Biso   1.000  O
  O3       1.0000 0.45041  0.87724  0.15013  Biso   1.000  O
  O4       1.0000 0.48393  0.71482  0.46168  Biso   1.000  O
  O5       1.0000 0.26029  0.24135  0.23436  Biso   1.000  O
  O6       1.0000 0.27714  0.23637  0.48590  Biso   1.000  O
  O7       1.0000 0.21504  0.76812  0.00252  Biso   1.000  O
  O8       1.0000 0.20654  0.74393  0.25227  Biso   1.000  O
  Hf5      1.0000 0.14075  0.04324  0.64420  Biso   1.000  Hf
  Hf6      1.0000 0.13096  0.45834  0.89298  Biso   1.000  Hf
  Hf7      1.0000 0.36425  0.55045  0.61102  Biso   1.000  Hf
  Hf8      1.0000 0.35820  0.96216  0.85447  Biso   1.000  Hf
  O9       1.0000 0.03666  0.32841  0.57650  Biso   1.000  O
  O10      1.0000 0.03023  0.17357  0.82427  Biso   1.000  O
  O11      1.0000 0.47048  0.81920  0.68864  Biso   1.000  O
  O12      1.0000 0.46194  0.67060  0.92079  Biso   1.000  O
  O13      1.0000 0.27342  0.25243  0.73872  Biso   1.000  O
  O14      1.0000 0.26767  0.25483  0.98557  Biso   1.000  O
  O15      1.0000 0.22566  0.74770  0.50867  Biso   1.000  O
  O16      1.0000 0.22337  0.74440  0.75841  Biso   1.000  O
  Hf9      1.0000 0.63348  0.03650  0.14498  Biso   1.000  Hf
  Hf10     1.0000 0.65980  0.46726  0.41638  Biso   1.000  Hf
  Hf11     1.0000 0.85521  0.54193  0.10986  Biso   1.000  Hf
  Hf12     1.0000 0.86191  0.95772  0.35594  Biso   1.000  Hf
  O17      1.0000 0.52755  0.33270  0.06999  Biso   1.000  O
  O18      1.0000 0.53775  0.09970  0.33286  Biso   1.000  O
  O19      1.0000 0.96086  0.83110  0.17358  Biso   1.000  O
  O20      1.0000 0.96562  0.66772  0.42620  Biso   1.000  O
  O21      1.0000 0.77373  0.25859  0.24805  Biso   1.000  O
  O22      1.0000 0.78313  0.23468  0.50033  Biso   1.000  O
  O23      1.0000 0.71939  0.75247  0.01631  Biso   1.000  O
  O24      1.0000 0.72738  0.74353  0.26731  Biso   1.000  O
  Hf13     1.0000 0.63831  0.04253  0.65377  Biso   1.000  Hf
  Hf14     1.0000 0.63586  0.45890  0.89807  Biso   1.000  Hf
  Hf15     1.0000 0.86827  0.54438  0.61115  Biso   1.000  Hf
  Hf16     1.0000 0.85965  0.95863  0.85801  Biso   1.000  Hf
  O25      1.0000 0.53413  0.31674  0.57904  Biso   1.000  O
  O26      1.0000 0.53014  0.17690  0.82852  Biso   1.000  O
  O27      1.0000 0.96940  0.83003  0.67688  Biso   1.000  O
  O28      1.0000 0.96088  0.67236  0.92537  Biso   1.000  O
  O29      1.0000 0.77421  0.25999  0.74515  Biso   1.000  O
  O30      1.0000 0.77128  0.24128  0.99425  Biso   1.000  O
  O31      1.0000 0.73129  0.75447  0.52063  Biso   1.000  O
  O32      1.0000 0.72655  0.74769  0.76664  Biso   1.000  O
  Tl1      1.0000 0.46046  0.47792  0.28854  Biso   1.000  Tl
