data_image0
_cell_length_a       5.08486
_cell_length_b       10.0551
_cell_length_c       10.0429
_cell_angle_alpha    89.9998
_cell_angle_beta     89.9986
_cell_angle_gamma    90.0001

_symmetry_space_group_name_H-M    "P 1"
_symmetry_int_tables_number       1

loop_
  _symmetry_equiv_pos_as_xyz
  'x, y, z'

loop_
  _atom_site_label
  _atom_site_occupancy
  _atom_site_fract_x
  _atom_site_fract_y
  _atom_site_fract_z
  _atom_site_thermal_displace_type
  _atom_site_B_iso_or_equiv
  _atom_site_type_symbol
  Hf1      1.0000 0.24982  0.98822  0.12488  Biso   1.000  Hf
  Hf2      1.0000 0.24982  0.25008  0.39243  Biso   1.000  Hf
  Hf3      1.0000 0.74981  0.25008  0.12488  Biso   1.000  Hf
  Hf4      1.0000 0.74863  0.00009  0.37265  Biso   1.000  Hf
  Hf5      1.0000 0.98512  0.12873  0.00583  Biso   1.000  Hf
  Hf6      1.0000 0.03115  0.12522  0.25067  Biso   1.000  Hf
  Hf7      1.0000 0.98511  0.37142  0.24393  Biso   1.000  Hf
  Hf8      1.0000 0.03117  0.37493  0.99909  Biso   1.000  Hf
  Hf9      1.0000 0.51451  0.12873  0.24392  Biso   1.000  Hf
  Hf10     1.0000 0.46848  0.12522  0.99908  Biso   1.000  Hf
  Hf11     1.0000 0.51452  0.37142  0.00582  Biso   1.000  Hf
  Hf12     1.0000 0.46846  0.37492  0.25065  Biso   1.000  Hf
  Hf13     1.0000 0.24982  0.00348  0.62488  Biso   1.000  Hf
  Hf14     1.0000 0.24981  0.25008  0.85732  Biso   1.000  Hf
  Hf15     1.0000 0.74982  0.25008  0.62488  Biso   1.000  Hf
  Hf16     1.0000 0.75100  0.00009  0.87710  Biso   1.000  Hf
  Hf17     1.0000 0.96415  0.12999  0.49979  Biso   1.000  Hf
  Hf18     1.0000 0.02354  0.11215  0.75609  Biso   1.000  Hf
  Hf19     1.0000 0.96415  0.37016  0.74997  Biso   1.000  Hf
  Hf20     1.0000 0.02356  0.38801  0.49367  Biso   1.000  Hf
  Hf21     1.0000 0.53548  0.12999  0.74997  Biso   1.000  Hf
  Hf22     1.0000 0.47609  0.11215  0.49366  Biso   1.000  Hf
  Hf23     1.0000 0.53549  0.37016  0.49977  Biso   1.000  Hf
  Hf24     1.0000 0.47609  0.38801  0.75608  Biso   1.000  Hf
  Hf25     1.0000 0.24983  0.51193  0.12488  Biso   1.000  Hf
  Hf26     1.0000 0.24981  0.75009  0.37988  Biso   1.000  Hf
  Hf27     1.0000 0.74983  0.75008  0.12487  Biso   1.000  Hf
  Hf28     1.0000 0.75102  0.50009  0.37266  Biso   1.000  Hf
  Hf29     1.0000 0.96560  0.62644  0.00610  Biso   1.000  Hf
  Hf30     1.0000 0.03203  0.62357  0.25822  Biso   1.000  Hf
  Hf31     1.0000 0.96561  0.87370  0.24366  Biso   1.000  Hf
  Hf32     1.0000 0.03200  0.87658  0.99154  Biso   1.000  Hf
  Hf33     1.0000 0.53407  0.62643  0.24364  Biso   1.000  Hf
  Hf34     1.0000 0.46763  0.62357  0.99153  Biso   1.000  Hf
  Hf35     1.0000 0.53404  0.87371  0.00610  Biso   1.000  Hf
  Hf36     1.0000 0.46764  0.87658  0.25821  Biso   1.000  Hf
  Hf37     1.0000 0.24982  0.49668  0.62487  Biso   1.000  Hf
  Hf38     1.0000 0.24982  0.75008  0.86988  Biso   1.000  Hf
  Hf39     1.0000 0.74982  0.75010  0.62488  Biso   1.000  Hf
  Hf40     1.0000 0.74862  0.50009  0.87709  Biso   1.000  Hf
  Hf41     1.0000 0.96062  0.63208  0.50264  Biso   1.000  Hf
  Hf42     1.0000 0.03903  0.61488  0.75797  Biso   1.000  Hf
  Hf43     1.0000 0.96063  0.86809  0.74712  Biso   1.000  Hf
  Hf44     1.0000 0.03901  0.88528  0.49179  Biso   1.000  Hf
  Hf45     1.0000 0.53901  0.63207  0.74710  Biso   1.000  Hf
  Hf46     1.0000 0.46060  0.61487  0.49177  Biso   1.000  Hf
  Hf47     1.0000 0.53899  0.86809  0.50263  Biso   1.000  Hf
  Hf48     1.0000 0.46061  0.88528  0.75796  Biso   1.000  Hf
  V1       1.0000 0.24981  0.25007  0.12487  Biso   1.000  V 
