data_image0
_cell_length_a       10.0411
_cell_length_b       5.20665
_cell_length_c       10.0673
_cell_angle_alpha    89.9238
_cell_angle_beta     88.7465
_cell_angle_gamma    89.4397

_symmetry_space_group_name_H-M    "P 1"
_symmetry_int_tables_number       1

loop_
  _symmetry_equiv_pos_as_xyz
  'x, y, z'

loop_
  _atom_site_label
  _atom_site_occupancy
  _atom_site_fract_x
  _atom_site_fract_y
  _atom_site_fract_z
  _atom_site_thermal_displace_type
  _atom_site_B_iso_or_equiv
  _atom_site_type_symbol
  Hf1      1.0000 0.13512  0.03509  0.12427  Biso   1.000  Hf
  Hf2      1.0000 0.13532  0.46445  0.39263  Biso   1.000  Hf
  Hf3      1.0000 0.38625  0.54650  0.12131  Biso   1.000  Hf
  Hf4      1.0000 0.36916  0.97226  0.37759  Biso   1.000  Hf
  Hf5      1.0000 0.00639  0.29859  0.21999  Biso   1.000  Hf
  Hf6      1.0000 0.03898  0.12710  0.45504  Biso   1.000  Hf
  Hf7      1.0000 0.47254  0.87338  0.20095  Biso   1.000  Hf
  Hf8      1.0000 0.46989  0.64726  0.44955  Biso   1.000  Hf
  Hf9      1.0000 0.25904  0.26835  0.24740  Biso   1.000  Hf
  Hf10     1.0000 0.27700  0.26094  0.50388  Biso   1.000  Hf
  Hf11     1.0000 0.23308  0.76499  0.50296  Biso   1.000  Hf
  Hf12     1.0000 0.24087  0.75469  0.25179  Biso   1.000  Hf
  Hf13     1.0000 0.13409  0.03113  0.63059  Biso   1.000  Hf
  Hf14     1.0000 0.12639  0.46834  0.87066  Biso   1.000  Hf
  Hf15     1.0000 0.36805  0.53802  0.62766  Biso   1.000  Hf
  Hf16     1.0000 0.36455  0.97617  0.87511  Biso   1.000  Hf
  Hf17     1.0000 0.03237  0.36377  0.69192  Biso   1.000  Hf
  Hf18     1.0000 0.03083  0.11975  0.94379  Biso   1.000  Hf
  Hf19     1.0000 0.46346  0.87458  0.69649  Biso   1.000  Hf
  Hf20     1.0000 0.46685  0.64810  0.93969  Biso   1.000  Hf
  Hf21     1.0000 0.26765  0.23900  0.75273  Biso   1.000  Hf
  Hf22     1.0000 0.25881  0.29094  0.00666  Biso   1.000  Hf
  Hf23     1.0000 0.22939  0.76544  0.00175  Biso   1.000  Hf
  Hf24     1.0000 0.23024  0.73870  0.75209  Biso   1.000  Hf
  Hf25     1.0000 0.63748  0.02926  0.12451  Biso   1.000  Hf
  Hf26     1.0000 0.63874  0.47158  0.37371  Biso   1.000  Hf
  Hf27     1.0000 0.86327  0.51169  0.11419  Biso   1.000  Hf
  Hf28     1.0000 0.87624  0.97051  0.36936  Biso   1.000  Hf
  Hf29     1.0000 0.54049  0.36635  0.20097  Biso   1.000  Hf
  Hf30     1.0000 0.53615  0.14323  0.44544  Biso   1.000  Hf
  Hf31     1.0000 0.98788  0.79468  0.19359  Biso   1.000  Hf
  Hf32     1.0000 0.96580  0.63927  0.44819  Biso   1.000  Hf
  Hf33     1.0000 0.76605  0.21776  0.24580  Biso   1.000  Hf
  Hf34     1.0000 0.77315  0.27220  0.49399  Biso   1.000  Hf
  Hf35     1.0000 0.73460  0.77716  0.49350  Biso   1.000  Hf
  Hf36     1.0000 0.74081  0.72938  0.24522  Biso   1.000  Hf
  Hf37     1.0000 0.63326  0.03519  0.62036  Biso   1.000  Hf
  Hf38     1.0000 0.63455  0.46596  0.87100  Biso   1.000  Hf
  Hf39     1.0000 0.86502  0.53553  0.62309  Biso   1.000  Hf
  Hf40     1.0000 0.86300  0.96308  0.86976  Biso   1.000  Hf
  Hf41     1.0000 0.53383  0.36891  0.69590  Biso   1.000  Hf
  Hf42     1.0000 0.52492  0.14991  0.95184  Biso   1.000  Hf
  Hf43     1.0000 0.96412  0.86395  0.69277  Biso   1.000  Hf
  Hf44     1.0000 0.94616  0.62105  0.92522  Biso   1.000  Hf
  Hf45     1.0000 0.76668  0.23324  0.74355  Biso   1.000  Hf
  Hf46     1.0000 0.76403  0.25417  0.99283  Biso   1.000  Hf
  Hf47     1.0000 0.72236  0.75809  0.99561  Biso   1.000  Hf
  Hf48     1.0000 0.72517  0.73706  0.74338  Biso   1.000  Hf
  V1       1.0000 0.13516  0.52554  0.13645  Biso   1.000  V 
