data_image0
_cell_length_a       10.2457
_cell_length_b       5.21449
_cell_length_c       10.4607
_cell_angle_alpha    89.404
_cell_angle_beta     79.8995
_cell_angle_gamma    89.9878

_symmetry_space_group_name_H-M    "P 1"
_symmetry_int_tables_number       1

loop_
  _symmetry_equiv_pos_as_xyz
  'x, y, z'

loop_
  _atom_site_label
  _atom_site_occupancy
  _atom_site_fract_x
  _atom_site_fract_y
  _atom_site_fract_z
  _atom_site_thermal_displace_type
  _atom_site_B_iso_or_equiv
  _atom_site_type_symbol
  Hf1      1.0000 0.13388  0.04189  0.14382  Biso   1.000  Hf
  Hf2      1.0000 0.12340  0.44607  0.39286  Biso   1.000  Hf
  Hf3      1.0000 0.35885  0.54390  0.10843  Biso   1.000  Hf
  Hf4      1.0000 0.35732  0.91094  0.33911  Biso   1.000  Hf
  O1       1.0000 0.03201  0.34443  0.07697  Biso   1.000  O
  O2       1.0000 0.02578  0.16192  0.32274  Biso   1.000  O
  O3       1.0000 0.46045  0.86335  0.15101  Biso   1.000  O
  O4       1.0000 0.49309  0.70846  0.42924  Biso   1.000  O
  O5       1.0000 0.27343  0.24717  0.24289  Biso   1.000  O
  O6       1.0000 0.25238  0.16479  0.48044  Biso   1.000  O
  O7       1.0000 0.22291  0.76356  0.00748  Biso   1.000  O
  O8       1.0000 0.20223  0.74374  0.25247  Biso   1.000  O
  Hf5      1.0000 0.13325  0.04651  0.65236  Biso   1.000  Hf
  Hf6      1.0000 0.13684  0.46847  0.89831  Biso   1.000  Hf
  Hf7      1.0000 0.37246  0.55694  0.62777  Biso   1.000  Hf
  Hf8      1.0000 0.36188  0.96793  0.86068  Biso   1.000  Hf
  O9       1.0000 0.03101  0.34087  0.58141  Biso   1.000  O
  O10      1.0000 0.03309  0.17539  0.82817  Biso   1.000  O
  O11      1.0000 0.46670  0.86341  0.67689  Biso   1.000  O
  O12      1.0000 0.46110  0.65803  0.91554  Biso   1.000  O
  O13      1.0000 0.27431  0.26914  0.74349  Biso   1.000  O
  O14      1.0000 0.27292  0.24907  0.99323  Biso   1.000  O
  O15      1.0000 0.24756  0.67500  0.49917  Biso   1.000  O
  O16      1.0000 0.22170  0.76253  0.76209  Biso   1.000  O
  Hf9      1.0000 0.63897  0.04784  0.14051  Biso   1.000  Hf
  Hf10     1.0000 0.65119  0.45843  0.39917  Biso   1.000  Hf
  Hf11     1.0000 0.85965  0.54730  0.10267  Biso   1.000  Hf
  Hf12     1.0000 0.85705  0.95757  0.35116  Biso   1.000  Hf
  O17      1.0000 0.53774  0.35317  0.08191  Biso   1.000  O
  O18      1.0000 0.53794  0.15758  0.32414  Biso   1.000  O
  O19      1.0000 0.95955  0.84267  0.16506  Biso   1.000  O
  O20      1.0000 0.95920  0.66794  0.42009  Biso   1.000  O
  O21      1.0000 0.77618  0.26033  0.23794  Biso   1.000  O
  O22      1.0000 0.78165  0.23968  0.49257  Biso   1.000  O
  O23      1.0000 0.72403  0.76373  0.00799  Biso   1.000  O
  O24      1.0000 0.72288  0.74431  0.25719  Biso   1.000  O
  Hf13     1.0000 0.64366  0.04749  0.64925  Biso   1.000  Hf
  Hf14     1.0000 0.63568  0.46464  0.89701  Biso   1.000  Hf
  Hf15     1.0000 0.86094  0.54832  0.60644  Biso   1.000  Hf
  Hf16     1.0000 0.86006  0.96412  0.85526  Biso   1.000  Hf
  O25      1.0000 0.54493  0.34777  0.58661  Biso   1.000  O
  O26      1.0000 0.53771  0.16390  0.83658  Biso   1.000  O
  O27      1.0000 0.96654  0.83924  0.67024  Biso   1.000  O
  O28      1.0000 0.96398  0.67093  0.91833  Biso   1.000  O
  O29      1.0000 0.77572  0.26484  0.74246  Biso   1.000  O
  O30      1.0000 0.77467  0.24643  0.98949  Biso   1.000  O
  O31      1.0000 0.72636  0.76200  0.51258  Biso   1.000  O
  O32      1.0000 0.72667  0.74916  0.76114  Biso   1.000  O
  W1       1.0000 0.38982  0.41703  0.38263  Biso   1.000  W
