data_image0
_cell_length_a       5.03958
_cell_length_b       10.2518
_cell_length_c       10.4396
_cell_angle_alpha    89.9409
_cell_angle_beta     80.0556
_cell_angle_gamma    89.8009

_symmetry_space_group_name_H-M    "P 1"
_symmetry_int_tables_number       1

loop_
  _symmetry_equiv_pos_as_xyz
  'x, y, z'

loop_
  _atom_site_label
  _atom_site_occupancy
  _atom_site_fract_x
  _atom_site_fract_y
  _atom_site_fract_z
  _atom_site_thermal_displace_type
  _atom_site_B_iso_or_equiv
  _atom_site_type_symbol
  W1       1.0000 0.28556  0.02127  0.14869  Biso   1.000  W
  Hf1      1.0000 0.28108  0.22974  0.39487  Biso   1.000  Hf
  Hf2      1.0000 0.72495  0.27044  0.10521  Biso   1.000  Hf
  Hf3      1.0000 0.72301  0.47935  0.35327  Biso   1.000  Hf
  O1       1.0000 0.07837  0.16703  0.08349  Biso   1.000  O
  O2       1.0000 0.08623  0.07758  0.32301  Biso   1.000  O
  O3       1.0000 0.92848  0.42022  0.16874  Biso   1.000  O
  O4       1.0000 0.92699  0.32885  0.41783  Biso   1.000  O
  O5       1.0000 0.55838  0.12788  0.24134  Biso   1.000  O
  O6       1.0000 0.55815  0.12037  0.48990  Biso   1.000  O
  O7       1.0000 0.44608  0.37870  0.01013  Biso   1.000  O
  O8       1.0000 0.44801  0.37109  0.25911  Biso   1.000  O
  Hf4      1.0000 0.27685  0.02086  0.64574  Biso   1.000  Hf
  Hf5      1.0000 0.27632  0.22702  0.89677  Biso   1.000  Hf
  Hf6      1.0000 0.72175  0.27121  0.60400  Biso   1.000  Hf
  Hf7      1.0000 0.71952  0.47817  0.85527  Biso   1.000  Hf
  O9       1.0000 0.07137  0.16754  0.57709  Biso   1.000  O
  O10      1.0000 0.06709  0.08130  0.82945  Biso   1.000  O
  O11      1.0000 0.92839  0.41818  0.66993  Biso   1.000  O
  O12      1.0000 0.92639  0.32823  0.92085  Biso   1.000  O
  O13      1.0000 0.55205  0.12879  0.74099  Biso   1.000  O
  O14      1.0000 0.54730  0.11894  0.99391  Biso   1.000  O
  O15      1.0000 0.44577  0.37857  0.50924  Biso   1.000  O
  O16      1.0000 0.44527  0.37033  0.76004  Biso   1.000  O
  Hf8      1.0000 0.27783  0.52320  0.14531  Biso   1.000  Hf
  Hf9      1.0000 0.27980  0.72848  0.39609  Biso   1.000  Hf
  Hf10     1.0000 0.71861  0.77802  0.10394  Biso   1.000  Hf
  Hf11     1.0000 0.72483  0.97882  0.35277  Biso   1.000  Hf
  O17      1.0000 0.06649  0.66988  0.08094  Biso   1.000  O
  O18      1.0000 0.07274  0.58010  0.33123  Biso   1.000  O
  O19      1.0000 0.94699  0.92185  0.16580  Biso   1.000  O
  O20      1.0000 0.93138  0.83167  0.41952  Biso   1.000  O
  O21      1.0000 0.55259  0.63192  0.24059  Biso   1.000  O
  O22      1.0000 0.55558  0.62064  0.49114  Biso   1.000  O
  O23      1.0000 0.42648  0.88003  0.00998  Biso   1.000  O
  O24      1.0000 0.44502  0.87501  0.25972  Biso   1.000  O
  Hf12     1.0000 0.27756  0.52107  0.64675  Biso   1.000  Hf
  Hf13     1.0000 0.27417  0.72852  0.89710  Biso   1.000  Hf
  Hf14     1.0000 0.72157  0.77123  0.60452  Biso   1.000  Hf
  Hf15     1.0000 0.71773  0.97859  0.85466  Biso   1.000  Hf
  O25      1.0000 0.07249  0.66927  0.58045  Biso   1.000  O
  O26      1.0000 0.06946  0.57964  0.83106  Biso   1.000  O
  O27      1.0000 0.92700  0.91928  0.66972  Biso   1.000  O
  O28      1.0000 0.92102  0.83074  0.91931  Biso   1.000  O
  O29      1.0000 0.55283  0.62867  0.74124  Biso   1.000  O
  O30      1.0000 0.55241  0.62210  0.99122  Biso   1.000  O
  O31      1.0000 0.44802  0.87891  0.50875  Biso   1.000  O
  O32      1.0000 0.44407  0.87068  0.75935  Biso   1.000  O
