data_image0
_cell_length_a       9.9891
_cell_length_b       10.366
_cell_length_c       10.0252
_cell_angle_alpha    90.0622
_cell_angle_beta     90.1437
_cell_angle_gamma    90.0045

_symmetry_space_group_name_H-M    "P 1"
_symmetry_int_tables_number       1

loop_
  _symmetry_equiv_pos_as_xyz
  'x, y, z'

loop_
  _atom_site_label
  _atom_site_occupancy
  _atom_site_fract_x
  _atom_site_fract_y
  _atom_site_fract_z
  _atom_site_thermal_displace_type
  _atom_site_B_iso_or_equiv
  _atom_site_type_symbol
  Y1       1.0000 0.13158  0.01274  0.12372  Biso   1.000  Y 
  Hf1      1.0000 0.13419  0.23352  0.37614  Biso   1.000  Hf
  Hf2      1.0000 0.36436  0.26531  0.12638  Biso   1.000  Hf
  Hf3      1.0000 0.36512  0.48332  0.37552  Biso   1.000  Hf
  Hf4      1.0000 0.03083  0.19061  0.20116  Biso   1.000  Hf
  Hf5      1.0000 0.03512  0.06560  0.44413  Biso   1.000  Hf
  Hf6      1.0000 0.46435  0.43314  0.19548  Biso   1.000  Hf
  Hf7      1.0000 0.46357  0.31541  0.44452  Biso   1.000  Hf
  Hf8      1.0000 0.27675  0.12416  0.25388  Biso   1.000  Hf
  Hf9      1.0000 0.26969  0.13163  0.50089  Biso   1.000  Hf
  Hf10     1.0000 0.23002  0.38296  0.49965  Biso   1.000  Hf
  Hf11     1.0000 0.22786  0.36883  0.24939  Biso   1.000  Hf
  Hf12     1.0000 0.13371  0.01656  0.62596  Biso   1.000  Hf
  Hf13     1.0000 0.13488  0.23397  0.87396  Biso   1.000  Hf
  Hf14     1.0000 0.36585  0.26584  0.62537  Biso   1.000  Hf
  Hf15     1.0000 0.36626  0.48289  0.87612  Biso   1.000  Hf
  Hf16     1.0000 0.03818  0.18708  0.68890  Biso   1.000  Hf
  Hf17     1.0000 0.03388  0.07037  0.92937  Biso   1.000  Hf
  Hf18     1.0000 0.46475  0.43359  0.69491  Biso   1.000  Hf
  Hf19     1.0000 0.46597  0.31712  0.94452  Biso   1.000  Hf
  Hf20     1.0000 0.27123  0.11746  0.74810  Biso   1.000  Hf
  Hf21     1.0000 0.27498  0.13526  0.99455  Biso   1.000  Hf
  Hf22     1.0000 0.23000  0.38247  0.99941  Biso   1.000  Hf
  Hf23     1.0000 0.23066  0.36822  0.74875  Biso   1.000  Hf
  Hf24     1.0000 0.13383  0.51593  0.12566  Biso   1.000  Hf
  Hf25     1.0000 0.13452  0.73373  0.37607  Biso   1.000  Hf
  Hf26     1.0000 0.36682  0.76510  0.12504  Biso   1.000  Hf
  Hf27     1.0000 0.36470  0.98415  0.37471  Biso   1.000  Hf
  Hf28     1.0000 0.03588  0.68444  0.19490  Biso   1.000  Hf
  Hf29     1.0000 0.03564  0.56591  0.44551  Biso   1.000  Hf
  Hf30     1.0000 0.46316  0.93519  0.19290  Biso   1.000  Hf
  Hf31     1.0000 0.46467  0.81653  0.44623  Biso   1.000  Hf
  Hf32     1.0000 0.26969  0.61529  0.24925  Biso   1.000  Hf
  Hf33     1.0000 0.27035  0.63274  0.49953  Biso   1.000  Hf
  Hf34     1.0000 0.22910  0.88303  0.49971  Biso   1.000  Hf
  Hf35     1.0000 0.23673  0.86074  0.25344  Biso   1.000  Hf
  Hf36     1.0000 0.13425  0.51656  0.62604  Biso   1.000  Hf
  Hf37     1.0000 0.13591  0.73380  0.87636  Biso   1.000  Hf
  Hf38     1.0000 0.36608  0.76688  0.62554  Biso   1.000  Hf
  Hf39     1.0000 0.36660  0.98360  0.87542  Biso   1.000  Hf
  Hf40     1.0000 0.03623  0.68421  0.69498  Biso   1.000  Hf
  Hf41     1.0000 0.03595  0.56728  0.94439  Biso   1.000  Hf
  Hf42     1.0000 0.46474  0.93388  0.69449  Biso   1.000  Hf
  Hf43     1.0000 0.46917  0.81677  0.94531  Biso   1.000  Hf
  Hf44     1.0000 0.27111  0.61773  0.74957  Biso   1.000  Hf
  Hf45     1.0000 0.27136  0.63000  0.99968  Biso   1.000  Hf
  Hf46     1.0000 0.23709  0.87552  0.99406  Biso   1.000  Hf
  Hf47     1.0000 0.22949  0.86778  0.74776  Biso   1.000  Hf
  Hf48     1.0000 0.63382  0.01577  0.12560  Biso   1.000  Hf
  Hf49     1.0000 0.63335  0.23349  0.37504  Biso   1.000  Hf
  Hf50     1.0000 0.86494  0.26663  0.12665  Biso   1.000  Hf
  Hf51     1.0000 0.86560  0.48401  0.37635  Biso   1.000  Hf
  Hf52     1.0000 0.53736  0.18481  0.19229  Biso   1.000  Hf
  Hf53     1.0000 0.53562  0.06590  0.44442  Biso   1.000  Hf
  Hf54     1.0000 0.96203  0.43726  0.19431  Biso   1.000  Hf
  Hf55     1.0000 0.96395  0.31790  0.44573  Biso   1.000  Hf
  Hf56     1.0000 0.76832  0.11711  0.25051  Biso   1.000  Hf
  Hf57     1.0000 0.76906  0.13359  0.49988  Biso   1.000  Hf
  Hf58     1.0000 0.72900  0.38280  0.49947  Biso   1.000  Hf
  Hf59     1.0000 0.72931  0.36787  0.25004  Biso   1.000  Hf
  Hf60     1.0000 0.63389  0.01669  0.62550  Biso   1.000  Hf
  Hf61     1.0000 0.63463  0.23358  0.87597  Biso   1.000  Hf
  Hf62     1.0000 0.86605  0.26694  0.62512  Biso   1.000  Hf
  Hf63     1.0000 0.86614  0.48349  0.87668  Biso   1.000  Hf
  Hf64     1.0000 0.53607  0.18413  0.69453  Biso   1.000  Hf
  Hf65     1.0000 0.53796  0.06559  0.94288  Biso   1.000  Hf
  Hf66     1.0000 0.96471  0.43462  0.69589  Biso   1.000  Hf
  Hf67     1.0000 0.96537  0.31770  0.94630  Biso   1.000  Hf
  Hf68     1.0000 0.77087  0.11784  0.74897  Biso   1.000  Hf
  Hf69     1.0000 0.77153  0.13228  0.99970  Biso   1.000  Hf
  Hf70     1.0000 0.72927  0.38274  0.99931  Biso   1.000  Hf
  Hf71     1.0000 0.73022  0.36755  0.74970  Biso   1.000  Hf
  Hf72     1.0000 0.63365  0.51577  0.12597  Biso   1.000  Hf
  Hf73     1.0000 0.63282  0.73314  0.37727  Biso   1.000  Hf
  Hf74     1.0000 0.86351  0.76670  0.12818  Biso   1.000  Hf
  Hf75     1.0000 0.86423  0.98272  0.37690  Biso   1.000  Hf
  Hf76     1.0000 0.53522  0.68211  0.19617  Biso   1.000  Hf
  Hf77     1.0000 0.53487  0.56535  0.44572  Biso   1.000  Hf
  Hf78     1.0000 0.95223  0.92998  0.20141  Biso   1.000  Hf
  Hf79     1.0000 0.96410  0.81495  0.44642  Biso   1.000  Hf
  Hf80     1.0000 0.76956  0.61767  0.25018  Biso   1.000  Hf
  Hf81     1.0000 0.76998  0.63206  0.49990  Biso   1.000  Hf
  Hf82     1.0000 0.72919  0.88180  0.50082  Biso   1.000  Hf
  Hf83     1.0000 0.72214  0.86659  0.25094  Biso   1.000  Hf
  Hf84     1.0000 0.63395  0.51590  0.62620  Biso   1.000  Hf
  Hf85     1.0000 0.63552  0.73321  0.87569  Biso   1.000  Hf
  Hf86     1.0000 0.86614  0.76584  0.62594  Biso   1.000  Hf
  Hf87     1.0000 0.86518  0.98326  0.87481  Biso   1.000  Hf
  Hf88     1.0000 0.53609  0.68365  0.69472  Biso   1.000  Hf
  Hf89     1.0000 0.53577  0.56642  0.94528  Biso   1.000  Hf
  Hf90     1.0000 0.96293  0.93393  0.69320  Biso   1.000  Hf
  Hf91     1.0000 0.96765  0.81874  0.94874  Biso   1.000  Hf
  Hf92     1.0000 0.77108  0.61699  0.74939  Biso   1.000  Hf
  Hf93     1.0000 0.77051  0.63159  0.99946  Biso   1.000  Hf
  Hf94     1.0000 0.73074  0.88146  0.00034  Biso   1.000  Hf
  Hf95     1.0000 0.72968  0.86713  0.74971  Biso   1.000  Hf
