data_image0
_cell_length_a       5.11722
_cell_length_b       10.2826
_cell_length_c       10.5378
_cell_angle_alpha    90.2391
_cell_angle_beta     78.9614
_cell_angle_gamma    90.1069

_symmetry_space_group_name_H-M    "P 1"
_symmetry_int_tables_number       1

loop_
  _symmetry_equiv_pos_as_xyz
  'x, y, z'

loop_
  _atom_site_label
  _atom_site_occupancy
  _atom_site_fract_x
  _atom_site_fract_y
  _atom_site_fract_z
  _atom_site_thermal_displace_type
  _atom_site_B_iso_or_equiv
  _atom_site_type_symbol
  Hf1      1.0000 0.26681  0.02001  0.14349  Biso   1.000  Hf
  Hf2      1.0000 0.32305  0.23380  0.40142  Biso   1.000  Hf
  Hf3      1.0000 0.69933  0.27374  0.10496  Biso   1.000  Hf
  Hf4      1.0000 0.71836  0.47737  0.34651  Biso   1.000  Hf
  O1       1.0000 0.05523  0.16906  0.08342  Biso   1.000  O
  O2       1.0000 0.06184  0.08419  0.33312  Biso   1.000  O
  O3       1.0000 0.90863  0.43376  0.15753  Biso   1.000  O
  O4       1.0000 0.97901  0.35056  0.43999  Biso   1.000  O
  O5       1.0000 0.52906  0.11401  0.23714  Biso   1.000  O
  O6       1.0000 0.57456  0.11673  0.49301  Biso   1.000  O
  O7       1.0000 0.43464  0.38162  0.00711  Biso   1.000  O
  O8       1.0000 0.40169  0.37524  0.25313  Biso   1.000  O
  Hf5      1.0000 0.27863  0.02075  0.64877  Biso   1.000  Hf
  Hf6      1.0000 0.26866  0.23082  0.89769  Biso   1.000  Hf
  Hf7      1.0000 0.73990  0.27305  0.61155  Biso   1.000  Hf
  Hf8      1.0000 0.72014  0.47916  0.85744  Biso   1.000  Hf
  O9       1.0000 0.08596  0.16634  0.57920  Biso   1.000  O
  O10      1.0000 0.06485  0.08395  0.82967  Biso   1.000  O
  O11      1.0000 0.94151  0.41376  0.68140  Biso   1.000  O
  O12      1.0000 0.92177  0.33254  0.92345  Biso   1.000  O
  O13      1.0000 0.55146  0.12915  0.74212  Biso   1.000  O
  O14      1.0000 0.53813  0.12328  0.98987  Biso   1.000  O
  O15      1.0000 0.47251  0.37641  0.51400  Biso   1.000  O
  O16      1.0000 0.45186  0.37215  0.76136  Biso   1.000  O
  Hf9      1.0000 0.26603  0.52428  0.14353  Biso   1.000  Hf
  Hf10     1.0000 0.27112  0.72266  0.39723  Biso   1.000  Hf
  Hf11     1.0000 0.71421  0.77088  0.10405  Biso   1.000  Hf
  Hf12     1.0000 0.71117  0.96645  0.35603  Biso   1.000  Hf
  O17      1.0000 0.06419  0.67395  0.07777  Biso   1.000  O
  O18      1.0000 0.05552  0.58649  0.32537  Biso   1.000  O
  O19      1.0000 0.92359  0.91357  0.17623  Biso   1.000  O
  O20      1.0000 0.92869  0.83167  0.42471  Biso   1.000  O
  O21      1.0000 0.54407  0.62744  0.24128  Biso   1.000  O
  O22      1.0000 0.54417  0.61941  0.49035  Biso   1.000  O
  O23      1.0000 0.44594  0.87993  0.01002  Biso   1.000  O
  O24      1.0000 0.43708  0.86660  0.26156  Biso   1.000  O
  Hf13     1.0000 0.28094  0.52194  0.64810  Biso   1.000  Hf
  Hf14     1.0000 0.27128  0.73028  0.89713  Biso   1.000  Hf
  Hf15     1.0000 0.72149  0.77033  0.60563  Biso   1.000  Hf
  Hf16     1.0000 0.71912  0.97951  0.85464  Biso   1.000  Hf
  O25      1.0000 0.06047  0.66165  0.57942  Biso   1.000  O
  O26      1.0000 0.06621  0.58573  0.82962  Biso   1.000  O
  O27      1.0000 0.93189  0.91524  0.67326  Biso   1.000  O
  O28      1.0000 0.92858  0.83684  0.92316  Biso   1.000  O
  O29      1.0000 0.55052  0.62804  0.74093  Biso   1.000  O
  O30      1.0000 0.54645  0.62423  0.99073  Biso   1.000  O
  O31      1.0000 0.44189  0.87535  0.51174  Biso   1.000  O
  O32      1.0000 0.44800  0.87183  0.76091  Biso   1.000  O
  Zn1      1.0000 0.86242  0.23421  0.31423  Biso   1.000  Zn
