data_image0
_cell_length_a       5.00523
_cell_length_b       10.2047
_cell_length_c       10.0105
_cell_angle_alpha    90.0001
_cell_angle_beta     90.0003
_cell_angle_gamma    89.9997

_symmetry_space_group_name_H-M    "P 1"
_symmetry_int_tables_number       1

loop_
  _symmetry_equiv_pos_as_xyz
  'x, y, z'

loop_
  _atom_site_label
  _atom_site_occupancy
  _atom_site_fract_x
  _atom_site_fract_y
  _atom_site_fract_z
  _atom_site_thermal_displace_type
  _atom_site_B_iso_or_equiv
  _atom_site_type_symbol
  Zr1      1.0000 0.24981  0.00005  0.12491  Biso   1.000  Zr
  Hf1      1.0000 0.24978  0.25015  0.37496  Biso   1.000  Hf
  Hf2      1.0000 0.74981  0.25029  0.12491  Biso   1.000  Hf
  Hf3      1.0000 0.74982  0.00005  0.37517  Biso   1.000  Hf
  Hf4      1.0000 0.00017  0.14808  0.00002  Biso   1.000  Hf
  Hf5      1.0000 0.99838  0.10289  0.25072  Biso   1.000  Hf
  Hf6      1.0000 0.00072  0.35240  0.24958  Biso   1.000  Hf
  Hf7      1.0000 0.99923  0.39789  0.99981  Biso   1.000  Hf
  Hf8      1.0000 0.49946  0.14808  0.24980  Biso   1.000  Hf
  Hf9      1.0000 0.50125  0.10288  0.99910  Biso   1.000  Hf
  Hf10     1.0000 0.49890  0.35240  0.00025  Biso   1.000  Hf
  Hf11     1.0000 0.50038  0.39789  0.25002  Biso   1.000  Hf
  Hf12     1.0000 0.24982  0.00005  0.62491  Biso   1.000  Hf
  Hf13     1.0000 0.24984  0.25015  0.87486  Biso   1.000  Hf
  Hf14     1.0000 0.74981  0.25001  0.62491  Biso   1.000  Hf
  Hf15     1.0000 0.74982  0.00005  0.87465  Biso   1.000  Hf
  Hf16     1.0000 0.00089  0.14796  0.50053  Biso   1.000  Hf
  Hf17     1.0000 0.99935  0.10216  0.75008  Biso   1.000  Hf
  Hf18     1.0000 0.00003  0.35220  0.74968  Biso   1.000  Hf
  Hf19     1.0000 0.99978  0.39794  0.49971  Biso   1.000  Hf
  Hf20     1.0000 0.49873  0.14796  0.74929  Biso   1.000  Hf
  Hf21     1.0000 0.50028  0.10216  0.49974  Biso   1.000  Hf
  Hf22     1.0000 0.49957  0.35220  0.50015  Biso   1.000  Hf
  Hf23     1.0000 0.49983  0.39794  0.75012  Biso   1.000  Hf
  Hf24     1.0000 0.24981  0.50005  0.12491  Biso   1.000  Hf
  Hf25     1.0000 0.24984  0.74996  0.37496  Biso   1.000  Hf
  Hf26     1.0000 0.74981  0.74982  0.12491  Biso   1.000  Hf
  Hf27     1.0000 0.74981  0.50006  0.37492  Biso   1.000  Hf
  Hf28     1.0000 0.00072  0.64771  0.00025  Biso   1.000  Hf
  Hf29     1.0000 0.99924  0.60222  0.25001  Biso   1.000  Hf
  Hf30     1.0000 0.00017  0.85203  0.24980  Biso   1.000  Hf
  Hf31     1.0000 0.99838  0.89722  0.99910  Biso   1.000  Hf
  Hf32     1.0000 0.49890  0.64771  0.24957  Biso   1.000  Hf
  Hf33     1.0000 0.50039  0.60222  0.99981  Biso   1.000  Hf
  Hf34     1.0000 0.49946  0.85203  0.00002  Biso   1.000  Hf
  Hf35     1.0000 0.50125  0.89722  0.25072  Biso   1.000  Hf
  Hf36     1.0000 0.24981  0.50005  0.62491  Biso   1.000  Hf
  Hf37     1.0000 0.24978  0.74996  0.87486  Biso   1.000  Hf
  Hf38     1.0000 0.74981  0.75010  0.62491  Biso   1.000  Hf
  Hf39     1.0000 0.74982  0.50005  0.87490  Biso   1.000  Hf
  Hf40     1.0000 0.00004  0.64791  0.50014  Biso   1.000  Hf
  Hf41     1.0000 0.99978  0.60217  0.75012  Biso   1.000  Hf
  Hf42     1.0000 0.00090  0.85214  0.74929  Biso   1.000  Hf
  Hf43     1.0000 0.99935  0.89795  0.49974  Biso   1.000  Hf
  Hf44     1.0000 0.49959  0.64791  0.74967  Biso   1.000  Hf
  Hf45     1.0000 0.49984  0.60217  0.49970  Biso   1.000  Hf
  Hf46     1.0000 0.49873  0.85215  0.50053  Biso   1.000  Hf
  Hf47     1.0000 0.50029  0.89794  0.75007  Biso   1.000  Hf
