data_image0
_cell_length_a       10.1063
_cell_length_b       10.2862
_cell_length_c       5.2198
_cell_angle_alpha    90.0105
_cell_angle_beta     80.4047
_cell_angle_gamma    90.0136

_symmetry_space_group_name_H-M    "P 1"
_symmetry_int_tables_number       1

loop_
  _symmetry_equiv_pos_as_xyz
  'x, y, z'

loop_
  _atom_site_label
  _atom_site_occupancy
  _atom_site_fract_x
  _atom_site_fract_y
  _atom_site_fract_z
  _atom_site_thermal_displace_type
  _atom_site_B_iso_or_equiv
  _atom_site_type_symbol
  Zr1      1.0000 0.13869  0.02139  0.29084  Biso   1.000  Zr
  Hf1      1.0000 0.13891  0.22896  0.79151  Biso   1.000  Hf
  Hf2      1.0000 0.36118  0.27137  0.20819  Biso   1.000  Hf
  Hf3      1.0000 0.36111  0.47853  0.70822  Biso   1.000  Hf
  O1       1.0000 0.03628  0.17148  0.16215  Biso   1.000  O
  O2       1.0000 0.03587  0.07998  0.66412  Biso   1.000  O
  O3       1.0000 0.46373  0.42000  0.33842  Biso   1.000  O
  O4       1.0000 0.46384  0.33001  0.83836  Biso   1.000  O
  O5       1.0000 0.27717  0.12972  0.48217  Biso   1.000  O
  O6       1.0000 0.27723  0.12121  0.98016  Biso   1.000  O
  O7       1.0000 0.22329  0.37923  0.01855  Biso   1.000  O
  O8       1.0000 0.22312  0.37090  0.51843  Biso   1.000  O
  Hf4      1.0000 0.13881  0.52135  0.29149  Biso   1.000  Hf
  Hf5      1.0000 0.13894  0.72832  0.79159  Biso   1.000  Hf
  Hf6      1.0000 0.36134  0.77113  0.20840  Biso   1.000  Hf
  Hf7      1.0000 0.36136  0.97842  0.70824  Biso   1.000  Hf
  O9       1.0000 0.03633  0.67035  0.16196  Biso   1.000  O
  O10      1.0000 0.03623  0.57978  0.66160  Biso   1.000  O
  O11      1.0000 0.46377  0.92016  0.33819  Biso   1.000  O
  O12      1.0000 0.46418  0.83001  0.83862  Biso   1.000  O
  O13      1.0000 0.27674  0.62884  0.48102  Biso   1.000  O
  O14      1.0000 0.27672  0.62058  0.98119  Biso   1.000  O
  O15      1.0000 0.22409  0.87838  0.01772  Biso   1.000  O
  O16      1.0000 0.22410  0.86997  0.51938  Biso   1.000  O
  Hf8      1.0000 0.63893  0.02139  0.29173  Biso   1.000  Hf
  Hf9      1.0000 0.63882  0.22857  0.79165  Biso   1.000  Hf
  Hf10     1.0000 0.86073  0.27168  0.20829  Biso   1.000  Hf
  Hf11     1.0000 0.86106  0.47861  0.70815  Biso   1.000  Hf
  O17      1.0000 0.53626  0.17006  0.16160  Biso   1.000  O
  O18      1.0000 0.53649  0.07981  0.66155  Biso   1.000  O
  O19      1.0000 0.96339  0.42049  0.33792  Biso   1.000  O
  O20      1.0000 0.96350  0.33000  0.83791  Biso   1.000  O
  O21      1.0000 0.77684  0.12927  0.48131  Biso   1.000  O
  O22      1.0000 0.77658  0.12083  0.98152  Biso   1.000  O
  O23      1.0000 0.72312  0.37931  0.01859  Biso   1.000  O
  O24      1.0000 0.72312  0.37078  0.51868  Biso   1.000  O
  Hf12     1.0000 0.63878  0.52132  0.29164  Biso   1.000  Hf
  Hf13     1.0000 0.63887  0.72855  0.79147  Biso   1.000  Hf
  Hf14     1.0000 0.86082  0.77105  0.20818  Biso   1.000  Hf
  Hf15     1.0000 0.86090  0.97854  0.70887  Biso   1.000  Hf
  O25      1.0000 0.53641  0.66999  0.16158  Biso   1.000  O
  O26      1.0000 0.53621  0.57992  0.66149  Biso   1.000  O
  O27      1.0000 0.96271  0.92015  0.33909  Biso   1.000  O
  O28      1.0000 0.96381  0.82988  0.83846  Biso   1.000  O
  O29      1.0000 0.77663  0.62914  0.48111  Biso   1.000  O
  O30      1.0000 0.77674  0.62076  0.98114  Biso   1.000  O
  O31      1.0000 0.72335  0.87918  0.01876  Biso   1.000  O
  O32      1.0000 0.72292  0.87063  0.51879  Biso   1.000  O
