data_image0
_cell_length_a       10.0937
_cell_length_b       10.3019
_cell_length_c       5.10766
_cell_angle_alpha    90.5075
_cell_angle_beta     91.3806
_cell_angle_gamma    89.4077

_symmetry_space_group_name_H-M    "P 1"
_symmetry_int_tables_number       1

loop_
  _symmetry_equiv_pos_as_xyz
  'x, y, z'

loop_
  _atom_site_label
  _atom_site_occupancy
  _atom_site_fract_x
  _atom_site_fract_y
  _atom_site_fract_z
  _atom_site_thermal_displace_type
  _atom_site_B_iso_or_equiv
  _atom_site_type_symbol
  Hf1      1.0000 0.11103  0.97972  0.25163  Biso   1.000  Hf
  Hf2      1.0000 0.12601  0.24173  0.69836  Biso   1.000  Hf
  Hf3      1.0000 0.38845  0.26845  0.20575  Biso   1.000  Hf
  Hf4      1.0000 0.36691  0.48946  0.72856  Biso   1.000  Hf
  Hf5      1.0000 0.99554  0.13553  0.44475  Biso   1.000  Hf
  Hf6      1.0000 0.02576  0.08694  0.93841  Biso   1.000  Hf
  Hf7      1.0000 0.47416  0.43629  0.38293  Biso   1.000  Hf
  Hf8      1.0000 0.47683  0.33231  0.87708  Biso   1.000  Hf
  Hf9      1.0000 0.24952  0.11253  0.44801  Biso   1.000  Hf
  Hf10     1.0000 0.27267  0.14954  0.94015  Biso   1.000  Hf
  Hf11     1.0000 0.23272  0.39172  0.96068  Biso   1.000  Hf
  Hf12     1.0000 0.24671  0.36588  0.46128  Biso   1.000  Hf
  Hf13     1.0000 0.14034  0.52296  0.23275  Biso   1.000  Hf
  Hf14     1.0000 0.12300  0.74297  0.73986  Biso   1.000  Hf
  Hf15     1.0000 0.37081  0.76866  0.23387  Biso   1.000  Hf
  Hf16     1.0000 0.36014  0.99492  0.73362  Biso   1.000  Hf
  Hf17     1.0000 0.02401  0.66016  0.41603  Biso   1.000  Hf
  Hf18     1.0000 0.02669  0.58156  0.90377  Biso   1.000  Hf
  Hf19     1.0000 0.46633  0.93441  0.39903  Biso   1.000  Hf
  Hf20     1.0000 0.47560  0.83192  0.90051  Biso   1.000  Hf
  Hf21     1.0000 0.27409  0.61976  0.47665  Biso   1.000  Hf
  Hf22     1.0000 0.26661  0.64218  0.97673  Biso   1.000  Hf
  Hf23     1.0000 0.23900  0.89327  0.98445  Biso   1.000  Hf
  Hf24     1.0000 0.23897  0.85765  0.49096  Biso   1.000  Hf
  Hf25     1.0000 0.62715  0.01028  0.24456  Biso   1.000  Hf
  Hf26     1.0000 0.63353  0.23407  0.74547  Biso   1.000  Hf
  Hf27     1.0000 0.85134  0.25930  0.25707  Biso   1.000  Hf
  Hf28     1.0000 0.86959  0.48091  0.75492  Biso   1.000  Hf
  Hf29     1.0000 0.53190  0.17775  0.40859  Biso   1.000  Hf
  Hf30     1.0000 0.52387  0.08061  0.91150  Biso   1.000  Hf
  Hf31     1.0000 0.99368  0.39457  0.43358  Biso   1.000  Hf
  Hf32     1.0000 0.96706  0.32642  0.92469  Biso   1.000  Hf
  Hf33     1.0000 0.75700  0.10816  0.50444  Biso   1.000  Hf
  Hf34     1.0000 0.76139  0.13330  0.99983  Biso   1.000  Hf
  Hf35     1.0000 0.73204  0.38643  0.99907  Biso   1.000  Hf
  Hf36     1.0000 0.73396  0.36758  0.50325  Biso   1.000  Hf
  Hf37     1.0000 0.63281  0.51973  0.24034  Biso   1.000  Hf
  Hf38     1.0000 0.63241  0.73895  0.74780  Biso   1.000  Hf
  Hf39     1.0000 0.86275  0.75914  0.26625  Biso   1.000  Hf
  Hf40     1.0000 0.87150  0.99265  0.76426  Biso   1.000  Hf
  Hf41     1.0000 0.53755  0.68715  0.39126  Biso   1.000  Hf
  Hf42     1.0000 0.53121  0.57845  0.89185  Biso   1.000  Hf
  Hf43     1.0000 0.98529  0.88984  0.50625  Biso   1.000  Hf
  Hf44     1.0000 0.99129  0.83923  0.99670  Biso   1.000  Hf
  Hf45     1.0000 0.77016  0.61142  0.49438  Biso   1.000  Hf
  Hf46     1.0000 0.77033  0.63630  0.99231  Biso   1.000  Hf
  Hf47     1.0000 0.74099  0.88551  0.99669  Biso   1.000  Hf
  Hf48     1.0000 0.73390  0.86501  0.49591  Biso   1.000  Hf
  Zr1      1.0000 0.12069  0.24786  0.19667  Biso   1.000  Zr
