data_image0
_cell_length_a       10.1194
_cell_length_b       10.2809
_cell_length_c       10.1194
_cell_angle_alpha    90
_cell_angle_beta     90
_cell_angle_gamma    90

_symmetry_space_group_name_H-M    "P 1"
_symmetry_int_tables_number       1

loop_
  _symmetry_equiv_pos_as_xyz
  'x, y, z'

loop_
  _atom_site_label
  _atom_site_occupancy
  _atom_site_fract_x
  _atom_site_fract_y
  _atom_site_fract_z
  _atom_site_thermal_displace_type
  _atom_site_B_iso_or_equiv
  _atom_site_type_symbol
  Zr1      1.0000 0.12540  0.98133  0.12540  Biso   1.000  Zr
  Zr2      1.0000 0.12540  0.25007  0.38998  Biso   1.000  Zr
  Zr3      1.0000 0.38998  0.25008  0.12540  Biso   1.000  Zr
  Zr4      1.0000 0.37634  0.00377  0.37634  Biso   1.000  Zr
  Zr5      1.0000 0.97996  0.15554  0.97996  Biso   1.000  Zr
  Zr6      1.0000 0.00313  0.09131  0.24767  Biso   1.000  Zr
  Zr7      1.0000 0.97996  0.34461  0.27083  Biso   1.000  Zr
  Zr8      1.0000 0.00313  0.40884  0.00312  Biso   1.000  Zr
  Zr9      1.0000 0.27083  0.15554  0.27083  Biso   1.000  Zr
  Zr10     1.0000 0.24767  0.09131  0.00312  Biso   1.000  Zr
  Zr11     1.0000 0.27083  0.34461  0.97996  Biso   1.000  Zr
  Zr12     1.0000 0.24767  0.40884  0.24767  Biso   1.000  Zr
  Zr13     1.0000 0.12540  0.99594  0.62540  Biso   1.000  Zr
  Zr14     1.0000 0.12540  0.25008  0.86081  Biso   1.000  Zr
  Zr15     1.0000 0.37665  0.25008  0.62540  Biso   1.000  Zr
  Zr16     1.0000 0.37547  0.99965  0.87533  Biso   1.000  Zr
  Zr17     1.0000 0.99619  0.14415  0.49899  Biso   1.000  Zr
  Zr18     1.0000 0.00228  0.10394  0.74382  Biso   1.000  Zr
  Zr19     1.0000 0.99619  0.35600  0.75180  Biso   1.000  Zr
  Zr20     1.0000 0.00228  0.39621  0.50698  Biso   1.000  Zr
  Zr21     1.0000 0.25460  0.14415  0.75180  Biso   1.000  Zr
  Zr22     1.0000 0.24851  0.10394  0.50698  Biso   1.000  Zr
  Zr23     1.0000 0.25460  0.35600  0.49899  Biso   1.000  Zr
  Zr24     1.0000 0.24851  0.39621  0.74382  Biso   1.000  Zr
  Zr25     1.0000 0.12540  0.51882  0.12540  Biso   1.000  Zr
  Zr26     1.0000 0.12540  0.75008  0.37981  Biso   1.000  Zr
  Zr27     1.0000 0.37981  0.75008  0.12540  Biso   1.000  Zr
  Zr28     1.0000 0.37546  0.50050  0.37546  Biso   1.000  Zr
  Zr29     1.0000 0.00216  0.65407  0.00216  Biso   1.000  Zr
  Zr30     1.0000 0.99786  0.60171  0.25294  Biso   1.000  Zr
  Zr31     1.0000 0.00216  0.84608  0.24863  Biso   1.000  Zr
  Zr32     1.0000 0.99786  0.89845  0.99786  Biso   1.000  Zr
  Zr33     1.0000 0.24863  0.65407  0.24863  Biso   1.000  Zr
  Zr34     1.0000 0.25294  0.60171  0.99786  Biso   1.000  Zr
  Zr35     1.0000 0.24863  0.84608  0.00216  Biso   1.000  Zr
  Zr36     1.0000 0.25294  0.89845  0.25294  Biso   1.000  Zr
  Zr37     1.0000 0.12540  0.50421  0.62540  Biso   1.000  Zr
  Zr38     1.0000 0.12540  0.75008  0.87099  Biso   1.000  Zr
  Zr39     1.0000 0.37709  0.75007  0.62540  Biso   1.000  Zr
  Zr40     1.0000 0.37634  0.49638  0.87445  Biso   1.000  Zr
  Zr41     1.0000 0.99820  0.64584  0.50153  Biso   1.000  Zr
  Zr42     1.0000 0.00276  0.60495  0.75249  Biso   1.000  Zr
  Zr43     1.0000 0.99820  0.85431  0.74926  Biso   1.000  Zr
  Zr44     1.0000 0.00276  0.89520  0.49830  Biso   1.000  Zr
  Zr45     1.0000 0.25259  0.64584  0.74926  Biso   1.000  Zr
  Zr46     1.0000 0.24803  0.60495  0.49830  Biso   1.000  Zr
  Zr47     1.0000 0.25259  0.85431  0.50153  Biso   1.000  Zr
  Zr48     1.0000 0.24803  0.89520  0.75249  Biso   1.000  Zr
  Zr49     1.0000 0.62540  0.99594  0.12540  Biso   1.000  Zr
  Zr50     1.0000 0.62540  0.25007  0.37665  Biso   1.000  Zr
  Zr51     1.0000 0.86081  0.25008  0.12540  Biso   1.000  Zr
  Zr52     1.0000 0.87533  0.99965  0.37547  Biso   1.000  Zr
  Zr53     1.0000 0.49899  0.14415  0.99620  Biso   1.000  Zr
  Zr54     1.0000 0.50698  0.10394  0.24851  Biso   1.000  Zr
  Zr55     1.0000 0.49899  0.35600  0.25460  Biso   1.000  Zr
  Zr56     1.0000 0.50698  0.39621  0.00228  Biso   1.000  Zr
  Zr57     1.0000 0.75181  0.14415  0.25460  Biso   1.000  Zr
  Zr58     1.0000 0.74382  0.10394  0.00228  Biso   1.000  Zr
  Zr59     1.0000 0.75181  0.35600  0.99619  Biso   1.000  Zr
  Zr60     1.0000 0.74382  0.39621  0.24851  Biso   1.000  Zr
  Zr61     1.0000 0.62540  0.99958  0.62540  Biso   1.000  Zr
  Zr62     1.0000 0.62540  0.25007  0.87414  Biso   1.000  Zr
  Zr63     1.0000 0.87414  0.25008  0.62540  Biso   1.000  Zr
  Zr64     1.0000 0.87445  0.00377  0.87445  Biso   1.000  Zr
  Zr65     1.0000 0.49862  0.14752  0.49863  Biso   1.000  Zr
  Zr66     1.0000 0.50165  0.10297  0.74914  Biso   1.000  Zr
  Zr67     1.0000 0.49863  0.35263  0.75217  Biso   1.000  Zr
  Zr68     1.0000 0.50165  0.39718  0.50165  Biso   1.000  Zr
  Zr69     1.0000 0.75217  0.14752  0.75217  Biso   1.000  Zr
  Zr70     1.0000 0.74914  0.10297  0.50165  Biso   1.000  Zr
  Zr71     1.0000 0.75217  0.35263  0.49862  Biso   1.000  Zr
  Zr72     1.0000 0.74914  0.39718  0.74914  Biso   1.000  Zr
  Zr73     1.0000 0.62540  0.50421  0.12540  Biso   1.000  Zr
  Zr74     1.0000 0.62540  0.75008  0.37709  Biso   1.000  Zr
  Zr75     1.0000 0.87099  0.75008  0.12540  Biso   1.000  Zr
  Zr76     1.0000 0.87445  0.49638  0.37634  Biso   1.000  Zr
  Zr77     1.0000 0.50153  0.64584  0.99820  Biso   1.000  Zr
  Zr78     1.0000 0.49830  0.60495  0.24803  Biso   1.000  Zr
  Zr79     1.0000 0.50153  0.85431  0.25259  Biso   1.000  Zr
  Zr80     1.0000 0.49830  0.89520  0.00276  Biso   1.000  Zr
  Zr81     1.0000 0.74926  0.64584  0.25259  Biso   1.000  Zr
  Zr82     1.0000 0.75249  0.60495  0.00276  Biso   1.000  Zr
  Zr83     1.0000 0.74926  0.85431  0.99820  Biso   1.000  Zr
  Zr84     1.0000 0.75249  0.89520  0.24803  Biso   1.000  Zr
  Zr85     1.0000 0.62540  0.50057  0.62540  Biso   1.000  Zr
  Zr86     1.0000 0.62540  0.75008  0.87370  Biso   1.000  Zr
  Zr87     1.0000 0.87370  0.75008  0.62540  Biso   1.000  Zr
  Zr88     1.0000 0.87533  0.50050  0.87533  Biso   1.000  Zr
  Zr89     1.0000 0.49774  0.64693  0.49774  Biso   1.000  Zr
  Zr90     1.0000 0.50256  0.60340  0.74824  Biso   1.000  Zr
  Zr91     1.0000 0.49774  0.85322  0.75305  Biso   1.000  Zr
  Zr92     1.0000 0.50256  0.89675  0.50256  Biso   1.000  Zr
  Zr93     1.0000 0.75305  0.64693  0.75306  Biso   1.000  Zr
  Zr94     1.0000 0.74824  0.60340  0.50256  Biso   1.000  Zr
  Zr95     1.0000 0.75305  0.85322  0.49774  Biso   1.000  Zr
  Zr96     1.0000 0.74824  0.89675  0.74824  Biso   1.000  Zr
  Ag1      1.0000 0.12540  0.25008  0.12540  Biso   1.000  Ag
