data_image0
_cell_length_a       10.081
_cell_length_b       5.08791
_cell_length_c       10.0802
_cell_angle_alpha    90.5221
_cell_angle_beta     89.684
_cell_angle_gamma    91.509

_symmetry_space_group_name_H-M    "P 1"
_symmetry_int_tables_number       1

loop_
  _symmetry_equiv_pos_as_xyz
  'x, y, z'

loop_
  _atom_site_label
  _atom_site_occupancy
  _atom_site_fract_x
  _atom_site_fract_y
  _atom_site_fract_z
  _atom_site_thermal_displace_type
  _atom_site_B_iso_or_equiv
  _atom_site_type_symbol
  Ag1      1.0000 0.12550  0.99992  0.12583  Biso   1.000  Ag
  Zr1      1.0000 0.12881  0.49474  0.37326  Biso   1.000  Zr
  Zr2      1.0000 0.37443  0.48657  0.12899  Biso   1.000  Zr
  Zr3      1.0000 0.37561  0.98146  0.37898  Biso   1.000  Zr
  Zr4      1.0000 0.97980  0.32688  0.98393  Biso   1.000  Zr
  Zr5      1.0000 0.99252  0.25092  0.24880  Biso   1.000  Zr
  Zr6      1.0000 0.01308  0.74281  0.24716  Biso   1.000  Zr
  Zr7      1.0000 0.00708  0.81337  0.99853  Biso   1.000  Zr
  Zr8      1.0000 0.24313  0.22859  0.24626  Biso   1.000  Zr
  Zr9      1.0000 0.23700  0.21202  0.99651  Biso   1.000  Zr
  Zr10     1.0000 0.25742  0.70203  0.00243  Biso   1.000  Zr
  Zr11     1.0000 0.26880  0.71811  0.26652  Biso   1.000  Zr
  Zr12     1.0000 0.12678  0.99869  0.62779  Biso   1.000  Zr
  Zr13     1.0000 0.12372  0.50696  0.87250  Biso   1.000  Zr
  Zr14     1.0000 0.37629  0.49549  0.62511  Biso   1.000  Zr
  Zr15     1.0000 0.37702  0.99187  0.88021  Biso   1.000  Zr
  Zr16     1.0000 0.00166  0.28392  0.50117  Biso   1.000  Zr
  Zr17     1.0000 0.00105  0.21602  0.74522  Biso   1.000  Zr
  Zr18     1.0000 0.99671  0.71873  0.75044  Biso   1.000  Zr
  Zr19     1.0000 0.00146  0.78334  0.49598  Biso   1.000  Zr
  Zr20     1.0000 0.25131  0.28973  0.75039  Biso   1.000  Zr
  Zr21     1.0000 0.25212  0.21171  0.49540  Biso   1.000  Zr
  Zr22     1.0000 0.24723  0.71037  0.51205  Biso   1.000  Zr
  Zr23     1.0000 0.24613  0.79311  0.75570  Biso   1.000  Zr
  Zr24     1.0000 0.62675  0.99851  0.12887  Biso   1.000  Zr
  Zr25     1.0000 0.62600  0.49725  0.37693  Biso   1.000  Zr
  Zr26     1.0000 0.87514  0.51718  0.12462  Biso   1.000  Zr
  Zr27     1.0000 0.87989  0.00700  0.37850  Biso   1.000  Zr
  Zr28     1.0000 0.49337  0.28056  0.99985  Biso   1.000  Zr
  Zr29     1.0000 0.49550  0.20387  0.25284  Biso   1.000  Zr
  Zr30     1.0000 0.51263  0.70230  0.24586  Biso   1.000  Zr
  Zr31     1.0000 0.50355  0.78205  0.99983  Biso   1.000  Zr
  Zr32     1.0000 0.74661  0.29773  0.24753  Biso   1.000  Zr
  Zr33     1.0000 0.74015  0.21882  0.99770  Biso   1.000  Zr
  Zr34     1.0000 0.75383  0.72178  0.99813  Biso   1.000  Zr
  Zr35     1.0000 0.75919  0.79927  0.24860  Biso   1.000  Zr
  Zr36     1.0000 0.62596  0.00039  0.62802  Biso   1.000  Zr
  Zr37     1.0000 0.62400  0.50122  0.87644  Biso   1.000  Zr
  Zr38     1.0000 0.87582  0.50294  0.62334  Biso   1.000  Zr
  Zr39     1.0000 0.87277  0.01873  0.87569  Biso   1.000  Zr
  Zr40     1.0000 0.50261  0.28399  0.50377  Biso   1.000  Zr
  Zr41     1.0000 0.50178  0.20854  0.75203  Biso   1.000  Zr
  Zr42     1.0000 0.49686  0.71031  0.75238  Biso   1.000  Zr
  Zr43     1.0000 0.50144  0.78120  0.50008  Biso   1.000  Zr
  Zr44     1.0000 0.75145  0.29278  0.75022  Biso   1.000  Zr
  Zr45     1.0000 0.75101  0.21204  0.49928  Biso   1.000  Zr
  Zr46     1.0000 0.75216  0.71302  0.49983  Biso   1.000  Zr
  Zr47     1.0000 0.74682  0.79179  0.74975  Biso   1.000  Zr
