data_image0
_cell_length_a       10.13
_cell_length_b       10.4878
_cell_length_c       5.10769
_cell_angle_alpha    90.0494
_cell_angle_beta     88.1857
_cell_angle_gamma    90.4206

_symmetry_space_group_name_H-M    "P 1"
_symmetry_int_tables_number       1

loop_
  _symmetry_equiv_pos_as_xyz
  'x, y, z'

loop_
  _atom_site_label
  _atom_site_occupancy
  _atom_site_fract_x
  _atom_site_fract_y
  _atom_site_fract_z
  _atom_site_thermal_displace_type
  _atom_site_B_iso_or_equiv
  _atom_site_type_symbol
  Zr1      1.0000 0.14256  0.01072  0.27448  Biso   1.000  Zr
  Zr2      1.0000 0.14107  0.22085  0.80551  Biso   1.000  Zr
  Zr3      1.0000 0.37029  0.26776  0.25544  Biso   1.000  Zr
  Zr4      1.0000 0.36997  0.48733  0.74645  Biso   1.000  Zr
  Zr5      1.0000 0.02534  0.12137  0.54717  Biso   1.000  Zr
  Zr6      1.0000 0.01809  0.07146  0.99718  Biso   1.000  Zr
  Zr7      1.0000 0.46774  0.43250  0.38958  Biso   1.000  Zr
  Zr8      1.0000 0.46567  0.31643  0.88200  Biso   1.000  Zr
  Zr9      1.0000 0.27572  0.11922  0.51724  Biso   1.000  Zr
  Zr10     1.0000 0.28214  0.12186  0.01360  Biso   1.000  Zr
  Zr11     1.0000 0.24389  0.38996  0.01118  Biso   1.000  Zr
  Zr12     1.0000 0.23512  0.36509  0.52307  Biso   1.000  Zr
  Zr13     1.0000 0.13562  0.52872  0.24154  Biso   1.000  Zr
  Zr14     1.0000 0.13414  0.73609  0.74675  Biso   1.000  Zr
  Zr15     1.0000 0.37164  0.76457  0.24291  Biso   1.000  Zr
  Zr16     1.0000 0.37094  0.98025  0.75046  Biso   1.000  Zr
  Zr17     1.0000 0.03371  0.68076  0.39495  Biso   1.000  Zr
  Zr18     1.0000 0.03483  0.57047  0.88878  Biso   1.000  Zr
  Zr19     1.0000 0.46822  0.93207  0.38142  Biso   1.000  Zr
  Zr20     1.0000 0.47196  0.81789  0.89059  Biso   1.000  Zr
  Zr21     1.0000 0.27172  0.61698  0.48938  Biso   1.000  Zr
  Zr22     1.0000 0.26871  0.63748  0.98864  Biso   1.000  Zr
  Zr23     1.0000 0.23289  0.88045  0.99837  Biso   1.000  Zr
  Zr24     1.0000 0.23887  0.86370  0.49989  Biso   1.000  Zr
  Zr25     1.0000 0.63554  0.01133  0.22810  Biso   1.000  Zr
  Zr26     1.0000 0.62579  0.23281  0.72006  Biso   1.000  Zr
  Zr27     1.0000 0.83498  0.26858  0.19806  Biso   1.000  Zr
  Zr28     1.0000 0.86970  0.48694  0.73281  Biso   1.000  Zr
  Zr29     1.0000 0.53795  0.18302  0.36643  Biso   1.000  Zr
  Zr30     1.0000 0.53636  0.06444  0.87125  Biso   1.000  Zr
  Zr31     1.0000 0.95614  0.44061  0.36573  Biso   1.000  Zr
  Zr32     1.0000 0.96228  0.32357  0.86535  Biso   1.000  Zr
  Zr33     1.0000 0.76921  0.11602  0.45596  Biso   1.000  Zr
  Zr34     1.0000 0.76005  0.13707  0.95319  Biso   1.000  Zr
  Zr35     1.0000 0.72341  0.38627  0.97202  Biso   1.000  Zr
  Zr36     1.0000 0.72400  0.37123  0.47592  Biso   1.000  Zr
  Zr37     1.0000 0.63313  0.52207  0.24294  Biso   1.000  Zr
  Zr38     1.0000 0.64093  0.73747  0.74380  Biso   1.000  Zr
  Zr39     1.0000 0.86741  0.76721  0.23860  Biso   1.000  Zr
  Zr40     1.0000 0.88388  0.99257  0.72310  Biso   1.000  Zr
  Zr41     1.0000 0.53551  0.68388  0.39370  Biso   1.000  Zr
  Zr42     1.0000 0.53341  0.57108  0.89502  Biso   1.000  Zr
  Zr43     1.0000 0.97518  0.91130  0.39928  Biso   1.000  Zr
  Zr44     1.0000 0.97057  0.82349  0.88754  Biso   1.000  Zr
  Zr45     1.0000 0.76868  0.61925  0.48573  Biso   1.000  Zr
  Zr46     1.0000 0.77009  0.63420  0.98366  Biso   1.000  Zr
  Zr47     1.0000 0.73751  0.88457  0.98578  Biso   1.000  Zr
  Zr48     1.0000 0.73373  0.86928  0.48626  Biso   1.000  Zr
  Ag1      1.0000 0.07767  0.27686  0.30867  Biso   1.000  Ag
