data_image0
_cell_length_a       10.1826
_cell_length_b       10.3
_cell_length_c       10.5033
_cell_angle_alpha    90.0585
_cell_angle_beta     80.5077
_cell_angle_gamma    89.7531

_symmetry_space_group_name_H-M    "P 1"
_symmetry_int_tables_number       1

loop_
  _symmetry_equiv_pos_as_xyz
  'x, y, z'

loop_
  _atom_site_label
  _atom_site_occupancy
  _atom_site_fract_x
  _atom_site_fract_y
  _atom_site_fract_z
  _atom_site_thermal_displace_type
  _atom_site_B_iso_or_equiv
  _atom_site_type_symbol
  Al1      1.0000 0.12430  0.01007  0.16375  Biso   1.000  Al
  Zr1      1.0000 0.13758  0.02109  0.64250  Biso   1.000  Zr
  Zr2      1.0000 0.14031  0.52240  0.14524  Biso   1.000  Zr
  Zr3      1.0000 0.14007  0.52117  0.64584  Biso   1.000  Zr
  Zr4      1.0000 0.63874  0.02201  0.14555  Biso   1.000  Zr
  Zr5      1.0000 0.63855  0.02160  0.64590  Biso   1.000  Zr
  Zr6      1.0000 0.63816  0.51998  0.14480  Biso   1.000  Zr
  Zr7      1.0000 0.63868  0.52118  0.64644  Biso   1.000  Zr
  Zr8      1.0000 0.13729  0.22580  0.38890  Biso   1.000  Zr
  Zr9      1.0000 0.14250  0.22401  0.89566  Biso   1.000  Zr
  Zr10     1.0000 0.13862  0.72881  0.39517  Biso   1.000  Zr
  Zr11     1.0000 0.13914  0.73324  0.89643  Biso   1.000  Zr
  Zr12     1.0000 0.63918  0.22855  0.39489  Biso   1.000  Zr
  Zr13     1.0000 0.64050  0.23036  0.89683  Biso   1.000  Zr
  Zr14     1.0000 0.63772  0.72893  0.39530  Biso   1.000  Zr
  Zr15     1.0000 0.63721  0.72910  0.89752  Biso   1.000  Zr
  Zr16     1.0000 0.35750  0.26700  0.10345  Biso   1.000  Zr
  Zr17     1.0000 0.35984  0.27180  0.60312  Biso   1.000  Zr
  Zr18     1.0000 0.35547  0.77721  0.10462  Biso   1.000  Zr
  Zr19     1.0000 0.36086  0.77256  0.60492  Biso   1.000  Zr
  Zr20     1.0000 0.87032  0.26495  0.10596  Biso   1.000  Zr
  Zr21     1.0000 0.86133  0.27147  0.60494  Biso   1.000  Zr
  Zr22     1.0000 0.86153  0.77304  0.10622  Biso   1.000  Zr
  Zr23     1.0000 0.85956  0.76966  0.60615  Biso   1.000  Zr
  Zr24     1.0000 0.36088  0.47855  0.35394  Biso   1.000  Zr
  Zr25     1.0000 0.36031  0.47986  0.85525  Biso   1.000  Zr
  Zr26     1.0000 0.35744  0.97960  0.35043  Biso   1.000  Zr
  Zr27     1.0000 0.36025  0.98291  0.85619  Biso   1.000  Zr
  Zr28     1.0000 0.86029  0.47872  0.35458  Biso   1.000  Zr
  Zr29     1.0000 0.86336  0.47784  0.85752  Biso   1.000  Zr
  Zr30     1.0000 0.86036  0.97753  0.35565  Biso   1.000  Zr
  Zr31     1.0000 0.86048  0.97911  0.85461  Biso   1.000  Zr
  O1       1.0000 0.04639  0.15210  0.08060  Biso   1.000  O
  O2       1.0000 0.03379  0.16578  0.57475  Biso   1.000  O
  O3       1.0000 0.03454  0.66780  0.07974  Biso   1.000  O
  O4       1.0000 0.03408  0.66630  0.57973  Biso   1.000  O
  O5       1.0000 0.53562  0.16787  0.07890  Biso   1.000  O
  O6       1.0000 0.53394  0.16742  0.57809  Biso   1.000  O
  O7       1.0000 0.53223  0.66767  0.07948  Biso   1.000  O
  O8       1.0000 0.53420  0.66787  0.57892  Biso   1.000  O
  O9       1.0000 0.03427  0.07763  0.32649  Biso   1.000  O
  O10      1.0000 0.03335  0.08379  0.82573  Biso   1.000  O
  O11      1.0000 0.03460  0.58166  0.32930  Biso   1.000  O
  O12      1.0000 0.03572  0.58437  0.83097  Biso   1.000  O
  O13      1.0000 0.53172  0.08478  0.32734  Biso   1.000  O
  O14      1.0000 0.53809  0.08282  0.82899  Biso   1.000  O
  O15      1.0000 0.53514  0.58137  0.32935  Biso   1.000  O
  O16      1.0000 0.53319  0.58484  0.82825  Biso   1.000  O
  O17      1.0000 0.46562  0.41585  0.17132  Biso   1.000  O
  O18      1.0000 0.46539  0.41712  0.67155  Biso   1.000  O
  O19      1.0000 0.46607  0.91615  0.17169  Biso   1.000  O
  O20      1.0000 0.46529  0.91836  0.67094  Biso   1.000  O
  O21      1.0000 0.96925  0.41438  0.17211  Biso   1.000  O
  O22      1.0000 0.96725  0.41556  0.67379  Biso   1.000  O
  O23      1.0000 0.96902  0.91547  0.17284  Biso   1.000  O
  O24      1.0000 0.96469  0.91612  0.67114  Biso   1.000  O
  O25      1.0000 0.46629  0.33384  0.42133  Biso   1.000  O
  O26      1.0000 0.47027  0.33880  0.92282  Biso   1.000  O
  O27      1.0000 0.46385  0.83323  0.41988  Biso   1.000  O
  O28      1.0000 0.46188  0.83355  0.92194  Biso   1.000  O
  O29      1.0000 0.96443  0.33158  0.42039  Biso   1.000  O
  O30      1.0000 0.96958  0.33128  0.92589  Biso   1.000  O
  O31      1.0000 0.96355  0.83032  0.42249  Biso   1.000  O
  O32      1.0000 0.96417  0.83320  0.92218  Biso   1.000  O
  O33      1.0000 0.26580  0.11922  0.22787  Biso   1.000  O
  O34      1.0000 0.27413  0.12700  0.73360  Biso   1.000  O
  O35      1.0000 0.27565  0.62989  0.24045  Biso   1.000  O
  O36      1.0000 0.27562  0.62984  0.74055  Biso   1.000  O
  O37      1.0000 0.77578  0.12659  0.24116  Biso   1.000  O
  O38      1.0000 0.77712  0.12952  0.74026  Biso   1.000  O
  O39      1.0000 0.77574  0.62829  0.24054  Biso   1.000  O
  O40      1.0000 0.77560  0.62786  0.74220  Biso   1.000  O
  O41      1.0000 0.27526  0.12295  0.48391  Biso   1.000  O
  O42      1.0000 0.29530  0.13824  0.97141  Biso   1.000  O
  O43      1.0000 0.27599  0.62165  0.49064  Biso   1.000  O
  O44      1.0000 0.27531  0.62661  0.99033  Biso   1.000  O
  O45      1.0000 0.77555  0.12116  0.49084  Biso   1.000  O
  O46      1.0000 0.77789  0.12095  0.99143  Biso   1.000  O
  O47      1.0000 0.77503  0.62069  0.49130  Biso   1.000  O
  O48      1.0000 0.77509  0.62108  0.99114  Biso   1.000  O
  O49      1.0000 0.22475  0.38251  0.00927  Biso   1.000  O
  O50      1.0000 0.22335  0.37891  0.50827  Biso   1.000  O
  O51      1.0000 0.21984  0.89737  0.01742  Biso   1.000  O
  O52      1.0000 0.22350  0.87891  0.50850  Biso   1.000  O
  O53      1.0000 0.72936  0.37673  0.01154  Biso   1.000  O
  O54      1.0000 0.72398  0.37849  0.51042  Biso   1.000  O
  O55      1.0000 0.72326  0.87905  0.01028  Biso   1.000  O
  O56      1.0000 0.72289  0.87785  0.51055  Biso   1.000  O
  O57      1.0000 0.22536  0.36923  0.25889  Biso   1.000  O
  O58      1.0000 0.22559  0.37066  0.75972  Biso   1.000  O
  O59      1.0000 0.21658  0.87295  0.25881  Biso   1.000  O
  O60      1.0000 0.22382  0.87245  0.76037  Biso   1.000  O
  O61      1.0000 0.72733  0.36940  0.25938  Biso   1.000  O
  O62      1.0000 0.72568  0.37252  0.76102  Biso   1.000  O
  O63      1.0000 0.72450  0.87129  0.26006  Biso   1.000  O
  O64      1.0000 0.72356  0.87116  0.76066  Biso   1.000  O
