data_image0
_cell_length_a       10.0233
_cell_length_b       10.4303
_cell_length_c       10.0617
_cell_angle_alpha    90.1008
_cell_angle_beta     89.6565
_cell_angle_gamma    89.9239

_symmetry_space_group_name_H-M    "P 1"
_symmetry_int_tables_number       1

loop_
  _symmetry_equiv_pos_as_xyz
  'x, y, z'

loop_
  _atom_site_label
  _atom_site_occupancy
  _atom_site_fract_x
  _atom_site_fract_y
  _atom_site_fract_z
  _atom_site_thermal_displace_type
  _atom_site_B_iso_or_equiv
  _atom_site_type_symbol
  As1      1.0000 0.10955  0.02672  0.10768  Biso   1.000  As
  Zr1      1.0000 0.13443  0.01608  0.62836  Biso   1.000  Zr
  Zr2      1.0000 0.13456  0.51566  0.12686  Biso   1.000  Zr
  Zr3      1.0000 0.13417  0.51669  0.62536  Biso   1.000  Zr
  Zr4      1.0000 0.63475  0.01653  0.12602  Biso   1.000  Zr
  Zr5      1.0000 0.62990  0.01424  0.62243  Biso   1.000  Zr
  Zr6      1.0000 0.63366  0.51622  0.12742  Biso   1.000  Zr
  Zr7      1.0000 0.63383  0.51589  0.62452  Biso   1.000  Zr
  Zr8      1.0000 0.13966  0.23167  0.37504  Biso   1.000  Zr
  Zr9      1.0000 0.13539  0.23878  0.87545  Biso   1.000  Zr
  Zr10     1.0000 0.13702  0.73456  0.37715  Biso   1.000  Zr
  Zr11     1.0000 0.13302  0.73424  0.87786  Biso   1.000  Zr
  Zr12     1.0000 0.63394  0.23400  0.37504  Biso   1.000  Zr
  Zr13     1.0000 0.63209  0.23343  0.87448  Biso   1.000  Zr
  Zr14     1.0000 0.63510  0.73586  0.37472  Biso   1.000  Zr
  Zr15     1.0000 0.63077  0.73378  0.87555  Biso   1.000  Zr
  Zr16     1.0000 0.36575  0.26436  0.12762  Biso   1.000  Zr
  Zr17     1.0000 0.36662  0.26610  0.62636  Biso   1.000  Zr
  Zr18     1.0000 0.36452  0.76586  0.12826  Biso   1.000  Zr
  Zr19     1.0000 0.36600  0.76766  0.62822  Biso   1.000  Zr
  Zr20     1.0000 0.86325  0.26677  0.12340  Biso   1.000  Zr
  Zr21     1.0000 0.86653  0.26458  0.62397  Biso   1.000  Zr
  Zr22     1.0000 0.86858  0.76284  0.12152  Biso   1.000  Zr
  Zr23     1.0000 0.86696  0.76540  0.62364  Biso   1.000  Zr
  Zr24     1.0000 0.36705  0.48431  0.37631  Biso   1.000  Zr
  Zr25     1.0000 0.36641  0.48551  0.87613  Biso   1.000  Zr
  Zr26     1.0000 0.36306  0.98361  0.37365  Biso   1.000  Zr
  Zr27     1.0000 0.36213  0.98509  0.88152  Biso   1.000  Zr
  Zr28     1.0000 0.86783  0.48324  0.37552  Biso   1.000  Zr
  Zr29     1.0000 0.86538  0.48423  0.87401  Biso   1.000  Zr
  Zr30     1.0000 0.86871  0.98634  0.37584  Biso   1.000  Zr
  Zr31     1.0000 0.85924  0.98178  0.87171  Biso   1.000  Zr
  Zr32     1.0000 0.04096  0.17895  0.18548  Biso   1.000  Zr
  Zr33     1.0000 0.03319  0.18230  0.69979  Biso   1.000  Zr
  Zr34     1.0000 0.03639  0.68474  0.19437  Biso   1.000  Zr
  Zr35     1.0000 0.03570  0.68434  0.69380  Biso   1.000  Zr
  Zr36     1.0000 0.54086  0.18639  0.19131  Biso   1.000  Zr
  Zr37     1.0000 0.53554  0.18416  0.69296  Biso   1.000  Zr
  Zr38     1.0000 0.53650  0.68435  0.19599  Biso   1.000  Zr
  Zr39     1.0000 0.53441  0.68288  0.69615  Biso   1.000  Zr
  Zr40     1.0000 0.03715  0.06634  0.44489  Biso   1.000  Zr
  Zr41     1.0000 0.03219  0.06444  0.94964  Biso   1.000  Zr
  Zr42     1.0000 0.03653  0.56497  0.44465  Biso   1.000  Zr
  Zr43     1.0000 0.03339  0.56632  0.94570  Biso   1.000  Zr
  Zr44     1.0000 0.53599  0.06645  0.44204  Biso   1.000  Zr
  Zr45     1.0000 0.53328  0.06673  0.94622  Biso   1.000  Zr
  Zr46     1.0000 0.53737  0.56654  0.44334  Biso   1.000  Zr
  Zr47     1.0000 0.53497  0.56609  0.94618  Biso   1.000  Zr
  Zr48     1.0000 0.46465  0.43306  0.19503  Biso   1.000  Zr
  Zr49     1.0000 0.46413  0.43464  0.69417  Biso   1.000  Zr
  Zr50     1.0000 0.46932  0.93250  0.19594  Biso   1.000  Zr
  Zr51     1.0000 0.46275  0.93505  0.69864  Biso   1.000  Zr
  Zr52     1.0000 0.96568  0.42945  0.19421  Biso   1.000  Zr
  Zr53     1.0000 0.96467  0.43301  0.69329  Biso   1.000  Zr
  Zr54     1.0000 0.96913  0.93926  0.18088  Biso   1.000  Zr
  Zr55     1.0000 0.96290  0.93405  0.69334  Biso   1.000  Zr
  Zr56     1.0000 0.46528  0.31648  0.44539  Biso   1.000  Zr
  Zr57     1.0000 0.46219  0.31525  0.94175  Biso   1.000  Zr
  Zr58     1.0000 0.46924  0.81821  0.45125  Biso   1.000  Zr
  Zr59     1.0000 0.45930  0.81635  0.94411  Biso   1.000  Zr
  Zr60     1.0000 0.96565  0.31397  0.44204  Biso   1.000  Zr
  Zr61     1.0000 0.96354  0.31588  0.94349  Biso   1.000  Zr
  Zr62     1.0000 0.96543  0.81739  0.44135  Biso   1.000  Zr
  Zr63     1.0000 0.95988  0.81541  0.93901  Biso   1.000  Zr
  Zr64     1.0000 0.28121  0.12527  0.25596  Biso   1.000  Zr
  Zr65     1.0000 0.26913  0.11843  0.75245  Biso   1.000  Zr
  Zr66     1.0000 0.26964  0.61354  0.24964  Biso   1.000  Zr
  Zr67     1.0000 0.26852  0.61795  0.75056  Biso   1.000  Zr
  Zr68     1.0000 0.77342  0.11780  0.24773  Biso   1.000  Zr
  Zr69     1.0000 0.76646  0.11487  0.74632  Biso   1.000  Zr
  Zr70     1.0000 0.77174  0.61589  0.24796  Biso   1.000  Zr
  Zr71     1.0000 0.76892  0.61659  0.74828  Biso   1.000  Zr
  Zr72     1.0000 0.26882  0.13226  0.50383  Biso   1.000  Zr
  Zr73     1.0000 0.26349  0.13419  0.00123  Biso   1.000  Zr
  Zr74     1.0000 0.27183  0.63290  0.50052  Biso   1.000  Zr
  Zr75     1.0000 0.26853  0.63319  0.00037  Biso   1.000  Zr
  Zr76     1.0000 0.77039  0.13254  0.49727  Biso   1.000  Zr
  Zr77     1.0000 0.76966  0.13222  0.99642  Biso   1.000  Zr
  Zr78     1.0000 0.76984  0.63372  0.49809  Biso   1.000  Zr
  Zr79     1.0000 0.76820  0.63284  0.99821  Biso   1.000  Zr
  Zr80     1.0000 0.23086  0.38189  0.49940  Biso   1.000  Zr
  Zr81     1.0000 0.23048  0.38413  0.99942  Biso   1.000  Zr
  Zr82     1.0000 0.23022  0.88266  0.50417  Biso   1.000  Zr
  Zr83     1.0000 0.22264  0.88393  0.00603  Biso   1.000  Zr
  Zr84     1.0000 0.73160  0.38277  0.49873  Biso   1.000  Zr
  Zr85     1.0000 0.72980  0.38221  0.99912  Biso   1.000  Zr
  Zr86     1.0000 0.73300  0.88432  0.49742  Biso   1.000  Zr
  Zr87     1.0000 0.72660  0.88211  0.99702  Biso   1.000  Zr
  Zr88     1.0000 0.22921  0.36838  0.24926  Biso   1.000  Zr
  Zr89     1.0000 0.22988  0.36846  0.74936  Biso   1.000  Zr
  Zr90     1.0000 0.24258  0.85756  0.25968  Biso   1.000  Zr
  Zr91     1.0000 0.22849  0.86882  0.75373  Biso   1.000  Zr
  Zr92     1.0000 0.73053  0.36773  0.24895  Biso   1.000  Zr
  Zr93     1.0000 0.73048  0.36595  0.74842  Biso   1.000  Zr
  Zr94     1.0000 0.73931  0.86730  0.24726  Biso   1.000  Zr
  Zr95     1.0000 0.72851  0.86552  0.74712  Biso   1.000  Zr
