data_image0
_cell_length_a       10.0773
_cell_length_b       10.4607
_cell_length_c       10.1298
_cell_angle_alpha    89.886
_cell_angle_beta     91.4968
_cell_angle_gamma    90.18

_symmetry_space_group_name_H-M    "P 1"
_symmetry_int_tables_number       1

loop_
  _symmetry_equiv_pos_as_xyz
  'x, y, z'

loop_
  _atom_site_label
  _atom_site_occupancy
  _atom_site_fract_x
  _atom_site_fract_y
  _atom_site_fract_z
  _atom_site_thermal_displace_type
  _atom_site_B_iso_or_equiv
  _atom_site_type_symbol
  Zr1      1.0000 0.13403  0.01435  0.12185  Biso   1.000  Zr
  Zr2      1.0000 0.13110  0.23533  0.37785  Biso   1.000  Zr
  Zr3      1.0000 0.36832  0.26848  0.12173  Biso   1.000  Zr
  Zr4      1.0000 0.36561  0.48518  0.37325  Biso   1.000  Zr
  Zr5      1.0000 0.01834  0.17838  0.20503  Biso   1.000  Zr
  Zr6      1.0000 0.04116  0.06042  0.43806  Biso   1.000  Zr
  Zr7      1.0000 0.46105  0.43748  0.19360  Biso   1.000  Zr
  Zr8      1.0000 0.46181  0.31609  0.44309  Biso   1.000  Zr
  Zr9      1.0000 0.26425  0.11845  0.24398  Biso   1.000  Zr
  Zr10     1.0000 0.27228  0.13271  0.49373  Biso   1.000  Zr
  Zr11     1.0000 0.23020  0.38460  0.49384  Biso   1.000  Zr
  Zr12     1.0000 0.22752  0.36407  0.24406  Biso   1.000  Zr
  Zr13     1.0000 0.13490  0.00778  0.61904  Biso   1.000  Zr
  Zr14     1.0000 0.15757  0.22511  0.84836  Biso   1.000  Zr
  Zr15     1.0000 0.37326  0.26482  0.61958  Biso   1.000  Zr
  Zr16     1.0000 0.37418  0.48804  0.87161  Biso   1.000  Zr
  Zr17     1.0000 0.05295  0.17968  0.66956  Biso   1.000  Zr
  Zr18     1.0000 0.04159  0.06219  0.93730  Biso   1.000  Zr
  Zr19     1.0000 0.46722  0.43322  0.69129  Biso   1.000  Zr
  Zr20     1.0000 0.47345  0.31590  0.94309  Biso   1.000  Zr
  Zr21     1.0000 0.28208  0.10863  0.73979  Biso   1.000  Zr
  Zr22     1.0000 0.28396  0.12759  0.99273  Biso   1.000  Zr
  Zr23     1.0000 0.25069  0.39291  0.99166  Biso   1.000  Zr
  Zr24     1.0000 0.23774  0.36772  0.73881  Biso   1.000  Zr
  Zr25     1.0000 0.13065  0.51544  0.12474  Biso   1.000  Zr
  Zr26     1.0000 0.13443  0.73504  0.37414  Biso   1.000  Zr
  Zr27     1.0000 0.36379  0.76498  0.12819  Biso   1.000  Zr
  Zr28     1.0000 0.36496  0.98551  0.37466  Biso   1.000  Zr
  Zr29     1.0000 0.03743  0.68233  0.19346  Biso   1.000  Zr
  Zr30     1.0000 0.03990  0.57056  0.44137  Biso   1.000  Zr
  Zr31     1.0000 0.46313  0.93573  0.19764  Biso   1.000  Zr
  Zr32     1.0000 0.46608  0.81739  0.44625  Biso   1.000  Zr
  Zr33     1.0000 0.27035  0.61816  0.25038  Biso   1.000  Zr
  Zr34     1.0000 0.27099  0.63391  0.49946  Biso   1.000  Zr
  Zr35     1.0000 0.23540  0.88195  0.49678  Biso   1.000  Zr
  Zr36     1.0000 0.23043  0.86751  0.24766  Biso   1.000  Zr
  Zr37     1.0000 0.13543  0.51826  0.62076  Biso   1.000  Zr
  Zr38     1.0000 0.13455  0.73499  0.87554  Biso   1.000  Zr
  Zr39     1.0000 0.36984  0.76524  0.62679  Biso   1.000  Zr
  Zr40     1.0000 0.37197  0.97948  0.87775  Biso   1.000  Zr
  Zr41     1.0000 0.03888  0.68530  0.69601  Biso   1.000  Zr
  Zr42     1.0000 0.03524  0.56096  0.94345  Biso   1.000  Zr
  Zr43     1.0000 0.47252  0.92887  0.70036  Biso   1.000  Zr
  Zr44     1.0000 0.46851  0.81535  0.95263  Biso   1.000  Zr
  Zr45     1.0000 0.27098  0.61751  0.74938  Biso   1.000  Zr
  Zr46     1.0000 0.26811  0.63648  0.00026  Biso   1.000  Zr
  Zr47     1.0000 0.23253  0.88318  0.99942  Biso   1.000  Zr
  Zr48     1.0000 0.23565  0.86375  0.74927  Biso   1.000  Zr
  Zr49     1.0000 0.63086  0.01198  0.12903  Biso   1.000  Zr
  Zr50     1.0000 0.63039  0.22986  0.39369  Biso   1.000  Zr
  Zr51     1.0000 0.82605  0.26602  0.16348  Biso   1.000  Zr
  Zr52     1.0000 0.86610  0.48395  0.39280  Biso   1.000  Zr
  Zr53     1.0000 0.53896  0.18644  0.19577  Biso   1.000  Zr
  Zr54     1.0000 0.53337  0.06583  0.45401  Biso   1.000  Zr
  Zr55     1.0000 0.95526  0.43625  0.21722  Biso   1.000  Zr
  Zr56     1.0000 0.95917  0.30958  0.44583  Biso   1.000  Zr
  Zr57     1.0000 0.75702  0.11034  0.26853  Biso   1.000  Zr
  Zr58     1.0000 0.77497  0.13000  0.51294  Biso   1.000  Zr
  Zr59     1.0000 0.72829  0.37621  0.51272  Biso   1.000  Zr
  Zr60     1.0000 0.70908  0.38017  0.27190  Biso   1.000  Zr
  Zr61     1.0000 0.63943  0.01519  0.63379  Biso   1.000  Zr
  Zr62     1.0000 0.63954  0.23370  0.88191  Biso   1.000  Zr
  Zr63     1.0000 0.87402  0.26922  0.63984  Biso   1.000  Zr
  Zr64     1.0000 0.86174  0.48670  0.87530  Biso   1.000  Zr
  Zr65     1.0000 0.54224  0.18418  0.69458  Biso   1.000  Zr
  Zr66     1.0000 0.54339  0.06348  0.94377  Biso   1.000  Zr
  Zr67     1.0000 0.95224  0.45251  0.66335  Biso   1.000  Zr
  Zr68     1.0000 0.96800  0.31286  0.85393  Biso   1.000  Zr
  Zr69     1.0000 0.77556  0.11809  0.76077  Biso   1.000  Zr
  Zr70     1.0000 0.77201  0.13326  0.01512  Biso   1.000  Zr
  Zr71     1.0000 0.73776  0.38201  0.01167  Biso   1.000  Zr
  Zr72     1.0000 0.72706  0.37183  0.75832  Biso   1.000  Zr
  Zr73     1.0000 0.63297  0.52099  0.13333  Biso   1.000  Zr
  Zr74     1.0000 0.63429  0.73520  0.38017  Biso   1.000  Zr
  Zr75     1.0000 0.86600  0.76531  0.13241  Biso   1.000  Zr
  Zr76     1.0000 0.86762  0.98112  0.38332  Biso   1.000  Zr
  Zr77     1.0000 0.53560  0.68535  0.19868  Biso   1.000  Zr
  Zr78     1.0000 0.53505  0.56651  0.44739  Biso   1.000  Zr
  Zr79     1.0000 0.96628  0.93340  0.19711  Biso   1.000  Zr
  Zr80     1.0000 0.96756  0.81502  0.45121  Biso   1.000  Zr
  Zr81     1.0000 0.77130  0.62058  0.25775  Biso   1.000  Zr
  Zr82     1.0000 0.76825  0.63391  0.50696  Biso   1.000  Zr
  Zr83     1.0000 0.73219  0.88242  0.50508  Biso   1.000  Zr
  Zr84     1.0000 0.73184  0.86633  0.25421  Biso   1.000  Zr
  Zr85     1.0000 0.63548  0.51552  0.62894  Biso   1.000  Zr
  Zr86     1.0000 0.63558  0.73593  0.88035  Biso   1.000  Zr
  Zr87     1.0000 0.86837  0.76684  0.63185  Biso   1.000  Zr
  Zr88     1.0000 0.86800  0.98222  0.88379  Biso   1.000  Zr
  Zr89     1.0000 0.53608  0.68094  0.70131  Biso   1.000  Zr
  Zr90     1.0000 0.53946  0.56838  0.94933  Biso   1.000  Zr
  Zr91     1.0000 0.96738  0.93458  0.69890  Biso   1.000  Zr
  Zr92     1.0000 0.96650  0.81281  0.94882  Biso   1.000  Zr
  Zr93     1.0000 0.77101  0.62065  0.75586  Biso   1.000  Zr
  Zr94     1.0000 0.77044  0.63279  0.00532  Biso   1.000  Zr
  Zr95     1.0000 0.73278  0.88207  0.00518  Biso   1.000  Zr
  Zr96     1.0000 0.73523  0.86708  0.75524  Biso   1.000  Zr
  As1      1.0000 0.02586  0.28765  0.03933  Biso   1.000  As
