data_image0
_cell_length_a       5.03311
_cell_length_b       10.1972
_cell_length_c       10.0633
_cell_angle_alpha    90.1039
_cell_angle_beta     90.8585
_cell_angle_gamma    89.8273

_symmetry_space_group_name_H-M    "P 1"
_symmetry_int_tables_number       1

loop_
  _symmetry_equiv_pos_as_xyz
  'x, y, z'

loop_
  _atom_site_label
  _atom_site_occupancy
  _atom_site_fract_x
  _atom_site_fract_y
  _atom_site_fract_z
  _atom_site_thermal_displace_type
  _atom_site_B_iso_or_equiv
  _atom_site_type_symbol
  As1      1.0000 0.24682  0.01052  0.12458  Biso   1.000  As
  Zr1      1.0000 0.25105  0.00007  0.62523  Biso   1.000  Zr
  Zr2      1.0000 0.25098  0.49868  0.12479  Biso   1.000  Zr
  Zr3      1.0000 0.25019  0.50167  0.62423  Biso   1.000  Zr
  Zr4      1.0000 0.25481  0.24952  0.37598  Biso   1.000  Zr
  Zr5      1.0000 0.25139  0.25070  0.87297  Biso   1.000  Zr
  Zr6      1.0000 0.23437  0.74969  0.37330  Biso   1.000  Zr
  Zr7      1.0000 0.26457  0.74975  0.87703  Biso   1.000  Zr
  Zr8      1.0000 0.75081  0.24963  0.12289  Biso   1.000  Zr
  Zr9      1.0000 0.75163  0.24894  0.62425  Biso   1.000  Zr
  Zr10     1.0000 0.74815  0.74518  0.12410  Biso   1.000  Zr
  Zr11     1.0000 0.75073  0.75289  0.62540  Biso   1.000  Zr
  Zr12     1.0000 0.73833  0.99928  0.37420  Biso   1.000  Zr
  Zr13     1.0000 0.75953  0.00117  0.87670  Biso   1.000  Zr
  Zr14     1.0000 0.74722  0.50083  0.37665  Biso   1.000  Zr
  Zr15     1.0000 0.75385  0.50120  0.87242  Biso   1.000  Zr
  Zr16     1.0000 0.98554  0.14810  0.98871  Biso   1.000  Zr
  Zr17     1.0000 0.98042  0.14456  0.48678  Biso   1.000  Zr
  Zr18     1.0000 0.00040  0.64776  0.99572  Biso   1.000  Zr
  Zr19     1.0000 0.99328  0.64420  0.49689  Biso   1.000  Zr
  Zr20     1.0000 0.01653  0.09377  0.24133  Biso   1.000  Zr
  Zr21     1.0000 0.00952  0.10790  0.74213  Biso   1.000  Zr
  Zr22     1.0000 0.99774  0.60021  0.24611  Biso   1.000  Zr
  Zr23     1.0000 0.00280  0.60694  0.74611  Biso   1.000  Zr
  Zr24     1.0000 0.00281  0.35024  0.25087  Biso   1.000  Zr
  Zr25     1.0000 0.99626  0.35731  0.75180  Biso   1.000  Zr
  Zr26     1.0000 0.92593  0.84321  0.27593  Biso   1.000  Zr
  Zr27     1.0000 0.99571  0.85649  0.76574  Biso   1.000  Zr
  Zr28     1.0000 0.00097  0.39611  0.00096  Biso   1.000  Zr
  Zr29     1.0000 0.00423  0.39367  0.50142  Biso   1.000  Zr
  Zr30     1.0000 0.04366  0.89867  0.02274  Biso   1.000  Zr
  Zr31     1.0000 0.99529  0.89437  0.51319  Biso   1.000  Zr
  Zr32     1.0000 0.53113  0.14985  0.26227  Biso   1.000  Zr
  Zr33     1.0000 0.51799  0.14453  0.75923  Biso   1.000  Zr
  Zr34     1.0000 0.49628  0.64772  0.25320  Biso   1.000  Zr
  Zr35     1.0000 0.50663  0.64483  0.75312  Biso   1.000  Zr
  Zr36     1.0000 0.49924  0.10311  0.00599  Biso   1.000  Zr
  Zr37     1.0000 0.48821  0.10744  0.50699  Biso   1.000  Zr
  Zr38     1.0000 0.50058  0.60246  0.00306  Biso   1.000  Zr
  Zr39     1.0000 0.49768  0.60687  0.50316  Biso   1.000  Zr
  Zr40     1.0000 0.50280  0.35453  0.99691  Biso   1.000  Zr
  Zr41     1.0000 0.50634  0.35717  0.49637  Biso   1.000  Zr
  Zr42     1.0000 0.55844  0.84878  0.97852  Biso   1.000  Zr
  Zr43     1.0000 0.50408  0.85620  0.48630  Biso   1.000  Zr
  Zr44     1.0000 0.50293  0.39621  0.24702  Biso   1.000  Zr
  Zr45     1.0000 0.49850  0.39412  0.74686  Biso   1.000  Zr
  Zr46     1.0000 0.43716  0.90051  0.23398  Biso   1.000  Zr
  Zr47     1.0000 0.50479  0.89448  0.73876  Biso   1.000  Zr
