data_image0
_cell_length_a       10.0639
_cell_length_b       10.2079
_cell_length_c       10.0639
_cell_angle_alpha    89.9979
_cell_angle_beta     89.992
_cell_angle_gamma    89.9976

_symmetry_space_group_name_H-M    "P 1"
_symmetry_int_tables_number       1

loop_
  _symmetry_equiv_pos_as_xyz
  'x, y, z'

loop_
  _atom_site_label
  _atom_site_occupancy
  _atom_site_fract_x
  _atom_site_fract_y
  _atom_site_fract_z
  _atom_site_thermal_displace_type
  _atom_site_B_iso_or_equiv
  _atom_site_type_symbol
  As1      1.0000 0.12506  0.99980  0.12505  Biso   1.000  As
  Zr1      1.0000 0.12506  0.99994  0.62505  Biso   1.000  Zr
  Zr2      1.0000 0.12507  0.50002  0.12506  Biso   1.000  Zr
  Zr3      1.0000 0.12507  0.49998  0.62505  Biso   1.000  Zr
  Zr4      1.0000 0.62506  0.99994  0.12505  Biso   1.000  Zr
  Zr5      1.0000 0.62506  0.00003  0.62505  Biso   1.000  Zr
  Zr6      1.0000 0.62506  0.49998  0.12506  Biso   1.000  Zr
  Zr7      1.0000 0.62506  0.49996  0.62505  Biso   1.000  Zr
  Zr8      1.0000 0.12772  0.25142  0.37528  Biso   1.000  Zr
  Zr9      1.0000 0.12242  0.25141  0.87486  Biso   1.000  Zr
  Zr10     1.0000 0.12248  0.74861  0.37531  Biso   1.000  Zr
  Zr11     1.0000 0.12765  0.74860  0.87481  Biso   1.000  Zr
  Zr12     1.0000 0.62687  0.24889  0.37456  Biso   1.000  Zr
  Zr13     1.0000 0.62328  0.24889  0.87557  Biso   1.000  Zr
  Zr14     1.0000 0.62333  0.75108  0.37459  Biso   1.000  Zr
  Zr15     1.0000 0.62681  0.75108  0.87554  Biso   1.000  Zr
  Zr16     1.0000 0.37529  0.25142  0.12772  Biso   1.000  Zr
  Zr17     1.0000 0.37456  0.24888  0.62686  Biso   1.000  Zr
  Zr18     1.0000 0.37532  0.74861  0.12247  Biso   1.000  Zr
  Zr19     1.0000 0.37460  0.75109  0.62332  Biso   1.000  Zr
  Zr20     1.0000 0.87486  0.25141  0.12241  Biso   1.000  Zr
  Zr21     1.0000 0.87558  0.24889  0.62327  Biso   1.000  Zr
  Zr22     1.0000 0.87482  0.74860  0.12765  Biso   1.000  Zr
  Zr23     1.0000 0.87554  0.75108  0.62680  Biso   1.000  Zr
  Zr24     1.0000 0.37466  0.00313  0.37465  Biso   1.000  Zr
  Zr25     1.0000 0.37455  0.99687  0.87557  Biso   1.000  Zr
  Zr26     1.0000 0.37628  0.50091  0.37628  Biso   1.000  Zr
  Zr27     1.0000 0.37626  0.49906  0.87386  Biso   1.000  Zr
  Zr28     1.0000 0.87558  0.99687  0.37454  Biso   1.000  Zr
  Zr29     1.0000 0.87548  0.00313  0.87547  Biso   1.000  Zr
  Zr30     1.0000 0.87387  0.49907  0.37625  Biso   1.000  Zr
  Zr31     1.0000 0.87385  0.50090  0.87384  Biso   1.000  Zr
  Zr32     1.0000 0.98293  0.15267  0.98292  Biso   1.000  Zr
  Zr33     1.0000 0.99351  0.14449  0.48740  Biso   1.000  Zr
  Zr34     1.0000 0.99837  0.64915  0.99836  Biso   1.000  Zr
  Zr35     1.0000 0.99702  0.64429  0.49882  Biso   1.000  Zr
  Zr36     1.0000 0.48740  0.14449  0.99350  Biso   1.000  Zr
  Zr37     1.0000 0.49475  0.14550  0.49475  Biso   1.000  Zr
  Zr38     1.0000 0.49883  0.64429  0.99702  Biso   1.000  Zr
  Zr39     1.0000 0.49710  0.64511  0.49710  Biso   1.000  Zr
  Zr40     1.0000 0.01260  0.09884  0.23755  Biso   1.000  Zr
  Zr41     1.0000 0.00204  0.10614  0.74096  Biso   1.000  Zr
  Zr42     1.0000 0.00108  0.60124  0.24905  Biso   1.000  Zr
  Zr43     1.0000 0.00202  0.60543  0.74883  Biso   1.000  Zr
  Zr44     1.0000 0.50919  0.10614  0.24809  Biso   1.000  Zr
  Zr45     1.0000 0.50322  0.10482  0.74691  Biso   1.000  Zr
  Zr46     1.0000 0.50130  0.60544  0.24811  Biso   1.000  Zr
  Zr47     1.0000 0.50200  0.60527  0.74812  Biso   1.000  Zr
  Zr48     1.0000 0.99836  0.35083  0.25177  Biso   1.000  Zr
  Zr49     1.0000 0.99701  0.35568  0.75129  Biso   1.000  Zr
  Zr50     1.0000 0.98319  0.84739  0.26693  Biso   1.000  Zr
  Zr51     1.0000 0.99349  0.85547  0.76254  Biso   1.000  Zr
  Zr52     1.0000 0.49884  0.35569  0.25311  Biso   1.000  Zr
  Zr53     1.0000 0.49710  0.35486  0.75303  Biso   1.000  Zr
  Zr54     1.0000 0.48757  0.85548  0.25664  Biso   1.000  Zr
  Zr55     1.0000 0.49465  0.85450  0.75548  Biso   1.000  Zr
  Zr56     1.0000 0.00109  0.39878  0.00108  Biso   1.000  Zr
  Zr57     1.0000 0.00203  0.39455  0.50130  Biso   1.000  Zr
  Zr58     1.0000 0.01229  0.90117  0.01227  Biso   1.000  Zr
  Zr59     1.0000 0.00212  0.89383  0.50900  Biso   1.000  Zr
  Zr60     1.0000 0.50130  0.39455  0.00202  Biso   1.000  Zr
  Zr61     1.0000 0.50201  0.39471  0.50200  Biso   1.000  Zr
  Zr62     1.0000 0.50901  0.89383  0.00211  Biso   1.000  Zr
  Zr63     1.0000 0.50328  0.89513  0.50328  Biso   1.000  Zr
  Zr64     1.0000 0.26722  0.15270  0.26722  Biso   1.000  Zr
  Zr65     1.0000 0.25663  0.14450  0.76274  Biso   1.000  Zr
  Zr66     1.0000 0.25176  0.64916  0.25175  Biso   1.000  Zr
  Zr67     1.0000 0.25311  0.64429  0.75129  Biso   1.000  Zr
  Zr68     1.0000 0.76274  0.14450  0.25662  Biso   1.000  Zr
  Zr69     1.0000 0.75538  0.14550  0.75538  Biso   1.000  Zr
  Zr70     1.0000 0.75130  0.64430  0.25310  Biso   1.000  Zr
  Zr71     1.0000 0.75303  0.64511  0.75302  Biso   1.000  Zr
  Zr72     1.0000 0.23755  0.09883  0.01259  Biso   1.000  Zr
  Zr73     1.0000 0.24810  0.10614  0.50918  Biso   1.000  Zr
  Zr74     1.0000 0.24905  0.60123  0.00107  Biso   1.000  Zr
  Zr75     1.0000 0.24811  0.60544  0.50129  Biso   1.000  Zr
  Zr76     1.0000 0.74096  0.10614  0.00203  Biso   1.000  Zr
  Zr77     1.0000 0.74692  0.10482  0.50321  Biso   1.000  Zr
  Zr78     1.0000 0.74883  0.60543  0.00201  Biso   1.000  Zr
  Zr79     1.0000 0.74813  0.60527  0.50199  Biso   1.000  Zr
  Zr80     1.0000 0.25177  0.35083  0.99836  Biso   1.000  Zr
  Zr81     1.0000 0.25312  0.35569  0.49884  Biso   1.000  Zr
  Zr82     1.0000 0.26695  0.84738  0.98317  Biso   1.000  Zr
  Zr83     1.0000 0.25665  0.85548  0.48756  Biso   1.000  Zr
  Zr84     1.0000 0.75129  0.35568  0.99700  Biso   1.000  Zr
  Zr85     1.0000 0.75304  0.35486  0.49709  Biso   1.000  Zr
  Zr86     1.0000 0.76255  0.85548  0.99348  Biso   1.000  Zr
  Zr87     1.0000 0.75549  0.85450  0.49464  Biso   1.000  Zr
  Zr88     1.0000 0.24905  0.39880  0.24904  Biso   1.000  Zr
  Zr89     1.0000 0.24811  0.39455  0.74882  Biso   1.000  Zr
  Zr90     1.0000 0.23784  0.90121  0.23782  Biso   1.000  Zr
  Zr91     1.0000 0.24802  0.89384  0.74111  Biso   1.000  Zr
  Zr92     1.0000 0.74883  0.39455  0.24810  Biso   1.000  Zr
  Zr93     1.0000 0.74813  0.39471  0.74812  Biso   1.000  Zr
  Zr94     1.0000 0.74112  0.89384  0.24801  Biso   1.000  Zr
  Zr95     1.0000 0.74685  0.89513  0.74685  Biso   1.000  Zr
