data_image0
_cell_length_a       10.308
_cell_length_b       10.5054
_cell_length_c       5.10259
_cell_angle_alpha    90.6023
_cell_angle_beta     90.9668
_cell_angle_gamma    92.0899

_symmetry_space_group_name_H-M    "P 1"
_symmetry_int_tables_number       1

loop_
  _symmetry_equiv_pos_as_xyz
  'x, y, z'

loop_
  _atom_site_label
  _atom_site_occupancy
  _atom_site_fract_x
  _atom_site_fract_y
  _atom_site_fract_z
  _atom_site_thermal_displace_type
  _atom_site_B_iso_or_equiv
  _atom_site_type_symbol
  Zr1      1.0000 0.14151  0.95126  0.32095  Biso   1.000  Zr
  Zr2      1.0000 0.13763  0.23650  0.63254  Biso   1.000  Zr
  Zr3      1.0000 0.37648  0.24527  0.20064  Biso   1.000  Zr
  Zr4      1.0000 0.40252  0.00943  0.74190  Biso   1.000  Zr
  Zr5      1.0000 0.95726  0.19766  0.94155  Biso   1.000  Zr
  Zr6      1.0000 0.03981  0.06015  0.59905  Biso   1.000  Zr
  Zr7      1.0000 0.00125  0.34123  0.45928  Biso   1.000  Zr
  Zr8      1.0000 0.96713  0.42925  0.01623  Biso   1.000  Zr
  Zr9      1.0000 0.27973  0.12145  0.50126  Biso   1.000  Zr
  Zr10     1.0000 0.28242  0.06083  0.04132  Biso   1.000  Zr
  Zr11     1.0000 0.29053  0.31463  0.86052  Biso   1.000  Zr
  Zr12     1.0000 0.25252  0.38693  0.40879  Biso   1.000  Zr
  Zr13     1.0000 0.10424  0.50132  0.26287  Biso   1.000  Zr
  Zr14     1.0000 0.13827  0.71991  0.76420  Biso   1.000  Zr
  Zr15     1.0000 0.38793  0.75238  0.29697  Biso   1.000  Zr
  Zr16     1.0000 0.36169  0.48460  0.72174  Biso   1.000  Zr
  Zr17     1.0000 0.98872  0.66887  0.02633  Biso   1.000  Zr
  Zr18     1.0000 0.00604  0.58371  0.55094  Biso   1.000  Zr
  Zr19     1.0000 0.02023  0.82060  0.51778  Biso   1.000  Zr
  Zr20     1.0000 0.98132  0.92523  0.06743  Biso   1.000  Zr
  Zr21     1.0000 0.25509  0.62857  0.48318  Biso   1.000  Zr
  Zr22     1.0000 0.21987  0.55648  0.94977  Biso   1.000  Zr
  Zr23     1.0000 0.22965  0.80631  0.09059  Biso   1.000  Zr
  Zr24     1.0000 0.27385  0.86811  0.58751  Biso   1.000  Zr
  Zr25     1.0000 0.63719  0.00687  0.25204  Biso   1.000  Zr
  Zr26     1.0000 0.62334  0.26157  0.71886  Biso   1.000  Zr
  Zr27     1.0000 0.84593  0.28757  0.22383  Biso   1.000  Zr
  Zr28     1.0000 0.87206  0.01904  0.78930  Biso   1.000  Zr
  Zr29     1.0000 0.50854  0.15408  0.96817  Biso   1.000  Zr
  Zr30     1.0000 0.51973  0.11135  0.48008  Biso   1.000  Zr
  Zr31     1.0000 0.49912  0.35711  0.47744  Biso   1.000  Zr
  Zr32     1.0000 0.49273  0.40379  0.99271  Biso   1.000  Zr
  Zr33     1.0000 0.76540  0.17422  0.51735  Biso   1.000  Zr
  Zr34     1.0000 0.74240  0.12493  0.01551  Biso   1.000  Zr
  Zr35     1.0000 0.72771  0.38294  0.97862  Biso   1.000  Zr
  Zr36     1.0000 0.74736  0.42449  0.48254  Biso   1.000  Zr
  Zr37     1.0000 0.60434  0.50606  0.24581  Biso   1.000  Zr
  Zr38     1.0000 0.61368  0.75010  0.79268  Biso   1.000  Zr
  Zr39     1.0000 0.86809  0.77471  0.25829  Biso   1.000  Zr
  Zr40     1.0000 0.85377  0.53258  0.78073  Biso   1.000  Zr
  Zr41     1.0000 0.48357  0.64642  0.01963  Biso   1.000  Zr
  Zr42     1.0000 0.50423  0.61109  0.52139  Biso   1.000  Zr
  Zr43     1.0000 0.52122  0.86472  0.52220  Biso   1.000  Zr
  Zr44     1.0000 0.49777  0.89473  0.02782  Biso   1.000  Zr
  Zr45     1.0000 0.76061  0.68296  0.56122  Biso   1.000  Zr
  Zr46     1.0000 0.73524  0.62833  0.04962  Biso   1.000  Zr
  Zr47     1.0000 0.74415  0.87367  0.98798  Biso   1.000  Zr
  Zr48     1.0000 0.77938  0.93070  0.47170  Biso   1.000  Zr
  As1      1.0000 0.11480  0.16614  0.10905  Biso   1.000  As
