data_image0
_cell_length_a       10.02
_cell_length_b       10.4349
_cell_length_c       10.0741
_cell_angle_alpha    90.0928
_cell_angle_beta     89.4769
_cell_angle_gamma    89.9285

_symmetry_space_group_name_H-M    "P 1"
_symmetry_int_tables_number       1

loop_
  _symmetry_equiv_pos_as_xyz
  'x, y, z'

loop_
  _atom_site_label
  _atom_site_occupancy
  _atom_site_fract_x
  _atom_site_fract_y
  _atom_site_fract_z
  _atom_site_thermal_displace_type
  _atom_site_B_iso_or_equiv
  _atom_site_type_symbol
  Au1      1.0000 0.11985  0.02676  0.10342  Biso   1.000  Au
  Zr1      1.0000 0.13927  0.23052  0.37805  Biso   1.000  Zr
  Zr2      1.0000 0.36717  0.26719  0.12997  Biso   1.000  Zr
  Zr3      1.0000 0.36619  0.48455  0.37763  Biso   1.000  Zr
  Zr4      1.0000 0.03795  0.18028  0.19020  Biso   1.000  Zr
  Zr5      1.0000 0.03842  0.06531  0.44639  Biso   1.000  Zr
  Zr6      1.0000 0.46475  0.43353  0.19585  Biso   1.000  Zr
  Zr7      1.0000 0.46483  0.31643  0.44489  Biso   1.000  Zr
  Zr8      1.0000 0.28422  0.12805  0.25868  Biso   1.000  Zr
  Zr9      1.0000 0.26988  0.13085  0.50563  Biso   1.000  Zr
  Zr10     1.0000 0.23055  0.38153  0.50051  Biso   1.000  Zr
  Zr11     1.0000 0.22830  0.36904  0.25070  Biso   1.000  Zr
  Zr12     1.0000 0.13392  0.01742  0.63342  Biso   1.000  Zr
  Zr13     1.0000 0.13386  0.24064  0.87262  Biso   1.000  Zr
  Zr14     1.0000 0.36740  0.26595  0.62691  Biso   1.000  Zr
  Zr15     1.0000 0.36625  0.48544  0.87648  Biso   1.000  Zr
  Zr16     1.0000 0.03957  0.19087  0.68750  Biso   1.000  Zr
  Zr17     1.0000 0.03854  0.06397  0.90011  Biso   1.000  Zr
  Zr18     1.0000 0.46423  0.43446  0.69519  Biso   1.000  Zr
  Zr19     1.0000 0.46057  0.31274  0.94181  Biso   1.000  Zr
  Zr20     1.0000 0.27430  0.12123  0.75426  Biso   1.000  Zr
  Zr21     1.0000 0.26091  0.13056  0.00562  Biso   1.000  Zr
  Zr22     1.0000 0.23104  0.38328  0.00021  Biso   1.000  Zr
  Zr23     1.0000 0.23014  0.37010  0.74920  Biso   1.000  Zr
  Zr24     1.0000 0.13445  0.51518  0.12765  Biso   1.000  Zr
  Zr25     1.0000 0.13602  0.73471  0.37732  Biso   1.000  Zr
  Zr26     1.0000 0.36593  0.76466  0.13007  Biso   1.000  Zr
  Zr27     1.0000 0.36271  0.98308  0.37637  Biso   1.000  Zr
  Zr28     1.0000 0.03677  0.68310  0.19447  Biso   1.000  Zr
  Zr29     1.0000 0.03617  0.56455  0.44555  Biso   1.000  Zr
  Zr30     1.0000 0.46927  0.93253  0.19657  Biso   1.000  Zr
  Zr31     1.0000 0.46791  0.81793  0.45138  Biso   1.000  Zr
  Zr32     1.0000 0.27013  0.61336  0.25020  Biso   1.000  Zr
  Zr33     1.0000 0.27080  0.63305  0.50113  Biso   1.000  Zr
  Zr34     1.0000 0.22845  0.88288  0.50663  Biso   1.000  Zr
  Zr35     1.0000 0.24378  0.85703  0.26131  Biso   1.000  Zr
  Zr36     1.0000 0.13368  0.51683  0.62600  Biso   1.000  Zr
  Zr37     1.0000 0.13173  0.73296  0.87822  Biso   1.000  Zr
  Zr38     1.0000 0.36522  0.76720  0.62872  Biso   1.000  Zr
  Zr39     1.0000 0.36476  0.98403  0.87987  Biso   1.000  Zr
  Zr40     1.0000 0.03529  0.68485  0.69524  Biso   1.000  Zr
  Zr41     1.0000 0.03378  0.56514  0.94513  Biso   1.000  Zr
  Zr42     1.0000 0.46297  0.93497  0.69795  Biso   1.000  Zr
  Zr43     1.0000 0.45720  0.81509  0.94383  Biso   1.000  Zr
  Zr44     1.0000 0.26824  0.61775  0.75109  Biso   1.000  Zr
  Zr45     1.0000 0.26809  0.63399  0.00090  Biso   1.000  Zr
  Zr46     1.0000 0.22240  0.88487  0.00975  Biso   1.000  Zr
  Zr47     1.0000 0.22904  0.86854  0.75611  Biso   1.000  Zr
  Zr48     1.0000 0.63557  0.01544  0.12695  Biso   1.000  Zr
  Zr49     1.0000 0.63386  0.23352  0.37525  Biso   1.000  Zr
  Zr50     1.0000 0.86271  0.26588  0.12490  Biso   1.000  Zr
  Zr51     1.0000 0.86776  0.48370  0.37532  Biso   1.000  Zr
  Zr52     1.0000 0.54157  0.18669  0.19037  Biso   1.000  Zr
  Zr53     1.0000 0.53579  0.06634  0.44262  Biso   1.000  Zr
  Zr54     1.0000 0.96446  0.42964  0.19335  Biso   1.000  Zr
  Zr55     1.0000 0.96427  0.31448  0.43992  Biso   1.000  Zr
  Zr56     1.0000 0.77193  0.11746  0.24865  Biso   1.000  Zr
  Zr57     1.0000 0.77014  0.13300  0.49713  Biso   1.000  Zr
  Zr58     1.0000 0.73112  0.38308  0.49919  Biso   1.000  Zr
  Zr59     1.0000 0.72986  0.36812  0.24968  Biso   1.000  Zr
  Zr60     1.0000 0.63125  0.01494  0.62197  Biso   1.000  Zr
  Zr61     1.0000 0.63326  0.23282  0.87510  Biso   1.000  Zr
  Zr62     1.0000 0.86516  0.26583  0.62248  Biso   1.000  Zr
  Zr63     1.0000 0.86460  0.48382  0.87480  Biso   1.000  Zr
  Zr64     1.0000 0.53737  0.18484  0.69286  Biso   1.000  Zr
  Zr65     1.0000 0.53444  0.06571  0.94561  Biso   1.000  Zr
  Zr66     1.0000 0.96342  0.43433  0.69380  Biso   1.000  Zr
  Zr67     1.0000 0.96303  0.31505  0.94417  Biso   1.000  Zr
  Zr68     1.0000 0.76802  0.11640  0.74565  Biso   1.000  Zr
  Zr69     1.0000 0.77292  0.13000  0.99648  Biso   1.000  Zr
  Zr70     1.0000 0.72861  0.38071  0.99977  Biso   1.000  Zr
  Zr71     1.0000 0.72983  0.36668  0.74931  Biso   1.000  Zr
  Zr72     1.0000 0.63496  0.51634  0.12820  Biso   1.000  Zr
  Zr73     1.0000 0.63512  0.73604  0.37576  Biso   1.000  Zr
  Zr74     1.0000 0.86904  0.76440  0.12308  Biso   1.000  Zr
  Zr75     1.0000 0.87141  0.98598  0.37537  Biso   1.000  Zr
  Zr76     1.0000 0.53704  0.68408  0.19679  Biso   1.000  Zr
  Zr77     1.0000 0.53629  0.56687  0.44461  Biso   1.000  Zr
  Zr78     1.0000 0.96824  0.93510  0.18812  Biso   1.000  Zr
  Zr79     1.0000 0.96370  0.81465  0.44063  Biso   1.000  Zr
  Zr80     1.0000 0.77165  0.61648  0.24874  Biso   1.000  Zr
  Zr81     1.0000 0.76881  0.63318  0.49849  Biso   1.000  Zr
  Zr82     1.0000 0.73216  0.88397  0.49710  Biso   1.000  Zr
  Zr83     1.0000 0.73807  0.86725  0.24792  Biso   1.000  Zr
  Zr84     1.0000 0.63342  0.51628  0.62535  Biso   1.000  Zr
  Zr85     1.0000 0.63107  0.73291  0.87672  Biso   1.000  Zr
  Zr86     1.0000 0.86631  0.76471  0.62280  Biso   1.000  Zr
  Zr87     1.0000 0.85848  0.98023  0.86898  Biso   1.000  Zr
  Zr88     1.0000 0.53366  0.68288  0.69731  Biso   1.000  Zr
  Zr89     1.0000 0.53474  0.56526  0.94752  Biso   1.000  Zr
  Zr90     1.0000 0.95879  0.93419  0.68496  Biso   1.000  Zr
  Zr91     1.0000 0.96039  0.81641  0.94036  Biso   1.000  Zr
  Zr92     1.0000 0.76809  0.61673  0.74936  Biso   1.000  Zr
  Zr93     1.0000 0.76885  0.63165  0.99900  Biso   1.000  Zr
  Zr94     1.0000 0.72506  0.87979  0.99819  Biso   1.000  Zr
  Zr95     1.0000 0.72735  0.86539  0.74724  Biso   1.000  Zr
