data_image0
_cell_length_a       5.02126
_cell_length_b       10.0751
_cell_length_c       10.0749
_cell_angle_alpha    91.6072
_cell_angle_beta     88.9886
_cell_angle_gamma    91.0129

_symmetry_space_group_name_H-M    "P 1"
_symmetry_int_tables_number       1

loop_
  _symmetry_equiv_pos_as_xyz
  'x, y, z'

loop_
  _atom_site_label
  _atom_site_occupancy
  _atom_site_fract_x
  _atom_site_fract_y
  _atom_site_fract_z
  _atom_site_thermal_displace_type
  _atom_site_B_iso_or_equiv
  _atom_site_type_symbol
  B1       1.0000 0.28819  0.99204  0.13253  Biso   1.000  B 
  Zr1      1.0000 0.24467  0.99980  0.62990  Biso   1.000  Zr
  Zr2      1.0000 0.24464  0.49470  0.12478  Biso   1.000  Zr
  Zr3      1.0000 0.24278  0.50339  0.62120  Biso   1.000  Zr
  Zr4      1.0000 0.25738  0.23948  0.36290  Biso   1.000  Zr
  Zr5      1.0000 0.21339  0.25922  0.86535  Biso   1.000  Zr
  Zr6      1.0000 0.23797  0.75339  0.37119  Biso   1.000  Zr
  Zr7      1.0000 0.25738  0.76166  0.88512  Biso   1.000  Zr
  Zr8      1.0000 0.73443  0.24914  0.11619  Biso   1.000  Zr
  Zr9      1.0000 0.73800  0.25407  0.61642  Biso   1.000  Zr
  Zr10     1.0000 0.74723  0.74943  0.12787  Biso   1.000  Zr
  Zr11     1.0000 0.74741  0.74973  0.62740  Biso   1.000  Zr
  Zr12     1.0000 0.74723  0.99672  0.37514  Biso   1.000  Zr
  Zr13     1.0000 0.73445  0.00838  0.87544  Biso   1.000  Zr
  Zr14     1.0000 0.74740  0.49719  0.37488  Biso   1.000  Zr
  Zr15     1.0000 0.73801  0.50815  0.87051  Biso   1.000  Zr
  Zr16     1.0000 0.95505  0.14760  0.97699  Biso   1.000  Zr
  Zr17     1.0000 0.98310  0.13762  0.47637  Biso   1.000  Zr
  Zr18     1.0000 0.98315  0.64821  0.98701  Biso   1.000  Zr
  Zr19     1.0000 0.00155  0.63635  0.48828  Biso   1.000  Zr
  Zr20     1.0000 0.12306  0.08015  0.22295  Biso   1.000  Zr
  Zr21     1.0000 0.98417  0.12244  0.72770  Biso   1.000  Zr
  Zr22     1.0000 0.99124  0.60334  0.23762  Biso   1.000  Zr
  Zr23     1.0000 0.98854  0.61985  0.73714  Biso   1.000  Zr
  Zr24     1.0000 0.99459  0.34679  0.25191  Biso   1.000  Zr
  Zr25     1.0000 0.97936  0.37123  0.75333  Biso   1.000  Zr
  Zr26     1.0000 0.93651  0.84487  0.27972  Biso   1.000  Zr
  Zr27     1.0000 0.99459  0.87264  0.77779  Biso   1.000  Zr
  Zr28     1.0000 0.98416  0.39688  0.00212  Biso   1.000  Zr
  Zr29     1.0000 0.98854  0.38748  0.50472  Biso   1.000  Zr
  Zr30     1.0000 0.12307  0.90164  0.04441  Biso   1.000  Zr
  Zr31     1.0000 0.99123  0.88701  0.52124  Biso   1.000  Zr
  Zr32     1.0000 0.60015  0.15564  0.28103  Biso   1.000  Zr
  Zr33     1.0000 0.49179  0.13739  0.77524  Biso   1.000  Zr
  Zr34     1.0000 0.50111  0.64356  0.26053  Biso   1.000  Zr
  Zr35     1.0000 0.49455  0.63954  0.76201  Biso   1.000  Zr
  Zr36     1.0000 0.46865  0.07829  0.04628  Biso   1.000  Zr
  Zr37     1.0000 0.48643  0.11462  0.51732  Biso   1.000  Zr
  Zr38     1.0000 0.48645  0.60724  0.00994  Biso   1.000  Zr
  Zr39     1.0000 0.50863  0.61356  0.51102  Biso   1.000  Zr
  Zr40     1.0000 0.49175  0.34934  0.98720  Biso   1.000  Zr
  Zr41     1.0000 0.49456  0.36256  0.48506  Biso   1.000  Zr
  Zr42     1.0000 0.60017  0.84354  0.96895  Biso   1.000  Zr
  Zr43     1.0000 0.50110  0.86405  0.48103  Biso   1.000  Zr
  Zr44     1.0000 0.49592  0.39149  0.23663  Biso   1.000  Zr
  Zr45     1.0000 0.48440  0.38880  0.73580  Biso   1.000  Zr
  Zr46     1.0000 0.45569  0.90546  0.21913  Biso   1.000  Zr
  Zr47     1.0000 0.49595  0.88797  0.73311  Biso   1.000  Zr
