data_image0
_cell_length_a       5.03247
_cell_length_b       10.4613
_cell_length_c       10.1188
_cell_angle_alpha    90.2993
_cell_angle_beta     89.2316
_cell_angle_gamma    90.8424

_symmetry_space_group_name_H-M    "P 1"
_symmetry_int_tables_number       1

loop_
  _symmetry_equiv_pos_as_xyz
  'x, y, z'

loop_
  _atom_site_label
  _atom_site_occupancy
  _atom_site_fract_x
  _atom_site_fract_y
  _atom_site_fract_z
  _atom_site_thermal_displace_type
  _atom_site_B_iso_or_equiv
  _atom_site_type_symbol
  Zr1      1.0000 0.28317  0.01731  0.12000  Biso   1.000  Zr
  Zr2      1.0000 0.27164  0.22667  0.39727  Biso   1.000  Zr
  Zr3      1.0000 0.72305  0.26747  0.10549  Biso   1.000  Zr
  Zr4      1.0000 0.74913  0.48801  0.37765  Biso   1.000  Zr
  Zr5      1.0000 0.04441  0.18181  0.22023  Biso   1.000  Zr
  Zr6      1.0000 0.07580  0.06314  0.45422  Biso   1.000  Zr
  Zr7      1.0000 0.88747  0.43717  0.19420  Biso   1.000  Zr
  Zr8      1.0000 0.93731  0.31927  0.45047  Biso   1.000  Zr
  Zr9      1.0000 0.53065  0.11599  0.25525  Biso   1.000  Zr
  Zr10     1.0000 0.55475  0.13174  0.50638  Biso   1.000  Zr
  Zr11     1.0000 0.46646  0.38417  0.49149  Biso   1.000  Zr
  Zr12     1.0000 0.37430  0.34602  0.22591  Biso   1.000  Zr
  Zr13     1.0000 0.28260  0.01621  0.63227  Biso   1.000  Zr
  Zr14     1.0000 0.27132  0.23647  0.88643  Biso   1.000  Zr
  Zr15     1.0000 0.74414  0.26665  0.63375  Biso   1.000  Zr
  Zr16     1.0000 0.73321  0.49110  0.86607  Biso   1.000  Zr
  Zr17     1.0000 0.07960  0.18352  0.69347  Biso   1.000  Zr
  Zr18     1.0000 0.09193  0.06325  0.94373  Biso   1.000  Zr
  Zr19     1.0000 0.92352  0.44074  0.68597  Biso   1.000  Zr
  Zr20     1.0000 0.90379  0.31508  0.91526  Biso   1.000  Zr
  Zr21     1.0000 0.54410  0.11895  0.75412  Biso   1.000  Zr
  Zr22     1.0000 0.58497  0.11886  0.99349  Biso   1.000  Zr
  Zr23     1.0000 0.47595  0.39370  0.99204  Biso   1.000  Zr
  Zr24     1.0000 0.45145  0.37068  0.74551  Biso   1.000  Zr
  Zr25     1.0000 0.24873  0.51859  0.12056  Biso   1.000  Zr
  Zr26     1.0000 0.27538  0.73568  0.37534  Biso   1.000  Zr
  Zr27     1.0000 0.73396  0.76420  0.12518  Biso   1.000  Zr
  Zr28     1.0000 0.74075  0.98510  0.37306  Biso   1.000  Zr
  Zr29     1.0000 0.06144  0.68141  0.19887  Biso   1.000  Zr
  Zr30     1.0000 0.07243  0.56910  0.44724  Biso   1.000  Zr
  Zr31     1.0000 0.94052  0.93389  0.19427  Biso   1.000  Zr
  Zr32     1.0000 0.93420  0.81608  0.44242  Biso   1.000  Zr
  Zr33     1.0000 0.52307  0.60920  0.24997  Biso   1.000  Zr
  Zr34     1.0000 0.54126  0.63451  0.49777  Biso   1.000  Zr
  Zr35     1.0000 0.46870  0.88454  0.49886  Biso   1.000  Zr
  Zr36     1.0000 0.47138  0.86420  0.24837  Biso   1.000  Zr
  Zr37     1.0000 0.27447  0.51559  0.62391  Biso   1.000  Zr
  Zr38     1.0000 0.27189  0.73614  0.87468  Biso   1.000  Zr
  Zr39     1.0000 0.74254  0.76643  0.62260  Biso   1.000  Zr
  Zr40     1.0000 0.74550  0.98044  0.87393  Biso   1.000  Zr
  Zr41     1.0000 0.07127  0.68297  0.69623  Biso   1.000  Zr
  Zr42     1.0000 0.06726  0.56724  0.94550  Biso   1.000  Zr
  Zr43     1.0000 0.94187  0.93072  0.69544  Biso   1.000  Zr
  Zr44     1.0000 0.93536  0.81509  0.94716  Biso   1.000  Zr
  Zr45     1.0000 0.53705  0.62075  0.74638  Biso   1.000  Zr
  Zr46     1.0000 0.53172  0.63625  0.99854  Biso   1.000  Zr
  Zr47     1.0000 0.46659  0.88009  0.99930  Biso   1.000  Zr
  Zr48     1.0000 0.47160  0.86706  0.74893  Biso   1.000  Zr
  B1       1.0000 0.21423  0.25983  0.14259  Biso   1.000  B 
