data_image0
_cell_length_a       10.0802
_cell_length_b       5.21659
_cell_length_c       10.13
_cell_angle_alpha    90.3242
_cell_angle_beta     89.2049
_cell_angle_gamma    90.7777

_symmetry_space_group_name_H-M    "P 1"
_symmetry_int_tables_number       1

loop_
  _symmetry_equiv_pos_as_xyz
  'x, y, z'

loop_
  _atom_site_label
  _atom_site_occupancy
  _atom_site_fract_x
  _atom_site_fract_y
  _atom_site_fract_z
  _atom_site_thermal_displace_type
  _atom_site_B_iso_or_equiv
  _atom_site_type_symbol
  Zr1      1.0000 0.13534  0.03743  0.11231  Biso   1.000  Zr
  Zr2      1.0000 0.13552  0.45164  0.39820  Biso   1.000  Zr
  Zr3      1.0000 0.36661  0.51522  0.11756  Biso   1.000  Zr
  Zr4      1.0000 0.37615  0.97099  0.37824  Biso   1.000  Zr
  Zr5      1.0000 0.02287  0.36940  0.22251  Biso   1.000  Zr
  Zr6      1.0000 0.03428  0.12983  0.45530  Biso   1.000  Zr
  Zr7      1.0000 0.45563  0.85736  0.19657  Biso   1.000  Zr
  Zr8      1.0000 0.46611  0.62872  0.44367  Biso   1.000  Zr
  Zr9      1.0000 0.26189  0.20886  0.25609  Biso   1.000  Zr
  Zr10     1.0000 0.27598  0.25712  0.50581  Biso   1.000  Zr
  Zr11     1.0000 0.23389  0.76431  0.49533  Biso   1.000  Zr
  Zr12     1.0000 0.19619  0.68150  0.22794  Biso   1.000  Zr
  Zr13     1.0000 0.13744  0.02935  0.63239  Biso   1.000  Zr
  Zr14     1.0000 0.13607  0.47669  0.88772  Biso   1.000  Zr
  Zr15     1.0000 0.36989  0.52971  0.62867  Biso   1.000  Zr
  Zr16     1.0000 0.37581  0.97134  0.86824  Biso   1.000  Zr
  Zr17     1.0000 0.03965  0.37247  0.69263  Biso   1.000  Zr
  Zr18     1.0000 0.03556  0.13472  0.94373  Biso   1.000  Zr
  Zr19     1.0000 0.46846  0.86655  0.68762  Biso   1.000  Zr
  Zr20     1.0000 0.47037  0.63061  0.94300  Biso   1.000  Zr
  Zr21     1.0000 0.26933  0.23901  0.75197  Biso   1.000  Zr
  Zr22     1.0000 0.28807  0.24799  0.99006  Biso   1.000  Zr
  Zr23     1.0000 0.24428  0.77705  0.99267  Biso   1.000  Zr
  Zr24     1.0000 0.23272  0.73554  0.74853  Biso   1.000  Zr
  Zr25     1.0000 0.63108  0.03326  0.12681  Biso   1.000  Zr
  Zr26     1.0000 0.63756  0.47227  0.37462  Biso   1.000  Zr
  Zr27     1.0000 0.86388  0.54727  0.11492  Biso   1.000  Zr
  Zr28     1.0000 0.86764  0.97503  0.37174  Biso   1.000  Zr
  Zr29     1.0000 0.52928  0.35650  0.19878  Biso   1.000  Zr
  Zr30     1.0000 0.53845  0.13335  0.44628  Biso   1.000  Zr
  Zr31     1.0000 0.95606  0.88637  0.19020  Biso   1.000  Zr
  Zr32     1.0000 0.96823  0.64106  0.44806  Biso   1.000  Zr
  Zr33     1.0000 0.76581  0.23992  0.24792  Biso   1.000  Zr
  Zr34     1.0000 0.77104  0.27264  0.49744  Biso   1.000  Zr
  Zr35     1.0000 0.73320  0.77047  0.49562  Biso   1.000  Zr
  Zr36     1.0000 0.72655  0.73955  0.24590  Biso   1.000  Zr
  Zr37     1.0000 0.64027  0.03424  0.62375  Biso   1.000  Zr
  Zr38     1.0000 0.63763  0.46833  0.87448  Biso   1.000  Zr
  Zr39     1.0000 0.87281  0.53622  0.62632  Biso   1.000  Zr
  Zr40     1.0000 0.86321  0.97368  0.87182  Biso   1.000  Zr
  Zr41     1.0000 0.53564  0.36246  0.69718  Biso   1.000  Zr
  Zr42     1.0000 0.54272  0.12993  0.94509  Biso   1.000  Zr
  Zr43     1.0000 0.96416  0.87520  0.69432  Biso   1.000  Zr
  Zr44     1.0000 0.95129  0.63328  0.92505  Biso   1.000  Zr
  Zr45     1.0000 0.77166  0.23961  0.74688  Biso   1.000  Zr
  Zr46     1.0000 0.76981  0.26598  0.99871  Biso   1.000  Zr
  Zr47     1.0000 0.72831  0.76788  0.99841  Biso   1.000  Zr
  Zr48     1.0000 0.72943  0.73997  0.74608  Biso   1.000  Zr
  B1       1.0000 0.11012  0.52032  0.14460  Biso   1.000  B 
