data_image0
_cell_length_a       5.13837
_cell_length_b       10.2981
_cell_length_c       10.642
_cell_angle_alpha    90.0271
_cell_angle_beta     79.1865
_cell_angle_gamma    89.78

_symmetry_space_group_name_H-M    "P 1"
_symmetry_int_tables_number       1

loop_
  _symmetry_equiv_pos_as_xyz
  'x, y, z'

loop_
  _atom_site_label
  _atom_site_occupancy
  _atom_site_fract_x
  _atom_site_fract_y
  _atom_site_fract_z
  _atom_site_thermal_displace_type
  _atom_site_B_iso_or_equiv
  _atom_site_type_symbol
  Zr1      1.0000 0.26598  0.02146  0.13838  Biso   1.000  Zr
  Zr2      1.0000 0.33048  0.23336  0.39376  Biso   1.000  Zr
  Zr3      1.0000 0.71044  0.27025  0.11132  Biso   1.000  Zr
  Zr4      1.0000 0.71283  0.47197  0.34725  Biso   1.000  Zr
  O1       1.0000 0.05195  0.16188  0.07240  Biso   1.000  O
  O2       1.0000 0.01893  0.12287  0.31520  Biso   1.000  O
  O3       1.0000 0.91971  0.42065  0.16793  Biso   1.000  O
  O4       1.0000 0.94893  0.32579  0.42682  Biso   1.000  O
  O5       1.0000 0.52073  0.11450  0.23717  Biso   1.000  O
  O6       1.0000 0.63814  0.13922  0.47092  Biso   1.000  O
  O7       1.0000 0.44285  0.37868  0.01107  Biso   1.000  O
  O8       1.0000 0.41205  0.37767  0.25544  Biso   1.000  O
  Zr5      1.0000 0.26515  0.01588  0.65287  Biso   1.000  Zr
  Zr6      1.0000 0.27084  0.23012  0.89711  Biso   1.000  Zr
  Zr7      1.0000 0.73910  0.27227  0.61866  Biso   1.000  Zr
  Zr8      1.0000 0.72162  0.47943  0.85889  Biso   1.000  Zr
  O9       1.0000 0.10663  0.16577  0.57261  Biso   1.000  O
  O10      1.0000 0.05661  0.08817  0.82658  Biso   1.000  O
  O11      1.0000 0.94644  0.41373  0.67703  Biso   1.000  O
  O12      1.0000 0.92851  0.33678  0.92709  Biso   1.000  O
  O13      1.0000 0.54940  0.12669  0.73728  Biso   1.000  O
  O14      1.0000 0.54467  0.12388  0.98951  Biso   1.000  O
  O15      1.0000 0.46835  0.37787  0.51504  Biso   1.000  O
  O16      1.0000 0.45616  0.37261  0.76311  Biso   1.000  O
  Zr9      1.0000 0.26847  0.52302  0.14453  Biso   1.000  Zr
  Zr10     1.0000 0.27008  0.72251  0.39649  Biso   1.000  Zr
  Zr11     1.0000 0.71201  0.76999  0.10530  Biso   1.000  Zr
  Zr12     1.0000 0.71019  0.96592  0.34983  Biso   1.000  Zr
  O17      1.0000 0.05672  0.66673  0.07551  Biso   1.000  O
  O18      1.0000 0.05481  0.58292  0.32791  Biso   1.000  O
  O19      1.0000 0.92988  0.91068  0.17849  Biso   1.000  O
  O20      1.0000 0.93491  0.83870  0.42647  Biso   1.000  O
  O21      1.0000 0.54371  0.62574  0.24085  Biso   1.000  O
  O22      1.0000 0.54918  0.62185  0.48967  Biso   1.000  O
  O23      1.0000 0.44329  0.87869  0.00990  Biso   1.000  O
  O24      1.0000 0.43086  0.86983  0.25993  Biso   1.000  O
  Zr13     1.0000 0.28585  0.52474  0.64705  Biso   1.000  Zr
  Zr14     1.0000 0.27101  0.72830  0.89665  Biso   1.000  Zr
  Zr15     1.0000 0.71795  0.77171  0.60411  Biso   1.000  Zr
  Zr16     1.0000 0.71545  0.97801  0.85688  Biso   1.000  Zr
  O25      1.0000 0.06285  0.66395  0.57821  Biso   1.000  O
  O26      1.0000 0.06539  0.58679  0.82691  Biso   1.000  O
  O27      1.0000 0.93042  0.91228  0.67800  Biso   1.000  O
  O28      1.0000 0.93013  0.83920  0.92701  Biso   1.000  O
  O29      1.0000 0.55353  0.62828  0.74101  Biso   1.000  O
  O30      1.0000 0.54594  0.62379  0.99119  Biso   1.000  O
  O31      1.0000 0.44229  0.88296  0.50916  Biso   1.000  O
  O32      1.0000 0.44579  0.87129  0.76199  Biso   1.000  O
  B1       1.0000 0.82541  0.22070  0.36848  Biso   1.000  B
