data_image0
_cell_length_a       10.4972
_cell_length_b       5.48143
_cell_length_c       10.4966
_cell_angle_alpha    102.516
_cell_angle_beta     82.6315
_cell_angle_gamma    102.52

_symmetry_space_group_name_H-M    "P 1"
_symmetry_int_tables_number       1

loop_
  _symmetry_equiv_pos_as_xyz
  'x, y, z'

loop_
  _atom_site_label
  _atom_site_occupancy
  _atom_site_fract_x
  _atom_site_fract_y
  _atom_site_fract_z
  _atom_site_thermal_displace_type
  _atom_site_B_iso_or_equiv
  _atom_site_type_symbol
  Zr1      1.0000 0.15947  0.93732  0.15948  Biso   1.000  Zr
  Zr2      1.0000 0.11246  0.51944  0.36610  Biso   1.000  Zr
  Zr3      1.0000 0.36609  0.51944  0.11248  Biso   1.000  Zr
  Zr4      1.0000 0.40503  0.98198  0.40505  Biso   1.000  Zr
  Zr5      1.0000 0.92704  0.38637  0.92706  Biso   1.000  Zr
  Zr6      1.0000 0.01357  0.15593  0.27055  Biso   1.000  Zr
  Zr7      1.0000 0.00019  0.67549  0.24897  Biso   1.000  Zr
  Zr8      1.0000 0.00433  0.85059  0.00435  Biso   1.000  Zr
  Zr9      1.0000 0.24972  0.30626  0.24976  Biso   1.000  Zr
  Zr10     1.0000 0.27055  0.15591  0.01360  Biso   1.000  Zr
  Zr11     1.0000 0.24900  0.67553  0.00020  Biso   1.000  Zr
  Zr12     1.0000 0.26798  0.80026  0.26800  Biso   1.000  Zr
  Zr13     1.0000 0.15360  0.98752  0.64803  Biso   1.000  Zr
  Zr14     1.0000 0.09990  0.55221  0.83828  Biso   1.000  Zr
  Zr15     1.0000 0.35787  0.52584  0.60763  Biso   1.000  Zr
  Zr16     1.0000 0.40414  0.97296  0.90197  Biso   1.000  Zr
  Zr17     1.0000 0.99752  0.33113  0.50534  Biso   1.000  Zr
  Zr18     1.0000 0.01340  0.16857  0.74317  Biso   1.000  Zr
  Zr19     1.0000 0.99504  0.70448  0.73830  Biso   1.000  Zr
  Zr20     1.0000 0.01029  0.80940  0.50361  Biso   1.000  Zr
  Zr21     1.0000 0.24682  0.34930  0.74785  Biso   1.000  Zr
  Zr22     1.0000 0.26227  0.16985  0.50706  Biso   1.000  Zr
  Zr23     1.0000 0.25354  0.68751  0.50338  Biso   1.000  Zr
  Zr24     1.0000 0.25654  0.83054  0.75826  Biso   1.000  Zr
  Zr25     1.0000 0.64801  0.98752  0.15363  Biso   1.000  Zr
  Zr26     1.0000 0.60762  0.52588  0.35790  Biso   1.000  Zr
  Zr27     1.0000 0.83826  0.55219  0.09991  Biso   1.000  Zr
  Zr28     1.0000 0.90194  0.97300  0.40416  Biso   1.000  Zr
  Zr29     1.0000 0.50531  0.33113  0.99754  Biso   1.000  Zr
  Zr30     1.0000 0.50705  0.16987  0.26229  Biso   1.000  Zr
  Zr31     1.0000 0.50337  0.68753  0.25357  Biso   1.000  Zr
  Zr32     1.0000 0.50362  0.80939  0.01030  Biso   1.000  Zr
  Zr33     1.0000 0.74782  0.34931  0.24684  Biso   1.000  Zr
  Zr34     1.0000 0.74312  0.16858  0.01341  Biso   1.000  Zr
  Zr35     1.0000 0.73828  0.70448  0.99507  Biso   1.000  Zr
  Zr36     1.0000 0.75824  0.83053  0.25655  Biso   1.000  Zr
  Zr37     1.0000 0.64668  0.98696  0.64670  Biso   1.000  Zr
  Zr38     1.0000 0.60003  0.52254  0.85424  Biso   1.000  Zr
  Zr39     1.0000 0.85424  0.52255  0.60005  Biso   1.000  Zr
  Zr40     1.0000 0.88211  0.99259  0.88214  Biso   1.000  Zr
  Zr41     1.0000 0.50222  0.34089  0.50224  Biso   1.000  Zr
  Zr42     1.0000 0.50457  0.16586  0.75789  Biso   1.000  Zr
  Zr43     1.0000 0.49589  0.68868  0.75094  Biso   1.000  Zr
  Zr44     1.0000 0.50882  0.81759  0.50884  Biso   1.000  Zr
  Zr45     1.0000 0.74352  0.34365  0.74353  Biso   1.000  Zr
  Zr46     1.0000 0.75788  0.16587  0.50458  Biso   1.000  Zr
  Zr47     1.0000 0.75092  0.68870  0.49592  Biso   1.000  Zr
  Zr48     1.0000 0.74838  0.81672  0.74841  Biso   1.000  Zr
  Ba1      1.0000 0.07228  0.31266  0.07222  Biso   1.000  Ba
