data_image0
_cell_length_a       10.1184
_cell_length_b       10.4621
_cell_length_c       10.2069
_cell_angle_alpha    89.6241
_cell_angle_beta     91.5698
_cell_angle_gamma    91.3176

_symmetry_space_group_name_H-M    "P 1"
_symmetry_int_tables_number       1

loop_
  _symmetry_equiv_pos_as_xyz
  'x, y, z'

loop_
  _atom_site_label
  _atom_site_occupancy
  _atom_site_fract_x
  _atom_site_fract_y
  _atom_site_fract_z
  _atom_site_thermal_displace_type
  _atom_site_B_iso_or_equiv
  _atom_site_type_symbol
  Zr1      1.0000 0.13401  0.97547  0.09885  Biso   1.000  Zr
  Zr2      1.0000 0.12477  0.23240  0.39472  Biso   1.000  Zr
  Zr3      1.0000 0.36316  0.26528  0.12256  Biso   1.000  Zr
  Zr4      1.0000 0.36475  0.48597  0.36928  Biso   1.000  Zr
  Zr5      1.0000 0.94123  0.17750  0.28166  Biso   1.000  Zr
  Zr6      1.0000 0.04047  0.05814  0.45432  Biso   1.000  Zr
  Zr7      1.0000 0.45528  0.43716  0.19091  Biso   1.000  Zr
  Zr8      1.0000 0.47681  0.33564  0.46589  Biso   1.000  Zr
  Zr9      1.0000 0.21566  0.10882  0.23908  Biso   1.000  Zr
  Zr10     1.0000 0.27585  0.14017  0.49212  Biso   1.000  Zr
  Zr11     1.0000 0.23785  0.38781  0.49454  Biso   1.000  Zr
  Zr12     1.0000 0.21981  0.36405  0.24620  Biso   1.000  Zr
  Zr13     1.0000 0.14401  0.00491  0.61731  Biso   1.000  Zr
  Zr14     1.0000 0.15109  0.22612  0.83902  Biso   1.000  Zr
  Zr15     1.0000 0.37902  0.26801  0.62347  Biso   1.000  Zr
  Zr16     1.0000 0.36825  0.48370  0.87466  Biso   1.000  Zr
  Zr17     1.0000 0.05417  0.17976  0.66721  Biso   1.000  Zr
  Zr18     1.0000 0.04585  0.06535  0.92556  Biso   1.000  Zr
  Zr19     1.0000 0.47446  0.43226  0.70802  Biso   1.000  Zr
  Zr20     1.0000 0.47710  0.31907  0.95668  Biso   1.000  Zr
  Zr21     1.0000 0.28309  0.11056  0.73891  Biso   1.000  Zr
  Zr22     1.0000 0.27721  0.12227  0.99199  Biso   1.000  Zr
  Zr23     1.0000 0.23279  0.38460  0.98870  Biso   1.000  Zr
  Zr24     1.0000 0.24062  0.36772  0.73665  Biso   1.000  Zr
  Zr25     1.0000 0.13360  0.52417  0.12273  Biso   1.000  Zr
  Zr26     1.0000 0.13700  0.74137  0.37402  Biso   1.000  Zr
  Zr27     1.0000 0.37325  0.76060  0.12580  Biso   1.000  Zr
  Zr28     1.0000 0.36865  0.00456  0.35569  Biso   1.000  Zr
  Zr29     1.0000 0.03659  0.68338  0.19872  Biso   1.000  Zr
  Zr30     1.0000 0.03445  0.57764  0.44146  Biso   1.000  Zr
  Zr31     1.0000 0.46820  0.93376  0.19610  Biso   1.000  Zr
  Zr32     1.0000 0.47220  0.82548  0.44201  Biso   1.000  Zr
  Zr33     1.0000 0.27282  0.62026  0.24941  Biso   1.000  Zr
  Zr34     1.0000 0.26902  0.63817  0.49631  Biso   1.000  Zr
  Zr35     1.0000 0.24240  0.89011  0.48816  Biso   1.000  Zr
  Zr36     1.0000 0.23978  0.86089  0.23953  Biso   1.000  Zr
  Zr37     1.0000 0.13478  0.51654  0.61405  Biso   1.000  Zr
  Zr38     1.0000 0.14210  0.72989  0.86544  Biso   1.000  Zr
  Zr39     1.0000 0.37772  0.76845  0.61421  Biso   1.000  Zr
  Zr40     1.0000 0.37862  0.98181  0.87014  Biso   1.000  Zr
  Zr41     1.0000 0.04157  0.68855  0.69066  Biso   1.000  Zr
  Zr42     1.0000 0.03474  0.56876  0.94651  Biso   1.000  Zr
  Zr43     1.0000 0.48538  0.92522  0.70908  Biso   1.000  Zr
  Zr44     1.0000 0.49639  0.83028  0.96631  Biso   1.000  Zr
  Zr45     1.0000 0.27124  0.61254  0.74607  Biso   1.000  Zr
  Zr46     1.0000 0.27532  0.63168  0.99612  Biso   1.000  Zr
  Zr47     1.0000 0.25317  0.87072  0.98409  Biso   1.000  Zr
  Zr48     1.0000 0.24575  0.86140  0.73993  Biso   1.000  Zr
  Zr49     1.0000 0.63318  0.98595  0.10417  Biso   1.000  Zr
  Zr50     1.0000 0.62052  0.22745  0.40031  Biso   1.000  Zr
  Zr51     1.0000 0.80247  0.25956  0.16157  Biso   1.000  Zr
  Zr52     1.0000 0.86720  0.48489  0.38003  Biso   1.000  Zr
  Zr53     1.0000 0.46876  0.17542  0.25786  Biso   1.000  Zr
  Zr54     1.0000 0.52435  0.06883  0.47471  Biso   1.000  Zr
  Zr55     1.0000 0.94583  0.42535  0.20150  Biso   1.000  Zr
  Zr56     1.0000 0.97906  0.33528  0.47070  Biso   1.000  Zr
  Zr57     1.0000 0.70834  0.10358  0.25573  Biso   1.000  Zr
  Zr58     1.0000 0.77445  0.13884  0.50725  Biso   1.000  Zr
  Zr59     1.0000 0.73957  0.38407  0.50713  Biso   1.000  Zr
  Zr60     1.0000 0.69215  0.37193  0.26698  Biso   1.000  Zr
  Zr61     1.0000 0.64699  0.01366  0.62903  Biso   1.000  Zr
  Zr62     1.0000 0.63985  0.23741  0.87762  Biso   1.000  Zr
  Zr63     1.0000 0.87830  0.27595  0.64113  Biso   1.000  Zr
  Zr64     1.0000 0.86851  0.48425  0.86907  Biso   1.000  Zr
  Zr65     1.0000 0.54229  0.18208  0.70305  Biso   1.000  Zr
  Zr66     1.0000 0.53732  0.07586  0.95217  Biso   1.000  Zr
  Zr67     1.0000 0.95990  0.45770  0.68250  Biso   1.000  Zr
  Zr68     1.0000 0.96391  0.30822  0.86262  Biso   1.000  Zr
  Zr69     1.0000 0.77756  0.11693  0.75746  Biso   1.000  Zr
  Zr70     1.0000 0.77308  0.12994  0.00996  Biso   1.000  Zr
  Zr71     1.0000 0.73956  0.38281  0.00645  Biso   1.000  Zr
  Zr72     1.0000 0.72880  0.37019  0.75184  Biso   1.000  Zr
  Zr73     1.0000 0.62912  0.51996  0.12430  Biso   1.000  Zr
  Zr74     1.0000 0.63595  0.73929  0.37638  Biso   1.000  Zr
  Zr75     1.0000 0.87024  0.76009  0.12719  Biso   1.000  Zr
  Zr76     1.0000 0.87059  0.99908  0.36402  Biso   1.000  Zr
  Zr77     1.0000 0.53838  0.68207  0.19847  Biso   1.000  Zr
  Zr78     1.0000 0.53075  0.57525  0.44749  Biso   1.000  Zr
  Zr79     1.0000 0.96467  0.93842  0.19151  Biso   1.000  Zr
  Zr80     1.0000 0.97043  0.82383  0.44266  Biso   1.000  Zr
  Zr81     1.0000 0.76968  0.61427  0.24779  Biso   1.000  Zr
  Zr82     1.0000 0.76920  0.63643  0.49640  Biso   1.000  Zr
  Zr83     1.0000 0.73726  0.89046  0.49454  Biso   1.000  Zr
  Zr84     1.0000 0.73797  0.85948  0.24266  Biso   1.000  Zr
  Zr85     1.0000 0.63425  0.51330  0.62118  Biso   1.000  Zr
  Zr86     1.0000 0.63985  0.73254  0.86863  Biso   1.000  Zr
  Zr87     1.0000 0.87420  0.76762  0.61611  Biso   1.000  Zr
  Zr88     1.0000 0.87745  0.98064  0.86872  Biso   1.000  Zr
  Zr89     1.0000 0.53742  0.68065  0.69496  Biso   1.000  Zr
  Zr90     1.0000 0.53426  0.57465  0.94825  Biso   1.000  Zr
  Zr91     1.0000 0.97759  0.93012  0.70047  Biso   1.000  Zr
  Zr92     1.0000 0.99499  0.82494  0.96374  Biso   1.000  Zr
  Zr93     1.0000 0.77139  0.61620  0.74652  Biso   1.000  Zr
  Zr94     1.0000 0.77162  0.63365  0.99637  Biso   1.000  Zr
  Zr95     1.0000 0.75013  0.87700  0.99045  Biso   1.000  Zr
  Zr96     1.0000 0.74502  0.86276  0.74396  Biso   1.000  Zr
  Ba1      1.0000 0.05737  0.24811  0.08885  Biso   1.000  Ba
