data_image0
_cell_length_a       10.1608
_cell_length_b       5.25845
_cell_length_c       10.1781
_cell_angle_alpha    90.0946
_cell_angle_beta     89.5472
_cell_angle_gamma    90.2708

_symmetry_space_group_name_H-M    "P 1"
_symmetry_int_tables_number       1

loop_
  _symmetry_equiv_pos_as_xyz
  'x, y, z'

loop_
  _atom_site_label
  _atom_site_occupancy
  _atom_site_fract_x
  _atom_site_fract_y
  _atom_site_fract_z
  _atom_site_thermal_displace_type
  _atom_site_B_iso_or_equiv
  _atom_site_type_symbol
  Ba1      1.0000 0.10149  0.98347  0.13998  Biso   1.000  Ba
  Zr1      1.0000 0.13834  0.03411  0.62290  Biso   1.000  Zr
  Zr2      1.0000 0.63010  0.03592  0.11622  Biso   1.000  Zr
  Zr3      1.0000 0.62956  0.02932  0.62458  Biso   1.000  Zr
  Zr4      1.0000 0.14257  0.47727  0.37755  Biso   1.000  Zr
  Zr5      1.0000 0.14336  0.46599  0.87572  Biso   1.000  Zr
  Zr6      1.0000 0.63160  0.46177  0.37415  Biso   1.000  Zr
  Zr7      1.0000 0.62694  0.47333  0.86673  Biso   1.000  Zr
  Zr8      1.0000 0.36745  0.50840  0.12470  Biso   1.000  Zr
  Zr9      1.0000 0.36666  0.53543  0.62480  Biso   1.000  Zr
  Zr10     1.0000 0.88450  0.47694  0.08088  Biso   1.000  Zr
  Zr11     1.0000 0.87413  0.53921  0.62316  Biso   1.000  Zr
  Zr12     1.0000 0.37225  0.96983  0.36956  Biso   1.000  Zr
  Zr13     1.0000 0.36286  0.96248  0.87981  Biso   1.000  Zr
  Zr14     1.0000 0.86373  0.99140  0.39291  Biso   1.000  Zr
  Zr15     1.0000 0.86004  0.97337  0.86563  Biso   1.000  Zr
  Zr16     1.0000 0.04177  0.45435  0.19953  Biso   1.000  Zr
  Zr17     1.0000 0.03756  0.36869  0.69304  Biso   1.000  Zr
  Zr18     1.0000 0.54129  0.35681  0.19891  Biso   1.000  Zr
  Zr19     1.0000 0.53134  0.36135  0.69384  Biso   1.000  Zr
  Zr20     1.0000 0.03861  0.13933  0.43705  Biso   1.000  Zr
  Zr21     1.0000 0.99533  0.22172  0.95115  Biso   1.000  Zr
  Zr22     1.0000 0.54051  0.13257  0.44611  Biso   1.000  Zr
  Zr23     1.0000 0.52654  0.14047  0.94577  Biso   1.000  Zr
  Zr24     1.0000 0.47736  0.85074  0.19869  Biso   1.000  Zr
  Zr25     1.0000 0.46917  0.86053  0.70232  Biso   1.000  Zr
  Zr26     1.0000 0.85594  0.74853  0.22958  Biso   1.000  Zr
  Zr27     1.0000 0.96601  0.87780  0.69294  Biso   1.000  Zr
  Zr28     1.0000 0.47681  0.63465  0.45447  Biso   1.000  Zr
  Zr29     1.0000 0.47587  0.64191  0.95079  Biso   1.000  Zr
  Zr30     1.0000 0.97799  0.65612  0.45491  Biso   1.000  Zr
  Zr31     1.0000 0.98651  0.70120  0.94512  Biso   1.000  Zr
  Zr32     1.0000 0.28308  0.23439  0.25680  Biso   1.000  Zr
  Zr33     1.0000 0.26842  0.23199  0.74956  Biso   1.000  Zr
  Zr34     1.0000 0.78305  0.22520  0.23778  Biso   1.000  Zr
  Zr35     1.0000 0.76701  0.23426  0.73936  Biso   1.000  Zr
  Zr36     1.0000 0.27089  0.27214  0.50351  Biso   1.000  Zr
  Zr37     1.0000 0.26775  0.25193  0.99397  Biso   1.000  Zr
  Zr38     1.0000 0.76959  0.28082  0.49605  Biso   1.000  Zr
  Zr39     1.0000 0.75259  0.25497  0.98443  Biso   1.000  Zr
  Zr40     1.0000 0.24001  0.77713  0.50006  Biso   1.000  Zr
  Zr41     1.0000 0.24501  0.73152  0.99500  Biso   1.000  Zr
  Zr42     1.0000 0.73623  0.77183  0.49961  Biso   1.000  Zr
  Zr43     1.0000 0.74128  0.75384  0.99491  Biso   1.000  Zr
  Zr44     1.0000 0.25883  0.70629  0.26152  Biso   1.000  Zr
  Zr45     1.0000 0.23002  0.73858  0.74660  Biso   1.000  Zr
  Zr46     1.0000 0.71426  0.75818  0.24441  Biso   1.000  Zr
  Zr47     1.0000 0.73282  0.73310  0.74506  Biso   1.000  Zr
