data_image0
_cell_length_a       10.2454
_cell_length_b       10.3974
_cell_length_c       10.6291
_cell_angle_alpha    89.9037
_cell_angle_beta     79.568
_cell_angle_gamma    90.1467

_symmetry_space_group_name_H-M    "P 1"
_symmetry_int_tables_number       1

loop_
  _symmetry_equiv_pos_as_xyz
  'x, y, z'

loop_
  _atom_site_label
  _atom_site_occupancy
  _atom_site_fract_x
  _atom_site_fract_y
  _atom_site_fract_z
  _atom_site_thermal_displace_type
  _atom_site_B_iso_or_equiv
  _atom_site_type_symbol
  Zr1      1.0000 0.13223  0.02037  0.14421  Biso   1.000  Zr
  Zr2      1.0000 0.13164  0.22652  0.39252  Biso   1.000  Zr
  Zr3      1.0000 0.34323  0.27196  0.07759  Biso   1.000  Zr
  Zr4      1.0000 0.35838  0.49359  0.35703  Biso   1.000  Zr
  O1       1.0000 0.03163  0.16660  0.07449  Biso   1.000  O
  O2       1.0000 0.02642  0.08297  0.32788  Biso   1.000  O
  O3       1.0000 0.45886  0.43299  0.15864  Biso   1.000  O
  O4       1.0000 0.48238  0.37560  0.45431  Biso   1.000  O
  O5       1.0000 0.26263  0.12417  0.23193  Biso   1.000  O
  O6       1.0000 0.28345  0.12324  0.48015  Biso   1.000  O
  O7       1.0000 0.21105  0.38662  0.00064  Biso   1.000  O
  O8       1.0000 0.22532  0.36980  0.25648  Biso   1.000  O
  Zr5      1.0000 0.14095  0.02221  0.64269  Biso   1.000  Zr
  Zr6      1.0000 0.13192  0.22860  0.88854  Biso   1.000  Zr
  Zr7      1.0000 0.36415  0.28094  0.60703  Biso   1.000  Zr
  Zr8      1.0000 0.35847  0.48347  0.85473  Biso   1.000  Zr
  O9       1.0000 0.03927  0.16779  0.57781  Biso   1.000  O
  O10      1.0000 0.03129  0.08407  0.82400  Biso   1.000  O
  O11      1.0000 0.46883  0.41449  0.68737  Biso   1.000  O
  O12      1.0000 0.46474  0.33593  0.91802  Biso   1.000  O
  O13      1.0000 0.27383  0.12920  0.73533  Biso   1.000  O
  O14      1.0000 0.26726  0.12038  0.98100  Biso   1.000  O
  O15      1.0000 0.22625  0.37890  0.50695  Biso   1.000  O
  O16      1.0000 0.22377  0.37357  0.75674  Biso   1.000  O
  Zr9      1.0000 0.13837  0.52180  0.14788  Biso   1.000  Zr
  Zr10     1.0000 0.13392  0.72939  0.39676  Biso   1.000  Zr
  Zr11     1.0000 0.35904  0.77373  0.10382  Biso   1.000  Zr
  Zr12     1.0000 0.36347  0.96433  0.35716  Biso   1.000  Zr
  O17      1.0000 0.03236  0.66402  0.07798  Biso   1.000  O
  O18      1.0000 0.03186  0.58360  0.32874  Biso   1.000  O
  O19      1.0000 0.46578  0.91615  0.17543  Biso   1.000  O
  O20      1.0000 0.46217  0.82238  0.42512  Biso   1.000  O
  O21      1.0000 0.27225  0.63163  0.24210  Biso   1.000  O
  O22      1.0000 0.27012  0.62554  0.49385  Biso   1.000  O
  O23      1.0000 0.22287  0.87922  0.01015  Biso   1.000  O
  O24      1.0000 0.22197  0.86949  0.26053  Biso   1.000  O
  Zr13     1.0000 0.13712  0.52213  0.64582  Biso   1.000  Zr
  Zr14     1.0000 0.13674  0.72829  0.89723  Biso   1.000  Zr
  Zr15     1.0000 0.36082  0.76989  0.60750  Biso   1.000  Zr
  Zr16     1.0000 0.35934  0.97812  0.85198  Biso   1.000  Zr
  O25      1.0000 0.02975  0.66472  0.57805  Biso   1.000  O
  O26      1.0000 0.03209  0.58534  0.82757  Biso   1.000  O
  O27      1.0000 0.46565  0.91530  0.67138  Biso   1.000  O
  O28      1.0000 0.46504  0.83756  0.92262  Biso   1.000  O
  O29      1.0000 0.27405  0.62791  0.74160  Biso   1.000  O
  O30      1.0000 0.27511  0.62560  0.99270  Biso   1.000  O
  O31      1.0000 0.22358  0.87771  0.51202  Biso   1.000  O
  O32      1.0000 0.22346  0.87085  0.76046  Biso   1.000  O
  Zr17     1.0000 0.64283  0.01460  0.14897  Biso   1.000  Zr
  Zr18     1.0000 0.65953  0.22795  0.41701  Biso   1.000  Zr
  Zr19     1.0000 0.85898  0.27206  0.10726  Biso   1.000  Zr
  Zr20     1.0000 0.85985  0.47848  0.35514  Biso   1.000  Zr
  O33      1.0000 0.52749  0.15803  0.06927  Biso   1.000  O
  O34      1.0000 0.55986  0.05163  0.34813  Biso   1.000  O
  O35      1.0000 0.96515  0.41494  0.17467  Biso   1.000  O
  O36      1.0000 0.96362  0.33198  0.42388  Biso   1.000  O
  O37      1.0000 0.77842  0.12916  0.24302  Biso   1.000  O
  O38      1.0000 0.78738  0.11550  0.50196  Biso   1.000  O
  O39      1.0000 0.72175  0.37777  0.01429  Biso   1.000  O
  O40      1.0000 0.71968  0.36993  0.26515  Biso   1.000  O
  Zr21     1.0000 0.63827  0.02059  0.64798  Biso   1.000  Zr
  Zr22     1.0000 0.63744  0.22551  0.89800  Biso   1.000  Zr
  Zr23     1.0000 0.86510  0.27151  0.61264  Biso   1.000  Zr
  Zr24     1.0000 0.85871  0.47909  0.85739  Biso   1.000  Zr
  O41      1.0000 0.53734  0.17011  0.58333  Biso   1.000  O
  O42      1.0000 0.53077  0.08477  0.82509  Biso   1.000  O
  O43      1.0000 0.96780  0.41592  0.67561  Biso   1.000  O
  O44      1.0000 0.96116  0.33331  0.92191  Biso   1.000  O
  O45      1.0000 0.77479  0.12853  0.74597  Biso   1.000  O
  O46      1.0000 0.77502  0.12078  0.99390  Biso   1.000  O
  O47      1.0000 0.73240  0.37889  0.51950  Biso   1.000  O
  O48      1.0000 0.72552  0.37204  0.76507  Biso   1.000  O
  Zr25     1.0000 0.63446  0.52485  0.14364  Biso   1.000  Zr
  Zr26     1.0000 0.64019  0.72547  0.39741  Biso   1.000  Zr
  Zr27     1.0000 0.86060  0.76835  0.10515  Biso   1.000  Zr
  Zr28     1.0000 0.85603  0.97534  0.35582  Biso   1.000  Zr
  O49      1.0000 0.53446  0.67411  0.07731  Biso   1.000  O
  O50      1.0000 0.53219  0.59179  0.32177  Biso   1.000  O
  O51      1.0000 0.96306  0.91221  0.17546  Biso   1.000  O
  O52      1.0000 0.96403  0.83414  0.42432  Biso   1.000  O
  O53      1.0000 0.77630  0.62529  0.24112  Biso   1.000  O
  O54      1.0000 0.77383  0.61985  0.49098  Biso   1.000  O
  O55      1.0000 0.72530  0.87710  0.01065  Biso   1.000  O
  O56      1.0000 0.72552  0.86440  0.25862  Biso   1.000  O
  Zr29     1.0000 0.63783  0.52220  0.64949  Biso   1.000  Zr
  Zr30     1.0000 0.63670  0.73058  0.89651  Biso   1.000  Zr
  Zr31     1.0000 0.86036  0.77270  0.60652  Biso   1.000  Zr
  Zr32     1.0000 0.86043  0.97789  0.85590  Biso   1.000  Zr
  O57      1.0000 0.53180  0.66247  0.57964  Biso   1.000  O
  O58      1.0000 0.53139  0.58862  0.82990  Biso   1.000  O
  O59      1.0000 0.96668  0.91557  0.67358  Biso   1.000  O
  O60      1.0000 0.96669  0.83506  0.92445  Biso   1.000  O
  O61      1.0000 0.77381  0.62937  0.74121  Biso   1.000  O
  O62      1.0000 0.77334  0.62162  0.99014  Biso   1.000  O
  O63      1.0000 0.72251  0.87483  0.51196  Biso   1.000  O
  O64      1.0000 0.72410  0.87315  0.76154  Biso   1.000  O
  Ba1      1.0000 0.45305  0.23737  0.28582  Biso   1.000  Ba
