data_image0
_cell_length_a       10.2932
_cell_length_b       5.23212
_cell_length_c       10.7598
_cell_angle_alpha    89.9076
_cell_angle_beta     78.7927
_cell_angle_gamma    90.2745

_symmetry_space_group_name_H-M    "P 1"
_symmetry_int_tables_number       1

loop_
  _symmetry_equiv_pos_as_xyz
  'x, y, z'

loop_
  _atom_site_label
  _atom_site_occupancy
  _atom_site_fract_x
  _atom_site_fract_y
  _atom_site_fract_z
  _atom_site_thermal_displace_type
  _atom_site_B_iso_or_equiv
  _atom_site_type_symbol
  Zr1      1.0000 0.13052  0.04113  0.14734  Biso   1.000  Zr
  Zr2      1.0000 0.13056  0.45458  0.39337  Biso   1.000  Zr
  Zr3      1.0000 0.34197  0.54817  0.07466  Biso   1.000  Zr
  Zr4      1.0000 0.35816  0.95182  0.36215  Biso   1.000  Zr
  O1       1.0000 0.03009  0.32705  0.07362  Biso   1.000  O
  O2       1.0000 0.02406  0.16692  0.32872  Biso   1.000  O
  O3       1.0000 0.46386  0.87440  0.17290  Biso   1.000  O
  O4       1.0000 0.47621  0.71370  0.45359  Biso   1.000  O
  O5       1.0000 0.25902  0.24688  0.23586  Biso   1.000  O
  O6       1.0000 0.27818  0.25685  0.48543  Biso   1.000  O
  O7       1.0000 0.21021  0.77558  0.99997  Biso   1.000  O
  O8       1.0000 0.22544  0.73165  0.25339  Biso   1.000  O
  Zr5      1.0000 0.13745  0.04740  0.64322  Biso   1.000  Zr
  Zr6      1.0000 0.12889  0.45745  0.89031  Biso   1.000  Zr
  Zr7      1.0000 0.36107  0.55419  0.60990  Biso   1.000  Zr
  Zr8      1.0000 0.35613  0.96750  0.84986  Biso   1.000  Zr
  O9       1.0000 0.03316  0.32923  0.57656  Biso   1.000  O
  O10      1.0000 0.02770  0.17430  0.82339  Biso   1.000  O
  O11      1.0000 0.46881  0.82473  0.68474  Biso   1.000  O
  O12      1.0000 0.46519  0.69321  0.92143  Biso   1.000  O
  O13      1.0000 0.27070  0.25611  0.73695  Biso   1.000  O
  O14      1.0000 0.26673  0.25203  0.98235  Biso   1.000  O
  O15      1.0000 0.22062  0.75896  0.51072  Biso   1.000  O
  O16      1.0000 0.22248  0.74555  0.75710  Biso   1.000  O
  Zr9      1.0000 0.64477  0.03265  0.15070  Biso   1.000  Zr
  Zr10     1.0000 0.65466  0.44924  0.41847  Biso   1.000  Zr
  Zr11     1.0000 0.85833  0.53636  0.10766  Biso   1.000  Zr
  Zr12     1.0000 0.85543  0.95088  0.35712  Biso   1.000  Zr
  O17      1.0000 0.52315  0.32771  0.06086  Biso   1.000  O
  O18      1.0000 0.56308  0.11547  0.34657  Biso   1.000  O
  O19      1.0000 0.96225  0.82013  0.17898  Biso   1.000  O
  O20      1.0000 0.96392  0.66896  0.42697  Biso   1.000  O
  O21      1.0000 0.78398  0.25118  0.24399  Biso   1.000  O
  O22      1.0000 0.78259  0.23216  0.50234  Biso   1.000  O
  O23      1.0000 0.72289  0.75136  0.01449  Biso   1.000  O
  O24      1.0000 0.72002  0.72390  0.26283  Biso   1.000  O
  Zr13     1.0000 0.63785  0.04452  0.65309  Biso   1.000  Zr
  Zr14     1.0000 0.63549  0.45603  0.89806  Biso   1.000  Zr
  Zr15     1.0000 0.86394  0.54698  0.61225  Biso   1.000  Zr
  Zr16     1.0000 0.85721  0.95676  0.85873  Biso   1.000  Zr
  O25      1.0000 0.53280  0.32892  0.58443  Biso   1.000  O
  O26      1.0000 0.52622  0.18724  0.82308  Biso   1.000  O
  O27      1.0000 0.96784  0.82833  0.67826  Biso   1.000  O
  O28      1.0000 0.96234  0.67291  0.92517  Biso   1.000  O
  O29      1.0000 0.77320  0.26052  0.74686  Biso   1.000  O
  O30      1.0000 0.77279  0.24322  0.99443  Biso   1.000  O
  O31      1.0000 0.72863  0.75201  0.52022  Biso   1.000  O
  O32      1.0000 0.72455  0.75040  0.76573  Biso   1.000  O
  Ba1      1.0000 0.45619  0.46296  0.27618  Biso   1.000  Ba
