data_image0
_cell_length_a       10.0448
_cell_length_b       10.4242
_cell_length_c       5.08476
_cell_angle_alpha    90.357
_cell_angle_beta     89.4291
_cell_angle_gamma    89.9459

_symmetry_space_group_name_H-M    "P 1"
_symmetry_int_tables_number       1

loop_
  _symmetry_equiv_pos_as_xyz
  'x, y, z'

loop_
  _atom_site_label
  _atom_site_occupancy
  _atom_site_fract_x
  _atom_site_fract_y
  _atom_site_fract_z
  _atom_site_thermal_displace_type
  _atom_site_B_iso_or_equiv
  _atom_site_type_symbol
  Zr1      1.0000 0.13836  0.02677  0.26259  Biso   1.000  Zr
  Zr2      1.0000 0.13873  0.22815  0.81673  Biso   1.000  Zr
  Zr3      1.0000 0.35851  0.26462  0.25053  Biso   1.000  Zr
  Zr4      1.0000 0.37180  0.48637  0.74304  Biso   1.000  Zr
  Zr5      1.0000 0.01617  0.17750  0.47210  Biso   1.000  Zr
  Zr6      1.0000 0.02865  0.06807  0.93498  Biso   1.000  Zr
  Zr7      1.0000 0.46367  0.43100  0.38863  Biso   1.000  Zr
  Zr8      1.0000 0.46197  0.31499  0.87798  Biso   1.000  Zr
  Zr9      1.0000 0.26952  0.12147  0.52017  Biso   1.000  Zr
  Zr10     1.0000 0.29091  0.11733  0.00385  Biso   1.000  Zr
  Zr11     1.0000 0.23879  0.39104  0.99414  Biso   1.000  Zr
  Zr12     1.0000 0.21407  0.36495  0.49675  Biso   1.000  Zr
  Zr13     1.0000 0.13803  0.53008  0.23564  Biso   1.000  Zr
  Zr14     1.0000 0.13450  0.73936  0.74610  Biso   1.000  Zr
  Zr15     1.0000 0.36877  0.76682  0.24501  Biso   1.000  Zr
  Zr16     1.0000 0.36728  0.97886  0.74887  Biso   1.000  Zr
  Zr17     1.0000 0.03290  0.68133  0.38790  Biso   1.000  Zr
  Zr18     1.0000 0.03511  0.57040  0.88270  Biso   1.000  Zr
  Zr19     1.0000 0.46618  0.93133  0.38209  Biso   1.000  Zr
  Zr20     1.0000 0.47083  0.81551  0.89107  Biso   1.000  Zr
  Zr21     1.0000 0.27219  0.61869  0.48891  Biso   1.000  Zr
  Zr22     1.0000 0.27071  0.63701  0.98657  Biso   1.000  Zr
  Zr23     1.0000 0.22926  0.88079  0.99992  Biso   1.000  Zr
  Zr24     1.0000 0.23439  0.86730  0.49707  Biso   1.000  Zr
  Zr25     1.0000 0.63015  0.01345  0.23130  Biso   1.000  Zr
  Zr26     1.0000 0.62658  0.23149  0.72987  Biso   1.000  Zr
  Zr27     1.0000 0.85385  0.25913  0.22859  Biso   1.000  Zr
  Zr28     1.0000 0.86826  0.48046  0.74625  Biso   1.000  Zr
  Zr29     1.0000 0.53302  0.18180  0.37322  Biso   1.000  Zr
  Zr30     1.0000 0.54026  0.06239  0.86877  Biso   1.000  Zr
  Zr31     1.0000 0.98158  0.41316  0.36993  Biso   1.000  Zr
  Zr32     1.0000 0.96170  0.32169  0.89179  Biso   1.000  Zr
  Zr33     1.0000 0.76463  0.11160  0.47240  Biso   1.000  Zr
  Zr34     1.0000 0.76608  0.13423  0.97071  Biso   1.000  Zr
  Zr35     1.0000 0.72617  0.38164  0.98680  Biso   1.000  Zr
  Zr36     1.0000 0.73426  0.36623  0.48542  Biso   1.000  Zr
  Zr37     1.0000 0.63393  0.51535  0.24628  Biso   1.000  Zr
  Zr38     1.0000 0.63918  0.73361  0.74316  Biso   1.000  Zr
  Zr39     1.0000 0.86736  0.76820  0.24029  Biso   1.000  Zr
  Zr40     1.0000 0.87072  0.98795  0.73419  Biso   1.000  Zr
  Zr41     1.0000 0.53625  0.68100  0.39182  Biso   1.000  Zr
  Zr42     1.0000 0.53529  0.56698  0.89149  Biso   1.000  Zr
  Zr43     1.0000 0.97169  0.92868  0.39750  Biso   1.000  Zr
  Zr44     1.0000 0.96565  0.81916  0.88556  Biso   1.000  Zr
  Zr45     1.0000 0.77334  0.61294  0.48801  Biso   1.000  Zr
  Zr46     1.0000 0.77065  0.63084  0.99061  Biso   1.000  Zr
  Zr47     1.0000 0.73531  0.88351  0.98554  Biso   1.000  Zr
  Zr48     1.0000 0.73208  0.86480  0.48668  Biso   1.000  Zr
  Be1      1.0000 0.09291  0.29388  0.35275  Biso   1.000  Be
