data_image0
_cell_length_a       10.0592
_cell_length_b       10.4479
_cell_length_c       10.0873
_cell_angle_alpha    89.7503
_cell_angle_beta     90.4967
_cell_angle_gamma    90.304

_symmetry_space_group_name_H-M    "P 1"
_symmetry_int_tables_number       1

loop_
  _symmetry_equiv_pos_as_xyz
  'x, y, z'

loop_
  _atom_site_label
  _atom_site_occupancy
  _atom_site_fract_x
  _atom_site_fract_y
  _atom_site_fract_z
  _atom_site_thermal_displace_type
  _atom_site_B_iso_or_equiv
  _atom_site_type_symbol
  Zr1      1.0000 0.13738  0.02479  0.11582  Biso   1.000  Zr
  Zr2      1.0000 0.13144  0.23238  0.38467  Biso   1.000  Zr
  Zr3      1.0000 0.35843  0.26231  0.11737  Biso   1.000  Zr
  Zr4      1.0000 0.37134  0.48811  0.37348  Biso   1.000  Zr
  Zr5      1.0000 0.01787  0.18233  0.20887  Biso   1.000  Zr
  Zr6      1.0000 0.03330  0.06839  0.45042  Biso   1.000  Zr
  Zr7      1.0000 0.45444  0.43211  0.19429  Biso   1.000  Zr
  Zr8      1.0000 0.46210  0.31661  0.44171  Biso   1.000  Zr
  Zr9      1.0000 0.26691  0.11888  0.25082  Biso   1.000  Zr
  Zr10     1.0000 0.27002  0.13219  0.49919  Biso   1.000  Zr
  Zr11     1.0000 0.23185  0.38472  0.48997  Biso   1.000  Zr
  Zr12     1.0000 0.19529  0.35552  0.22492  Biso   1.000  Zr
  Zr13     1.0000 0.13571  0.01524  0.62750  Biso   1.000  Zr
  Zr14     1.0000 0.14969  0.22787  0.87786  Biso   1.000  Zr
  Zr15     1.0000 0.36928  0.26477  0.62364  Biso   1.000  Zr
  Zr16     1.0000 0.37070  0.48614  0.87068  Biso   1.000  Zr
  Zr17     1.0000 0.03650  0.18111  0.69722  Biso   1.000  Zr
  Zr18     1.0000 0.04086  0.06620  0.93891  Biso   1.000  Zr
  Zr19     1.0000 0.46949  0.43184  0.69293  Biso   1.000  Zr
  Zr20     1.0000 0.46955  0.31573  0.94106  Biso   1.000  Zr
  Zr21     1.0000 0.27499  0.11432  0.74468  Biso   1.000  Zr
  Zr22     1.0000 0.29852  0.11832  0.98581  Biso   1.000  Zr
  Zr23     1.0000 0.24020  0.38995  0.99122  Biso   1.000  Zr
  Zr24     1.0000 0.23587  0.36530  0.74294  Biso   1.000  Zr
  Zr25     1.0000 0.12598  0.52302  0.11966  Biso   1.000  Zr
  Zr26     1.0000 0.13328  0.73539  0.37540  Biso   1.000  Zr
  Zr27     1.0000 0.36228  0.76507  0.12588  Biso   1.000  Zr
  Zr28     1.0000 0.36363  0.98343  0.37344  Biso   1.000  Zr
  Zr29     1.0000 0.03291  0.68440  0.19603  Biso   1.000  Zr
  Zr30     1.0000 0.03148  0.56939  0.44938  Biso   1.000  Zr
  Zr31     1.0000 0.46430  0.93195  0.19449  Biso   1.000  Zr
  Zr32     1.0000 0.46430  0.81510  0.44316  Biso   1.000  Zr
  Zr33     1.0000 0.26389  0.61309  0.24756  Biso   1.000  Zr
  Zr34     1.0000 0.26923  0.63320  0.49673  Biso   1.000  Zr
  Zr35     1.0000 0.23048  0.88344  0.49829  Biso   1.000  Zr
  Zr36     1.0000 0.23206  0.86523  0.24880  Biso   1.000  Zr
  Zr37     1.0000 0.13410  0.51334  0.62438  Biso   1.000  Zr
  Zr38     1.0000 0.13412  0.73738  0.87270  Biso   1.000  Zr
  Zr39     1.0000 0.36910  0.76325  0.62255  Biso   1.000  Zr
  Zr40     1.0000 0.37297  0.97586  0.87149  Biso   1.000  Zr
  Zr41     1.0000 0.03666  0.68117  0.69256  Biso   1.000  Zr
  Zr42     1.0000 0.03300  0.57171  0.94312  Biso   1.000  Zr
  Zr43     1.0000 0.47000  0.92921  0.69114  Biso   1.000  Zr
  Zr44     1.0000 0.46984  0.81344  0.94926  Biso   1.000  Zr
  Zr45     1.0000 0.26964  0.61545  0.74619  Biso   1.000  Zr
  Zr46     1.0000 0.26794  0.63523  0.99645  Biso   1.000  Zr
  Zr47     1.0000 0.23156  0.87999  0.99693  Biso   1.000  Zr
  Zr48     1.0000 0.23541  0.86425  0.74603  Biso   1.000  Zr
  Zr49     1.0000 0.62978  0.01548  0.12286  Biso   1.000  Zr
  Zr50     1.0000 0.62799  0.23075  0.37688  Biso   1.000  Zr
  Zr51     1.0000 0.84686  0.26958  0.13440  Biso   1.000  Zr
  Zr52     1.0000 0.86357  0.48715  0.37822  Biso   1.000  Zr
  Zr53     1.0000 0.53188  0.18068  0.19279  Biso   1.000  Zr
  Zr54     1.0000 0.53303  0.06485  0.44598  Biso   1.000  Zr
  Zr55     1.0000 0.95248  0.44038  0.20132  Biso   1.000  Zr
  Zr56     1.0000 0.96693  0.32130  0.45272  Biso   1.000  Zr
  Zr57     1.0000 0.76201  0.11691  0.25052  Biso   1.000  Zr
  Zr58     1.0000 0.76991  0.13376  0.49793  Biso   1.000  Zr
  Zr59     1.0000 0.73042  0.38293  0.50188  Biso   1.000  Zr
  Zr60     1.0000 0.71782  0.37121  0.25386  Biso   1.000  Zr
  Zr61     1.0000 0.63738  0.01465  0.62436  Biso   1.000  Zr
  Zr62     1.0000 0.63368  0.23207  0.87330  Biso   1.000  Zr
  Zr63     1.0000 0.86888  0.26391  0.62714  Biso   1.000  Zr
  Zr64     1.0000 0.86666  0.48449  0.87918  Biso   1.000  Zr
  Zr65     1.0000 0.53944  0.18327  0.69039  Biso   1.000  Zr
  Zr66     1.0000 0.54728  0.06025  0.93593  Biso   1.000  Zr
  Zr67     1.0000 0.97128  0.42844  0.70974  Biso   1.000  Zr
  Zr68     1.0000 0.99555  0.32050  0.99181  Biso   1.000  Zr
  Zr69     1.0000 0.77293  0.11517  0.74785  Biso   1.000  Zr
  Zr70     1.0000 0.77498  0.13601  0.99872  Biso   1.000  Zr
  Zr71     1.0000 0.73312  0.38306  0.00019  Biso   1.000  Zr
  Zr72     1.0000 0.73643  0.36534  0.75204  Biso   1.000  Zr
  Zr73     1.0000 0.62830  0.51748  0.12773  Biso   1.000  Zr
  Zr74     1.0000 0.63420  0.73667  0.37567  Biso   1.000  Zr
  Zr75     1.0000 0.86574  0.76956  0.12658  Biso   1.000  Zr
  Zr76     1.0000 0.86775  0.98556  0.37196  Biso   1.000  Zr
  Zr77     1.0000 0.52967  0.67935  0.19955  Biso   1.000  Zr
  Zr78     1.0000 0.53402  0.56706  0.44859  Biso   1.000  Zr
  Zr79     1.0000 0.96616  0.93592  0.19420  Biso   1.000  Zr
  Zr80     1.0000 0.96502  0.81800  0.44450  Biso   1.000  Zr
  Zr81     1.0000 0.76503  0.61997  0.25153  Biso   1.000  Zr
  Zr82     1.0000 0.76694  0.63490  0.50173  Biso   1.000  Zr
  Zr83     1.0000 0.73272  0.88453  0.49745  Biso   1.000  Zr
  Zr84     1.0000 0.72931  0.86799  0.24793  Biso   1.000  Zr
  Zr85     1.0000 0.63779  0.51452  0.62784  Biso   1.000  Zr
  Zr86     1.0000 0.63711  0.73457  0.87624  Biso   1.000  Zr
  Zr87     1.0000 0.86944  0.76630  0.62517  Biso   1.000  Zr
  Zr88     1.0000 0.86828  0.98419  0.87590  Biso   1.000  Zr
  Zr89     1.0000 0.53689  0.68084  0.69760  Biso   1.000  Zr
  Zr90     1.0000 0.53730  0.56652  0.94674  Biso   1.000  Zr
  Zr91     1.0000 0.96910  0.93014  0.69814  Biso   1.000  Zr
  Zr92     1.0000 0.96583  0.81661  0.94578  Biso   1.000  Zr
  Zr93     1.0000 0.77356  0.61494  0.75292  Biso   1.000  Zr
  Zr94     1.0000 0.76923  0.63271  0.00218  Biso   1.000  Zr
  Zr95     1.0000 0.73342  0.88336  0.99891  Biso   1.000  Zr
  Zr96     1.0000 0.73432  0.86532  0.74839  Biso   1.000  Zr
  Be1      1.0000 0.09746  0.27441  0.11569  Biso   1.000  Be
