data_image0
_cell_length_a       10.067
_cell_length_b       5.0232
_cell_length_c       10.0672
_cell_angle_alpha    89.9981
_cell_angle_beta     89.9999
_cell_angle_gamma    89.9976

_symmetry_space_group_name_H-M    "P 1"
_symmetry_int_tables_number       1

loop_
  _symmetry_equiv_pos_as_xyz
  'x, y, z'

loop_
  _atom_site_label
  _atom_site_occupancy
  _atom_site_fract_x
  _atom_site_fract_y
  _atom_site_fract_z
  _atom_site_thermal_displace_type
  _atom_site_B_iso_or_equiv
  _atom_site_type_symbol
  Be1      1.0000 0.12510  0.00045  0.12509  Biso   1.000  Be
  Zr1      1.0000 0.12510  0.00044  0.62508  Biso   1.000  Zr
  Zr2      1.0000 0.62508  0.00044  0.12510  Biso   1.000  Zr
  Zr3      1.0000 0.62510  0.00043  0.62510  Biso   1.000  Zr
  Zr4      1.0000 0.12510  0.50045  0.37122  Biso   1.000  Zr
  Zr5      1.0000 0.12510  0.50043  0.87897  Biso   1.000  Zr
  Zr6      1.0000 0.62510  0.50044  0.37633  Biso   1.000  Zr
  Zr7      1.0000 0.62511  0.50043  0.87387  Biso   1.000  Zr
  Zr8      1.0000 0.37121  0.50045  0.12511  Biso   1.000  Zr
  Zr9      1.0000 0.37634  0.50045  0.62511  Biso   1.000  Zr
  Zr10     1.0000 0.87898  0.50043  0.12511  Biso   1.000  Zr
  Zr11     1.0000 0.87386  0.50043  0.62511  Biso   1.000  Zr
  Zr12     1.0000 0.37260  0.00429  0.37260  Biso   1.000  Zr
  Zr13     1.0000 0.37259  0.99661  0.87761  Biso   1.000  Zr
  Zr14     1.0000 0.87761  0.99661  0.37259  Biso   1.000  Zr
  Zr15     1.0000 0.87762  0.00425  0.87763  Biso   1.000  Zr
  Zr16     1.0000 0.97491  0.30605  0.97490  Biso   1.000  Zr
  Zr17     1.0000 0.98876  0.26600  0.47949  Biso   1.000  Zr
  Zr18     1.0000 0.47950  0.26602  0.98874  Biso   1.000  Zr
  Zr19     1.0000 0.48856  0.25931  0.48854  Biso   1.000  Zr
  Zr20     1.0000 0.02790  0.19783  0.22226  Biso   1.000  Zr
  Zr21     1.0000 0.00937  0.24367  0.73308  Biso   1.000  Zr
  Zr22     1.0000 0.51710  0.24369  0.24083  Biso   1.000  Zr
  Zr23     1.0000 0.51052  0.24712  0.73967  Biso   1.000  Zr
  Zr24     1.0000 0.97491  0.69486  0.27529  Biso   1.000  Zr
  Zr25     1.0000 0.98875  0.73484  0.77070  Biso   1.000  Zr
  Zr26     1.0000 0.47950  0.73485  0.26147  Biso   1.000  Zr
  Zr27     1.0000 0.48856  0.74158  0.76167  Biso   1.000  Zr
  Zr28     1.0000 0.02790  0.80309  0.02792  Biso   1.000  Zr
  Zr29     1.0000 0.00936  0.75718  0.51712  Biso   1.000  Zr
  Zr30     1.0000 0.51710  0.75718  0.00939  Biso   1.000  Zr
  Zr31     1.0000 0.51052  0.75377  0.51054  Biso   1.000  Zr
  Zr32     1.0000 0.27528  0.30601  0.27529  Biso   1.000  Zr
  Zr33     1.0000 0.26145  0.26604  0.77070  Biso   1.000  Zr
  Zr34     1.0000 0.77069  0.26606  0.26148  Biso   1.000  Zr
  Zr35     1.0000 0.76165  0.25929  0.76167  Biso   1.000  Zr
  Zr36     1.0000 0.22228  0.19783  0.02792  Biso   1.000  Zr
  Zr37     1.0000 0.24085  0.24370  0.51712  Biso   1.000  Zr
  Zr38     1.0000 0.73310  0.24366  0.00939  Biso   1.000  Zr
  Zr39     1.0000 0.73969  0.24712  0.51054  Biso   1.000  Zr
  Zr40     1.0000 0.27528  0.69486  0.97490  Biso   1.000  Zr
  Zr41     1.0000 0.26144  0.73488  0.47949  Biso   1.000  Zr
  Zr42     1.0000 0.77069  0.73482  0.98873  Biso   1.000  Zr
  Zr43     1.0000 0.76165  0.74158  0.48854  Biso   1.000  Zr
  Zr44     1.0000 0.22228  0.80303  0.22226  Biso   1.000  Zr
  Zr45     1.0000 0.24084  0.75722  0.73307  Biso   1.000  Zr
  Zr46     1.0000 0.73309  0.75723  0.24082  Biso   1.000  Zr
  Zr47     1.0000 0.73968  0.75375  0.73967  Biso   1.000  Zr
