data_image0
_cell_length_a       5.10332
_cell_length_b       10.4863
_cell_length_c       10.2673
_cell_angle_alpha    88.3117
_cell_angle_beta     93.0346
_cell_angle_gamma    92.0977

_symmetry_space_group_name_H-M    "P 1"
_symmetry_int_tables_number       1

loop_
  _symmetry_equiv_pos_as_xyz
  'x, y, z'

loop_
  _atom_site_label
  _atom_site_occupancy
  _atom_site_fract_x
  _atom_site_fract_y
  _atom_site_fract_z
  _atom_site_thermal_displace_type
  _atom_site_B_iso_or_equiv
  _atom_site_type_symbol
  Zr1      1.0000 0.27416  0.98875  0.09886  Biso   1.000  Zr
  Zr2      1.0000 0.23619  0.23065  0.41247  Biso   1.000  Zr
  Zr3      1.0000 0.58998  0.26257  0.16043  Biso   1.000  Zr
  Zr4      1.0000 0.72866  0.49268  0.38420  Biso   1.000  Zr
  Zr5      1.0000 0.89008  0.18537  0.27943  Biso   1.000  Zr
  Zr6      1.0000 0.07674  0.05504  0.46084  Biso   1.000  Zr
  Zr7      1.0000 0.86851  0.44604  0.21095  Biso   1.000  Zr
  Zr8      1.0000 0.95812  0.34133  0.47211  Biso   1.000  Zr
  Zr9      1.0000 0.41096  0.10669  0.25656  Biso   1.000  Zr
  Zr10     1.0000 0.56626  0.13972  0.50178  Biso   1.000  Zr
  Zr11     1.0000 0.48327  0.38607  0.50701  Biso   1.000  Zr
  Zr12     1.0000 0.37850  0.37560  0.26984  Biso   1.000  Zr
  Zr13     1.0000 0.30450  0.00681  0.62358  Biso   1.000  Zr
  Zr14     1.0000 0.33828  0.22014  0.85136  Biso   1.000  Zr
  Zr15     1.0000 0.77752  0.27346  0.63571  Biso   1.000  Zr
  Zr16     1.0000 0.74105  0.48239  0.86983  Biso   1.000  Zr
  Zr17     1.0000 0.13953  0.18499  0.66187  Biso   1.000  Zr
  Zr18     1.0000 0.12478  0.05106  0.90912  Biso   1.000  Zr
  Zr19     1.0000 0.93219  0.45451  0.68835  Biso   1.000  Zr
  Zr20     1.0000 0.96587  0.29943  0.86183  Biso   1.000  Zr
  Zr21     1.0000 0.58996  0.11086  0.74837  Biso   1.000  Zr
  Zr22     1.0000 0.58619  0.11584  0.00632  Biso   1.000  Zr
  Zr23     1.0000 0.49691  0.37368  0.99043  Biso   1.000  Zr
  Zr24     1.0000 0.48386  0.36803  0.74289  Biso   1.000  Zr
  Zr25     1.0000 0.23213  0.52702  0.13838  Biso   1.000  Zr
  Zr26     1.0000 0.27328  0.74570  0.37831  Biso   1.000  Zr
  Zr27     1.0000 0.72959  0.76264  0.12994  Biso   1.000  Zr
  Zr28     1.0000 0.74259  0.00366  0.35957  Biso   1.000  Zr
  Zr29     1.0000 0.06622  0.68694  0.20122  Biso   1.000  Zr
  Zr30     1.0000 0.06915  0.58137  0.44795  Biso   1.000  Zr
  Zr31     1.0000 0.93328  0.94385  0.18638  Biso   1.000  Zr
  Zr32     1.0000 0.93737  0.82261  0.43935  Biso   1.000  Zr
  Zr33     1.0000 0.52518  0.62440  0.25673  Biso   1.000  Zr
  Zr34     1.0000 0.53741  0.63976  0.50209  Biso   1.000  Zr
  Zr35     1.0000 0.48365  0.89092  0.49232  Biso   1.000  Zr
  Zr36     1.0000 0.47618  0.86616  0.24058  Biso   1.000  Zr
  Zr37     1.0000 0.27587  0.51482  0.61916  Biso   1.000  Zr
  Zr38     1.0000 0.28409  0.72834  0.87182  Biso   1.000  Zr
  Zr39     1.0000 0.76205  0.76899  0.61720  Biso   1.000  Zr
  Zr40     1.0000 0.76837  0.97058  0.87056  Biso   1.000  Zr
  Zr41     1.0000 0.08680  0.68540  0.69614  Biso   1.000  Zr
  Zr42     1.0000 0.06896  0.56450  0.95309  Biso   1.000  Zr
  Zr43     1.0000 0.96643  0.92755  0.69830  Biso   1.000  Zr
  Zr44     1.0000 0.97884  0.81636  0.96239  Biso   1.000  Zr
  Zr45     1.0000 0.54443  0.61369  0.75335  Biso   1.000  Zr
  Zr46     1.0000 0.53747  0.62907  0.00575  Biso   1.000  Zr
  Zr47     1.0000 0.49541  0.87114  0.98938  Biso   1.000  Zr
  Zr48     1.0000 0.50152  0.85885  0.74466  Biso   1.000  Zr
  Bi1      1.0000 0.04955  0.25309  0.06900  Biso   1.000  Bi
