data_image0
_cell_length_a       10.0754
_cell_length_b       5.23371
_cell_length_c       10.1096
_cell_angle_alpha    90.038
_cell_angle_beta     90.0545
_cell_angle_gamma    89.911

_symmetry_space_group_name_H-M    "P 1"
_symmetry_int_tables_number       1

loop_
  _symmetry_equiv_pos_as_xyz
  'x, y, z'

loop_
  _atom_site_label
  _atom_site_occupancy
  _atom_site_fract_x
  _atom_site_fract_y
  _atom_site_fract_z
  _atom_site_thermal_displace_type
  _atom_site_B_iso_or_equiv
  _atom_site_type_symbol
  Bi1      1.0000 0.12839  0.02964  0.12150  Biso   1.000  Bi
  Zr1      1.0000 0.13332  0.03128  0.62548  Biso   1.000  Zr
  Zr2      1.0000 0.63360  0.02977  0.12637  Biso   1.000  Zr
  Zr3      1.0000 0.63362  0.03172  0.62514  Biso   1.000  Zr
  Zr4      1.0000 0.13460  0.46902  0.37837  Biso   1.000  Zr
  Zr5      1.0000 0.13404  0.47318  0.87165  Biso   1.000  Zr
  Zr6      1.0000 0.63321  0.46784  0.37608  Biso   1.000  Zr
  Zr7      1.0000 0.63395  0.46632  0.87507  Biso   1.000  Zr
  Zr8      1.0000 0.36864  0.52931  0.12549  Biso   1.000  Zr
  Zr9      1.0000 0.36665  0.53054  0.62488  Biso   1.000  Zr
  Zr10     1.0000 0.86078  0.52890  0.12546  Biso   1.000  Zr
  Zr11     1.0000 0.86653  0.53160  0.62456  Biso   1.000  Zr
  Zr12     1.0000 0.36659  0.96736  0.37612  Biso   1.000  Zr
  Zr13     1.0000 0.36946  0.96995  0.87287  Biso   1.000  Zr
  Zr14     1.0000 0.86458  0.96942  0.37855  Biso   1.000  Zr
  Zr15     1.0000 0.86322  0.96353  0.87381  Biso   1.000  Zr
  Zr16     1.0000 0.03189  0.38325  0.19893  Biso   1.000  Zr
  Zr17     1.0000 0.03712  0.37135  0.69005  Biso   1.000  Zr
  Zr18     1.0000 0.53750  0.36695  0.19411  Biso   1.000  Zr
  Zr19     1.0000 0.53490  0.36526  0.69558  Biso   1.000  Zr
  Zr20     1.0000 0.03540  0.13105  0.44385  Biso   1.000  Zr
  Zr21     1.0000 0.03311  0.14012  0.93083  Biso   1.000  Zr
  Zr22     1.0000 0.53547  0.13258  0.44527  Biso   1.000  Zr
  Zr23     1.0000 0.53645  0.13296  0.94488  Biso   1.000  Zr
  Zr24     1.0000 0.46529  0.86788  0.19472  Biso   1.000  Zr
  Zr25     1.0000 0.46596  0.86615  0.69419  Biso   1.000  Zr
  Zr26     1.0000 0.95033  0.86769  0.19659  Biso   1.000  Zr
  Zr27     1.0000 0.96424  0.86666  0.69441  Biso   1.000  Zr
  Zr28     1.0000 0.46574  0.63268  0.44641  Biso   1.000  Zr
  Zr29     1.0000 0.46812  0.63548  0.94389  Biso   1.000  Zr
  Zr30     1.0000 0.96474  0.63482  0.44628  Biso   1.000  Zr
  Zr31     1.0000 0.96703  0.63868  0.94808  Biso   1.000  Zr
  Zr32     1.0000 0.27484  0.24140  0.25273  Biso   1.000  Zr
  Zr33     1.0000 0.26998  0.23353  0.74727  Biso   1.000  Zr
  Zr34     1.0000 0.76745  0.23355  0.25044  Biso   1.000  Zr
  Zr35     1.0000 0.76959  0.23253  0.74810  Biso   1.000  Zr
  Zr36     1.0000 0.26950  0.26541  0.49995  Biso   1.000  Zr
  Zr37     1.0000 0.27249  0.27141  0.99410  Biso   1.000  Zr
  Zr38     1.0000 0.76873  0.26703  0.49944  Biso   1.000  Zr
  Zr39     1.0000 0.77005  0.26204  0.99853  Biso   1.000  Zr
  Zr40     1.0000 0.23113  0.76714  0.49957  Biso   1.000  Zr
  Zr41     1.0000 0.23650  0.75604  0.99398  Biso   1.000  Zr
  Zr42     1.0000 0.73019  0.76588  0.49999  Biso   1.000  Zr
  Zr43     1.0000 0.72953  0.76254  0.99913  Biso   1.000  Zr
  Zr44     1.0000 0.23730  0.72193  0.25321  Biso   1.000  Zr
  Zr45     1.0000 0.23191  0.73504  0.74673  Biso   1.000  Zr
  Zr46     1.0000 0.72763  0.73340  0.25034  Biso   1.000  Zr
  Zr47     1.0000 0.73077  0.73204  0.74896  Biso   1.000  Zr
