data_image0
_cell_length_a       10.0755
_cell_length_b       10.4695
_cell_length_c       5.05168
_cell_angle_alpha    90.0499
_cell_angle_beta     90.0004
_cell_angle_gamma    89.9306

_symmetry_space_group_name_H-M    "P 1"
_symmetry_int_tables_number       1

loop_
  _symmetry_equiv_pos_as_xyz
  'x, y, z'

loop_
  _atom_site_label
  _atom_site_occupancy
  _atom_site_fract_x
  _atom_site_fract_y
  _atom_site_fract_z
  _atom_site_thermal_displace_type
  _atom_site_B_iso_or_equiv
  _atom_site_type_symbol
  Bi1      1.0000 0.12828  0.01499  0.24351  Biso   1.000  Bi
  Zr1      1.0000 0.13328  0.51585  0.25096  Biso   1.000  Zr
  Zr2      1.0000 0.63384  0.01547  0.25207  Biso   1.000  Zr
  Zr3      1.0000 0.63364  0.51493  0.25202  Biso   1.000  Zr
  Zr4      1.0000 0.13550  0.23807  0.74824  Biso   1.000  Zr
  Zr5      1.0000 0.13372  0.73265  0.75187  Biso   1.000  Zr
  Zr6      1.0000 0.63365  0.23378  0.75076  Biso   1.000  Zr
  Zr7      1.0000 0.63338  0.73286  0.75286  Biso   1.000  Zr
  Zr8      1.0000 0.36770  0.26707  0.25167  Biso   1.000  Zr
  Zr9      1.0000 0.36842  0.76304  0.25064  Biso   1.000  Zr
  Zr10     1.0000 0.86326  0.26755  0.24991  Biso   1.000  Zr
  Zr11     1.0000 0.86418  0.76240  0.25013  Biso   1.000  Zr
  Zr12     1.0000 0.36634  0.48451  0.75150  Biso   1.000  Zr
  Zr13     1.0000 0.36879  0.98415  0.74769  Biso   1.000  Zr
  Zr14     1.0000 0.86653  0.48359  0.75160  Biso   1.000  Zr
  Zr15     1.0000 0.86089  0.98255  0.75366  Biso   1.000  Zr
  Zr16     1.0000 0.03456  0.19346  0.38653  Biso   1.000  Zr
  Zr17     1.0000 0.03582  0.68537  0.38822  Biso   1.000  Zr
  Zr18     1.0000 0.53722  0.18439  0.38617  Biso   1.000  Zr
  Zr19     1.0000 0.53570  0.68182  0.39331  Biso   1.000  Zr
  Zr20     1.0000 0.03402  0.06828  0.85672  Biso   1.000  Zr
  Zr21     1.0000 0.03451  0.56666  0.89066  Biso   1.000  Zr
  Zr22     1.0000 0.53782  0.06559  0.88696  Biso   1.000  Zr
  Zr23     1.0000 0.53431  0.56622  0.89365  Biso   1.000  Zr
  Zr24     1.0000 0.46564  0.43337  0.39121  Biso   1.000  Zr
  Zr25     1.0000 0.46529  0.93357  0.38706  Biso   1.000  Zr
  Zr26     1.0000 0.96368  0.43560  0.39081  Biso   1.000  Zr
  Zr27     1.0000 0.94826  0.93305  0.38438  Biso   1.000  Zr
  Zr28     1.0000 0.46520  0.31650  0.88841  Biso   1.000  Zr
  Zr29     1.0000 0.46744  0.81630  0.89266  Biso   1.000  Zr
  Zr30     1.0000 0.96510  0.31815  0.89197  Biso   1.000  Zr
  Zr31     1.0000 0.96584  0.81774  0.89253  Biso   1.000  Zr
  Zr32     1.0000 0.27695  0.12322  0.50494  Biso   1.000  Zr
  Zr33     1.0000 0.26887  0.61457  0.49779  Biso   1.000  Zr
  Zr34     1.0000 0.76807  0.11727  0.50024  Biso   1.000  Zr
  Zr35     1.0000 0.76929  0.61592  0.49766  Biso   1.000  Zr
  Zr36     1.0000 0.27217  0.13549  0.99110  Biso   1.000  Zr
  Zr37     1.0000 0.26946  0.63193  0.99854  Biso   1.000  Zr
  Zr38     1.0000 0.77008  0.13254  0.99985  Biso   1.000  Zr
  Zr39     1.0000 0.76867  0.63144  0.99673  Biso   1.000  Zr
  Zr40     1.0000 0.23132  0.38413  0.99785  Biso   1.000  Zr
  Zr41     1.0000 0.23582  0.87772  0.98978  Biso   1.000  Zr
  Zr42     1.0000 0.73005  0.38279  0.99799  Biso   1.000  Zr
  Zr43     1.0000 0.72907  0.88067  0.00123  Biso   1.000  Zr
  Zr44     1.0000 0.23107  0.36894  0.49658  Biso   1.000  Zr
  Zr45     1.0000 0.23753  0.86016  0.50506  Biso   1.000  Zr
  Zr46     1.0000 0.73012  0.36728  0.49929  Biso   1.000  Zr
  Zr47     1.0000 0.72768  0.86555  0.50079  Biso   1.000  Zr
