data_image0
_cell_length_a       10.1261
_cell_length_b       5.0757
_cell_length_c       10.1261
_cell_angle_alpha    89.9985
_cell_angle_beta     90.0014
_cell_angle_gamma    89.9982

_symmetry_space_group_name_H-M    "P 1"
_symmetry_int_tables_number       1

loop_
  _symmetry_equiv_pos_as_xyz
  'x, y, z'

loop_
  _atom_site_label
  _atom_site_occupancy
  _atom_site_fract_x
  _atom_site_fract_y
  _atom_site_fract_z
  _atom_site_thermal_displace_type
  _atom_site_B_iso_or_equiv
  _atom_site_type_symbol
  Ca1      1.0000 0.12515  0.00021  0.12515  Biso   1.000  Ca
  Zr1      1.0000 0.12514  0.00020  0.62515  Biso   1.000  Zr
  Zr2      1.0000 0.62515  0.00020  0.12514  Biso   1.000  Zr
  Zr3      1.0000 0.62514  0.00020  0.62514  Biso   1.000  Zr
  Zr4      1.0000 0.12514  0.50021  0.37483  Biso   1.000  Zr
  Zr5      1.0000 0.12515  0.50021  0.87545  Biso   1.000  Zr
  Zr6      1.0000 0.62514  0.50019  0.37528  Biso   1.000  Zr
  Zr7      1.0000 0.62515  0.50021  0.87501  Biso   1.000  Zr
  Zr8      1.0000 0.37483  0.50021  0.12515  Biso   1.000  Zr
  Zr9      1.0000 0.37528  0.50019  0.62515  Biso   1.000  Zr
  Zr10     1.0000 0.87545  0.50021  0.12515  Biso   1.000  Zr
  Zr11     1.0000 0.87501  0.50021  0.62515  Biso   1.000  Zr
  Zr12     1.0000 0.37484  0.99951  0.37485  Biso   1.000  Zr
  Zr13     1.0000 0.37483  0.00091  0.87543  Biso   1.000  Zr
  Zr14     1.0000 0.87543  0.00091  0.37484  Biso   1.000  Zr
  Zr15     1.0000 0.87544  0.99951  0.87544  Biso   1.000  Zr
  Zr16     1.0000 0.99650  0.28642  0.99650  Biso   1.000  Zr
  Zr17     1.0000 0.00409  0.28935  0.50627  Biso   1.000  Zr
  Zr18     1.0000 0.50627  0.28936  0.00409  Biso   1.000  Zr
  Zr19     1.0000 0.50317  0.29038  0.50317  Biso   1.000  Zr
  Zr20     1.0000 0.99137  0.23524  0.25893  Biso   1.000  Zr
  Zr21     1.0000 0.99806  0.21040  0.75127  Biso   1.000  Zr
  Zr22     1.0000 0.49902  0.21038  0.25224  Biso   1.000  Zr
  Zr23     1.0000 0.49873  0.21099  0.75156  Biso   1.000  Zr
  Zr24     1.0000 0.99650  0.71401  0.25379  Biso   1.000  Zr
  Zr25     1.0000 0.00408  0.71109  0.74403  Biso   1.000  Zr
  Zr26     1.0000 0.50627  0.71106  0.24620  Biso   1.000  Zr
  Zr27     1.0000 0.50317  0.71001  0.74712  Biso   1.000  Zr
  Zr28     1.0000 0.99137  0.76518  0.99137  Biso   1.000  Zr
  Zr29     1.0000 0.99805  0.79004  0.49902  Biso   1.000  Zr
  Zr30     1.0000 0.49902  0.79004  0.99805  Biso   1.000  Zr
  Zr31     1.0000 0.49873  0.78939  0.49873  Biso   1.000  Zr
  Zr32     1.0000 0.25379  0.28642  0.25379  Biso   1.000  Zr
  Zr33     1.0000 0.24621  0.28931  0.74403  Biso   1.000  Zr
  Zr34     1.0000 0.74403  0.28931  0.24621  Biso   1.000  Zr
  Zr35     1.0000 0.74712  0.29040  0.74712  Biso   1.000  Zr
  Zr36     1.0000 0.25893  0.23524  0.99137  Biso   1.000  Zr
  Zr37     1.0000 0.25224  0.21038  0.49902  Biso   1.000  Zr
  Zr38     1.0000 0.75127  0.21040  0.99806  Biso   1.000  Zr
  Zr39     1.0000 0.75156  0.21099  0.49873  Biso   1.000  Zr
  Zr40     1.0000 0.25379  0.71401  0.99650  Biso   1.000  Zr
  Zr41     1.0000 0.24620  0.71106  0.50627  Biso   1.000  Zr
  Zr42     1.0000 0.74402  0.71108  0.00409  Biso   1.000  Zr
  Zr43     1.0000 0.74712  0.71001  0.50317  Biso   1.000  Zr
  Zr44     1.0000 0.25893  0.76517  0.25893  Biso   1.000  Zr
  Zr45     1.0000 0.25224  0.78999  0.75127  Biso   1.000  Zr
  Zr46     1.0000 0.75127  0.78999  0.25224  Biso   1.000  Zr
  Zr47     1.0000 0.75156  0.78941  0.75156  Biso   1.000  Zr
