data_image0
_cell_length_a       10.1913
_cell_length_b       5.15428
_cell_length_c       10.5319
_cell_angle_alpha    89.998
_cell_angle_beta     89.7585
_cell_angle_gamma    90.1241

_symmetry_space_group_name_H-M    "P 1"
_symmetry_int_tables_number       1

loop_
  _symmetry_equiv_pos_as_xyz
  'x, y, z'

loop_
  _atom_site_label
  _atom_site_occupancy
  _atom_site_fract_x
  _atom_site_fract_y
  _atom_site_fract_z
  _atom_site_thermal_displace_type
  _atom_site_B_iso_or_equiv
  _atom_site_type_symbol
  Ca1      1.0000 0.14015  0.03163  0.17183  Biso   1.000  Ca
  Zr1      1.0000 0.14046  0.04142  0.67283  Biso   1.000  Zr
  Zr2      1.0000 0.14356  0.45549  0.42156  Biso   1.000  Zr
  Zr3      1.0000 0.14221  0.46012  0.92483  Biso   1.000  Zr
  Zr4      1.0000 0.35806  0.53405  0.17180  Biso   1.000  Zr
  Zr5      1.0000 0.36039  0.54236  0.67250  Biso   1.000  Zr
  Zr6      1.0000 0.35946  0.95716  0.42018  Biso   1.000  Zr
  Zr7      1.0000 0.35908  0.95887  0.92423  Biso   1.000  Zr
  Zr8      1.0000 0.63832  0.03895  0.07809  Biso   1.000  Zr
  Zr9      1.0000 0.63838  0.04159  0.57705  Biso   1.000  Zr
  Zr10     1.0000 0.63896  0.45956  0.32727  Biso   1.000  Zr
  Zr11     1.0000 0.63787  0.45728  0.82725  Biso   1.000  Zr
  Zr12     1.0000 0.85873  0.54110  0.07584  Biso   1.000  Zr
  Zr13     1.0000 0.86071  0.54178  0.57710  Biso   1.000  Zr
  Zr14     1.0000 0.86037  0.96037  0.32740  Biso   1.000  Zr
  Zr15     1.0000 0.85933  0.95969  0.82712  Biso   1.000  Zr
  O1       1.0000 0.02750  0.34281  0.07671  Biso   1.000  O
  O2       1.0000 0.03163  0.33078  0.58705  Biso   1.000  O
  O3       1.0000 0.02251  0.18756  0.34416  Biso   1.000  O
  O4       1.0000 0.02965  0.17570  0.83195  Biso   1.000  O
  O5       1.0000 0.47058  0.82243  0.08240  Biso   1.000  O
  O6       1.0000 0.46938  0.82456  0.58205  Biso   1.000  O
  O7       1.0000 0.47308  0.67870  0.33148  Biso   1.000  O
  O8       1.0000 0.46929  0.67302  0.83143  Biso   1.000  O
  O9       1.0000 0.28286  0.25066  0.30429  Biso   1.000  O
  O10      1.0000 0.27348  0.24928  0.79522  Biso   1.000  O
  O11      1.0000 0.28351  0.25651  0.04012  Biso   1.000  O
  O12      1.0000 0.27473  0.24977  0.54864  Biso   1.000  O
  O13      1.0000 0.23180  0.73317  0.30129  Biso   1.000  O
  O14      1.0000 0.22592  0.75142  0.79450  Biso   1.000  O
  O15      1.0000 0.23444  0.73593  0.04014  Biso   1.000  O
  O16      1.0000 0.22574  0.75155  0.54784  Biso   1.000  O
  O17      1.0000 0.53158  0.32279  0.16777  Biso   1.000  O
  O18      1.0000 0.53084  0.32566  0.66685  Biso   1.000  O
  O19      1.0000 0.53215  0.17185  0.41702  Biso   1.000  O
  O20      1.0000 0.53215  0.17115  0.91656  Biso   1.000  O
  O21      1.0000 0.95522  0.81657  0.17074  Biso   1.000  O
  O22      1.0000 0.96834  0.82882  0.66594  Biso   1.000  O
  O23      1.0000 0.97164  0.68084  0.41930  Biso   1.000  O
  O24      1.0000 0.96933  0.68195  0.91442  Biso   1.000  O
  O25      1.0000 0.77300  0.24575  0.95191  Biso   1.000  O
  O26      1.0000 0.77226  0.25399  0.45509  Biso   1.000  O
  O27      1.0000 0.77391  0.25214  0.20372  Biso   1.000  O
  O28      1.0000 0.77374  0.25166  0.70305  Biso   1.000  O
  O29      1.0000 0.72410  0.74714  0.95166  Biso   1.000  O
  O30      1.0000 0.72696  0.75109  0.45361  Biso   1.000  O
  O31      1.0000 0.71701  0.75259  0.20371  Biso   1.000  O
  O32      1.0000 0.72561  0.75072  0.70253  Biso   1.000  O
