data_image0
_cell_length_a       5.10993
_cell_length_b       10.3693
_cell_length_c       10.5173
_cell_angle_alpha    90.0131
_cell_angle_beta     80.4482
_cell_angle_gamma    90.0349

_symmetry_space_group_name_H-M    "P 1"
_symmetry_int_tables_number       1

loop_
  _symmetry_equiv_pos_as_xyz
  'x, y, z'

loop_
  _atom_site_label
  _atom_site_occupancy
  _atom_site_fract_x
  _atom_site_fract_y
  _atom_site_fract_z
  _atom_site_thermal_displace_type
  _atom_site_B_iso_or_equiv
  _atom_site_type_symbol
  Cd1      1.0000 0.26640  0.01435  0.14896  Biso   1.000  Cd
  Zr1      1.0000 0.27756  0.02104  0.64530  Biso   1.000  Zr
  Zr2      1.0000 0.27652  0.51935  0.14406  Biso   1.000  Zr
  Zr3      1.0000 0.27965  0.52122  0.64572  Biso   1.000  Zr
  Zr4      1.0000 0.27845  0.22989  0.39465  Biso   1.000  Zr
  Zr5      1.0000 0.28116  0.22819  0.89609  Biso   1.000  Zr
  Zr6      1.0000 0.27620  0.72629  0.39515  Biso   1.000  Zr
  Zr7      1.0000 0.28186  0.73039  0.89432  Biso   1.000  Zr
  Zr8      1.0000 0.71704  0.26667  0.10372  Biso   1.000  Zr
  Zr9      1.0000 0.71934  0.27153  0.60439  Biso   1.000  Zr
  Zr10     1.0000 0.72125  0.76876  0.10303  Biso   1.000  Zr
  Zr11     1.0000 0.72271  0.77159  0.60408  Biso   1.000  Zr
  Zr12     1.0000 0.72064  0.47810  0.35318  Biso   1.000  Zr
  Zr13     1.0000 0.72452  0.47833  0.85457  Biso   1.000  Zr
  Zr14     1.0000 0.71381  0.97951  0.35716  Biso   1.000  Zr
  Zr15     1.0000 0.72120  0.98094  0.85514  Biso   1.000  Zr
  O1       1.0000 0.07601  0.18073  0.07953  Biso   1.000  O
  O2       1.0000 0.06797  0.17011  0.58170  Biso   1.000  O
  O3       1.0000 0.07364  0.66993  0.07941  Biso   1.000  O
  O4       1.0000 0.06978  0.66774  0.58056  Biso   1.000  O
  O5       1.0000 0.06221  0.07986  0.34718  Biso   1.000  O
  O6       1.0000 0.07358  0.08112  0.82918  Biso   1.000  O
  O7       1.0000 0.06893  0.58030  0.32902  Biso   1.000  O
  O8       1.0000 0.07142  0.58212  0.82928  Biso   1.000  O
  O9       1.0000 0.92547  0.41974  0.16877  Biso   1.000  O
  O10      1.0000 0.93230  0.41786  0.67006  Biso   1.000  O
  O11      1.0000 0.90045  0.92176  0.17205  Biso   1.000  O
  O12      1.0000 0.93022  0.91850  0.66976  Biso   1.000  O
  O13      1.0000 0.92816  0.33240  0.42036  Biso   1.000  O
  O14      1.0000 0.93450  0.33364  0.91881  Biso   1.000  O
  O15      1.0000 0.92957  0.82979  0.41990  Biso   1.000  O
  O16      1.0000 0.93507  0.83280  0.91957  Biso   1.000  O
  O17      1.0000 0.55698  0.13103  0.24608  Biso   1.000  O
  O18      1.0000 0.55194  0.12834  0.73811  Biso   1.000  O
  O19      1.0000 0.55054  0.62535  0.23905  Biso   1.000  O
  O20      1.0000 0.55302  0.62930  0.73977  Biso   1.000  O
  O21      1.0000 0.54649  0.12246  0.49260  Biso   1.000  O
  O22      1.0000 0.56938  0.12779  0.98143  Biso   1.000  O
  O23      1.0000 0.55093  0.62067  0.49013  Biso   1.000  O
  O24      1.0000 0.55167  0.62037  0.98935  Biso   1.000  O
  O25      1.0000 0.45144  0.38047  0.00820  Biso   1.000  O
  O26      1.0000 0.44693  0.37917  0.50915  Biso   1.000  O
  O27      1.0000 0.46132  0.87437  0.00344  Biso   1.000  O
  O28      1.0000 0.44780  0.87859  0.51027  Biso   1.000  O
  O29      1.0000 0.44553  0.37134  0.25879  Biso   1.000  O
  O30      1.0000 0.45147  0.37163  0.75870  Biso   1.000  O
  O31      1.0000 0.45731  0.86279  0.26269  Biso   1.000  O
  O32      1.0000 0.44966  0.87179  0.75757  Biso   1.000  O
