data_image0
_cell_length_a       5.19418
_cell_length_b       10.522
_cell_length_c       10.3803
_cell_angle_alpha    91.2437
_cell_angle_beta     84.0155
_cell_angle_gamma    91.6448

_symmetry_space_group_name_H-M    "P 1"
_symmetry_int_tables_number       1

loop_
  _symmetry_equiv_pos_as_xyz
  'x, y, z'

loop_
  _atom_site_label
  _atom_site_occupancy
  _atom_site_fract_x
  _atom_site_fract_y
  _atom_site_fract_z
  _atom_site_thermal_displace_type
  _atom_site_B_iso_or_equiv
  _atom_site_type_symbol
  Zr1      1.0000 0.37710  0.98307  0.18523  Biso   1.000  Zr
  Zr2      1.0000 0.15513  0.26235  0.33609  Biso   1.000  Zr
  Zr3      1.0000 0.61445  0.26686  0.08159  Biso   1.000  Zr
  Zr4      1.0000 0.85725  0.98867  0.43062  Biso   1.000  Zr
  Zr5      1.0000 0.81407  0.19224  0.91728  Biso   1.000  Zr
  Zr6      1.0000 0.04342  0.07617  0.27467  Biso   1.000  Zr
  Zr7      1.0000 0.91246  0.33382  0.19819  Biso   1.000  Zr
  Zr8      1.0000 0.90477  0.41877  0.95725  Biso   1.000  Zr
  Zr9      1.0000 0.47661  0.17494  0.25900  Biso   1.000  Zr
  Zr10     1.0000 0.69867  0.06583  0.08795  Biso   1.000  Zr
  Zr11     1.0000 0.39714  0.35947  0.94780  Biso   1.000  Zr
  Zr12     1.0000 0.40560  0.41112  0.20654  Biso   1.000  Zr
  Zr13     1.0000 0.35598  0.99126  0.67145  Biso   1.000  Zr
  Zr14     1.0000 0.14913  0.26895  0.81658  Biso   1.000  Zr
  Zr15     1.0000 0.65335  0.26447  0.57619  Biso   1.000  Zr
  Zr16     1.0000 0.84993  0.98501  0.91468  Biso   1.000  Zr
  Zr17     1.0000 0.97900  0.17061  0.49528  Biso   1.000  Zr
  Zr18     1.0000 0.04383  0.07734  0.75711  Biso   1.000  Zr
  Zr19     1.0000 0.91144  0.35102  0.69765  Biso   1.000  Zr
  Zr20     1.0000 0.91221  0.40944  0.45187  Biso   1.000  Zr
  Zr21     1.0000 0.47184  0.17467  0.73287  Biso   1.000  Zr
  Zr22     1.0000 0.53431  0.08179  0.51220  Biso   1.000  Zr
  Zr23     1.0000 0.40830  0.34933  0.45827  Biso   1.000  Zr
  Zr24     1.0000 0.41216  0.41247  0.70297  Biso   1.000  Zr
  Zr25     1.0000 0.15644  0.49531  0.07681  Biso   1.000  Zr
  Zr26     1.0000 0.35223  0.75951  0.42328  Biso   1.000  Zr
  Zr27     1.0000 0.85061  0.76085  0.17260  Biso   1.000  Zr
  Zr28     1.0000 0.65654  0.49255  0.33073  Biso   1.000  Zr
  Zr29     1.0000 0.02340  0.66789  0.01345  Biso   1.000  Zr
  Zr30     1.0000 0.97361  0.58379  0.23787  Biso   1.000  Zr
  Zr31     1.0000 0.10629  0.83934  0.29628  Biso   1.000  Zr
  Zr32     1.0000 0.11161  0.90673  0.04575  Biso   1.000  Zr
  Zr33     1.0000 0.52956  0.66520  0.26361  Biso   1.000  Zr
  Zr34     1.0000 0.47489  0.59179  0.98972  Biso   1.000  Zr
  Zr35     1.0000 0.59510  0.83988  0.04723  Biso   1.000  Zr
  Zr36     1.0000 0.60796  0.90029  0.30581  Biso   1.000  Zr
  Zr37     1.0000 0.15886  0.49288  0.57923  Biso   1.000  Zr
  Zr38     1.0000 0.34163  0.76251  0.92430  Biso   1.000  Zr
  Zr39     1.0000 0.84958  0.75777  0.67007  Biso   1.000  Zr
  Zr40     1.0000 0.65627  0.49524  0.83188  Biso   1.000  Zr
  Zr41     1.0000 0.02934  0.66465  0.51178  Biso   1.000  Zr
  Zr42     1.0000 0.98038  0.58762  0.73796  Biso   1.000  Zr
  Zr43     1.0000 0.08738  0.84188  0.79643  Biso   1.000  Zr
  Zr44     1.0000 0.10172  0.90452  0.54648  Biso   1.000  Zr
  Zr45     1.0000 0.53083  0.66940  0.76436  Biso   1.000  Zr
  Zr46     1.0000 0.48277  0.58786  0.48930  Biso   1.000  Zr
  Zr47     1.0000 0.59768  0.84354  0.55023  Biso   1.000  Zr
  Zr48     1.0000 0.58224  0.91274  0.80259  Biso   1.000  Zr
  Cd1      1.0000 0.11347  0.15994  0.06685  Biso   1.000  Cd
