data_image0
_cell_length_a       10.0411
_cell_length_b       10.4385
_cell_length_c       5.0525
_cell_angle_alpha    90.0535
_cell_angle_beta     89.5793
_cell_angle_gamma    90.0294

_symmetry_space_group_name_H-M    "P 1"
_symmetry_int_tables_number       1

loop_
  _symmetry_equiv_pos_as_xyz
  'x, y, z'

loop_
  _atom_site_label
  _atom_site_occupancy
  _atom_site_fract_x
  _atom_site_fract_y
  _atom_site_fract_z
  _atom_site_thermal_displace_type
  _atom_site_B_iso_or_equiv
  _atom_site_type_symbol
  Cd1      1.0000 0.12436  0.02006  0.23734  Biso   1.000  Cd
  Zr1      1.0000 0.13550  0.51589  0.25474  Biso   1.000  Zr
  Zr2      1.0000 0.63361  0.01507  0.24789  Biso   1.000  Zr
  Zr3      1.0000 0.63367  0.51557  0.25505  Biso   1.000  Zr
  Zr4      1.0000 0.13440  0.23394  0.75148  Biso   1.000  Zr
  Zr5      1.0000 0.13548  0.73423  0.75730  Biso   1.000  Zr
  Zr6      1.0000 0.63242  0.23275  0.74963  Biso   1.000  Zr
  Zr7      1.0000 0.63284  0.73388  0.75356  Biso   1.000  Zr
  Zr8      1.0000 0.36576  0.26674  0.26125  Biso   1.000  Zr
  Zr9      1.0000 0.36566  0.76557  0.26037  Biso   1.000  Zr
  Zr10     1.0000 0.86150  0.26555  0.24706  Biso   1.000  Zr
  Zr11     1.0000 0.86763  0.76304  0.24506  Biso   1.000  Zr
  Zr12     1.0000 0.36529  0.48386  0.75675  Biso   1.000  Zr
  Zr13     1.0000 0.36287  0.98277  0.75432  Biso   1.000  Zr
  Zr14     1.0000 0.86546  0.48395  0.75327  Biso   1.000  Zr
  Zr15     1.0000 0.86468  0.98327  0.74795  Biso   1.000  Zr
  Zr16     1.0000 0.04067  0.19785  0.37328  Biso   1.000  Zr
  Zr17     1.0000 0.03613  0.68379  0.39144  Biso   1.000  Zr
  Zr18     1.0000 0.53966  0.18566  0.38227  Biso   1.000  Zr
  Zr19     1.0000 0.53600  0.68241  0.39600  Biso   1.000  Zr
  Zr20     1.0000 0.03318  0.06959  0.83162  Biso   1.000  Zr
  Zr21     1.0000 0.03425  0.56554  0.89483  Biso   1.000  Zr
  Zr22     1.0000 0.53575  0.06500  0.88703  Biso   1.000  Zr
  Zr23     1.0000 0.53519  0.56556  0.89409  Biso   1.000  Zr
  Zr24     1.0000 0.46493  0.43329  0.39484  Biso   1.000  Zr
  Zr25     1.0000 0.46821  0.93240  0.39647  Biso   1.000  Zr
  Zr26     1.0000 0.96440  0.43182  0.38996  Biso   1.000  Zr
  Zr27     1.0000 0.95117  0.93586  0.37483  Biso   1.000  Zr
  Zr28     1.0000 0.46286  0.31468  0.89003  Biso   1.000  Zr
  Zr29     1.0000 0.46481  0.81605  0.89807  Biso   1.000  Zr
  Zr30     1.0000 0.96264  0.31762  0.88587  Biso   1.000  Zr
  Zr31     1.0000 0.96378  0.81566  0.88502  Biso   1.000  Zr
  Zr32     1.0000 0.28372  0.12902  0.52108  Biso   1.000  Zr
  Zr33     1.0000 0.26967  0.61513  0.50314  Biso   1.000  Zr
  Zr34     1.0000 0.76946  0.11753  0.49508  Biso   1.000  Zr
  Zr35     1.0000 0.77050  0.61585  0.49746  Biso   1.000  Zr
  Zr36     1.0000 0.27006  0.12983  0.00869  Biso   1.000  Zr
  Zr37     1.0000 0.27019  0.63149  0.00392  Biso   1.000  Zr
  Zr38     1.0000 0.76972  0.13240  0.99433  Biso   1.000  Zr
  Zr39     1.0000 0.76824  0.63155  0.99725  Biso   1.000  Zr
  Zr40     1.0000 0.23071  0.38154  0.00378  Biso   1.000  Zr
  Zr41     1.0000 0.23076  0.87831  0.01080  Biso   1.000  Zr
  Zr42     1.0000 0.72877  0.38216  0.99975  Biso   1.000  Zr
  Zr43     1.0000 0.72816  0.88024  0.99665  Biso   1.000  Zr
  Zr44     1.0000 0.22891  0.37137  0.50322  Biso   1.000  Zr
  Zr45     1.0000 0.23871  0.86037  0.51803  Biso   1.000  Zr
  Zr46     1.0000 0.72976  0.36773  0.50016  Biso   1.000  Zr
  Zr47     1.0000 0.73195  0.86542  0.49428  Biso   1.000  Zr
