data_image0
_cell_length_a       10.0373
_cell_length_b       5.21638
_cell_length_c       10.1142
_cell_angle_alpha    90.0196
_cell_angle_beta     89.5702
_cell_angle_gamma    90.0028

_symmetry_space_group_name_H-M    "P 1"
_symmetry_int_tables_number       1

loop_
  _symmetry_equiv_pos_as_xyz
  'x, y, z'

loop_
  _atom_site_label
  _atom_site_occupancy
  _atom_site_fract_x
  _atom_site_fract_y
  _atom_site_fract_z
  _atom_site_thermal_displace_type
  _atom_site_B_iso_or_equiv
  _atom_site_type_symbol
  Cd1      1.0000 0.12604  0.03884  0.11678  Biso   1.000  Cd
  Zr1      1.0000 0.13361  0.03627  0.63037  Biso   1.000  Zr
  Zr2      1.0000 0.63503  0.02919  0.12609  Biso   1.000  Zr
  Zr3      1.0000 0.63168  0.03076  0.62395  Biso   1.000  Zr
  Zr4      1.0000 0.13916  0.46837  0.37774  Biso   1.000  Zr
  Zr5      1.0000 0.13304  0.47097  0.87613  Biso   1.000  Zr
  Zr6      1.0000 0.63245  0.46859  0.37537  Biso   1.000  Zr
  Zr7      1.0000 0.63297  0.46405  0.87468  Biso   1.000  Zr
  Zr8      1.0000 0.36432  0.53107  0.13215  Biso   1.000  Zr
  Zr9      1.0000 0.36587  0.53443  0.62809  Biso   1.000  Zr
  Zr10     1.0000 0.86324  0.52679  0.12260  Biso   1.000  Zr
  Zr11     1.0000 0.86518  0.53065  0.62206  Biso   1.000  Zr
  Zr12     1.0000 0.36220  0.96949  0.37641  Biso   1.000  Zr
  Zr13     1.0000 0.36474  0.96719  0.87845  Biso   1.000  Zr
  Zr14     1.0000 0.86824  0.97067  0.37757  Biso   1.000  Zr
  Zr15     1.0000 0.86309  0.96379  0.87087  Biso   1.000  Zr
  Zr16     1.0000 0.03543  0.38248  0.19687  Biso   1.000  Zr
  Zr17     1.0000 0.03856  0.38098  0.68772  Biso   1.000  Zr
  Zr18     1.0000 0.54042  0.36937  0.19314  Biso   1.000  Zr
  Zr19     1.0000 0.53489  0.36656  0.69518  Biso   1.000  Zr
  Zr20     1.0000 0.03623  0.13114  0.44647  Biso   1.000  Zr
  Zr21     1.0000 0.03510  0.13332  0.91337  Biso   1.000  Zr
  Zr22     1.0000 0.53492  0.13378  0.44449  Biso   1.000  Zr
  Zr23     1.0000 0.53597  0.12734  0.94528  Biso   1.000  Zr
  Zr24     1.0000 0.46922  0.86360  0.19832  Biso   1.000  Zr
  Zr25     1.0000 0.46405  0.86772  0.69724  Biso   1.000  Zr
  Zr26     1.0000 0.95661  0.86396  0.19425  Biso   1.000  Zr
  Zr27     1.0000 0.95988  0.86984  0.68706  Biso   1.000  Zr
  Zr28     1.0000 0.46612  0.63475  0.44903  Biso   1.000  Zr
  Zr29     1.0000 0.46180  0.62717  0.94409  Biso   1.000  Zr
  Zr30     1.0000 0.96445  0.63125  0.44161  Biso   1.000  Zr
  Zr31     1.0000 0.96257  0.63339  0.94318  Biso   1.000  Zr
  Zr32     1.0000 0.28024  0.24724  0.25646  Biso   1.000  Zr
  Zr33     1.0000 0.27213  0.23945  0.75208  Biso   1.000  Zr
  Zr34     1.0000 0.77095  0.23138  0.24815  Biso   1.000  Zr
  Zr35     1.0000 0.76821  0.23292  0.74637  Biso   1.000  Zr
  Zr36     1.0000 0.26981  0.26408  0.50444  Biso   1.000  Zr
  Zr37     1.0000 0.27102  0.26469  0.99993  Biso   1.000  Zr
  Zr38     1.0000 0.76809  0.26761  0.49737  Biso   1.000  Zr
  Zr39     1.0000 0.77089  0.25931  0.99650  Biso   1.000  Zr
  Zr40     1.0000 0.22923  0.76667  0.50419  Biso   1.000  Zr
  Zr41     1.0000 0.23294  0.75540  0.00238  Biso   1.000  Zr
  Zr42     1.0000 0.73051  0.76714  0.49795  Biso   1.000  Zr
  Zr43     1.0000 0.72699  0.75802  0.99844  Biso   1.000  Zr
  Zr44     1.0000 0.23760  0.72761  0.25774  Biso   1.000  Zr
  Zr45     1.0000 0.22901  0.73938  0.75190  Biso   1.000  Zr
  Zr46     1.0000 0.73257  0.73323  0.24843  Biso   1.000  Zr
  Zr47     1.0000 0.72856  0.73126  0.74758  Biso   1.000  Zr
