data_image0
_cell_length_a       10.0321
_cell_length_b       10.4322
_cell_length_c       10.0852
_cell_angle_alpha    89.995
_cell_angle_beta     89.7809
_cell_angle_gamma    90.0272

_symmetry_space_group_name_H-M    "P 1"
_symmetry_int_tables_number       1

loop_
  _symmetry_equiv_pos_as_xyz
  'x, y, z'

loop_
  _atom_site_label
  _atom_site_occupancy
  _atom_site_fract_x
  _atom_site_fract_y
  _atom_site_fract_z
  _atom_site_thermal_displace_type
  _atom_site_B_iso_or_equiv
  _atom_site_type_symbol
  Cd1      1.0000 0.12472  0.01972  0.11542  Biso   1.000  Cd
  Zr1      1.0000 0.13366  0.01738  0.63073  Biso   1.000  Zr
  Zr2      1.0000 0.13545  0.51538  0.12688  Biso   1.000  Zr
  Zr3      1.0000 0.13389  0.51664  0.62644  Biso   1.000  Zr
  Zr4      1.0000 0.63534  0.01522  0.12521  Biso   1.000  Zr
  Zr5      1.0000 0.63221  0.01533  0.62402  Biso   1.000  Zr
  Zr6      1.0000 0.63389  0.51559  0.12714  Biso   1.000  Zr
  Zr7      1.0000 0.63343  0.51578  0.62620  Biso   1.000  Zr
  Zr8      1.0000 0.13728  0.23268  0.37778  Biso   1.000  Zr
  Zr9      1.0000 0.13201  0.23596  0.87393  Biso   1.000  Zr
  Zr10     1.0000 0.13579  0.73538  0.37695  Biso   1.000  Zr
  Zr11     1.0000 0.13438  0.73345  0.87801  Biso   1.000  Zr
  Zr12     1.0000 0.63277  0.23371  0.37517  Biso   1.000  Zr
  Zr13     1.0000 0.63382  0.23279  0.87505  Biso   1.000  Zr
  Zr14     1.0000 0.63341  0.73502  0.37629  Biso   1.000  Zr
  Zr15     1.0000 0.63313  0.73345  0.87563  Biso   1.000  Zr
  Zr16     1.0000 0.36509  0.26581  0.12984  Biso   1.000  Zr
  Zr17     1.0000 0.36635  0.26610  0.62715  Biso   1.000  Zr
  Zr18     1.0000 0.36557  0.76511  0.12880  Biso   1.000  Zr
  Zr19     1.0000 0.36562  0.76707  0.62736  Biso   1.000  Zr
  Zr20     1.0000 0.86201  0.26529  0.12550  Biso   1.000  Zr
  Zr21     1.0000 0.86549  0.26632  0.62372  Biso   1.000  Zr
  Zr22     1.0000 0.86730  0.76369  0.12331  Biso   1.000  Zr
  Zr23     1.0000 0.86628  0.76484  0.62405  Biso   1.000  Zr
  Zr24     1.0000 0.36564  0.48449  0.37740  Biso   1.000  Zr
  Zr25     1.0000 0.36534  0.48375  0.87675  Biso   1.000  Zr
  Zr26     1.0000 0.36247  0.98447  0.37516  Biso   1.000  Zr
  Zr27     1.0000 0.36507  0.98343  0.87840  Biso   1.000  Zr
  Zr28     1.0000 0.86618  0.48452  0.37648  Biso   1.000  Zr
  Zr29     1.0000 0.86552  0.48376  0.87565  Biso   1.000  Zr
  Zr30     1.0000 0.86793  0.98545  0.37742  Biso   1.000  Zr
  Zr31     1.0000 0.86384  0.98222  0.87141  Biso   1.000  Zr
  Zr32     1.0000 0.03486  0.19108  0.19672  Biso   1.000  Zr
  Zr33     1.0000 0.04009  0.19098  0.68465  Biso   1.000  Zr
  Zr34     1.0000 0.03685  0.68407  0.19410  Biso   1.000  Zr
  Zr35     1.0000 0.03565  0.68464  0.69510  Biso   1.000  Zr
  Zr36     1.0000 0.53976  0.18566  0.19081  Biso   1.000  Zr
  Zr37     1.0000 0.53651  0.18428  0.69366  Biso   1.000  Zr
  Zr38     1.0000 0.53707  0.68339  0.19621  Biso   1.000  Zr
  Zr39     1.0000 0.53443  0.68298  0.69573  Biso   1.000  Zr
  Zr40     1.0000 0.03703  0.06553  0.44463  Biso   1.000  Zr
  Zr41     1.0000 0.03636  0.06656  0.91005  Biso   1.000  Zr
  Zr42     1.0000 0.03559  0.56559  0.44549  Biso   1.000  Zr
  Zr43     1.0000 0.03476  0.56586  0.94579  Biso   1.000  Zr
  Zr44     1.0000 0.53485  0.06648  0.44386  Biso   1.000  Zr
  Zr45     1.0000 0.53656  0.06468  0.94386  Biso   1.000  Zr
  Zr46     1.0000 0.53580  0.56656  0.44497  Biso   1.000  Zr
  Zr47     1.0000 0.53502  0.56480  0.94600  Biso   1.000  Zr
  Zr48     1.0000 0.46451  0.43334  0.19601  Biso   1.000  Zr
  Zr49     1.0000 0.46431  0.43389  0.69545  Biso   1.000  Zr
  Zr50     1.0000 0.46863  0.93260  0.19665  Biso   1.000  Zr
  Zr51     1.0000 0.46401  0.93391  0.69670  Biso   1.000  Zr
  Zr52     1.0000 0.96417  0.43221  0.19430  Biso   1.000  Zr
  Zr53     1.0000 0.96358  0.43501  0.69471  Biso   1.000  Zr
  Zr54     1.0000 0.95358  0.93589  0.19154  Biso   1.000  Zr
  Zr55     1.0000 0.96002  0.93440  0.68629  Biso   1.000  Zr
  Zr56     1.0000 0.46429  0.31660  0.44521  Biso   1.000  Zr
  Zr57     1.0000 0.46184  0.31335  0.94295  Biso   1.000  Zr
  Zr58     1.0000 0.46613  0.81721  0.44868  Biso   1.000  Zr
  Zr59     1.0000 0.46313  0.81535  0.94501  Biso   1.000  Zr
  Zr60     1.0000 0.96413  0.31674  0.44245  Biso   1.000  Zr
  Zr61     1.0000 0.96295  0.31644  0.94480  Biso   1.000  Zr
  Zr62     1.0000 0.96381  0.81518  0.44213  Biso   1.000  Zr
  Zr63     1.0000 0.96326  0.81568  0.94220  Biso   1.000  Zr
  Zr64     1.0000 0.28073  0.12721  0.25691  Biso   1.000  Zr
  Zr65     1.0000 0.27327  0.11964  0.75173  Biso   1.000  Zr
  Zr66     1.0000 0.27015  0.61517  0.25034  Biso   1.000  Zr
  Zr67     1.0000 0.26916  0.61762  0.75082  Biso   1.000  Zr
  Zr68     1.0000 0.76953  0.11736  0.24959  Biso   1.000  Zr
  Zr69     1.0000 0.76915  0.11710  0.74696  Biso   1.000  Zr
  Zr70     1.0000 0.77109  0.61646  0.24857  Biso   1.000  Zr
  Zr71     1.0000 0.76897  0.61663  0.74909  Biso   1.000  Zr
  Zr72     1.0000 0.26962  0.13121  0.50408  Biso   1.000  Zr
  Zr73     1.0000 0.26986  0.13257  0.99979  Biso   1.000  Zr
  Zr74     1.0000 0.27024  0.63314  0.50069  Biso   1.000  Zr
  Zr75     1.0000 0.27010  0.63108  0.00092  Biso   1.000  Zr
  Zr76     1.0000 0.76914  0.13363  0.49819  Biso   1.000  Zr
  Zr77     1.0000 0.77186  0.13121  0.99760  Biso   1.000  Zr
  Zr78     1.0000 0.76870  0.63309  0.49879  Biso   1.000  Zr
  Zr79     1.0000 0.76887  0.63130  0.99853  Biso   1.000  Zr
  Zr80     1.0000 0.23064  0.38253  0.50071  Biso   1.000  Zr
  Zr81     1.0000 0.23027  0.38206  0.00082  Biso   1.000  Zr
  Zr82     1.0000 0.22864  0.88346  0.50343  Biso   1.000  Zr
  Zr83     1.0000 0.23234  0.87767  0.00164  Biso   1.000  Zr
  Zr84     1.0000 0.73021  0.38327  0.49947  Biso   1.000  Zr
  Zr85     1.0000 0.72837  0.38163  0.99948  Biso   1.000  Zr
  Zr86     1.0000 0.73042  0.88332  0.49809  Biso   1.000  Zr
  Zr87     1.0000 0.72811  0.88008  0.99850  Biso   1.000  Zr
  Zr88     1.0000 0.22856  0.37017  0.25124  Biso   1.000  Zr
  Zr89     1.0000 0.22994  0.36898  0.74975  Biso   1.000  Zr
  Zr90     1.0000 0.23918  0.86013  0.25666  Biso   1.000  Zr
  Zr91     1.0000 0.22930  0.86831  0.75204  Biso   1.000  Zr
  Zr92     1.0000 0.72981  0.36806  0.24992  Biso   1.000  Zr
  Zr93     1.0000 0.73007  0.36697  0.74950  Biso   1.000  Zr
  Zr94     1.0000 0.73339  0.86665  0.24819  Biso   1.000  Zr
  Zr95     1.0000 0.72890  0.86574  0.74759  Biso   1.000  Zr
