data_image0
_cell_length_a       10.0606
_cell_length_b       10.4406
_cell_length_c       10.0906
_cell_angle_alpha    90.1127
_cell_angle_beta     90.1628
_cell_angle_gamma    90.0051

_symmetry_space_group_name_H-M    "P 1"
_symmetry_int_tables_number       1

loop_
  _symmetry_equiv_pos_as_xyz
  'x, y, z'

loop_
  _atom_site_label
  _atom_site_occupancy
  _atom_site_fract_x
  _atom_site_fract_y
  _atom_site_fract_z
  _atom_site_thermal_displace_type
  _atom_site_B_iso_or_equiv
  _atom_site_type_symbol
  Ce1      1.0000 0.12653  0.01002  0.11926  Biso   1.000  Ce
  Zr1      1.0000 0.13346  0.01554  0.62502  Biso   1.000  Zr
  Zr2      1.0000 0.13291  0.51563  0.12498  Biso   1.000  Zr
  Zr3      1.0000 0.13399  0.51598  0.62523  Biso   1.000  Zr
  Zr4      1.0000 0.63368  0.01514  0.12575  Biso   1.000  Zr
  Zr5      1.0000 0.63355  0.01656  0.62527  Biso   1.000  Zr
  Zr6      1.0000 0.63308  0.51480  0.12565  Biso   1.000  Zr
  Zr7      1.0000 0.63369  0.51517  0.62541  Biso   1.000  Zr
  Zr8      1.0000 0.13438  0.23445  0.37668  Biso   1.000  Zr
  Zr9      1.0000 0.13423  0.23794  0.87102  Biso   1.000  Zr
  Zr10     1.0000 0.13339  0.73376  0.37601  Biso   1.000  Zr
  Zr11     1.0000 0.13521  0.73387  0.87512  Biso   1.000  Zr
  Zr12     1.0000 0.63297  0.23427  0.37458  Biso   1.000  Zr
  Zr13     1.0000 0.63427  0.23482  0.87544  Biso   1.000  Zr
  Zr14     1.0000 0.63270  0.73345  0.37729  Biso   1.000  Zr
  Zr15     1.0000 0.63454  0.73332  0.87501  Biso   1.000  Zr
  Zr16     1.0000 0.36553  0.26559  0.12568  Biso   1.000  Zr
  Zr17     1.0000 0.36679  0.26522  0.62433  Biso   1.000  Zr
  Zr18     1.0000 0.36934  0.76322  0.12459  Biso   1.000  Zr
  Zr19     1.0000 0.36624  0.76556  0.62460  Biso   1.000  Zr
  Zr20     1.0000 0.86399  0.26746  0.12570  Biso   1.000  Zr
  Zr21     1.0000 0.86668  0.26677  0.62451  Biso   1.000  Zr
  Zr22     1.0000 0.86276  0.76399  0.12811  Biso   1.000  Zr
  Zr23     1.0000 0.86664  0.76480  0.62525  Biso   1.000  Zr
  Zr24     1.0000 0.36535  0.48398  0.37486  Biso   1.000  Zr
  Zr25     1.0000 0.36723  0.48397  0.87534  Biso   1.000  Zr
  Zr26     1.0000 0.36619  0.98429  0.37460  Biso   1.000  Zr
  Zr27     1.0000 0.36985  0.98481  0.87234  Biso   1.000  Zr
  Zr28     1.0000 0.86626  0.48430  0.37574  Biso   1.000  Zr
  Zr29     1.0000 0.86664  0.48416  0.87577  Biso   1.000  Zr
  Zr30     1.0000 0.86291  0.98416  0.37969  Biso   1.000  Zr
  Zr31     1.0000 0.86307  0.98334  0.87362  Biso   1.000  Zr
  Zr32     1.0000 0.03042  0.18777  0.19910  Biso   1.000  Zr
  Zr33     1.0000 0.03816  0.18686  0.68754  Biso   1.000  Zr
  Zr34     1.0000 0.03500  0.68472  0.19567  Biso   1.000  Zr
  Zr35     1.0000 0.03522  0.68361  0.69626  Biso   1.000  Zr
  Zr36     1.0000 0.53646  0.18398  0.19260  Biso   1.000  Zr
  Zr37     1.0000 0.53522  0.18335  0.69508  Biso   1.000  Zr
  Zr38     1.0000 0.53566  0.68180  0.19612  Biso   1.000  Zr
  Zr39     1.0000 0.53546  0.68318  0.69458  Biso   1.000  Zr
  Zr40     1.0000 0.03501  0.06575  0.44301  Biso   1.000  Zr
  Zr41     1.0000 0.03244  0.07351  0.92864  Biso   1.000  Zr
  Zr42     1.0000 0.03482  0.56668  0.44608  Biso   1.000  Zr
  Zr43     1.0000 0.03450  0.56937  0.94485  Biso   1.000  Zr
  Zr44     1.0000 0.53546  0.06634  0.44460  Biso   1.000  Zr
  Zr45     1.0000 0.53797  0.06610  0.94304  Biso   1.000  Zr
  Zr46     1.0000 0.53425  0.56570  0.44537  Biso   1.000  Zr
  Zr47     1.0000 0.53535  0.56675  0.94581  Biso   1.000  Zr
  Zr48     1.0000 0.46453  0.43290  0.19505  Biso   1.000  Zr
  Zr49     1.0000 0.46584  0.43293  0.69498  Biso   1.000  Zr
  Zr50     1.0000 0.46406  0.93432  0.19298  Biso   1.000  Zr
  Zr51     1.0000 0.46564  0.93322  0.69378  Biso   1.000  Zr
  Zr52     1.0000 0.96281  0.43603  0.19429  Biso   1.000  Zr
  Zr53     1.0000 0.96610  0.43378  0.69641  Biso   1.000  Zr
  Zr54     1.0000 0.95279  0.93026  0.20319  Biso   1.000  Zr
  Zr55     1.0000 0.96399  0.93316  0.69464  Biso   1.000  Zr
  Zr56     1.0000 0.46407  0.31573  0.44404  Biso   1.000  Zr
  Zr57     1.0000 0.46594  0.31695  0.94454  Biso   1.000  Zr
  Zr58     1.0000 0.46504  0.81666  0.44564  Biso   1.000  Zr
  Zr59     1.0000 0.46968  0.81700  0.94481  Biso   1.000  Zr
  Zr60     1.0000 0.96442  0.31777  0.44478  Biso   1.000  Zr
  Zr61     1.0000 0.96599  0.31882  0.94628  Biso   1.000  Zr
  Zr62     1.0000 0.96440  0.81599  0.44691  Biso   1.000  Zr
  Zr63     1.0000 0.97354  0.82502  0.95522  Biso   1.000  Zr
  Zr64     1.0000 0.27412  0.12202  0.25141  Biso   1.000  Zr
  Zr65     1.0000 0.27009  0.11699  0.74698  Biso   1.000  Zr
  Zr66     1.0000 0.26861  0.61453  0.24827  Biso   1.000  Zr
  Zr67     1.0000 0.27003  0.61678  0.74849  Biso   1.000  Zr
  Zr68     1.0000 0.76799  0.11652  0.25006  Biso   1.000  Zr
  Zr69     1.0000 0.76990  0.11752  0.74826  Biso   1.000  Zr
  Zr70     1.0000 0.76851  0.61646  0.24939  Biso   1.000  Zr
  Zr71     1.0000 0.76999  0.61629  0.74852  Biso   1.000  Zr
  Zr72     1.0000 0.26913  0.13232  0.49923  Biso   1.000  Zr
  Zr73     1.0000 0.27176  0.13565  0.99362  Biso   1.000  Zr
  Zr74     1.0000 0.26909  0.63314  0.49863  Biso   1.000  Zr
  Zr75     1.0000 0.26995  0.63190  0.99848  Biso   1.000  Zr
  Zr76     1.0000 0.76807  0.13393  0.49961  Biso   1.000  Zr
  Zr77     1.0000 0.77061  0.13281  0.99898  Biso   1.000  Zr
  Zr78     1.0000 0.76907  0.63259  0.49901  Biso   1.000  Zr
  Zr79     1.0000 0.76996  0.63263  0.99859  Biso   1.000  Zr
  Zr80     1.0000 0.23079  0.38334  0.49851  Biso   1.000  Zr
  Zr81     1.0000 0.23112  0.38402  0.99790  Biso   1.000  Zr
  Zr82     1.0000 0.23047  0.88356  0.49835  Biso   1.000  Zr
  Zr83     1.0000 0.24025  0.87751  0.99276  Biso   1.000  Zr
  Zr84     1.0000 0.73040  0.38326  0.49857  Biso   1.000  Zr
  Zr85     1.0000 0.73044  0.38340  0.99861  Biso   1.000  Zr
  Zr86     1.0000 0.72957  0.88224  0.50122  Biso   1.000  Zr
  Zr87     1.0000 0.73233  0.88153  0.99996  Biso   1.000  Zr
  Zr88     1.0000 0.22875  0.36725  0.24816  Biso   1.000  Zr
  Zr89     1.0000 0.23242  0.36801  0.74703  Biso   1.000  Zr
  Zr90     1.0000 0.23752  0.85988  0.25172  Biso   1.000  Zr
  Zr91     1.0000 0.23099  0.86687  0.74699  Biso   1.000  Zr
  Zr92     1.0000 0.72963  0.36731  0.24904  Biso   1.000  Zr
  Zr93     1.0000 0.73145  0.36689  0.74886  Biso   1.000  Zr
  Zr94     1.0000 0.72498  0.86587  0.25085  Biso   1.000  Zr
  Zr95     1.0000 0.73127  0.86649  0.74971  Biso   1.000  Zr
