data_image0
_cell_length_a       10.1544
_cell_length_b       10.3536
_cell_length_c       5.27
_cell_angle_alpha    90.019
_cell_angle_beta     90.1172
_cell_angle_gamma    90.0321

_symmetry_space_group_name_H-M    "P 1"
_symmetry_int_tables_number       1

loop_
  _symmetry_equiv_pos_as_xyz
  'x, y, z'

loop_
  _atom_site_label
  _atom_site_occupancy
  _atom_site_fract_x
  _atom_site_fract_y
  _atom_site_fract_z
  _atom_site_thermal_displace_type
  _atom_site_B_iso_or_equiv
  _atom_site_type_symbol
  Ce1      1.0000 0.13529  0.01646  0.33661  Biso   1.000  Ce
  Zr1      1.0000 0.13824  0.52104  0.34098  Biso   1.000  Zr
  Zr2      1.0000 0.13951  0.23223  0.84005  Biso   1.000  Zr
  Zr3      1.0000 0.13897  0.72679  0.84195  Biso   1.000  Zr
  Zr4      1.0000 0.36180  0.27115  0.34082  Biso   1.000  Zr
  Zr5      1.0000 0.36449  0.76799  0.33993  Biso   1.000  Zr
  Zr6      1.0000 0.36132  0.47840  0.84105  Biso   1.000  Zr
  Zr7      1.0000 0.36585  0.97864  0.83972  Biso   1.000  Zr
  Zr8      1.0000 0.63886  0.02130  0.16338  Biso   1.000  Zr
  Zr9      1.0000 0.63798  0.51968  0.15504  Biso   1.000  Zr
  Zr10     1.0000 0.63827  0.22944  0.65797  Biso   1.000  Zr
  Zr11     1.0000 0.63856  0.72801  0.65700  Biso   1.000  Zr
  Zr12     1.0000 0.85972  0.27351  0.15543  Biso   1.000  Zr
  Zr13     1.0000 0.85853  0.76802  0.15755  Biso   1.000  Zr
  Zr14     1.0000 0.86136  0.47910  0.65483  Biso   1.000  Zr
  Zr15     1.0000 0.85640  0.97903  0.66766  Biso   1.000  Zr
  O1       1.0000 0.03273  0.17696  0.16677  Biso   1.000  O
  O2       1.0000 0.03308  0.66693  0.16763  Biso   1.000  O
  O3       1.0000 0.02780  0.08643  0.68388  Biso   1.000  O
  O4       1.0000 0.03196  0.58527  0.66487  Biso   1.000  O
  O5       1.0000 0.46773  0.41439  0.16425  Biso   1.000  O
  O6       1.0000 0.46861  0.91637  0.16902  Biso   1.000  O
  O7       1.0000 0.46814  0.33558  0.66474  Biso   1.000  O
  O8       1.0000 0.47024  0.83419  0.66430  Biso   1.000  O
  O9       1.0000 0.27895  0.12710  0.59466  Biso   1.000  O
  O10      1.0000 0.27567  0.62254  0.58843  Biso   1.000  O
  O11      1.0000 0.28130  0.13087  0.07846  Biso   1.000  O
  O12      1.0000 0.27449  0.62277  0.08958  Biso   1.000  O
  O13      1.0000 0.22447  0.37473  0.58730  Biso   1.000  O
  O14      1.0000 0.23025  0.86828  0.59065  Biso   1.000  O
  O15      1.0000 0.22434  0.37693  0.08862  Biso   1.000  O
  O16      1.0000 0.23512  0.86796  0.07666  Biso   1.000  O
  O17      1.0000 0.53306  0.16590  0.33342  Biso   1.000  O
  O18      1.0000 0.53318  0.66290  0.33356  Biso   1.000  O
  O19      1.0000 0.53621  0.08317  0.83213  Biso   1.000  O
  O20      1.0000 0.53159  0.58498  0.83436  Biso   1.000  O
  O21      1.0000 0.96537  0.41886  0.32919  Biso   1.000  O
  O22      1.0000 0.95432  0.91232  0.34399  Biso   1.000  O
  O23      1.0000 0.96623  0.33709  0.82951  Biso   1.000  O
  O24      1.0000 0.96907  0.83743  0.84130  Biso   1.000  O
  O25      1.0000 0.77457  0.12518  0.91619  Biso   1.000  O
  O26      1.0000 0.77463  0.62350  0.90801  Biso   1.000  O
  O27      1.0000 0.77532  0.12611  0.41519  Biso   1.000  O
  O28      1.0000 0.77440  0.62540  0.40800  Biso   1.000  O
  O29      1.0000 0.72395  0.37492  0.90767  Biso   1.000  O
  O30      1.0000 0.72435  0.87320  0.91465  Biso   1.000  O
  O31      1.0000 0.72416  0.37578  0.40853  Biso   1.000  O
  O32      1.0000 0.71954  0.87517  0.41452  Biso   1.000  O
