data_image0
_cell_length_a       5.01712
_cell_length_b       10.1924
_cell_length_c       10.029
_cell_angle_alpha    90.0023
_cell_angle_beta     88.5384
_cell_angle_gamma    89.9952

_symmetry_space_group_name_H-M    "P 1"
_symmetry_int_tables_number       1

loop_
  _symmetry_equiv_pos_as_xyz
  'x, y, z'

loop_
  _atom_site_label
  _atom_site_occupancy
  _atom_site_fract_x
  _atom_site_fract_y
  _atom_site_fract_z
  _atom_site_thermal_displace_type
  _atom_site_B_iso_or_equiv
  _atom_site_type_symbol
  Co1      1.0000 0.24985  0.96715  0.12558  Biso   1.000  Co
  Zr1      1.0000 0.24987  0.99968  0.62556  Biso   1.000  Zr
  Zr2      1.0000 0.24986  0.50616  0.12560  Biso   1.000  Zr
  Zr3      1.0000 0.24982  0.49464  0.62561  Biso   1.000  Zr
  Zr4      1.0000 0.26796  0.24781  0.36953  Biso   1.000  Zr
  Zr5      1.0000 0.23178  0.24779  0.88169  Biso   1.000  Zr
  Zr6      1.0000 0.25472  0.74979  0.38076  Biso   1.000  Zr
  Zr7      1.0000 0.24486  0.74982  0.87048  Biso   1.000  Zr
  Zr8      1.0000 0.74990  0.25883  0.12561  Biso   1.000  Zr
  Zr9      1.0000 0.74988  0.24554  0.62560  Biso   1.000  Zr
  Zr10     1.0000 0.74982  0.75679  0.12561  Biso   1.000  Zr
  Zr11     1.0000 0.74977  0.75016  0.62562  Biso   1.000  Zr
  Zr12     1.0000 0.77637  0.00324  0.36942  Biso   1.000  Zr
  Zr13     1.0000 0.72333  0.00324  0.88172  Biso   1.000  Zr
  Zr14     1.0000 0.75602  0.49728  0.37854  Biso   1.000  Zr
  Zr15     1.0000 0.74365  0.49726  0.87267  Biso   1.000  Zr
  Zr16     1.0000 0.91171  0.16122  0.97194  Biso   1.000  Zr
  Zr17     1.0000 0.00495  0.14278  0.48609  Biso   1.000  Zr
  Zr18     1.0000 0.00115  0.65334  0.00180  Biso   1.000  Zr
  Zr19     1.0000 0.00072  0.64134  0.50068  Biso   1.000  Zr
  Zr20     1.0000 0.07528  0.09096  0.22909  Biso   1.000  Zr
  Zr21     1.0000 0.98510  0.10178  0.73759  Biso   1.000  Zr
  Zr22     1.0000 0.99558  0.60647  0.25139  Biso   1.000  Zr
  Zr23     1.0000 0.00050  0.60398  0.75018  Biso   1.000  Zr
  Zr24     1.0000 0.00850  0.35252  0.25226  Biso   1.000  Zr
  Zr25     1.0000 0.99876  0.35258  0.75272  Biso   1.000  Zr
  Zr26     1.0000 0.02170  0.85467  0.24750  Biso   1.000  Zr
  Zr27     1.0000 0.97277  0.85308  0.76213  Biso   1.000  Zr
  Zr28     1.0000 0.99628  0.40352  0.00409  Biso   1.000  Zr
  Zr29     1.0000 0.99753  0.39172  0.50394  Biso   1.000  Zr
  Zr30     1.0000 0.98893  0.91422  0.01187  Biso   1.000  Zr
  Zr31     1.0000 0.01687  0.89084  0.50375  Biso   1.000  Zr
  Zr32     1.0000 0.58792  0.16121  0.27922  Biso   1.000  Zr
  Zr33     1.0000 0.49474  0.14278  0.76506  Biso   1.000  Zr
  Zr34     1.0000 0.49871  0.65335  0.24949  Biso   1.000  Zr
  Zr35     1.0000 0.49892  0.64134  0.75058  Biso   1.000  Zr
  Zr36     1.0000 0.42429  0.09094  0.02204  Biso   1.000  Zr
  Zr37     1.0000 0.51458  0.10181  0.51356  Biso   1.000  Zr
  Zr38     1.0000 0.50428  0.60647  0.99990  Biso   1.000  Zr
  Zr39     1.0000 0.49916  0.60399  0.50108  Biso   1.000  Zr
  Zr40     1.0000 0.49122  0.35251  0.99896  Biso   1.000  Zr
  Zr41     1.0000 0.50096  0.35260  0.49848  Biso   1.000  Zr
  Zr42     1.0000 0.47804  0.85466  0.00369  Biso   1.000  Zr
  Zr43     1.0000 0.52678  0.85310  0.48909  Biso   1.000  Zr
  Zr44     1.0000 0.50345  0.40353  0.24713  Biso   1.000  Zr
  Zr45     1.0000 0.50217  0.39172  0.74729  Biso   1.000  Zr
  Zr46     1.0000 0.51080  0.91424  0.23929  Biso   1.000  Zr
  Zr47     1.0000 0.48268  0.89085  0.74744  Biso   1.000  Zr
