data_image0
_cell_length_a       10.0071
_cell_length_b       10.4311
_cell_length_c       10.0485
_cell_angle_alpha    90.2956
_cell_angle_beta     89.7212
_cell_angle_gamma    90.18

_symmetry_space_group_name_H-M    "P 1"
_symmetry_int_tables_number       1

loop_
  _symmetry_equiv_pos_as_xyz
  'x, y, z'

loop_
  _atom_site_label
  _atom_site_occupancy
  _atom_site_fract_x
  _atom_site_fract_y
  _atom_site_fract_z
  _atom_site_thermal_displace_type
  _atom_site_B_iso_or_equiv
  _atom_site_type_symbol
  Cr1      1.0000 0.12002  0.03413  0.11356  Biso   1.000  Cr
  Zr1      1.0000 0.13503  0.01690  0.62673  Biso   1.000  Zr
  Zr2      1.0000 0.13365  0.51361  0.12565  Biso   1.000  Zr
  Zr3      1.0000 0.13481  0.51668  0.62593  Biso   1.000  Zr
  Zr4      1.0000 0.63435  0.01585  0.12461  Biso   1.000  Zr
  Zr5      1.0000 0.62959  0.01379  0.62340  Biso   1.000  Zr
  Zr6      1.0000 0.63367  0.51606  0.12692  Biso   1.000  Zr
  Zr7      1.0000 0.63338  0.51674  0.62453  Biso   1.000  Zr
  Zr8      1.0000 0.13283  0.23067  0.37169  Biso   1.000  Zr
  Zr9      1.0000 0.13297  0.23756  0.87537  Biso   1.000  Zr
  Zr10     1.0000 0.13663  0.73251  0.37797  Biso   1.000  Zr
  Zr11     1.0000 0.13393  0.73713  0.88007  Biso   1.000  Zr
  Zr12     1.0000 0.63358  0.23290  0.37662  Biso   1.000  Zr
  Zr13     1.0000 0.63184  0.23433  0.87351  Biso   1.000  Zr
  Zr14     1.0000 0.63561  0.73626  0.37423  Biso   1.000  Zr
  Zr15     1.0000 0.63168  0.73606  0.87555  Biso   1.000  Zr
  Zr16     1.0000 0.36614  0.26219  0.12318  Biso   1.000  Zr
  Zr17     1.0000 0.36544  0.26606  0.62457  Biso   1.000  Zr
  Zr18     1.0000 0.36522  0.76394  0.12742  Biso   1.000  Zr
  Zr19     1.0000 0.36633  0.76823  0.62898  Biso   1.000  Zr
  Zr20     1.0000 0.86417  0.26645  0.12351  Biso   1.000  Zr
  Zr21     1.0000 0.86582  0.26536  0.62480  Biso   1.000  Zr
  Zr22     1.0000 0.87201  0.76361  0.12070  Biso   1.000  Zr
  Zr23     1.0000 0.86800  0.76610  0.62437  Biso   1.000  Zr
  Zr24     1.0000 0.36725  0.48262  0.37547  Biso   1.000  Zr
  Zr25     1.0000 0.36598  0.48629  0.87542  Biso   1.000  Zr
  Zr26     1.0000 0.36328  0.98123  0.37183  Biso   1.000  Zr
  Zr27     1.0000 0.35878  0.98490  0.88378  Biso   1.000  Zr
  Zr28     1.0000 0.86612  0.48394  0.37580  Biso   1.000  Zr
  Zr29     1.0000 0.86496  0.48578  0.87418  Biso   1.000  Zr
  Zr30     1.0000 0.86868  0.98688  0.37597  Biso   1.000  Zr
  Zr31     1.0000 0.86468  0.98565  0.87280  Biso   1.000  Zr
  Zr32     1.0000 0.03510  0.18258  0.18820  Biso   1.000  Zr
  Zr33     1.0000 0.03264  0.18258  0.69940  Biso   1.000  Zr
  Zr34     1.0000 0.03692  0.68437  0.19508  Biso   1.000  Zr
  Zr35     1.0000 0.03615  0.68508  0.69519  Biso   1.000  Zr
  Zr36     1.0000 0.53177  0.18136  0.19876  Biso   1.000  Zr
  Zr37     1.0000 0.53521  0.18469  0.69249  Biso   1.000  Zr
  Zr38     1.0000 0.53668  0.68373  0.19665  Biso   1.000  Zr
  Zr39     1.0000 0.53472  0.68352  0.69619  Biso   1.000  Zr
  Zr40     1.0000 0.03505  0.06698  0.44849  Biso   1.000  Zr
  Zr41     1.0000 0.03464  0.06742  0.95280  Biso   1.000  Zr
  Zr42     1.0000 0.03520  0.56464  0.44631  Biso   1.000  Zr
  Zr43     1.0000 0.03283  0.56863  0.94714  Biso   1.000  Zr
  Zr44     1.0000 0.53520  0.06570  0.44384  Biso   1.000  Zr
  Zr45     1.0000 0.53015  0.06965  0.94941  Biso   1.000  Zr
  Zr46     1.0000 0.53742  0.56705  0.44286  Biso   1.000  Zr
  Zr47     1.0000 0.53482  0.56774  0.94582  Biso   1.000  Zr
  Zr48     1.0000 0.46486  0.43170  0.19319  Biso   1.000  Zr
  Zr49     1.0000 0.46367  0.43449  0.69407  Biso   1.000  Zr
  Zr50     1.0000 0.47227  0.92972  0.19820  Biso   1.000  Zr
  Zr51     1.0000 0.46343  0.93476  0.70129  Biso   1.000  Zr
  Zr52     1.0000 0.96544  0.43141  0.19615  Biso   1.000  Zr
  Zr53     1.0000 0.96452  0.43359  0.69394  Biso   1.000  Zr
  Zr54     1.0000 0.99271  0.94112  0.18497  Biso   1.000  Zr
  Zr55     1.0000 0.96491  0.93483  0.69400  Biso   1.000  Zr
  Zr56     1.0000 0.46586  0.31685  0.44554  Biso   1.000  Zr
  Zr57     1.0000 0.46203  0.31632  0.94307  Biso   1.000  Zr
  Zr58     1.0000 0.46961  0.81895  0.45209  Biso   1.000  Zr
  Zr59     1.0000 0.45993  0.81799  0.94479  Biso   1.000  Zr
  Zr60     1.0000 0.96412  0.31393  0.44267  Biso   1.000  Zr
  Zr61     1.0000 0.96326  0.31843  0.94383  Biso   1.000  Zr
  Zr62     1.0000 0.96607  0.81822  0.44122  Biso   1.000  Zr
  Zr63     1.0000 0.96050  0.81707  0.93954  Biso   1.000  Zr
  Zr64     1.0000 0.25451  0.10172  0.23806  Biso   1.000  Zr
  Zr65     1.0000 0.26984  0.11874  0.74927  Biso   1.000  Zr
  Zr66     1.0000 0.26812  0.60821  0.24916  Biso   1.000  Zr
  Zr67     1.0000 0.26893  0.61914  0.75122  Biso   1.000  Zr
  Zr68     1.0000 0.77156  0.11600  0.24677  Biso   1.000  Zr
  Zr69     1.0000 0.76663  0.11586  0.74696  Biso   1.000  Zr
  Zr70     1.0000 0.77194  0.61581  0.24806  Biso   1.000  Zr
  Zr71     1.0000 0.76896  0.61767  0.74860  Biso   1.000  Zr
  Zr72     1.0000 0.27091  0.13317  0.49418  Biso   1.000  Zr
  Zr73     1.0000 0.26131  0.13459  0.99935  Biso   1.000  Zr
  Zr74     1.0000 0.27247  0.63248  0.50063  Biso   1.000  Zr
  Zr75     1.0000 0.26823  0.63395  0.00005  Biso   1.000  Zr
  Zr76     1.0000 0.77048  0.13231  0.49741  Biso   1.000  Zr
  Zr77     1.0000 0.76798  0.13442  0.99625  Biso   1.000  Zr
  Zr78     1.0000 0.76955  0.63456  0.49834  Biso   1.000  Zr
  Zr79     1.0000 0.76860  0.63517  0.99894  Biso   1.000  Zr
  Zr80     1.0000 0.22950  0.38201  0.49808  Biso   1.000  Zr
  Zr81     1.0000 0.23006  0.38453  0.99825  Biso   1.000  Zr
  Zr82     1.0000 0.23098  0.88299  0.50484  Biso   1.000  Zr
  Zr83     1.0000 0.22207  0.89000  0.01351  Biso   1.000  Zr
  Zr84     1.0000 0.73097  0.38289  0.49923  Biso   1.000  Zr
  Zr85     1.0000 0.72909  0.38405  0.99814  Biso   1.000  Zr
  Zr86     1.0000 0.73329  0.88477  0.49695  Biso   1.000  Zr
  Zr87     1.0000 0.72945  0.88490  0.99689  Biso   1.000  Zr
  Zr88     1.0000 0.23293  0.36015  0.24772  Biso   1.000  Zr
  Zr89     1.0000 0.22948  0.36845  0.74863  Biso   1.000  Zr
  Zr90     1.0000 0.24741  0.85007  0.26259  Biso   1.000  Zr
  Zr91     1.0000 0.22856  0.86949  0.75537  Biso   1.000  Zr
  Zr92     1.0000 0.72927  0.36606  0.24870  Biso   1.000  Zr
  Zr93     1.0000 0.72976  0.36714  0.74821  Biso   1.000  Zr
  Zr94     1.0000 0.74487  0.86710  0.24575  Biso   1.000  Zr
  Zr95     1.0000 0.73032  0.86660  0.74734  Biso   1.000  Zr
