data_image0
_cell_length_a       5.06112
_cell_length_b       10.4434
_cell_length_c       10.175
_cell_angle_alpha    90.0125
_cell_angle_beta     90.5754
_cell_angle_gamma    89.3743

_symmetry_space_group_name_H-M    "P 1"
_symmetry_int_tables_number       1

loop_
  _symmetry_equiv_pos_as_xyz
  'x, y, z'

loop_
  _atom_site_label
  _atom_site_occupancy
  _atom_site_fract_x
  _atom_site_fract_y
  _atom_site_fract_z
  _atom_site_thermal_displace_type
  _atom_site_B_iso_or_equiv
  _atom_site_type_symbol
  Zr1      1.0000 0.25708  0.00665  0.12997  Biso   1.000  Zr
  Zr2      1.0000 0.26248  0.23642  0.38342  Biso   1.000  Zr
  Zr3      1.0000 0.81802  0.23994  0.07344  Biso   1.000  Zr
  Zr4      1.0000 0.71778  0.48276  0.38888  Biso   1.000  Zr
  Zr5      1.0000 0.05179  0.15860  0.22034  Biso   1.000  Zr
  Zr6      1.0000 0.06045  0.06616  0.45486  Biso   1.000  Zr
  Zr7      1.0000 0.01600  0.39236  0.15900  Biso   1.000  Zr
  Zr8      1.0000 0.92567  0.32125  0.45149  Biso   1.000  Zr
  Zr9      1.0000 0.52589  0.12173  0.24436  Biso   1.000  Zr
  Zr10     1.0000 0.54005  0.13549  0.50312  Biso   1.000  Zr
  Zr11     1.0000 0.45740  0.38592  0.50946  Biso   1.000  Zr
  Zr12     1.0000 0.47770  0.37961  0.26146  Biso   1.000  Zr
  Zr13     1.0000 0.25936  0.01612  0.62445  Biso   1.000  Zr
  Zr14     1.0000 0.26832  0.23948  0.86592  Biso   1.000  Zr
  Zr15     1.0000 0.72997  0.26959  0.63209  Biso   1.000  Zr
  Zr16     1.0000 0.73222  0.49173  0.86891  Biso   1.000  Zr
  Zr17     1.0000 0.07141  0.18199  0.68919  Biso   1.000  Zr
  Zr18     1.0000 0.00547  0.07886  0.96664  Biso   1.000  Zr
  Zr19     1.0000 0.90836  0.44621  0.68081  Biso   1.000  Zr
  Zr20     1.0000 0.89956  0.31222  0.88904  Biso   1.000  Zr
  Zr21     1.0000 0.53485  0.11864  0.75216  Biso   1.000  Zr
  Zr22     1.0000 0.48858  0.13183  0.00283  Biso   1.000  Zr
  Zr23     1.0000 0.48879  0.37749  0.00566  Biso   1.000  Zr
  Zr24     1.0000 0.44710  0.37651  0.75104  Biso   1.000  Zr
  Zr25     1.0000 0.29913  0.52267  0.12548  Biso   1.000  Zr
  Zr26     1.0000 0.26003  0.73747  0.37513  Biso   1.000  Zr
  Zr27     1.0000 0.73491  0.76551  0.12898  Biso   1.000  Zr
  Zr28     1.0000 0.72903  0.99113  0.37520  Biso   1.000  Zr
  Zr29     1.0000 0.07746  0.67643  0.19444  Biso   1.000  Zr
  Zr30     1.0000 0.06648  0.56990  0.44059  Biso   1.000  Zr
  Zr31     1.0000 0.92846  0.92172  0.20565  Biso   1.000  Zr
  Zr32     1.0000 0.93384  0.82089  0.45241  Biso   1.000  Zr
  Zr33     1.0000 0.56570  0.62133  0.25149  Biso   1.000  Zr
  Zr34     1.0000 0.52822  0.63602  0.50016  Biso   1.000  Zr
  Zr35     1.0000 0.46496  0.88731  0.49742  Biso   1.000  Zr
  Zr36     1.0000 0.46017  0.86604  0.25000  Biso   1.000  Zr
  Zr37     1.0000 0.25548  0.52036  0.62483  Biso   1.000  Zr
  Zr38     1.0000 0.26141  0.73417  0.87480  Biso   1.000  Zr
  Zr39     1.0000 0.72705  0.77004  0.62474  Biso   1.000  Zr
  Zr40     1.0000 0.71486  0.97930  0.87550  Biso   1.000  Zr
  Zr41     1.0000 0.06061  0.68682  0.69788  Biso   1.000  Zr
  Zr42     1.0000 0.07965  0.56322  0.93985  Biso   1.000  Zr
  Zr43     1.0000 0.92805  0.93344  0.70566  Biso   1.000  Zr
  Zr44     1.0000 0.93315  0.81898  0.95137  Biso   1.000  Zr
  Zr45     1.0000 0.53128  0.62223  0.74756  Biso   1.000  Zr
  Zr46     1.0000 0.54546  0.63330  0.99734  Biso   1.000  Zr
  Zr47     1.0000 0.45649  0.87841  0.99840  Biso   1.000  Zr
  Zr48     1.0000 0.45365  0.86711  0.74804  Biso   1.000  Zr
  Cr1      1.0000 0.32806  0.25773  0.13627  Biso   1.000  Cr
