data_image0
_cell_length_a       4.99591
_cell_length_b       10.4323
_cell_length_c       10.0314
_cell_angle_alpha    90.7382
_cell_angle_beta     89.2583
_cell_angle_gamma    90.4127

_symmetry_space_group_name_H-M    "P 1"
_symmetry_int_tables_number       1

loop_
  _symmetry_equiv_pos_as_xyz
  'x, y, z'

loop_
  _atom_site_label
  _atom_site_occupancy
  _atom_site_fract_x
  _atom_site_fract_y
  _atom_site_fract_z
  _atom_site_thermal_displace_type
  _atom_site_B_iso_or_equiv
  _atom_site_type_symbol
  Cr1      1.0000 0.24067  0.03410  0.11355  Biso   1.000  Cr
  Zr1      1.0000 0.26168  0.01468  0.62437  Biso   1.000  Zr
  Zr2      1.0000 0.26621  0.51366  0.12717  Biso   1.000  Zr
  Zr3      1.0000 0.26901  0.51779  0.62464  Biso   1.000  Zr
  Zr4      1.0000 0.26552  0.22909  0.37243  Biso   1.000  Zr
  Zr5      1.0000 0.26042  0.23824  0.87227  Biso   1.000  Zr
  Zr6      1.0000 0.28111  0.73443  0.37702  Biso   1.000  Zr
  Zr7      1.0000 0.26281  0.73945  0.88041  Biso   1.000  Zr
  Zr8      1.0000 0.72844  0.26130  0.12013  Biso   1.000  Zr
  Zr9      1.0000 0.73031  0.26562  0.62332  Biso   1.000  Zr
  Zr10     1.0000 0.74597  0.75973  0.12129  Biso   1.000  Zr
  Zr11     1.0000 0.73802  0.76919  0.62820  Biso   1.000  Zr
  Zr12     1.0000 0.73637  0.48186  0.37551  Biso   1.000  Zr
  Zr13     1.0000 0.72819  0.48823  0.87381  Biso   1.000  Zr
  Zr14     1.0000 0.73629  0.98386  0.37173  Biso   1.000  Zr
  Zr15     1.0000 0.71276  0.98699  0.88185  Biso   1.000  Zr
  Zr16     1.0000 0.05811  0.17867  0.19480  Biso   1.000  Zr
  Zr17     1.0000 0.06549  0.18430  0.69594  Biso   1.000  Zr
  Zr18     1.0000 0.07747  0.68497  0.19919  Biso   1.000  Zr
  Zr19     1.0000 0.06956  0.68455  0.69849  Biso   1.000  Zr
  Zr20     1.0000 0.07020  0.06623  0.44793  Biso   1.000  Zr
  Zr21     1.0000 0.05340  0.07247  0.95861  Biso   1.000  Zr
  Zr22     1.0000 0.07556  0.56579  0.44497  Biso   1.000  Zr
  Zr23     1.0000 0.05785  0.57223  0.95168  Biso   1.000  Zr
  Zr24     1.0000 0.93235  0.42821  0.19520  Biso   1.000  Zr
  Zr25     1.0000 0.92820  0.43445  0.69405  Biso   1.000  Zr
  Zr26     1.0000 0.99605  0.93872  0.18758  Biso   1.000  Zr
  Zr27     1.0000 0.92814  0.93650  0.70204  Biso   1.000  Zr
  Zr28     1.0000 0.93328  0.31496  0.44431  Biso   1.000  Zr
  Zr29     1.0000 0.92084  0.31920  0.94221  Biso   1.000  Zr
  Zr30     1.0000 0.94819  0.82173  0.45133  Biso   1.000  Zr
  Zr31     1.0000 0.91159  0.81988  0.94010  Biso   1.000  Zr
  Zr32     1.0000 0.51054  0.09755  0.23393  Biso   1.000  Zr
  Zr33     1.0000 0.53375  0.11769  0.74656  Biso   1.000  Zr
  Zr34     1.0000 0.54158  0.60537  0.24795  Biso   1.000  Zr
  Zr35     1.0000 0.53548  0.62003  0.75087  Biso   1.000  Zr
  Zr36     1.0000 0.54452  0.13284  0.49115  Biso   1.000  Zr
  Zr37     1.0000 0.51495  0.13685  0.99560  Biso   1.000  Zr
  Zr38     1.0000 0.54687  0.63420  0.50005  Biso   1.000  Zr
  Zr39     1.0000 0.53012  0.63624  0.99966  Biso   1.000  Zr
  Zr40     1.0000 0.46144  0.38198  0.49790  Biso   1.000  Zr
  Zr41     1.0000 0.45585  0.38613  0.99671  Biso   1.000  Zr
  Zr42     1.0000 0.47169  0.88520  0.50281  Biso   1.000  Zr
  Zr43     1.0000 0.44141  0.89341  0.01368  Biso   1.000  Zr
  Zr44     1.0000 0.46423  0.35760  0.24672  Biso   1.000  Zr
  Zr45     1.0000 0.45751  0.36896  0.74726  Biso   1.000  Zr
  Zr46     1.0000 0.52908  0.84699  0.26135  Biso   1.000  Zr
  Zr47     1.0000 0.45626  0.86925  0.75435  Biso   1.000  Zr
