data_image0
_cell_length_a       10.2021
_cell_length_b       10.4076
_cell_length_c       10.221
_cell_angle_alpha    90.1899
_cell_angle_beta     90.0129
_cell_angle_gamma    88.9947

_symmetry_space_group_name_H-M    "P 1"
_symmetry_int_tables_number       1

loop_
  _symmetry_equiv_pos_as_xyz
  'x, y, z'

loop_
  _atom_site_label
  _atom_site_occupancy
  _atom_site_fract_x
  _atom_site_fract_y
  _atom_site_fract_z
  _atom_site_thermal_displace_type
  _atom_site_B_iso_or_equiv
  _atom_site_type_symbol
  Zr1      1.0000 0.09259  0.96916  0.09146  Biso   1.000  Zr
  Zr2      1.0000 0.13276  0.25249  0.43874  Biso   1.000  Zr
  Zr3      1.0000 0.41969  0.28015  0.15218  Biso   1.000  Zr
  Zr4      1.0000 0.36429  0.02057  0.36946  Biso   1.000  Zr
  Zr5      1.0000 0.98130  0.13416  0.98377  Biso   1.000  Zr
  Zr6      1.0000 0.95924  0.06426  0.21850  Biso   1.000  Zr
  Zr7      1.0000 0.98212  0.31429  0.31256  Biso   1.000  Zr
  Zr8      1.0000 0.01354  0.39548  0.02691  Biso   1.000  Zr
  Zr9      1.0000 0.32102  0.21413  0.33288  Biso   1.000  Zr
  Zr10     1.0000 0.22096  0.08000  0.97360  Biso   1.000  Zr
  Zr11     1.0000 0.27826  0.35453  0.99786  Biso   1.000  Zr
  Zr12     1.0000 0.28952  0.43962  0.23643  Biso   1.000  Zr
  Zr13     1.0000 0.09946  0.97854  0.60636  Biso   1.000  Zr
  Zr14     1.0000 0.13881  0.25197  0.88441  Biso   1.000  Zr
  Zr15     1.0000 0.37848  0.24743  0.64595  Biso   1.000  Zr
  Zr16     1.0000 0.35242  0.99461  0.85988  Biso   1.000  Zr
  Zr17     1.0000 0.98915  0.13162  0.50017  Biso   1.000  Zr
  Zr18     1.0000 0.97394  0.06979  0.73247  Biso   1.000  Zr
  Zr19     1.0000 0.97988  0.31792  0.78745  Biso   1.000  Zr
  Zr20     1.0000 0.01233  0.38562  0.54513  Biso   1.000  Zr
  Zr21     1.0000 0.24609  0.15195  0.75110  Biso   1.000  Zr
  Zr22     1.0000 0.23830  0.09777  0.51743  Biso   1.000  Zr
  Zr23     1.0000 0.26586  0.37429  0.51870  Biso   1.000  Zr
  Zr24     1.0000 0.24522  0.39824  0.76067  Biso   1.000  Zr
  Zr25     1.0000 0.14778  0.52385  0.11797  Biso   1.000  Zr
  Zr26     1.0000 0.10838  0.74002  0.36478  Biso   1.000  Zr
  Zr27     1.0000 0.37738  0.75689  0.10304  Biso   1.000  Zr
  Zr28     1.0000 0.40242  0.50296  0.38803  Biso   1.000  Zr
  Zr29     1.0000 0.00600  0.64046  0.00511  Biso   1.000  Zr
  Zr30     1.0000 0.02372  0.57303  0.26926  Biso   1.000  Zr
  Zr31     1.0000 0.00341  0.82297  0.21200  Biso   1.000  Zr
  Zr32     1.0000 0.97865  0.87471  0.95726  Biso   1.000  Zr
  Zr33     1.0000 0.23591  0.68885  0.21978  Biso   1.000  Zr
  Zr34     1.0000 0.25868  0.60713  0.98068  Biso   1.000  Zr
  Zr35     1.0000 0.23263  0.84302  0.98626  Biso   1.000  Zr
  Zr36     1.0000 0.23729  0.96785  0.23088  Biso   1.000  Zr
  Zr37     1.0000 0.15053  0.51531  0.62229  Biso   1.000  Zr
  Zr38     1.0000 0.11838  0.73356  0.85813  Biso   1.000  Zr
  Zr39     1.0000 0.36432  0.76282  0.59783  Biso   1.000  Zr
  Zr40     1.0000 0.38797  0.49285  0.87590  Biso   1.000  Zr
  Zr41     1.0000 0.00600  0.63384  0.50723  Biso   1.000  Zr
  Zr42     1.0000 0.02506  0.57098  0.77017  Biso   1.000  Zr
  Zr43     1.0000 0.01764  0.81598  0.70608  Biso   1.000  Zr
  Zr44     1.0000 0.98327  0.88341  0.46802  Biso   1.000  Zr
  Zr45     1.0000 0.26508  0.64790  0.73211  Biso   1.000  Zr
  Zr46     1.0000 0.25696  0.61538  0.47915  Biso   1.000  Zr
  Zr47     1.0000 0.23673  0.85665  0.47462  Biso   1.000  Zr
  Zr48     1.0000 0.24859  0.89604  0.72637  Biso   1.000  Zr
  Zr49     1.0000 0.59880  0.99871  0.11364  Biso   1.000  Zr
  Zr50     1.0000 0.62038  0.24488  0.40855  Biso   1.000  Zr
  Zr51     1.0000 0.86587  0.24835  0.14244  Biso   1.000  Zr
  Zr52     1.0000 0.84977  0.00924  0.37153  Biso   1.000  Zr
  Zr53     1.0000 0.49121  0.15548  0.01016  Biso   1.000  Zr
  Zr54     1.0000 0.51497  0.11425  0.25651  Biso   1.000  Zr
  Zr55     1.0000 0.54211  0.37661  0.27156  Biso   1.000  Zr
  Zr56     1.0000 0.51673  0.40737  0.01613  Biso   1.000  Zr
  Zr57     1.0000 0.75277  0.17242  0.28211  Biso   1.000  Zr
  Zr58     1.0000 0.73678  0.11089  0.02002  Biso   1.000  Zr
  Zr59     1.0000 0.76053  0.35538  0.00119  Biso   1.000  Zr
  Zr60     1.0000 0.78630  0.42683  0.23397  Biso   1.000  Zr
  Zr61     1.0000 0.60931  0.98980  0.62653  Biso   1.000  Zr
  Zr62     1.0000 0.62627  0.25498  0.89688  Biso   1.000  Zr
  Zr63     1.0000 0.87139  0.23709  0.64333  Biso   1.000  Zr
  Zr64     1.0000 0.84938  0.01283  0.87944  Biso   1.000  Zr
  Zr65     1.0000 0.49605  0.14149  0.51808  Biso   1.000  Zr
  Zr66     1.0000 0.49002  0.08997  0.75497  Biso   1.000  Zr
  Zr67     1.0000 0.49126  0.33837  0.77498  Biso   1.000  Zr
  Zr68     1.0000 0.51148  0.39407  0.52031  Biso   1.000  Zr
  Zr69     1.0000 0.73688  0.14717  0.76705  Biso   1.000  Zr
  Zr70     1.0000 0.74063  0.10233  0.51916  Biso   1.000  Zr
  Zr71     1.0000 0.76184  0.35172  0.50469  Biso   1.000  Zr
  Zr72     1.0000 0.75115  0.39497  0.75383  Biso   1.000  Zr
  Zr73     1.0000 0.64347  0.51681  0.13247  Biso   1.000  Zr
  Zr74     1.0000 0.61135  0.76278  0.35704  Biso   1.000  Zr
  Zr75     1.0000 0.86001  0.75163  0.09641  Biso   1.000  Zr
  Zr76     1.0000 0.89885  0.47895  0.39259  Biso   1.000  Zr
  Zr77     1.0000 0.50798  0.65299  0.99532  Biso   1.000  Zr
  Zr78     1.0000 0.49866  0.61682  0.24852  Biso   1.000  Zr
  Zr79     1.0000 0.48179  0.86506  0.23931  Biso   1.000  Zr
  Zr80     1.0000 0.47839  0.90212  0.98995  Biso   1.000  Zr
  Zr81     1.0000 0.73952  0.67187  0.23011  Biso   1.000  Zr
  Zr82     1.0000 0.75727  0.60609  0.98645  Biso   1.000  Zr
  Zr83     1.0000 0.72894  0.86226  0.99139  Biso   1.000  Zr
  Zr84     1.0000 0.72864  0.91322  0.24694  Biso   1.000  Zr
  Zr85     1.0000 0.64952  0.50450  0.62259  Biso   1.000  Zr
  Zr86     1.0000 0.62690  0.73968  0.85429  Biso   1.000  Zr
  Zr87     1.0000 0.86128  0.75102  0.60174  Biso   1.000  Zr
  Zr88     1.0000 0.89158  0.48001  0.88690  Biso   1.000  Zr
  Zr89     1.0000 0.50725  0.64957  0.49844  Biso   1.000  Zr
  Zr90     1.0000 0.52393  0.58417  0.75804  Biso   1.000  Zr
  Zr91     1.0000 0.50069  0.83834  0.73317  Biso   1.000  Zr
  Zr92     1.0000 0.48690  0.90050  0.49018  Biso   1.000  Zr
  Zr93     1.0000 0.76243  0.64535  0.73613  Biso   1.000  Zr
  Zr94     1.0000 0.75866  0.60269  0.48755  Biso   1.000  Zr
  Zr95     1.0000 0.73368  0.85623  0.49072  Biso   1.000  Zr
  Zr96     1.0000 0.75103  0.89149  0.74080  Biso   1.000  Zr
  Cs1      1.0000 0.15135  0.22215  0.16543  Biso   1.000  Cs
