data_image0
_cell_length_a       10.13
_cell_length_b       5.14534
_cell_length_c       10.13
_cell_angle_alpha    89.9999
_cell_angle_beta     89.9999
_cell_angle_gamma    89.9999

_symmetry_space_group_name_H-M    "P 1"
_symmetry_int_tables_number       1

loop_
  _symmetry_equiv_pos_as_xyz
  'x, y, z'

loop_
  _atom_site_label
  _atom_site_occupancy
  _atom_site_fract_x
  _atom_site_fract_y
  _atom_site_fract_z
  _atom_site_thermal_displace_type
  _atom_site_B_iso_or_equiv
  _atom_site_type_symbol
  Zr1      1.0000 0.12540  0.00011  0.12540  Biso   1.000  Zr
  Zr2      1.0000 0.12540  0.50015  0.38912  Biso   1.000  Zr
  Zr3      1.0000 0.38912  0.50015  0.12540  Biso   1.000  Zr
  Zr4      1.0000 0.37604  0.00271  0.37604  Biso   1.000  Zr
  Zr5      1.0000 0.00149  0.31206  0.00149  Biso   1.000  Zr
  Zr6      1.0000 0.99731  0.19221  0.25348  Biso   1.000  Zr
  Zr7      1.0000 0.00150  0.68820  0.24929  Biso   1.000  Zr
  Zr8      1.0000 0.99731  0.80805  0.99731  Biso   1.000  Zr
  Zr9      1.0000 0.24931  0.31207  0.24931  Biso   1.000  Zr
  Zr10     1.0000 0.25348  0.19221  0.99731  Biso   1.000  Zr
  Zr11     1.0000 0.24929  0.68819  0.00150  Biso   1.000  Zr
  Zr12     1.0000 0.25349  0.80804  0.25348  Biso   1.000  Zr
  Zr13     1.0000 0.12540  0.00015  0.62540  Biso   1.000  Zr
  Zr14     1.0000 0.12539  0.50015  0.86168  Biso   1.000  Zr
  Zr15     1.0000 0.37833  0.50016  0.62540  Biso   1.000  Zr
  Zr16     1.0000 0.37604  0.99760  0.87475  Biso   1.000  Zr
  Zr17     1.0000 0.99984  0.28891  0.50555  Biso   1.000  Zr
  Zr18     1.0000 0.00140  0.21008  0.75330  Biso   1.000  Zr
  Zr19     1.0000 0.99984  0.71140  0.74524  Biso   1.000  Zr
  Zr20     1.0000 0.00140  0.79023  0.49749  Biso   1.000  Zr
  Zr21     1.0000 0.25096  0.28891  0.74525  Biso   1.000  Zr
  Zr22     1.0000 0.24940  0.21009  0.49749  Biso   1.000  Zr
  Zr23     1.0000 0.25095  0.71140  0.50555  Biso   1.000  Zr
  Zr24     1.0000 0.24939  0.79023  0.75331  Biso   1.000  Zr
  Zr25     1.0000 0.62540  0.00015  0.12540  Biso   1.000  Zr
  Zr26     1.0000 0.62540  0.50016  0.37833  Biso   1.000  Zr
  Zr27     1.0000 0.86168  0.50015  0.12539  Biso   1.000  Zr
  Zr28     1.0000 0.87475  0.99760  0.37604  Biso   1.000  Zr
  Zr29     1.0000 0.50555  0.28891  0.99984  Biso   1.000  Zr
  Zr30     1.0000 0.49749  0.21008  0.24940  Biso   1.000  Zr
  Zr31     1.0000 0.50555  0.71140  0.25095  Biso   1.000  Zr
  Zr32     1.0000 0.49748  0.79023  0.00140  Biso   1.000  Zr
  Zr33     1.0000 0.74525  0.28891  0.25096  Biso   1.000  Zr
  Zr34     1.0000 0.75330  0.21008  0.00139  Biso   1.000  Zr
  Zr35     1.0000 0.74524  0.71141  0.99984  Biso   1.000  Zr
  Zr36     1.0000 0.75331  0.79023  0.24939  Biso   1.000  Zr
  Zr37     1.0000 0.62540  0.00016  0.62540  Biso   1.000  Zr
  Zr38     1.0000 0.62539  0.50016  0.87247  Biso   1.000  Zr
  Zr39     1.0000 0.87246  0.50016  0.62539  Biso   1.000  Zr
  Zr40     1.0000 0.87475  0.00271  0.87475  Biso   1.000  Zr
  Zr41     1.0000 0.50130  0.29348  0.50130  Biso   1.000  Zr
  Zr42     1.0000 0.49997  0.20667  0.75082  Biso   1.000  Zr
  Zr43     1.0000 0.50129  0.70684  0.74950  Biso   1.000  Zr
  Zr44     1.0000 0.49997  0.79365  0.49997  Biso   1.000  Zr
  Zr45     1.0000 0.74950  0.29348  0.74950  Biso   1.000  Zr
  Zr46     1.0000 0.75082  0.20666  0.49997  Biso   1.000  Zr
  Zr47     1.0000 0.74950  0.70684  0.50129  Biso   1.000  Zr
  Zr48     1.0000 0.75082  0.79365  0.75082  Biso   1.000  Zr
  Cu1      1.0000 0.12540  0.50010  0.12540  Biso   1.000  Cu
