data_image0
_cell_length_a       4.99963
_cell_length_b       10.4011
_cell_length_c       10.0611
_cell_angle_alpha    90.369
_cell_angle_beta     88.5421
_cell_angle_gamma    90.0992

_symmetry_space_group_name_H-M    "P 1"
_symmetry_int_tables_number       1

loop_
  _symmetry_equiv_pos_as_xyz
  'x, y, z'

loop_
  _atom_site_label
  _atom_site_occupancy
  _atom_site_fract_x
  _atom_site_fract_y
  _atom_site_fract_z
  _atom_site_thermal_displace_type
  _atom_site_B_iso_or_equiv
  _atom_site_type_symbol
  Cu1      1.0000 0.23559  0.02837  0.09849  Biso   1.000  Cu
  Zr1      1.0000 0.26320  0.01562  0.62812  Biso   1.000  Zr
  Zr2      1.0000 0.27248  0.51563  0.13008  Biso   1.000  Zr
  Zr3      1.0000 0.26838  0.51734  0.62500  Biso   1.000  Zr
  Zr4      1.0000 0.27989  0.22805  0.37370  Biso   1.000  Zr
  Zr5      1.0000 0.26053  0.23784  0.87565  Biso   1.000  Zr
  Zr6      1.0000 0.28231  0.73662  0.37707  Biso   1.000  Zr
  Zr7      1.0000 0.25650  0.73488  0.87994  Biso   1.000  Zr
  Zr8      1.0000 0.72829  0.26255  0.12591  Biso   1.000  Zr
  Zr9      1.0000 0.73105  0.26610  0.62454  Biso   1.000  Zr
  Zr10     1.0000 0.74407  0.76361  0.12485  Biso   1.000  Zr
  Zr11     1.0000 0.73407  0.76787  0.62665  Biso   1.000  Zr
  Zr12     1.0000 0.73947  0.48259  0.37665  Biso   1.000  Zr
  Zr13     1.0000 0.72690  0.48706  0.87455  Biso   1.000  Zr
  Zr14     1.0000 0.74175  0.98617  0.37290  Biso   1.000  Zr
  Zr15     1.0000 0.70656  0.98360  0.87882  Biso   1.000  Zr
  Zr16     1.0000 0.09112  0.17604  0.18202  Biso   1.000  Zr
  Zr17     1.0000 0.07136  0.18742  0.69338  Biso   1.000  Zr
  Zr18     1.0000 0.07756  0.68450  0.19859  Biso   1.000  Zr
  Zr19     1.0000 0.06623  0.68371  0.69888  Biso   1.000  Zr
  Zr20     1.0000 0.07808  0.06583  0.44636  Biso   1.000  Zr
  Zr21     1.0000 0.05416  0.06802  0.92632  Biso   1.000  Zr
  Zr22     1.0000 0.07810  0.56520  0.44448  Biso   1.000  Zr
  Zr23     1.0000 0.06029  0.56676  0.95111  Biso   1.000  Zr
  Zr24     1.0000 0.93680  0.42419  0.19571  Biso   1.000  Zr
  Zr25     1.0000 0.92478  0.43533  0.69332  Biso   1.000  Zr
  Zr26     1.0000 0.96786  0.93819  0.18492  Biso   1.000  Zr
  Zr27     1.0000 0.91774  0.93623  0.69454  Biso   1.000  Zr
  Zr28     1.0000 0.93439  0.31407  0.44231  Biso   1.000  Zr
  Zr29     1.0000 0.91217  0.31444  0.93963  Biso   1.000  Zr
  Zr30     1.0000 0.94423  0.81838  0.44911  Biso   1.000  Zr
  Zr31     1.0000 0.90195  0.81616  0.93811  Biso   1.000  Zr
  Zr32     1.0000 0.57121  0.12423  0.25452  Biso   1.000  Zr
  Zr33     1.0000 0.53583  0.11987  0.75207  Biso   1.000  Zr
  Zr34     1.0000 0.54868  0.61083  0.24839  Biso   1.000  Zr
  Zr35     1.0000 0.53211  0.61898  0.75109  Biso   1.000  Zr
  Zr36     1.0000 0.54200  0.13153  0.50178  Biso   1.000  Zr
  Zr37     1.0000 0.50795  0.12777  0.00599  Biso   1.000  Zr
  Zr38     1.0000 0.54510  0.63340  0.50008  Biso   1.000  Zr
  Zr39     1.0000 0.53078  0.63552  0.00042  Biso   1.000  Zr
  Zr40     1.0000 0.46399  0.38107  0.49915  Biso   1.000  Zr
  Zr41     1.0000 0.45564  0.38236  0.99997  Biso   1.000  Zr
  Zr42     1.0000 0.46781  0.88438  0.50356  Biso   1.000  Zr
  Zr43     1.0000 0.42687  0.88831  0.01188  Biso   1.000  Zr
  Zr44     1.0000 0.46035  0.36726  0.24915  Biso   1.000  Zr
  Zr45     1.0000 0.45439  0.36972  0.74898  Biso   1.000  Zr
  Zr46     1.0000 0.51769  0.85605  0.26007  Biso   1.000  Zr
  Zr47     1.0000 0.44924  0.86816  0.75402  Biso   1.000  Zr
