data_image0
_cell_length_a       10.1539
_cell_length_b       10.3275
_cell_length_c       10.4559
_cell_angle_alpha    89.8766
_cell_angle_beta     80.3398
_cell_angle_gamma    90.0171

_symmetry_space_group_name_H-M    "P 1"
_symmetry_int_tables_number       1

loop_
  _symmetry_equiv_pos_as_xyz
  'x, y, z'

loop_
  _atom_site_label
  _atom_site_occupancy
  _atom_site_fract_x
  _atom_site_fract_y
  _atom_site_fract_z
  _atom_site_thermal_displace_type
  _atom_site_B_iso_or_equiv
  _atom_site_type_symbol
  Fe1      1.0000 0.13869  0.02287  0.15166  Biso   1.000  Fe
  Zr1      1.0000 0.13888  0.02105  0.64516  Biso   1.000  Zr
  Zr2      1.0000 0.13973  0.52156  0.14593  Biso   1.000  Zr
  Zr3      1.0000 0.13910  0.52115  0.64562  Biso   1.000  Zr
  Zr4      1.0000 0.63879  0.02197  0.14504  Biso   1.000  Zr
  Zr5      1.0000 0.63770  0.02034  0.64540  Biso   1.000  Zr
  Zr6      1.0000 0.63963  0.52244  0.14503  Biso   1.000  Zr
  Zr7      1.0000 0.63894  0.52129  0.64612  Biso   1.000  Zr
  Zr8      1.0000 0.13951  0.22861  0.39234  Biso   1.000  Zr
  Zr9      1.0000 0.13737  0.22407  0.90047  Biso   1.000  Zr
  Zr10     1.0000 0.13847  0.73070  0.39414  Biso   1.000  Zr
  Zr11     1.0000 0.13917  0.73005  0.89594  Biso   1.000  Zr
  Zr12     1.0000 0.63841  0.22871  0.39516  Biso   1.000  Zr
  Zr13     1.0000 0.63818  0.22881  0.89583  Biso   1.000  Zr
  Zr14     1.0000 0.64048  0.73048  0.39493  Biso   1.000  Zr
  Zr15     1.0000 0.63772  0.72795  0.89752  Biso   1.000  Zr
  Zr16     1.0000 0.35944  0.26974  0.10622  Biso   1.000  Zr
  Zr17     1.0000 0.36045  0.27172  0.60598  Biso   1.000  Zr
  Zr18     1.0000 0.35681  0.77587  0.10497  Biso   1.000  Zr
  Zr19     1.0000 0.36182  0.77136  0.60405  Biso   1.000  Zr
  Zr20     1.0000 0.86568  0.26785  0.10627  Biso   1.000  Zr
  Zr21     1.0000 0.86068  0.27090  0.60381  Biso   1.000  Zr
  Zr22     1.0000 0.86711  0.77545  0.10417  Biso   1.000  Zr
  Zr23     1.0000 0.86032  0.77129  0.60480  Biso   1.000  Zr
  Zr24     1.0000 0.36246  0.47998  0.35506  Biso   1.000  Zr
  Zr25     1.0000 0.35951  0.47820  0.85530  Biso   1.000  Zr
  Zr26     1.0000 0.35877  0.97892  0.35215  Biso   1.000  Zr
  Zr27     1.0000 0.35824  0.97843  0.85773  Biso   1.000  Zr
  Zr28     1.0000 0.86079  0.47944  0.35412  Biso   1.000  Zr
  Zr29     1.0000 0.86143  0.47802  0.85635  Biso   1.000  Zr
  Zr30     1.0000 0.86593  0.98150  0.35059  Biso   1.000  Zr
  Zr31     1.0000 0.85980  0.97911  0.85413  Biso   1.000  Zr
  O1       1.0000 0.03716  0.15967  0.08332  Biso   1.000  O
  O2       1.0000 0.03279  0.16303  0.57234  Biso   1.000  O
  O3       1.0000 0.03649  0.66921  0.08090  Biso   1.000  O
  O4       1.0000 0.03531  0.66931  0.57973  Biso   1.000  O
  O5       1.0000 0.53567  0.17119  0.08250  Biso   1.000  O
  O6       1.0000 0.53662  0.17133  0.58240  Biso   1.000  O
  O7       1.0000 0.53474  0.67115  0.08214  Biso   1.000  O
  O8       1.0000 0.53731  0.67169  0.58162  Biso   1.000  O
  O9       1.0000 0.04251  0.08264  0.31169  Biso   1.000  O
  O10      1.0000 0.03316  0.08284  0.82617  Biso   1.000  O
  O11      1.0000 0.03623  0.58038  0.33108  Biso   1.000  O
  O12      1.0000 0.03611  0.58030  0.83151  Biso   1.000  O
  O13      1.0000 0.53417  0.08070  0.33078  Biso   1.000  O
  O14      1.0000 0.53499  0.07770  0.83408  Biso   1.000  O
  O15      1.0000 0.53811  0.57920  0.33242  Biso   1.000  O
  O16      1.0000 0.53625  0.57726  0.83310  Biso   1.000  O
  O17      1.0000 0.46370  0.42085  0.16829  Biso   1.000  O
  O18      1.0000 0.46318  0.42142  0.66858  Biso   1.000  O
  O19      1.0000 0.46559  0.91882  0.16944  Biso   1.000  O
  O20      1.0000 0.46261  0.92091  0.66909  Biso   1.000  O
  O21      1.0000 0.96554  0.41973  0.16935  Biso   1.000  O
  O22      1.0000 0.96528  0.41676  0.67071  Biso   1.000  O
  O23      1.0000 0.97960  0.92576  0.16357  Biso   1.000  O
  O24      1.0000 0.96457  0.91848  0.66912  Biso   1.000  O
  O25      1.0000 0.46356  0.32993  0.41939  Biso   1.000  O
  O26      1.0000 0.45915  0.32421  0.91781  Biso   1.000  O
  O27      1.0000 0.46423  0.82954  0.41700  Biso   1.000  O
  O28      1.0000 0.46004  0.82749  0.91805  Biso   1.000  O
  O29      1.0000 0.96421  0.32949  0.41772  Biso   1.000  O
  O30      1.0000 0.96592  0.32850  0.92244  Biso   1.000  O
  O31      1.0000 0.96471  0.83258  0.41831  Biso   1.000  O
  O32      1.0000 0.96431  0.83066  0.91835  Biso   1.000  O
  O33      1.0000 0.27156  0.12307  0.23688  Biso   1.000  O
  O34      1.0000 0.27642  0.12833  0.74458  Biso   1.000  O
  O35      1.0000 0.27616  0.63237  0.24167  Biso   1.000  O
  O36      1.0000 0.27653  0.62898  0.74097  Biso   1.000  O
  O37      1.0000 0.77504  0.12884  0.24096  Biso   1.000  O
  O38      1.0000 0.77473  0.12880  0.74027  Biso   1.000  O
  O39      1.0000 0.77747  0.63128  0.24051  Biso   1.000  O
  O40      1.0000 0.77631  0.62847  0.74200  Biso   1.000  O
  O41      1.0000 0.27657  0.12209  0.49008  Biso   1.000  O
  O42      1.0000 0.26637  0.11308  0.00435  Biso   1.000  O
  O43      1.0000 0.27632  0.62159  0.49077  Biso   1.000  O
  O44      1.0000 0.27588  0.62189  0.99119  Biso   1.000  O
  O45      1.0000 0.77748  0.12060  0.48873  Biso   1.000  O
  O46      1.0000 0.77546  0.12124  0.99050  Biso   1.000  O
  O47      1.0000 0.77659  0.62131  0.49099  Biso   1.000  O
  O48      1.0000 0.77774  0.62228  0.99176  Biso   1.000  O
  O49      1.0000 0.22327  0.37825  0.01088  Biso   1.000  O
  O50      1.0000 0.22332  0.37868  0.50935  Biso   1.000  O
  O51      1.0000 0.21859  0.88520  0.01294  Biso   1.000  O
  O52      1.0000 0.22382  0.87910  0.50763  Biso   1.000  O
  O53      1.0000 0.72477  0.37860  0.00972  Biso   1.000  O
  O54      1.0000 0.72409  0.37899  0.50966  Biso   1.000  O
  O55      1.0000 0.72400  0.87919  0.00968  Biso   1.000  O
  O56      1.0000 0.72411  0.87941  0.50871  Biso   1.000  O
  O57      1.0000 0.22545  0.37086  0.25983  Biso   1.000  O
  O58      1.0000 0.22311  0.36976  0.76047  Biso   1.000  O
  O59      1.0000 0.21770  0.87777  0.25446  Biso   1.000  O
  O60      1.0000 0.22325  0.87104  0.75905  Biso   1.000  O
  O61      1.0000 0.72501  0.37074  0.25921  Biso   1.000  O
  O62      1.0000 0.72368  0.37100  0.75986  Biso   1.000  O
  O63      1.0000 0.73251  0.87400  0.25772  Biso   1.000  O
  O64      1.0000 0.72285  0.87061  0.75965  Biso   1.000  O
