data_image0
_cell_length_a       10.1068
_cell_length_b       5.17816
_cell_length_c       10.1067
_cell_angle_alpha    90.1914
_cell_angle_beta     89.2759
_cell_angle_gamma    89.8064

_symmetry_space_group_name_H-M    "P 1"
_symmetry_int_tables_number       1

loop_
  _symmetry_equiv_pos_as_xyz
  'x, y, z'

loop_
  _atom_site_label
  _atom_site_occupancy
  _atom_site_fract_x
  _atom_site_fract_y
  _atom_site_fract_z
  _atom_site_thermal_displace_type
  _atom_site_B_iso_or_equiv
  _atom_site_type_symbol
  Zr1      1.0000 0.12846  0.89959  0.12242  Biso   1.000  Zr
  Zr2      1.0000 0.13514  0.50179  0.39161  Biso   1.000  Zr
  Zr3      1.0000 0.37377  0.50706  0.12805  Biso   1.000  Zr
  Zr4      1.0000 0.38031  0.01294  0.37939  Biso   1.000  Zr
  Zr5      1.0000 0.99156  0.30074  0.99578  Biso   1.000  Zr
  Zr6      1.0000 0.00560  0.11978  0.24523  Biso   1.000  Zr
  Zr7      1.0000 0.01358  0.61552  0.23731  Biso   1.000  Zr
  Zr8      1.0000 0.99158  0.79106  0.98910  Biso   1.000  Zr
  Zr9      1.0000 0.25508  0.30067  0.25930  Biso   1.000  Zr
  Zr10     1.0000 0.23713  0.20353  0.01373  Biso   1.000  Zr
  Zr11     1.0000 0.26998  0.71446  0.98092  Biso   1.000  Zr
  Zr12     1.0000 0.26177  0.79100  0.25933  Biso   1.000  Zr
  Zr13     1.0000 0.12333  0.00100  0.62628  Biso   1.000  Zr
  Zr14     1.0000 0.12284  0.50710  0.87711  Biso   1.000  Zr
  Zr15     1.0000 0.37490  0.51206  0.63353  Biso   1.000  Zr
  Zr16     1.0000 0.37140  0.01564  0.87948  Biso   1.000  Zr
  Zr17     1.0000 0.99585  0.29719  0.49782  Biso   1.000  Zr
  Zr18     1.0000 0.00045  0.21762  0.74836  Biso   1.000  Zr
  Zr19     1.0000 0.99891  0.71794  0.74431  Biso   1.000  Zr
  Zr20     1.0000 0.00668  0.79835  0.49251  Biso   1.000  Zr
  Zr21     1.0000 0.25498  0.29979  0.75751  Biso   1.000  Zr
  Zr22     1.0000 0.24991  0.21715  0.50659  Biso   1.000  Zr
  Zr23     1.0000 0.25712  0.71961  0.50473  Biso   1.000  Zr
  Zr24     1.0000 0.24831  0.80647  0.74721  Biso   1.000  Zr
  Zr25     1.0000 0.62459  0.00099  0.12754  Biso   1.000  Zr
  Zr26     1.0000 0.62568  0.51174  0.37662  Biso   1.000  Zr
  Zr27     1.0000 0.85928  0.50178  0.11576  Biso   1.000  Zr
  Zr28     1.0000 0.87098  0.01086  0.37989  Biso   1.000  Zr
  Zr29     1.0000 0.49336  0.29978  0.99591  Biso   1.000  Zr
  Zr30     1.0000 0.50251  0.21762  0.25044  Biso   1.000  Zr
  Zr31     1.0000 0.50656  0.71793  0.25196  Biso   1.000  Zr
  Zr32     1.0000 0.50369  0.80647  0.00256  Biso   1.000  Zr
  Zr33     1.0000 0.75305  0.29719  0.25504  Biso   1.000  Zr
  Zr34     1.0000 0.74428  0.21716  0.00097  Biso   1.000  Zr
  Zr35     1.0000 0.74617  0.71962  0.99376  Biso   1.000  Zr
  Zr36     1.0000 0.75836  0.79834  0.24421  Biso   1.000  Zr
  Zr37     1.0000 0.62384  0.01679  0.62704  Biso   1.000  Zr
  Zr38     1.0000 0.61736  0.51207  0.87600  Biso   1.000  Zr
  Zr39     1.0000 0.87427  0.51173  0.62520  Biso   1.000  Zr
  Zr40     1.0000 0.87149  0.01297  0.87057  Biso   1.000  Zr
  Zr41     1.0000 0.49764  0.31214  0.49937  Biso   1.000  Zr
  Zr42     1.0000 0.50192  0.22508  0.74898  Biso   1.000  Zr
  Zr43     1.0000 0.49663  0.72622  0.75424  Biso   1.000  Zr
  Zr44     1.0000 0.50546  0.81058  0.50206  Biso   1.000  Zr
  Zr45     1.0000 0.75152  0.31214  0.75324  Biso   1.000  Zr
  Zr46     1.0000 0.74749  0.22197  0.50339  Biso   1.000  Zr
  Zr47     1.0000 0.75523  0.71827  0.49566  Biso   1.000  Zr
  Zr48     1.0000 0.74881  0.81058  0.74544  Biso   1.000  Zr
  Fe1      1.0000 0.11700  0.36353  0.13386  Biso   1.000  Fe
