data_image0
_cell_length_a       10.0852
_cell_length_b       10.1356
_cell_length_c       5.03708
_cell_angle_alpha    90.0011
_cell_angle_beta     90.0017
_cell_angle_gamma    89.9967

_symmetry_space_group_name_H-M    "P 1"
_symmetry_int_tables_number       1

loop_
  _symmetry_equiv_pos_as_xyz
  'x, y, z'

loop_
  _atom_site_label
  _atom_site_occupancy
  _atom_site_fract_x
  _atom_site_fract_y
  _atom_site_fract_z
  _atom_site_thermal_displace_type
  _atom_site_B_iso_or_equiv
  _atom_site_type_symbol
  Ga1      1.0000 0.12504  0.99980  0.25207  Biso   1.000  Ga
  Zr1      1.0000 0.12504  0.49980  0.25206  Biso   1.000  Zr
  Zr2      1.0000 0.62503  0.99979  0.25207  Biso   1.000  Zr
  Zr3      1.0000 0.62504  0.49979  0.25205  Biso   1.000  Zr
  Zr4      1.0000 0.12503  0.24881  0.75210  Biso   1.000  Zr
  Zr5      1.0000 0.12503  0.75077  0.75209  Biso   1.000  Zr
  Zr6      1.0000 0.62503  0.24810  0.75209  Biso   1.000  Zr
  Zr7      1.0000 0.62503  0.75148  0.75208  Biso   1.000  Zr
  Zr8      1.0000 0.37516  0.24818  0.25635  Biso   1.000  Zr
  Zr9      1.0000 0.37516  0.75141  0.24781  Biso   1.000  Zr
  Zr10     1.0000 0.87491  0.24817  0.24783  Biso   1.000  Zr
  Zr11     1.0000 0.87490  0.75141  0.25635  Biso   1.000  Zr
  Zr12     1.0000 0.37228  0.99979  0.75207  Biso   1.000  Zr
  Zr13     1.0000 0.37797  0.49979  0.75206  Biso   1.000  Zr
  Zr14     1.0000 0.87780  0.99979  0.75208  Biso   1.000  Zr
  Zr15     1.0000 0.87212  0.49979  0.75207  Biso   1.000  Zr
  Zr16     1.0000 0.97947  0.15251  0.95540  Biso   1.000  Zr
  Zr17     1.0000 0.99518  0.64766  0.99724  Biso   1.000  Zr
  Zr18     1.0000 0.48648  0.14278  0.98528  Biso   1.000  Zr
  Zr19     1.0000 0.49543  0.64230  0.99368  Biso   1.000  Zr
  Zr20     1.0000 0.01430  0.09893  0.46897  Biso   1.000  Zr
  Zr21     1.0000 0.00361  0.60235  0.50032  Biso   1.000  Zr
  Zr22     1.0000 0.51036  0.10807  0.49478  Biso   1.000  Zr
  Zr23     1.0000 0.50401  0.60771  0.49743  Biso   1.000  Zr
  Zr24     1.0000 0.99517  0.35192  0.50693  Biso   1.000  Zr
  Zr25     1.0000 0.97947  0.84708  0.54876  Biso   1.000  Zr
  Zr26     1.0000 0.49543  0.35728  0.51046  Biso   1.000  Zr
  Zr27     1.0000 0.48648  0.85680  0.51888  Biso   1.000  Zr
  Zr28     1.0000 0.00360  0.39723  0.00386  Biso   1.000  Zr
  Zr29     1.0000 0.01431  0.90065  0.03519  Biso   1.000  Zr
  Zr30     1.0000 0.50401  0.39186  0.00672  Biso   1.000  Zr
  Zr31     1.0000 0.51036  0.89151  0.00939  Biso   1.000  Zr
  Zr32     1.0000 0.27060  0.15251  0.54876  Biso   1.000  Zr
  Zr33     1.0000 0.25489  0.64767  0.50692  Biso   1.000  Zr
  Zr34     1.0000 0.76359  0.14279  0.51890  Biso   1.000  Zr
  Zr35     1.0000 0.75464  0.64230  0.51044  Biso   1.000  Zr
  Zr36     1.0000 0.23576  0.09894  0.03519  Biso   1.000  Zr
  Zr37     1.0000 0.24647  0.60235  0.00385  Biso   1.000  Zr
  Zr38     1.0000 0.73971  0.10807  0.00939  Biso   1.000  Zr
  Zr39     1.0000 0.74606  0.60772  0.00670  Biso   1.000  Zr
  Zr40     1.0000 0.25490  0.35192  0.99723  Biso   1.000  Zr
  Zr41     1.0000 0.27061  0.84708  0.95539  Biso   1.000  Zr
  Zr42     1.0000 0.75464  0.35729  0.99371  Biso   1.000  Zr
  Zr43     1.0000 0.76359  0.85680  0.98526  Biso   1.000  Zr
  Zr44     1.0000 0.24647  0.39724  0.50031  Biso   1.000  Zr
  Zr45     1.0000 0.23576  0.90065  0.46896  Biso   1.000  Zr
  Zr46     1.0000 0.74606  0.39187  0.49746  Biso   1.000  Zr
  Zr47     1.0000 0.73971  0.89151  0.49477  Biso   1.000  Zr
