data_image0
_cell_length_a       10.1935
_cell_length_b       10.276
_cell_length_c       5.25466
_cell_angle_alpha    90.1883
_cell_angle_beta     80.6446
_cell_angle_gamma    89.5906

_symmetry_space_group_name_H-M    "P 1"
_symmetry_int_tables_number       1

loop_
  _symmetry_equiv_pos_as_xyz
  'x, y, z'

loop_
  _atom_site_label
  _atom_site_occupancy
  _atom_site_fract_x
  _atom_site_fract_y
  _atom_site_fract_z
  _atom_site_thermal_displace_type
  _atom_site_B_iso_or_equiv
  _atom_site_type_symbol
  Ga1      1.0000 0.12516  0.01057  0.31189  Biso   1.000  Ga
  Zr1      1.0000 0.14087  0.52236  0.29149  Biso   1.000  Zr
  Zr2      1.0000 0.63895  0.02231  0.29200  Biso   1.000  Zr
  Zr3      1.0000 0.63791  0.51943  0.29174  Biso   1.000  Zr
  Zr4      1.0000 0.14024  0.22363  0.77799  Biso   1.000  Zr
  Zr5      1.0000 0.13887  0.73239  0.79364  Biso   1.000  Zr
  Zr6      1.0000 0.64058  0.23016  0.79265  Biso   1.000  Zr
  Zr7      1.0000 0.63613  0.72908  0.79400  Biso   1.000  Zr
  Zr8      1.0000 0.35649  0.26746  0.20283  Biso   1.000  Zr
  Zr9      1.0000 0.35679  0.77686  0.21140  Biso   1.000  Zr
  Zr10     1.0000 0.86892  0.26649  0.21222  Biso   1.000  Zr
  Zr11     1.0000 0.85928  0.77033  0.21402  Biso   1.000  Zr
  Zr12     1.0000 0.35995  0.47950  0.70891  Biso   1.000  Zr
  Zr13     1.0000 0.35801  0.98298  0.70425  Biso   1.000  Zr
  Zr14     1.0000 0.86240  0.47814  0.71412  Biso   1.000  Zr
  Zr15     1.0000 0.85885  0.97770  0.71288  Biso   1.000  Zr
  O1       1.0000 0.04404  0.15499  0.14939  Biso   1.000  O
  O2       1.0000 0.03316  0.66581  0.16019  Biso   1.000  O
  O3       1.0000 0.53392  0.16613  0.15406  Biso   1.000  O
  O4       1.0000 0.53158  0.66612  0.15732  Biso   1.000  O
  O5       1.0000 0.03073  0.08101  0.65393  Biso   1.000  O
  O6       1.0000 0.03492  0.58465  0.66065  Biso   1.000  O
  O7       1.0000 0.53584  0.08558  0.65328  Biso   1.000  O
  O8       1.0000 0.53273  0.58471  0.65535  Biso   1.000  O
  O9       1.0000 0.46644  0.41339  0.34583  Biso   1.000  O
  O10      1.0000 0.46744  0.91593  0.34495  Biso   1.000  O
  O11      1.0000 0.97057  0.41241  0.35101  Biso   1.000  O
  O12      1.0000 0.96456  0.91355  0.34765  Biso   1.000  O
  O13      1.0000 0.47146  0.34086  0.84821  Biso   1.000  O
  O14      1.0000 0.46183  0.83507  0.84457  Biso   1.000  O
  O15      1.0000 0.96858  0.33310  0.85190  Biso   1.000  O
  O16      1.0000 0.96322  0.83215  0.84842  Biso   1.000  O
  O17      1.0000 0.26591  0.11856  0.44532  Biso   1.000  O
  O18      1.0000 0.27569  0.62883  0.48079  Biso   1.000  O
  O19      1.0000 0.77715  0.12778  0.48202  Biso   1.000  O
  O20      1.0000 0.77485  0.62713  0.48393  Biso   1.000  O
  O21      1.0000 0.29443  0.14079  0.92767  Biso   1.000  O
  O22      1.0000 0.27535  0.62687  0.98137  Biso   1.000  O
  O23      1.0000 0.77676  0.12115  0.98392  Biso   1.000  O
  O24      1.0000 0.77380  0.62053  0.98323  Biso   1.000  O
  O25      1.0000 0.22438  0.38328  0.01591  Biso   1.000  O
  O26      1.0000 0.22113  0.89507  0.03129  Biso   1.000  O
  O27      1.0000 0.72868  0.37666  0.02452  Biso   1.000  O
  O28      1.0000 0.72206  0.87788  0.02227  Biso   1.000  O
  O29      1.0000 0.22659  0.36898  0.51681  Biso   1.000  O
  O30      1.0000 0.22150  0.86998  0.52391  Biso   1.000  O
  O31      1.0000 0.72817  0.37087  0.52178  Biso   1.000  O
  O32      1.0000 0.72317  0.87080  0.52252  Biso   1.000  O
