data_image0
_cell_length_a       10.1647
_cell_length_b       5.12587
_cell_length_c       10.5637
_cell_angle_alpha    90.3007
_cell_angle_beta     80.7335
_cell_angle_gamma    89.2689

_symmetry_space_group_name_H-M    "P 1"
_symmetry_int_tables_number       1

loop_
  _symmetry_equiv_pos_as_xyz
  'x, y, z'

loop_
  _atom_site_label
  _atom_site_occupancy
  _atom_site_fract_x
  _atom_site_fract_y
  _atom_site_fract_z
  _atom_site_thermal_displace_type
  _atom_site_B_iso_or_equiv
  _atom_site_type_symbol
  Ge1      1.0000 0.12193  0.03308  0.15863  Biso   1.000  Ge
  Zr1      1.0000 0.13780  0.03790  0.64215  Biso   1.000  Zr
  Zr2      1.0000 0.63640  0.04242  0.14437  Biso   1.000  Zr
  Zr3      1.0000 0.63771  0.04301  0.64690  Biso   1.000  Zr
  Zr4      1.0000 0.13673  0.44967  0.39111  Biso   1.000  Zr
  Zr5      1.0000 0.13864  0.45513  0.89030  Biso   1.000  Zr
  Zr6      1.0000 0.63757  0.45402  0.39477  Biso   1.000  Zr
  Zr7      1.0000 0.63718  0.46444  0.89833  Biso   1.000  Zr
  Zr8      1.0000 0.35490  0.54885  0.10309  Biso   1.000  Zr
  Zr9      1.0000 0.36181  0.54637  0.60561  Biso   1.000  Zr
  Zr10     1.0000 0.86798  0.53186  0.10732  Biso   1.000  Zr
  Zr11     1.0000 0.86025  0.53812  0.60730  Biso   1.000  Zr
  Zr12     1.0000 0.36012  0.95143  0.35129  Biso   1.000  Zr
  Zr13     1.0000 0.36149  0.97738  0.85801  Biso   1.000  Zr
  Zr14     1.0000 0.85789  0.95037  0.35781  Biso   1.000  Zr
  Zr15     1.0000 0.86260  0.95518  0.85755  Biso   1.000  Zr
  O1       1.0000 0.04613  0.30083  0.07636  Biso   1.000  O
  O2       1.0000 0.03000  0.31332  0.57043  Biso   1.000  O
  O3       1.0000 0.53013  0.32508  0.07352  Biso   1.000  O
  O4       1.0000 0.53179  0.32318  0.57232  Biso   1.000  O
  O5       1.0000 0.03283  0.15679  0.32118  Biso   1.000  O
  O6       1.0000 0.03215  0.17457  0.82294  Biso   1.000  O
  O7       1.0000 0.52916  0.17861  0.32213  Biso   1.000  O
  O8       1.0000 0.53331  0.18776  0.82188  Biso   1.000  O
  O9       1.0000 0.47045  0.81569  0.17820  Biso   1.000  O
  O10      1.0000 0.46771  0.82687  0.67805  Biso   1.000  O
  O11      1.0000 0.97487  0.81898  0.17729  Biso   1.000  O
  O12      1.0000 0.96945  0.81279  0.67957  Biso   1.000  O
  O13      1.0000 0.46861  0.67986  0.42744  Biso   1.000  O
  O14      1.0000 0.46932  0.69919  0.93096  Biso   1.000  O
  O15      1.0000 0.96526  0.66601  0.42694  Biso   1.000  O
  O16      1.0000 0.96902  0.67207  0.93267  Biso   1.000  O
  O17      1.0000 0.26147  0.23009  0.22140  Biso   1.000  O
  O18      1.0000 0.27230  0.25423  0.72981  Biso   1.000  O
  O19      1.0000 0.77557  0.24831  0.24005  Biso   1.000  O
  O20      1.0000 0.77630  0.25569  0.74119  Biso   1.000  O
  O21      1.0000 0.27564  0.24398  0.48094  Biso   1.000  O
  O22      1.0000 0.29379  0.30858  0.96497  Biso   1.000  O
  O23      1.0000 0.77489  0.23924  0.49041  Biso   1.000  O
  O24      1.0000 0.77658  0.24445  0.99132  Biso   1.000  O
  O25      1.0000 0.22152  0.82853  0.02600  Biso   1.000  O
  O26      1.0000 0.22345  0.75193  0.51024  Biso   1.000  O
  O27      1.0000 0.72862  0.75411  0.01352  Biso   1.000  O
  O28      1.0000 0.72302  0.75194  0.51250  Biso   1.000  O
  O29      1.0000 0.22345  0.72973  0.26266  Biso   1.000  O
  O30      1.0000 0.22677  0.74624  0.76494  Biso   1.000  O
  O31      1.0000 0.73041  0.73586  0.26024  Biso   1.000  O
  O32      1.0000 0.72504  0.74624  0.76339  Biso   1.000  O
