data_image0
_cell_length_a       10.0634
_cell_length_b       10.1779
_cell_length_c       10.0634
_cell_angle_alpha    89.9969
_cell_angle_beta     90.0026
_cell_angle_gamma    89.9956

_symmetry_space_group_name_H-M    "P 1"
_symmetry_int_tables_number       1

loop_
  _symmetry_equiv_pos_as_xyz
  'x, y, z'

loop_
  _atom_site_label
  _atom_site_occupancy
  _atom_site_fract_x
  _atom_site_fract_y
  _atom_site_fract_z
  _atom_site_thermal_displace_type
  _atom_site_B_iso_or_equiv
  _atom_site_type_symbol
  Ge1      1.0000 0.12523  0.99987  0.12524  Biso   1.000  Ge
  Zr1      1.0000 0.12524  0.99987  0.62523  Biso   1.000  Zr
  Zr2      1.0000 0.12523  0.49987  0.12524  Biso   1.000  Zr
  Zr3      1.0000 0.12524  0.49987  0.62525  Biso   1.000  Zr
  Zr4      1.0000 0.62523  0.99987  0.12525  Biso   1.000  Zr
  Zr5      1.0000 0.62524  0.99986  0.62525  Biso   1.000  Zr
  Zr6      1.0000 0.62524  0.49987  0.12524  Biso   1.000  Zr
  Zr7      1.0000 0.62524  0.49986  0.62525  Biso   1.000  Zr
  Zr8      1.0000 0.12836  0.25110  0.37532  Biso   1.000  Zr
  Zr9      1.0000 0.12213  0.25109  0.87520  Biso   1.000  Zr
  Zr10     1.0000 0.12213  0.74863  0.37532  Biso   1.000  Zr
  Zr11     1.0000 0.12836  0.74863  0.87520  Biso   1.000  Zr
  Zr12     1.0000 0.62724  0.24881  0.37471  Biso   1.000  Zr
  Zr13     1.0000 0.62325  0.24880  0.87581  Biso   1.000  Zr
  Zr14     1.0000 0.62325  0.75092  0.37471  Biso   1.000  Zr
  Zr15     1.0000 0.62725  0.75092  0.87581  Biso   1.000  Zr
  Zr16     1.0000 0.37530  0.25110  0.12837  Biso   1.000  Zr
  Zr17     1.0000 0.37470  0.24881  0.62726  Biso   1.000  Zr
  Zr18     1.0000 0.37530  0.74863  0.12214  Biso   1.000  Zr
  Zr19     1.0000 0.37470  0.75092  0.62326  Biso   1.000  Zr
  Zr20     1.0000 0.87519  0.25109  0.12215  Biso   1.000  Zr
  Zr21     1.0000 0.87579  0.24880  0.62326  Biso   1.000  Zr
  Zr22     1.0000 0.87519  0.74863  0.12837  Biso   1.000  Zr
  Zr23     1.0000 0.87579  0.75092  0.62726  Biso   1.000  Zr
  Zr24     1.0000 0.37462  0.00337  0.37463  Biso   1.000  Zr
  Zr25     1.0000 0.37462  0.99636  0.87587  Biso   1.000  Zr
  Zr26     1.0000 0.37645  0.50104  0.37646  Biso   1.000  Zr
  Zr27     1.0000 0.37646  0.49870  0.87402  Biso   1.000  Zr
  Zr28     1.0000 0.87585  0.99636  0.37463  Biso   1.000  Zr
  Zr29     1.0000 0.87586  0.00337  0.87587  Biso   1.000  Zr
  Zr30     1.0000 0.87402  0.49869  0.37647  Biso   1.000  Zr
  Zr31     1.0000 0.87401  0.50102  0.87402  Biso   1.000  Zr
  Zr32     1.0000 0.97839  0.15387  0.97840  Biso   1.000  Zr
  Zr33     1.0000 0.99135  0.14278  0.48313  Biso   1.000  Zr
  Zr34     1.0000 0.99624  0.64936  0.99625  Biso   1.000  Zr
  Zr35     1.0000 0.99519  0.64241  0.49687  Biso   1.000  Zr
  Zr36     1.0000 0.48312  0.14278  0.99136  Biso   1.000  Zr
  Zr37     1.0000 0.49268  0.14367  0.49269  Biso   1.000  Zr
  Zr38     1.0000 0.49686  0.64241  0.99520  Biso   1.000  Zr
  Zr39     1.0000 0.49543  0.64326  0.49544  Biso   1.000  Zr
  Zr40     1.0000 0.01969  0.09588  0.23078  Biso   1.000  Zr
  Zr41     1.0000 0.00366  0.10838  0.73831  Biso   1.000  Zr
  Zr42     1.0000 0.00259  0.60166  0.24791  Biso   1.000  Zr
  Zr43     1.0000 0.00341  0.60730  0.74747  Biso   1.000  Zr
  Zr44     1.0000 0.51218  0.10839  0.24685  Biso   1.000  Zr
  Zr45     1.0000 0.50497  0.10690  0.74553  Biso   1.000  Zr
  Zr46     1.0000 0.50303  0.60731  0.24707  Biso   1.000  Zr
  Zr47     1.0000 0.50343  0.60713  0.74705  Biso   1.000  Zr
  Zr48     1.0000 0.99623  0.35036  0.25427  Biso   1.000  Zr
  Zr49     1.0000 0.99520  0.35731  0.75364  Biso   1.000  Zr
  Zr50     1.0000 0.97840  0.84587  0.27209  Biso   1.000  Zr
  Zr51     1.0000 0.99134  0.85694  0.76737  Biso   1.000  Zr
  Zr52     1.0000 0.49684  0.35732  0.25530  Biso   1.000  Zr
  Zr53     1.0000 0.49544  0.35646  0.75506  Biso   1.000  Zr
  Zr54     1.0000 0.48312  0.85695  0.25915  Biso   1.000  Zr
  Zr55     1.0000 0.49267  0.85605  0.75782  Biso   1.000  Zr
  Zr56     1.0000 0.00259  0.39806  0.00261  Biso   1.000  Zr
  Zr57     1.0000 0.00342  0.39241  0.50305  Biso   1.000  Zr
  Zr58     1.0000 0.01970  0.90385  0.01971  Biso   1.000  Zr
  Zr59     1.0000 0.00365  0.89133  0.51220  Biso   1.000  Zr
  Zr60     1.0000 0.50303  0.39241  0.00343  Biso   1.000  Zr
  Zr61     1.0000 0.50344  0.39259  0.50346  Biso   1.000  Zr
  Zr62     1.0000 0.51219  0.89133  0.00367  Biso   1.000  Zr
  Zr63     1.0000 0.50496  0.89282  0.50498  Biso   1.000  Zr
  Zr64     1.0000 0.27207  0.15386  0.27208  Biso   1.000  Zr
  Zr65     1.0000 0.25914  0.14279  0.76736  Biso   1.000  Zr
  Zr66     1.0000 0.25425  0.64937  0.25426  Biso   1.000  Zr
  Zr67     1.0000 0.25527  0.64242  0.75364  Biso   1.000  Zr
  Zr68     1.0000 0.76735  0.14278  0.25915  Biso   1.000  Zr
  Zr69     1.0000 0.75781  0.14367  0.75782  Biso   1.000  Zr
  Zr70     1.0000 0.75362  0.64241  0.25529  Biso   1.000  Zr
  Zr71     1.0000 0.75504  0.64326  0.75505  Biso   1.000  Zr
  Zr72     1.0000 0.23077  0.09589  0.01970  Biso   1.000  Zr
  Zr73     1.0000 0.24684  0.10839  0.51219  Biso   1.000  Zr
  Zr74     1.0000 0.24790  0.60166  0.00260  Biso   1.000  Zr
  Zr75     1.0000 0.24706  0.60731  0.50304  Biso   1.000  Zr
  Zr76     1.0000 0.73830  0.10838  0.00367  Biso   1.000  Zr
  Zr77     1.0000 0.74552  0.10690  0.50498  Biso   1.000  Zr
  Zr78     1.0000 0.74746  0.60730  0.00343  Biso   1.000  Zr
  Zr79     1.0000 0.74704  0.60713  0.50345  Biso   1.000  Zr
  Zr80     1.0000 0.25425  0.35037  0.99624  Biso   1.000  Zr
  Zr81     1.0000 0.25529  0.35732  0.49686  Biso   1.000  Zr
  Zr82     1.0000 0.27208  0.84587  0.97841  Biso   1.000  Zr
  Zr83     1.0000 0.25913  0.85695  0.48313  Biso   1.000  Zr
  Zr84     1.0000 0.75363  0.35731  0.99521  Biso   1.000  Zr
  Zr85     1.0000 0.75505  0.35646  0.49544  Biso   1.000  Zr
  Zr86     1.0000 0.76736  0.85694  0.99135  Biso   1.000  Zr
  Zr87     1.0000 0.75781  0.85605  0.49268  Biso   1.000  Zr
  Zr88     1.0000 0.24789  0.39807  0.24790  Biso   1.000  Zr
  Zr89     1.0000 0.24707  0.39242  0.74746  Biso   1.000  Zr
  Zr90     1.0000 0.23078  0.90385  0.23079  Biso   1.000  Zr
  Zr91     1.0000 0.24683  0.89134  0.73831  Biso   1.000  Zr
  Zr92     1.0000 0.74745  0.39242  0.24708  Biso   1.000  Zr
  Zr93     1.0000 0.74704  0.39259  0.74705  Biso   1.000  Zr
  Zr94     1.0000 0.73830  0.89134  0.24683  Biso   1.000  Zr
  Zr95     1.0000 0.74552  0.89282  0.74553  Biso   1.000  Zr
