data_image0
_cell_length_a       10.1164
_cell_length_b       5.15965
_cell_length_c       10.1461
_cell_angle_alpha    89.0979
_cell_angle_beta     88.2962
_cell_angle_gamma    88.9098

_symmetry_space_group_name_H-M    "P 1"
_symmetry_int_tables_number       1

loop_
  _symmetry_equiv_pos_as_xyz
  'x, y, z'

loop_
  _atom_site_label
  _atom_site_occupancy
  _atom_site_fract_x
  _atom_site_fract_y
  _atom_site_fract_z
  _atom_site_thermal_displace_type
  _atom_site_B_iso_or_equiv
  _atom_site_type_symbol
  H1       1.0000 0.06146  0.89127  0.15429  Biso   1.000  H 
  Zr1      1.0000 0.13533  0.47527  0.37620  Biso   1.000  Zr
  Zr2      1.0000 0.36027  0.53691  0.12960  Biso   1.000  Zr
  Zr3      1.0000 0.35797  0.97919  0.37508  Biso   1.000  Zr
  Zr4      1.0000 0.99874  0.32910  0.24947  Biso   1.000  Zr
  Zr5      1.0000 0.00479  0.21086  0.50067  Biso   1.000  Zr
  Zr6      1.0000 0.47835  0.84747  0.20774  Biso   1.000  Zr
  Zr7      1.0000 0.46758  0.64927  0.45336  Biso   1.000  Zr
  Zr8      1.0000 0.27514  0.25817  0.25737  Biso   1.000  Zr
  Zr9      1.0000 0.25872  0.27384  0.50628  Biso   1.000  Zr
  Zr10     1.0000 0.22853  0.78188  0.50994  Biso   1.000  Zr
  Zr11     1.0000 0.23852  0.73450  0.26305  Biso   1.000  Zr
  Zr12     1.0000 0.13563  0.03709  0.64091  Biso   1.000  Zr
  Zr13     1.0000 0.15613  0.49857  0.89095  Biso   1.000  Zr
  Zr14     1.0000 0.36998  0.53575  0.62658  Biso   1.000  Zr
  Zr15     1.0000 0.36991  0.97580  0.88179  Biso   1.000  Zr
  Zr16     1.0000 0.02586  0.35745  0.74101  Biso   1.000  Zr
  Zr17     1.0000 0.03788  0.16094  0.84447  Biso   1.000  Zr
  Zr18     1.0000 0.46847  0.86792  0.69696  Biso   1.000  Zr
  Zr19     1.0000 0.47416  0.63202  0.94615  Biso   1.000  Zr
  Zr20     1.0000 0.27405  0.24741  0.75170  Biso   1.000  Zr
  Zr21     1.0000 0.28016  0.27587  0.99933  Biso   1.000  Zr
  Zr22     1.0000 0.24097  0.77430  0.00528  Biso   1.000  Zr
  Zr23     1.0000 0.23880  0.74450  0.75647  Biso   1.000  Zr
  Zr24     1.0000 0.63751  0.01453  0.11993  Biso   1.000  Zr
  Zr25     1.0000 0.62414  0.48562  0.35801  Biso   1.000  Zr
  Zr26     1.0000 0.87014  0.51242  0.12425  Biso   1.000  Zr
  Zr27     1.0000 0.88620  0.02299  0.36257  Biso   1.000  Zr
  Zr28     1.0000 0.53274  0.35518  0.18807  Biso   1.000  Zr
  Zr29     1.0000 0.52378  0.15170  0.44562  Biso   1.000  Zr
  Zr30     1.0000 0.97195  0.84902  0.18744  Biso   1.000  Zr
  Zr31     1.0000 0.97700  0.69788  0.44108  Biso   1.000  Zr
  Zr32     1.0000 0.75712  0.22435  0.23631  Biso   1.000  Zr
  Zr33     1.0000 0.75571  0.29365  0.47831  Biso   1.000  Zr
  Zr34     1.0000 0.73955  0.78926  0.48852  Biso   1.000  Zr
  Zr35     1.0000 0.74330  0.73078  0.24075  Biso   1.000  Zr
  Zr36     1.0000 0.63054  0.03253  0.61206  Biso   1.000  Zr
  Zr37     1.0000 0.63924  0.45110  0.87040  Biso   1.000  Zr
  Zr38     1.0000 0.86632  0.52894  0.59569  Biso   1.000  Zr
  Zr39     1.0000 0.85652  0.92906  0.85653  Biso   1.000  Zr
  Zr40     1.0000 0.53551  0.36671  0.69772  Biso   1.000  Zr
  Zr41     1.0000 0.54398  0.12168  0.94330  Biso   1.000  Zr
  Zr42     1.0000 0.97238  0.81679  0.68953  Biso   1.000  Zr
  Zr43     1.0000 0.97771  0.64261  0.95531  Biso   1.000  Zr
  Zr44     1.0000 0.77176  0.21357  0.73002  Biso   1.000  Zr
  Zr45     1.0000 0.78612  0.23831  0.98632  Biso   1.000  Zr
  Zr46     1.0000 0.73112  0.73490  0.99167  Biso   1.000  Zr
  Zr47     1.0000 0.73279  0.71776  0.73868  Biso   1.000  Zr
