data_image0
_cell_length_a       5.03026
_cell_length_b       10.4314
_cell_length_c       10.0949
_cell_angle_alpha    89.731
_cell_angle_beta     90.0873
_cell_angle_gamma    90.356

_symmetry_space_group_name_H-M    "P 1"
_symmetry_int_tables_number       1

loop_
  _symmetry_equiv_pos_as_xyz
  'x, y, z'

loop_
  _atom_site_label
  _atom_site_occupancy
  _atom_site_fract_x
  _atom_site_fract_y
  _atom_site_fract_z
  _atom_site_thermal_displace_type
  _atom_site_B_iso_or_equiv
  _atom_site_type_symbol
  Zr1      1.0000 0.27560  0.01188  0.11780  Biso   1.000  Zr
  Zr2      1.0000 0.27115  0.23500  0.38564  Biso   1.000  Zr
  Zr3      1.0000 0.69559  0.26962  0.12118  Biso   1.000  Zr
  Zr4      1.0000 0.73478  0.48506  0.37463  Biso   1.000  Zr
  Zr5      1.0000 0.05578  0.18845  0.19683  Biso   1.000  Zr
  Zr6      1.0000 0.07303  0.06749  0.44362  Biso   1.000  Zr
  Zr7      1.0000 0.91724  0.43394  0.19312  Biso   1.000  Zr
  Zr8      1.0000 0.93092  0.31838  0.44661  Biso   1.000  Zr
  Zr9      1.0000 0.52620  0.11858  0.24883  Biso   1.000  Zr
  Zr10     1.0000 0.54697  0.13245  0.49896  Biso   1.000  Zr
  Zr11     1.0000 0.46494  0.38312  0.50025  Biso   1.000  Zr
  Zr12     1.0000 0.43944  0.36880  0.25061  Biso   1.000  Zr
  Zr13     1.0000 0.27322  0.01485  0.62489  Biso   1.000  Zr
  Zr14     1.0000 0.26915  0.23246  0.87482  Biso   1.000  Zr
  Zr15     1.0000 0.73701  0.26604  0.62763  Biso   1.000  Zr
  Zr16     1.0000 0.73729  0.48383  0.87592  Biso   1.000  Zr
  Zr17     1.0000 0.07399  0.18195  0.69299  Biso   1.000  Zr
  Zr18     1.0000 0.08408  0.06352  0.94178  Biso   1.000  Zr
  Zr19     1.0000 0.93735  0.43223  0.69844  Biso   1.000  Zr
  Zr20     1.0000 0.93330  0.31690  0.94960  Biso   1.000  Zr
  Zr21     1.0000 0.54282  0.11643  0.74607  Biso   1.000  Zr
  Zr22     1.0000 0.56492  0.12779  0.99153  Biso   1.000  Zr
  Zr23     1.0000 0.45750  0.38609  0.99718  Biso   1.000  Zr
  Zr24     1.0000 0.46721  0.36736  0.74901  Biso   1.000  Zr
  Zr25     1.0000 0.25992  0.51892  0.12620  Biso   1.000  Zr
  Zr26     1.0000 0.27075  0.73507  0.37591  Biso   1.000  Zr
  Zr27     1.0000 0.73519  0.76582  0.12484  Biso   1.000  Zr
  Zr28     1.0000 0.73409  0.98513  0.37319  Biso   1.000  Zr
  Zr29     1.0000 0.07063  0.68431  0.19653  Biso   1.000  Zr
  Zr30     1.0000 0.07091  0.56701  0.44565  Biso   1.000  Zr
  Zr31     1.0000 0.93382  0.93788  0.19377  Biso   1.000  Zr
  Zr32     1.0000 0.93159  0.81731  0.44314  Biso   1.000  Zr
  Zr33     1.0000 0.53739  0.61744  0.24902  Biso   1.000  Zr
  Zr34     1.0000 0.54090  0.63309  0.49852  Biso   1.000  Zr
  Zr35     1.0000 0.46399  0.88333  0.49730  Biso   1.000  Zr
  Zr36     1.0000 0.46747  0.86631  0.24742  Biso   1.000  Zr
  Zr37     1.0000 0.27218  0.51568  0.62651  Biso   1.000  Zr
  Zr38     1.0000 0.27231  0.73412  0.87443  Biso   1.000  Zr
  Zr39     1.0000 0.73770  0.76531  0.62400  Biso   1.000  Zr
  Zr40     1.0000 0.74016  0.98333  0.87262  Biso   1.000  Zr
  Zr41     1.0000 0.07434  0.68273  0.69425  Biso   1.000  Zr
  Zr42     1.0000 0.07147  0.56865  0.94603  Biso   1.000  Zr
  Zr43     1.0000 0.93606  0.93170  0.69302  Biso   1.000  Zr
  Zr44     1.0000 0.93869  0.81672  0.94670  Biso   1.000  Zr
  Zr45     1.0000 0.54343  0.61675  0.74894  Biso   1.000  Zr
  Zr46     1.0000 0.54056  0.63312  0.99940  Biso   1.000  Zr
  Zr47     1.0000 0.46911  0.87993  0.99733  Biso   1.000  Zr
  Zr48     1.0000 0.46733  0.86626  0.74721  Biso   1.000  Zr
  H1       1.0000 0.17844  0.24096  0.13784  Biso   1.000  H 
