data_image0
_cell_length_a       10.1058
_cell_length_b       5.15843
_cell_length_c       10.5327
_cell_angle_alpha    89.8456
_cell_angle_beta     90.2673
_cell_angle_gamma    90.1983

_symmetry_space_group_name_H-M    "P 1"
_symmetry_int_tables_number       1

loop_
  _symmetry_equiv_pos_as_xyz
  'x, y, z'

loop_
  _atom_site_label
  _atom_site_occupancy
  _atom_site_fract_x
  _atom_site_fract_y
  _atom_site_fract_z
  _atom_site_thermal_displace_type
  _atom_site_B_iso_or_equiv
  _atom_site_type_symbol
  Zr1      1.0000 0.13880  0.04529  0.17308  Biso   1.000  Zr
  Zr2      1.0000 0.13900  0.45513  0.42502  Biso   1.000  Zr
  Zr3      1.0000 0.34719  0.55248  0.17687  Biso   1.000  Zr
  Zr4      1.0000 0.36228  0.95595  0.42316  Biso   1.000  Zr
  Zr5      1.0000 0.64703  0.03061  0.07395  Biso   1.000  Zr
  Zr6      1.0000 0.64242  0.46278  0.33404  Biso   1.000  Zr
  Zr7      1.0000 0.86458  0.53910  0.07900  Biso   1.000  Zr
  Zr8      1.0000 0.86225  0.95670  0.32859  Biso   1.000  Zr
  O1       1.0000 0.03596  0.33571  0.08624  Biso   1.000  O
  O2       1.0000 0.03214  0.17034  0.33477  Biso   1.000  O
  O3       1.0000 0.47194  0.82575  0.08589  Biso   1.000  O
  O4       1.0000 0.46543  0.66213  0.33423  Biso   1.000  O
  O5       1.0000 0.27731  0.24929  0.29730  Biso   1.000  O
  O6       1.0000 0.27881  0.25406  0.04762  Biso   1.000  O
  O7       1.0000 0.21878  0.75096  0.30126  Biso   1.000  O
  O8       1.0000 0.22198  0.75694  0.04775  Biso   1.000  O
  O9       1.0000 0.53768  0.36372  0.15069  Biso   1.000  O
  O10      1.0000 0.53589  0.16260  0.40881  Biso   1.000  O
  O11      1.0000 0.96663  0.83385  0.16689  Biso   1.000  O
  O12      1.0000 0.96763  0.66829  0.41794  Biso   1.000  O
  O13      1.0000 0.77800  0.24825  0.45558  Biso   1.000  O
  O14      1.0000 0.77159  0.24694  0.20480  Biso   1.000  O
  O15      1.0000 0.72451  0.74762  0.45516  Biso   1.000  O
  O16      1.0000 0.72316  0.74373  0.20368  Biso   1.000  O
  Zr9      1.0000 0.14241  0.04059  0.67318  Biso   1.000  Zr
  Zr10     1.0000 0.14172  0.45621  0.92196  Biso   1.000  Zr
  Zr11     1.0000 0.36333  0.54225  0.67305  Biso   1.000  Zr
  Zr12     1.0000 0.36361  0.95749  0.92309  Biso   1.000  Zr
  Zr13     1.0000 0.64130  0.04121  0.57821  Biso   1.000  Zr
  Zr14     1.0000 0.64176  0.45339  0.82545  Biso   1.000  Zr
  Zr15     1.0000 0.86419  0.54149  0.58005  Biso   1.000  Zr
  Zr16     1.0000 0.86485  0.95517  0.82836  Biso   1.000  Zr
  O17      1.0000 0.03510  0.33070  0.58661  Biso   1.000  O
  O18      1.0000 0.03601  0.16691  0.83518  Biso   1.000  O
  O19      1.0000 0.46959  0.83278  0.58391  Biso   1.000  O
  O20      1.0000 0.47028  0.66691  0.83506  Biso   1.000  O
  O21      1.0000 0.27951  0.24781  0.79691  Biso   1.000  O
  O22      1.0000 0.27856  0.24987  0.54721  Biso   1.000  O
  O23      1.0000 0.22706  0.74814  0.79800  Biso   1.000  O
  O24      1.0000 0.22610  0.74963  0.54885  Biso   1.000  O
  O25      1.0000 0.53547  0.33293  0.66302  Biso   1.000  O
  O26      1.0000 0.53656  0.16434  0.91536  Biso   1.000  O
  O27      1.0000 0.97032  0.83031  0.66749  Biso   1.000  O
  O28      1.0000 0.96869  0.66546  0.91717  Biso   1.000  O
  O29      1.0000 0.78031  0.24421  0.95304  Biso   1.000  O
  O30      1.0000 0.77862  0.24920  0.70374  Biso   1.000  O
  O31      1.0000 0.72429  0.74178  0.95384  Biso   1.000  O
  O32      1.0000 0.72665  0.75111  0.70362  Biso   1.000  O
  H1       1.0000 0.56145  0.52228  0.10056  Biso   1.000  H
