data_image0
_cell_length_a       5.04681
_cell_length_b       10.4088
_cell_length_c       10.1056
_cell_angle_alpha    89.5273
_cell_angle_beta     89.066
_cell_angle_gamma    89.1808

_symmetry_space_group_name_H-M    "P 1"
_symmetry_int_tables_number       1

loop_
  _symmetry_equiv_pos_as_xyz
  'x, y, z'

loop_
  _atom_site_label
  _atom_site_occupancy
  _atom_site_fract_x
  _atom_site_fract_y
  _atom_site_fract_z
  _atom_site_thermal_displace_type
  _atom_site_B_iso_or_equiv
  _atom_site_type_symbol
  H1       1.0000 0.12566  0.95696  0.17256  Biso   1.000  H 
  Zr1      1.0000 0.26349  0.22989  0.36356  Biso   1.000  Zr
  Zr2      1.0000 0.74203  0.26186  0.12836  Biso   1.000  Zr
  Zr3      1.0000 0.73488  0.48550  0.37542  Biso   1.000  Zr
  Zr4      1.0000 0.07945  0.18744  0.19468  Biso   1.000  Zr
  Zr5      1.0000 0.04856  0.07233  0.45435  Biso   1.000  Zr
  Zr6      1.0000 0.94312  0.43262  0.20071  Biso   1.000  Zr
  Zr7      1.0000 0.93301  0.31841  0.45026  Biso   1.000  Zr
  Zr8      1.0000 0.57255  0.12956  0.25642  Biso   1.000  Zr
  Zr9      1.0000 0.51567  0.13291  0.49920  Biso   1.000  Zr
  Zr10     1.0000 0.46002  0.38447  0.50031  Biso   1.000  Zr
  Zr11     1.0000 0.46622  0.37142  0.24982  Biso   1.000  Zr
  Zr12     1.0000 0.25479  0.01122  0.62489  Biso   1.000  Zr
  Zr13     1.0000 0.30984  0.24549  0.88527  Biso   1.000  Zr
  Zr14     1.0000 0.71029  0.26804  0.61661  Biso   1.000  Zr
  Zr15     1.0000 0.75387  0.48663  0.87374  Biso   1.000  Zr
  Zr16     1.0000 0.05024  0.17800  0.72541  Biso   1.000  Zr
  Zr17     1.0000 0.06952  0.08524  0.83262  Biso   1.000  Zr
  Zr18     1.0000 0.93746  0.42493  0.69402  Biso   1.000  Zr
  Zr19     1.0000 0.96232  0.31945  0.95038  Biso   1.000  Zr
  Zr20     1.0000 0.53430  0.12219  0.74008  Biso   1.000  Zr
  Zr21     1.0000 0.57839  0.13506  0.98817  Biso   1.000  Zr
  Zr22     1.0000 0.48950  0.38738  0.00075  Biso   1.000  Zr
  Zr23     1.0000 0.46489  0.37066  0.75003  Biso   1.000  Zr
  Zr24     1.0000 0.27896  0.51694  0.12804  Biso   1.000  Zr
  Zr25     1.0000 0.27007  0.73857  0.36965  Biso   1.000  Zr
  Zr26     1.0000 0.73072  0.77152  0.12105  Biso   1.000  Zr
  Zr27     1.0000 0.72263  0.98673  0.37390  Biso   1.000  Zr
  Zr28     1.0000 0.07488  0.68452  0.19203  Biso   1.000  Zr
  Zr29     1.0000 0.06279  0.56987  0.44889  Biso   1.000  Zr
  Zr30     1.0000 0.94404  0.93317  0.19788  Biso   1.000  Zr
  Zr31     1.0000 0.93046  0.81643  0.44363  Biso   1.000  Zr
  Zr32     1.0000 0.54327  0.61562  0.24647  Biso   1.000  Zr
  Zr33     1.0000 0.53055  0.63459  0.49590  Biso   1.000  Zr
  Zr34     1.0000 0.45009  0.88416  0.49915  Biso   1.000  Zr
  Zr35     1.0000 0.49501  0.86039  0.25563  Biso   1.000  Zr
  Zr36     1.0000 0.26319  0.52062  0.62518  Biso   1.000  Zr
  Zr37     1.0000 0.27452  0.73394  0.88069  Biso   1.000  Zr
  Zr38     1.0000 0.73210  0.76309  0.61989  Biso   1.000  Zr
  Zr39     1.0000 0.69432  0.97793  0.86798  Biso   1.000  Zr
  Zr40     1.0000 0.06054  0.68120  0.70175  Biso   1.000  Zr
  Zr41     1.0000 0.07816  0.56940  0.94832  Biso   1.000  Zr
  Zr42     1.0000 0.90057  0.93147  0.67749  Biso   1.000  Zr
  Zr43     1.0000 0.94491  0.83626  0.94255  Biso   1.000  Zr
  Zr44     1.0000 0.53870  0.61676  0.74775  Biso   1.000  Zr
  Zr45     1.0000 0.55447  0.63124  0.99772  Biso   1.000  Zr
  Zr46     1.0000 0.46296  0.87226  0.99426  Biso   1.000  Zr
  Zr47     1.0000 0.44673  0.86710  0.74649  Biso   1.000  Zr
