data_image0
_cell_length_a       10.1735
_cell_length_b       10.3565
_cell_length_c       10.4862
_cell_angle_alpha    89.9941
_cell_angle_beta     80.4512
_cell_angle_gamma    89.9929

_symmetry_space_group_name_H-M    "P 1"
_symmetry_int_tables_number       1

loop_
  _symmetry_equiv_pos_as_xyz
  'x, y, z'

loop_
  _atom_site_label
  _atom_site_occupancy
  _atom_site_fract_x
  _atom_site_fract_y
  _atom_site_fract_z
  _atom_site_thermal_displace_type
  _atom_site_B_iso_or_equiv
  _atom_site_type_symbol
  Hf1      1.0000 0.13910  0.02129  0.14577  Biso   1.000  Hf
  Zr1      1.0000 0.13882  0.02132  0.64529  Biso   1.000  Zr
  Zr2      1.0000 0.13891  0.52135  0.14539  Biso   1.000  Zr
  Zr3      1.0000 0.13887  0.52131  0.64536  Biso   1.000  Zr
  Zr4      1.0000 0.63887  0.02135  0.14532  Biso   1.000  Zr
  Zr5      1.0000 0.63879  0.02127  0.64532  Biso   1.000  Zr
  Zr6      1.0000 0.63896  0.52137  0.14529  Biso   1.000  Zr
  Zr7      1.0000 0.63886  0.52132  0.64539  Biso   1.000  Zr
  Zr8      1.0000 0.13879  0.22865  0.39515  Biso   1.000  Zr
  Zr9      1.0000 0.13888  0.22836  0.89559  Biso   1.000  Zr
  Zr10     1.0000 0.13880  0.72886  0.39529  Biso   1.000  Zr
  Zr11     1.0000 0.13884  0.72881  0.89540  Biso   1.000  Zr
  Zr12     1.0000 0.63892  0.22872  0.39531  Biso   1.000  Zr
  Zr13     1.0000 0.63886  0.22871  0.89537  Biso   1.000  Zr
  Zr14     1.0000 0.63896  0.72879  0.39530  Biso   1.000  Zr
  Zr15     1.0000 0.63876  0.72866  0.89547  Biso   1.000  Zr
  Zr16     1.0000 0.36111  0.27128  0.10471  Biso   1.000  Zr
  Zr17     1.0000 0.36112  0.27137  0.60470  Biso   1.000  Zr
  Zr18     1.0000 0.36089  0.77157  0.10464  Biso   1.000  Zr
  Zr19     1.0000 0.36118  0.77133  0.60466  Biso   1.000  Zr
  Zr20     1.0000 0.86157  0.27102  0.10471  Biso   1.000  Zr
  Zr21     1.0000 0.86112  0.27129  0.60466  Biso   1.000  Zr
  Zr22     1.0000 0.86153  0.77168  0.10471  Biso   1.000  Zr
  Zr23     1.0000 0.86107  0.77128  0.60471  Biso   1.000  Zr
  Zr24     1.0000 0.36125  0.47878  0.35471  Biso   1.000  Zr
  Zr25     1.0000 0.36105  0.47869  0.85470  Biso   1.000  Zr
  Zr26     1.0000 0.36108  0.97878  0.35456  Biso   1.000  Zr
  Zr27     1.0000 0.36097  0.97880  0.85482  Biso   1.000  Zr
  Zr28     1.0000 0.86114  0.47874  0.35463  Biso   1.000  Zr
  Zr29     1.0000 0.86121  0.47865  0.85481  Biso   1.000  Zr
  Zr30     1.0000 0.86143  0.97876  0.35444  Biso   1.000  Zr
  Zr31     1.0000 0.86109  0.97870  0.85463  Biso   1.000  Zr
  O1       1.0000 0.03618  0.16912  0.08121  Biso   1.000  O
  O2       1.0000 0.03597  0.17003  0.58067  Biso   1.000  O
  O3       1.0000 0.03606  0.67008  0.08099  Biso   1.000  O
  O4       1.0000 0.03605  0.67023  0.58099  Biso   1.000  O
  O5       1.0000 0.53606  0.17029  0.08111  Biso   1.000  O
  O6       1.0000 0.53613  0.17034  0.58107  Biso   1.000  O
  O7       1.0000 0.53591  0.67034  0.08112  Biso   1.000  O
  O8       1.0000 0.53613  0.67036  0.58106  Biso   1.000  O
  O9       1.0000 0.03668  0.07939  0.33017  Biso   1.000  O
  O10      1.0000 0.03591  0.07991  0.83071  Biso   1.000  O
  O11      1.0000 0.03612  0.57973  0.33108  Biso   1.000  O
  O12      1.0000 0.03609  0.57980  0.83109  Biso   1.000  O
  O13      1.0000 0.53594  0.07985  0.33102  Biso   1.000  O
  O14      1.0000 0.53600  0.07966  0.83118  Biso   1.000  O
  O15      1.0000 0.53620  0.57973  0.33110  Biso   1.000  O
  O16      1.0000 0.53604  0.57967  0.83114  Biso   1.000  O
  O17      1.0000 0.46394  0.42035  0.16889  Biso   1.000  O
  O18      1.0000 0.46389  0.42034  0.66893  Biso   1.000  O
  O19      1.0000 0.46393  0.92019  0.16902  Biso   1.000  O
  O20      1.0000 0.46385  0.92035  0.66890  Biso   1.000  O
  O21      1.0000 0.96417  0.42008  0.16902  Biso   1.000  O
  O22      1.0000 0.96400  0.42011  0.66905  Biso   1.000  O
  O23      1.0000 0.96494  0.92029  0.16858  Biso   1.000  O
  O24      1.0000 0.96393  0.92021  0.66889  Biso   1.000  O
  O25      1.0000 0.46398  0.32980  0.41897  Biso   1.000  O
  O26      1.0000 0.46374  0.32951  0.91888  Biso   1.000  O
  O27      1.0000 0.46391  0.82974  0.41879  Biso   1.000  O
  O28      1.0000 0.46344  0.82956  0.91892  Biso   1.000  O
  O29      1.0000 0.96391  0.32964  0.41885  Biso   1.000  O
  O30      1.0000 0.96416  0.32966  0.91922  Biso   1.000  O
  O31      1.0000 0.96387  0.82970  0.41895  Biso   1.000  O
  O32      1.0000 0.96388  0.82971  0.91883  Biso   1.000  O
  O33      1.0000 0.27563  0.12856  0.24012  Biso   1.000  O
  O34      1.0000 0.27608  0.12899  0.74078  Biso   1.000  O
  O35      1.0000 0.27606  0.62938  0.24077  Biso   1.000  O
  O36      1.0000 0.27608  0.62904  0.74070  Biso   1.000  O
  O37      1.0000 0.77605  0.12896  0.24068  Biso   1.000  O
  O38      1.0000 0.77599  0.12902  0.74065  Biso   1.000  O
  O39      1.0000 0.77618  0.62913  0.24067  Biso   1.000  O
  O40      1.0000 0.77606  0.62899  0.74077  Biso   1.000  O
  O41      1.0000 0.27612  0.12107  0.49053  Biso   1.000  O
  O42      1.0000 0.27553  0.12046  0.99137  Biso   1.000  O
  O43      1.0000 0.27609  0.62103  0.49068  Biso   1.000  O
  O44      1.0000 0.27606  0.62113  0.99071  Biso   1.000  O
  O45      1.0000 0.77622  0.12095  0.49056  Biso   1.000  O
  O46      1.0000 0.77606  0.12096  0.99067  Biso   1.000  O
  O47      1.0000 0.77608  0.62098  0.49071  Biso   1.000  O
  O48      1.0000 0.77605  0.62100  0.99070  Biso   1.000  O
  O49      1.0000 0.22392  0.37900  0.00942  Biso   1.000  O
  O50      1.0000 0.22392  0.37902  0.50933  Biso   1.000  O
  O51      1.0000 0.22309  0.87984  0.00995  Biso   1.000  O
  O52      1.0000 0.22393  0.87904  0.50919  Biso   1.000  O
  O53      1.0000 0.72407  0.37892  0.00937  Biso   1.000  O
  O54      1.0000 0.72395  0.37903  0.50935  Biso   1.000  O
  O55      1.0000 0.72386  0.87904  0.00936  Biso   1.000  O
  O56      1.0000 0.72393  0.87904  0.50929  Biso   1.000  O
  O57      1.0000 0.22410  0.37093  0.25939  Biso   1.000  O
  O58      1.0000 0.22391  0.37090  0.75941  Biso   1.000  O
  O59      1.0000 0.22310  0.87179  0.25893  Biso   1.000  O
  O60      1.0000 0.22391  0.87101  0.75937  Biso   1.000  O
  O61      1.0000 0.72407  0.37096  0.25930  Biso   1.000  O
  O62      1.0000 0.72393  0.37101  0.75939  Biso   1.000  O
  O63      1.0000 0.72438  0.87115  0.25926  Biso   1.000  O
  O64      1.0000 0.72382  0.87097  0.75937  Biso   1.000  O
