data_image0
_cell_length_a       10.1077
_cell_length_b       5.12065
_cell_length_c       10.1076
_cell_angle_alpha    89.0366
_cell_angle_beta     89.5545
_cell_angle_gamma    90.964

_symmetry_space_group_name_H-M    "P 1"
_symmetry_int_tables_number       1

loop_
  _symmetry_equiv_pos_as_xyz
  'x, y, z'

loop_
  _atom_site_label
  _atom_site_occupancy
  _atom_site_fract_x
  _atom_site_fract_y
  _atom_site_fract_z
  _atom_site_thermal_displace_type
  _atom_site_B_iso_or_equiv
  _atom_site_type_symbol
  Hg1      1.0000 0.12340  0.95987  0.12756  Biso   1.000  Hg
  Zr1      1.0000 0.12872  0.49876  0.37749  Biso   1.000  Zr
  Zr2      1.0000 0.38065  0.49139  0.12840  Biso   1.000  Zr
  Zr3      1.0000 0.37606  0.01262  0.38312  Biso   1.000  Zr
  Zr4      1.0000 0.98244  0.31140  0.98706  Biso   1.000  Zr
  Zr5      1.0000 0.99529  0.25211  0.25566  Biso   1.000  Zr
  Zr6      1.0000 0.00681  0.73340  0.24413  Biso   1.000  Zr
  Zr7      1.0000 0.00214  0.79867  0.98703  Biso   1.000  Zr
  Zr8      1.0000 0.26389  0.31138  0.26852  Biso   1.000  Zr
  Zr9      1.0000 0.24104  0.17597  0.00992  Biso   1.000  Zr
  Zr10     1.0000 0.26685  0.66026  0.98411  Biso   1.000  Zr
  Zr11     1.0000 0.26391  0.79865  0.24882  Biso   1.000  Zr
  Zr12     1.0000 0.12137  0.99449  0.62682  Biso   1.000  Zr
  Zr13     1.0000 0.12256  0.49140  0.87031  Biso   1.000  Zr
  Zr14     1.0000 0.37365  0.49924  0.62776  Biso   1.000  Zr
  Zr15     1.0000 0.37418  0.98203  0.87678  Biso   1.000  Zr
  Zr16     1.0000 0.00101  0.29389  0.50315  Biso   1.000  Zr
  Zr17     1.0000 0.00085  0.20468  0.74709  Biso   1.000  Zr
  Zr18     1.0000 0.99817  0.70502  0.74596  Biso   1.000  Zr
  Zr19     1.0000 0.00160  0.79493  0.49376  Biso   1.000  Zr
  Zr20     1.0000 0.25424  0.28092  0.75914  Biso   1.000  Zr
  Zr21     1.0000 0.25020  0.21281  0.50885  Biso   1.000  Zr
  Zr22     1.0000 0.25360  0.71219  0.49870  Biso   1.000  Zr
  Zr23     1.0000 0.24818  0.78550  0.74485  Biso   1.000  Zr
  Zr24     1.0000 0.62414  0.99448  0.12958  Biso   1.000  Zr
  Zr25     1.0000 0.62818  0.50442  0.37661  Biso   1.000  Zr
  Zr26     1.0000 0.87345  0.49875  0.12223  Biso   1.000  Zr
  Zr27     1.0000 0.87568  0.01921  0.37528  Biso   1.000  Zr
  Zr28     1.0000 0.49181  0.28092  0.99671  Biso   1.000  Zr
  Zr29     1.0000 0.50386  0.20467  0.25010  Biso   1.000  Zr
  Zr30     1.0000 0.50499  0.70502  0.25279  Biso   1.000  Zr
  Zr31     1.0000 0.50611  0.78550  0.00277  Biso   1.000  Zr
  Zr32     1.0000 0.74780  0.29389  0.24995  Biso   1.000  Zr
  Zr33     1.0000 0.74210  0.21282  0.00075  Biso   1.000  Zr
  Zr34     1.0000 0.75225  0.71220  0.99736  Biso   1.000  Zr
  Zr35     1.0000 0.75719  0.79493  0.24936  Biso   1.000  Zr
  Zr36     1.0000 0.62353  0.00190  0.62743  Biso   1.000  Zr
  Zr37     1.0000 0.62319  0.49924  0.87731  Biso   1.000  Zr
  Zr38     1.0000 0.87434  0.50442  0.62278  Biso   1.000  Zr
  Zr39     1.0000 0.86784  0.01263  0.87490  Biso   1.000  Zr
  Zr40     1.0000 0.49888  0.29774  0.50006  Biso   1.000  Zr
  Zr41     1.0000 0.50140  0.20456  0.74956  Biso   1.000  Zr
  Zr42     1.0000 0.49574  0.70529  0.75522  Biso   1.000  Zr
  Zr43     1.0000 0.50218  0.79601  0.50392  Biso   1.000  Zr
  Zr44     1.0000 0.75089  0.29775  0.75208  Biso   1.000  Zr
  Zr45     1.0000 0.75024  0.21418  0.50071  Biso   1.000  Zr
  Zr46     1.0000 0.75130  0.71324  0.49965  Biso   1.000  Zr
  Zr47     1.0000 0.74704  0.79602  0.74877  Biso   1.000  Zr
