data_image0
_cell_length_a       5.07523
_cell_length_b       10.4647
_cell_length_c       10.2135
_cell_angle_alpha    89.2061
_cell_angle_beta     91.7112
_cell_angle_gamma    91.4546

_symmetry_space_group_name_H-M    "P 1"
_symmetry_int_tables_number       1

loop_
  _symmetry_equiv_pos_as_xyz
  'x, y, z'

loop_
  _atom_site_label
  _atom_site_occupancy
  _atom_site_fract_x
  _atom_site_fract_y
  _atom_site_fract_z
  _atom_site_thermal_displace_type
  _atom_site_B_iso_or_equiv
  _atom_site_type_symbol
  Zr1      1.0000 0.27860  0.98817  0.10193  Biso   1.000  Zr
  Zr2      1.0000 0.24102  0.22825  0.41317  Biso   1.000  Zr
  Zr3      1.0000 0.61945  0.25794  0.16097  Biso   1.000  Zr
  Zr4      1.0000 0.73482  0.48708  0.38307  Biso   1.000  Zr
  Zr5      1.0000 0.89301  0.18167  0.28407  Biso   1.000  Zr
  Zr6      1.0000 0.08115  0.05294  0.46136  Biso   1.000  Zr
  Zr7      1.0000 0.89667  0.43240  0.19971  Biso   1.000  Zr
  Zr8      1.0000 0.95515  0.33890  0.47144  Biso   1.000  Zr
  Zr9      1.0000 0.41768  0.10736  0.25774  Biso   1.000  Zr
  Zr10     1.0000 0.56568  0.13664  0.50549  Biso   1.000  Zr
  Zr11     1.0000 0.48172  0.38494  0.50857  Biso   1.000  Zr
  Zr12     1.0000 0.40297  0.37226  0.27071  Biso   1.000  Zr
  Zr13     1.0000 0.29947  0.00797  0.62710  Biso   1.000  Zr
  Zr14     1.0000 0.29389  0.23033  0.85245  Biso   1.000  Zr
  Zr15     1.0000 0.76535  0.27749  0.64102  Biso   1.000  Zr
  Zr16     1.0000 0.73749  0.48487  0.86944  Biso   1.000  Zr
  Zr17     1.0000 0.12603  0.18654  0.66316  Biso   1.000  Zr
  Zr18     1.0000 0.11891  0.05081  0.91491  Biso   1.000  Zr
  Zr19     1.0000 0.91599  0.46208  0.68028  Biso   1.000  Zr
  Zr20     1.0000 0.91606  0.30313  0.84990  Biso   1.000  Zr
  Zr21     1.0000 0.56706  0.11605  0.75343  Biso   1.000  Zr
  Zr22     1.0000 0.57600  0.12076  0.01037  Biso   1.000  Zr
  Zr23     1.0000 0.50144  0.38259  0.00345  Biso   1.000  Zr
  Zr24     1.0000 0.45320  0.37705  0.74755  Biso   1.000  Zr
  Zr25     1.0000 0.25983  0.52125  0.13163  Biso   1.000  Zr
  Zr26     1.0000 0.27626  0.74241  0.37588  Biso   1.000  Zr
  Zr27     1.0000 0.74213  0.76143  0.12756  Biso   1.000  Zr
  Zr28     1.0000 0.74505  0.00080  0.36523  Biso   1.000  Zr
  Zr29     1.0000 0.08176  0.68389  0.19410  Biso   1.000  Zr
  Zr30     1.0000 0.07532  0.57744  0.44031  Biso   1.000  Zr
  Zr31     1.0000 0.93492  0.94273  0.18662  Biso   1.000  Zr
  Zr32     1.0000 0.93699  0.82045  0.43667  Biso   1.000  Zr
  Zr33     1.0000 0.54312  0.61834  0.25131  Biso   1.000  Zr
  Zr34     1.0000 0.54240  0.63731  0.49813  Biso   1.000  Zr
  Zr35     1.0000 0.48077  0.88748  0.49476  Biso   1.000  Zr
  Zr36     1.0000 0.47856  0.86412  0.24121  Biso   1.000  Zr
  Zr37     1.0000 0.27142  0.51847  0.61860  Biso   1.000  Zr
  Zr38     1.0000 0.28302  0.72978  0.87138  Biso   1.000  Zr
  Zr39     1.0000 0.75384  0.76854  0.61885  Biso   1.000  Zr
  Zr40     1.0000 0.75884  0.97899  0.87165  Biso   1.000  Zr
  Zr41     1.0000 0.08932  0.69038  0.69306  Biso   1.000  Zr
  Zr42     1.0000 0.07743  0.55892  0.94897  Biso   1.000  Zr
  Zr43     1.0000 0.95208  0.93171  0.69674  Biso   1.000  Zr
  Zr44     1.0000 0.97225  0.81587  0.95788  Biso   1.000  Zr
  Zr45     1.0000 0.54708  0.61929  0.74971  Biso   1.000  Zr
  Zr46     1.0000 0.54282  0.63110  0.00178  Biso   1.000  Zr
  Zr47     1.0000 0.49679  0.87170  0.99141  Biso   1.000  Zr
  Zr48     1.0000 0.49241  0.86299  0.74753  Biso   1.000  Zr
  Hg1      1.0000 0.09470  0.24548  0.08549  Biso   1.000  Hg
