data_image0
_cell_length_a       10.3326
_cell_length_b       10.412
_cell_length_c       5.3204
_cell_angle_alpha    90.2027
_cell_angle_beta     79.2201
_cell_angle_gamma    89.7059

_symmetry_space_group_name_H-M    "P 1"
_symmetry_int_tables_number       1

loop_
  _symmetry_equiv_pos_as_xyz
  'x, y, z'

loop_
  _atom_site_label
  _atom_site_occupancy
  _atom_site_fract_x
  _atom_site_fract_y
  _atom_site_fract_z
  _atom_site_thermal_displace_type
  _atom_site_B_iso_or_equiv
  _atom_site_type_symbol
  Zr1      1.0000 0.13035  0.02000  0.28151  Biso   1.000  Zr
  Zr2      1.0000 0.13377  0.22792  0.77549  Biso   1.000  Zr
  Zr3      1.0000 0.35729  0.28226  0.20062  Biso   1.000  Zr
  Zr4      1.0000 0.36173  0.47958  0.70779  Biso   1.000  Zr
  O1       1.0000 0.03116  0.16495  0.14404  Biso   1.000  O
  O2       1.0000 0.02318  0.08533  0.65079  Biso   1.000  O
  O3       1.0000 0.46163  0.43315  0.34696  Biso   1.000  O
  O4       1.0000 0.49085  0.37505  0.90428  Biso   1.000  O
  O5       1.0000 0.25185  0.12767  0.45326  Biso   1.000  O
  O6       1.0000 0.26674  0.11323  0.96545  Biso   1.000  O
  O7       1.0000 0.22357  0.37778  0.00822  Biso   1.000  O
  O8       1.0000 0.21360  0.37906  0.50742  Biso   1.000  O
  Zr5      1.0000 0.13794  0.52305  0.28979  Biso   1.000  Zr
  Zr6      1.0000 0.13511  0.72673  0.79408  Biso   1.000  Zr
  Zr7      1.0000 0.35859  0.76904  0.21359  Biso   1.000  Zr
  Zr8      1.0000 0.35776  0.96384  0.71483  Biso   1.000  Zr
  O9       1.0000 0.02836  0.66337  0.15004  Biso   1.000  O
  O10      1.0000 0.02989  0.58890  0.64870  Biso   1.000  O
  O11      1.0000 0.46297  0.91795  0.34581  Biso   1.000  O
  O12      1.0000 0.45998  0.82623  0.84801  Biso   1.000  O
  O13      1.0000 0.27219  0.62905  0.48368  Biso   1.000  O
  O14      1.0000 0.27198  0.62126  0.98438  Biso   1.000  O
  O15      1.0000 0.22153  0.87265  0.02441  Biso   1.000  O
  O16      1.0000 0.22263  0.86912  0.52406  Biso   1.000  O
  Zr9      1.0000 0.63841  0.01769  0.29770  Biso   1.000  Zr
  Zr10     1.0000 0.65683  0.23535  0.82301  Biso   1.000  Zr
  Zr11     1.0000 0.86477  0.27317  0.22272  Biso   1.000  Zr
  Zr12     1.0000 0.86290  0.48114  0.71096  Biso   1.000  Zr
  O17      1.0000 0.53091  0.16445  0.14805  Biso   1.000  O
  O18      1.0000 0.55276  0.05280  0.68936  Biso   1.000  O
  O19      1.0000 0.96695  0.41705  0.34693  Biso   1.000  O
  O20      1.0000 0.96419  0.33517  0.84492  Biso   1.000  O
  O21      1.0000 0.77355  0.13197  0.49079  Biso   1.000  O
  O22      1.0000 0.77824  0.12065  0.99662  Biso   1.000  O
  O23      1.0000 0.73130  0.37821  0.03853  Biso   1.000  O
  O24      1.0000 0.72647  0.37459  0.53532  Biso   1.000  O
  Zr13     1.0000 0.63571  0.52624  0.29539  Biso   1.000  Zr
  Zr14     1.0000 0.63760  0.72775  0.79152  Biso   1.000  Zr
  Zr15     1.0000 0.85879  0.77047  0.20872  Biso   1.000  Zr
  Zr16     1.0000 0.85821  0.97664  0.71039  Biso   1.000  Zr
  O25      1.0000 0.53411  0.67099  0.15658  Biso   1.000  O
  O26      1.0000 0.53124  0.59296  0.64970  Biso   1.000  O
  O27      1.0000 0.96097  0.91220  0.35007  Biso   1.000  O
  O28      1.0000 0.96476  0.83598  0.84888  Biso   1.000  O
  O29      1.0000 0.77427  0.62858  0.48056  Biso   1.000  O
  O30      1.0000 0.77197  0.62166  0.97961  Biso   1.000  O
  O31      1.0000 0.72248  0.87881  0.02347  Biso   1.000  O
  O32      1.0000 0.72354  0.86905  0.51877  Biso   1.000  O
  Hg1      1.0000 0.43571  0.21935  0.62423  Biso   1.000  Hg
