data_image0
_cell_length_a       10.1579
_cell_length_b       5.20747
_cell_length_c       10.642
_cell_angle_alpha    89.7024
_cell_angle_beta     92.1421
_cell_angle_gamma    90.137

_symmetry_space_group_name_H-M    "P 1"
_symmetry_int_tables_number       1

loop_
  _symmetry_equiv_pos_as_xyz
  'x, y, z'

loop_
  _atom_site_label
  _atom_site_occupancy
  _atom_site_fract_x
  _atom_site_fract_y
  _atom_site_fract_z
  _atom_site_thermal_displace_type
  _atom_site_B_iso_or_equiv
  _atom_site_type_symbol
  Zr1      1.0000 0.13216  0.03808  0.17363  Biso   1.000  Zr
  Zr2      1.0000 0.13363  0.45295  0.42741  Biso   1.000  Zr
  Zr3      1.0000 0.34087  0.53636  0.19282  Biso   1.000  Zr
  Zr4      1.0000 0.36030  0.95666  0.43029  Biso   1.000  Zr
  Zr5      1.0000 0.65334  0.05828  0.06918  Biso   1.000  Zr
  Zr6      1.0000 0.63577  0.45828  0.33403  Biso   1.000  Zr
  Zr7      1.0000 0.86066  0.54056  0.07628  Biso   1.000  Zr
  Zr8      1.0000 0.85822  0.95827  0.32811  Biso   1.000  Zr
  O1       1.0000 0.03381  0.33503  0.08652  Biso   1.000  O
  O2       1.0000 0.02720  0.16985  0.33485  Biso   1.000  O
  O3       1.0000 0.47016  0.87359  0.09148  Biso   1.000  O
  O4       1.0000 0.46437  0.67998  0.33838  Biso   1.000  O
  O5       1.0000 0.26500  0.24741  0.30315  Biso   1.000  O
  O6       1.0000 0.26965  0.23749  0.05014  Biso   1.000  O
  O7       1.0000 0.21537  0.75226  0.30652  Biso   1.000  O
  O8       1.0000 0.22171  0.74970  0.05542  Biso   1.000  O
  O9       1.0000 0.51466  0.30637  0.19645  Biso   1.000  O
  O10      1.0000 0.52757  0.17808  0.42768  Biso   1.000  O
  O11      1.0000 0.96067  0.83364  0.16764  Biso   1.000  O
  O12      1.0000 0.96566  0.66921  0.41808  Biso   1.000  O
  O13      1.0000 0.77424  0.24941  0.45181  Biso   1.000  O
  O14      1.0000 0.77507  0.25794  0.20385  Biso   1.000  O
  O15      1.0000 0.72559  0.75309  0.45548  Biso   1.000  O
  O16      1.0000 0.71975  0.75151  0.20450  Biso   1.000  O
  Zr9      1.0000 0.14437  0.03988  0.67465  Biso   1.000  Zr
  Zr10     1.0000 0.14337  0.46048  0.92618  Biso   1.000  Zr
  Zr11     1.0000 0.36611  0.53895  0.67608  Biso   1.000  Zr
  Zr12     1.0000 0.36170  0.96746  0.92444  Biso   1.000  Zr
  Zr13     1.0000 0.64176  0.03904  0.57693  Biso   1.000  Zr
  Zr14     1.0000 0.65619  0.44642  0.81313  Biso   1.000  Zr
  Zr15     1.0000 0.86607  0.54296  0.57689  Biso   1.000  Zr
  Zr16     1.0000 0.87425  0.95671  0.82640  Biso   1.000  Zr
  O17      1.0000 0.03433  0.32568  0.58467  Biso   1.000  O
  O18      1.0000 0.04438  0.16656  0.83415  Biso   1.000  O
  O19      1.0000 0.47212  0.82446  0.58684  Biso   1.000  O
  O20      1.0000 0.47653  0.65998  0.83418  Biso   1.000  O
  O21      1.0000 0.28194  0.25343  0.79889  Biso   1.000  O
  O22      1.0000 0.27577  0.24722  0.55047  Biso   1.000  O
  O23      1.0000 0.23238  0.75007  0.80124  Biso   1.000  O
  O24      1.0000 0.22768  0.74696  0.55217  Biso   1.000  O
  O25      1.0000 0.53771  0.32903  0.66397  Biso   1.000  O
  O26      1.0000 0.54162  0.13038  0.89703  Biso   1.000  O
  O27      1.0000 0.97638  0.82447  0.66659  Biso   1.000  O
  O28      1.0000 0.97495  0.66681  0.91778  Biso   1.000  O
  O29      1.0000 0.79613  0.24872  0.94193  Biso   1.000  O
  O30      1.0000 0.78527  0.24145  0.69588  Biso   1.000  O
  O31      1.0000 0.74253  0.77732  0.95033  Biso   1.000  O
  O32      1.0000 0.73519  0.74265  0.70174  Biso   1.000  O
  In1      1.0000 0.54454  0.52925  0.02902  Biso   1.000  In
