data_image0
_cell_length_a       5.1625
_cell_length_b       10.4152
_cell_length_c       10.2254
_cell_angle_alpha    89.7848
_cell_angle_beta     90.5938
_cell_angle_gamma    91.0302

_symmetry_space_group_name_H-M    "P 1"
_symmetry_int_tables_number       1

loop_
  _symmetry_equiv_pos_as_xyz
  'x, y, z'

loop_
  _atom_site_label
  _atom_site_occupancy
  _atom_site_fract_x
  _atom_site_fract_y
  _atom_site_fract_z
  _atom_site_thermal_displace_type
  _atom_site_B_iso_or_equiv
  _atom_site_type_symbol
  Zr1      1.0000 0.29569  0.96517  0.15643  Biso   1.000  Zr
  Zr2      1.0000 0.22821  0.23899  0.39595  Biso   1.000  Zr
  Zr3      1.0000 0.59759  0.25175  0.12584  Biso   1.000  Zr
  Zr4      1.0000 0.74706  0.00388  0.40333  Biso   1.000  Zr
  Zr5      1.0000 0.85702  0.19409  0.96351  Biso   1.000  Zr
  Zr6      1.0000 0.04874  0.06373  0.28734  Biso   1.000  Zr
  Zr7      1.0000 0.86974  0.30498  0.28395  Biso   1.000  Zr
  Zr8      1.0000 0.03740  0.43329  0.96325  Biso   1.000  Zr
  Zr9      1.0000 0.51810  0.11588  0.26901  Biso   1.000  Zr
  Zr10     1.0000 0.42476  0.09831  0.00631  Biso   1.000  Zr
  Zr11     1.0000 0.50495  0.38101  0.98154  Biso   1.000  Zr
  Zr12     1.0000 0.42914  0.39630  0.24782  Biso   1.000  Zr
  Zr13     1.0000 0.22941  0.00379  0.65109  Biso   1.000  Zr
  Zr14     1.0000 0.20923  0.26975  0.86187  Biso   1.000  Zr
  Zr15     1.0000 0.70923  0.24448  0.63449  Biso   1.000  Zr
  Zr16     1.0000 0.72637  0.01262  0.90043  Biso   1.000  Zr
  Zr17     1.0000 0.97445  0.14804  0.51953  Biso   1.000  Zr
  Zr18     1.0000 0.97797  0.10377  0.76076  Biso   1.000  Zr
  Zr19     1.0000 0.98354  0.35953  0.72672  Biso   1.000  Zr
  Zr20     1.0000 0.03711  0.40330  0.47835  Biso   1.000  Zr
  Zr21     1.0000 0.46617  0.15472  0.75856  Biso   1.000  Zr
  Zr22     1.0000 0.47386  0.10158  0.51538  Biso   1.000  Zr
  Zr23     1.0000 0.51091  0.34701  0.49719  Biso   1.000  Zr
  Zr24     1.0000 0.48607  0.39884  0.74028  Biso   1.000  Zr
  Zr25     1.0000 0.28322  0.52515  0.09542  Biso   1.000  Zr
  Zr26     1.0000 0.33425  0.74109  0.38299  Biso   1.000  Zr
  Zr27     1.0000 0.79422  0.74856  0.12270  Biso   1.000  Zr
  Zr28     1.0000 0.74788  0.48207  0.35285  Biso   1.000  Zr
  Zr29     1.0000 0.07611  0.67999  0.00031  Biso   1.000  Zr
  Zr30     1.0000 0.97743  0.56529  0.21676  Biso   1.000  Zr
  Zr31     1.0000 0.09394  0.81221  0.24473  Biso   1.000  Zr
  Zr32     1.0000 0.96930  0.93274  0.03471  Biso   1.000  Zr
  Zr33     1.0000 0.51473  0.63853  0.23799  Biso   1.000  Zr
  Zr34     1.0000 0.56764  0.62052  0.98419  Biso   1.000  Zr
  Zr35     1.0000 0.50248  0.85474  0.01178  Biso   1.000  Zr
  Zr36     1.0000 0.58833  0.87599  0.26472  Biso   1.000  Zr
  Zr37     1.0000 0.26349  0.50182  0.60484  Biso   1.000  Zr
  Zr38     1.0000 0.31067  0.75282  0.85851  Biso   1.000  Zr
  Zr39     1.0000 0.82250  0.74652  0.61654  Biso   1.000  Zr
  Zr40     1.0000 0.75194  0.50430  0.85118  Biso   1.000  Zr
  Zr41     1.0000 0.05196  0.64849  0.49131  Biso   1.000  Zr
  Zr42     1.0000 0.04148  0.60604  0.73927  Biso   1.000  Zr
  Zr43     1.0000 0.01728  0.85196  0.75909  Biso   1.000  Zr
  Zr44     1.0000 0.03031  0.89712  0.51032  Biso   1.000  Zr
  Zr45     1.0000 0.54394  0.65186  0.73557  Biso   1.000  Zr
  Zr46     1.0000 0.54423  0.59558  0.48984  Biso   1.000  Zr
  Zr47     1.0000 0.54437  0.84983  0.51188  Biso   1.000  Zr
  Zr48     1.0000 0.49947  0.90958  0.76495  Biso   1.000  Zr
  In1      1.0000 0.09428  0.22741  0.13011  Biso   1.000  In
