data_image0
_cell_length_a       10.1893
_cell_length_b       5.13936
_cell_length_c       10.5472
_cell_angle_alpha    89.9947
_cell_angle_beta     80.7793
_cell_angle_gamma    89.2552

_symmetry_space_group_name_H-M    "P 1"
_symmetry_int_tables_number       1

loop_
  _symmetry_equiv_pos_as_xyz
  'x, y, z'

loop_
  _atom_site_label
  _atom_site_occupancy
  _atom_site_fract_x
  _atom_site_fract_y
  _atom_site_fract_z
  _atom_site_thermal_displace_type
  _atom_site_B_iso_or_equiv
  _atom_site_type_symbol
  Ir1      1.0000 0.12543  0.02098  0.16825  Biso   1.000  Ir
  Zr1      1.0000 0.13815  0.04044  0.64388  Biso   1.000  Zr
  Zr2      1.0000 0.63603  0.03854  0.14346  Biso   1.000  Zr
  Zr3      1.0000 0.63818  0.04397  0.64740  Biso   1.000  Zr
  Zr4      1.0000 0.13680  0.45752  0.39473  Biso   1.000  Zr
  Zr5      1.0000 0.14209  0.45638  0.89335  Biso   1.000  Zr
  Zr6      1.0000 0.63689  0.45410  0.39475  Biso   1.000  Zr
  Zr7      1.0000 0.63894  0.46181  0.89672  Biso   1.000  Zr
  Zr8      1.0000 0.35690  0.54829  0.09929  Biso   1.000  Zr
  Zr9      1.0000 0.36160  0.54607  0.60479  Biso   1.000  Zr
  Zr10     1.0000 0.86561  0.52570  0.10595  Biso   1.000  Zr
  Zr11     1.0000 0.86024  0.54182  0.60709  Biso   1.000  Zr
  Zr12     1.0000 0.36105  0.95827  0.35183  Biso   1.000  Zr
  Zr13     1.0000 0.36137  0.97179  0.85562  Biso   1.000  Zr
  Zr14     1.0000 0.85456  0.95193  0.35771  Biso   1.000  Zr
  Zr15     1.0000 0.86460  0.95386  0.85736  Biso   1.000  Zr
  O1       1.0000 0.04399  0.30644  0.08119  Biso   1.000  O
  O2       1.0000 0.03155  0.32317  0.57317  Biso   1.000  O
  O3       1.0000 0.53351  0.33176  0.07588  Biso   1.000  O
  O4       1.0000 0.53365  0.33116  0.57531  Biso   1.000  O
  O5       1.0000 0.02611  0.17682  0.32678  Biso   1.000  O
  O6       1.0000 0.03497  0.16967  0.82653  Biso   1.000  O
  O7       1.0000 0.53217  0.16732  0.32642  Biso   1.000  O
  O8       1.0000 0.53580  0.17855  0.82432  Biso   1.000  O
  O9       1.0000 0.46521  0.82716  0.17485  Biso   1.000  O
  O10      1.0000 0.46709  0.83255  0.67316  Biso   1.000  O
  O11      1.0000 0.96911  0.81455  0.17365  Biso   1.000  O
  O12      1.0000 0.96867  0.82053  0.67743  Biso   1.000  O
  O13      1.0000 0.46518  0.66951  0.42233  Biso   1.000  O
  O14      1.0000 0.47072  0.68973  0.92575  Biso   1.000  O
  O15      1.0000 0.96592  0.67599  0.42691  Biso   1.000  O
  O16      1.0000 0.96769  0.66283  0.92976  Biso   1.000  O
  O17      1.0000 0.26861  0.24749  0.23026  Biso   1.000  O
  O18      1.0000 0.27348  0.25546  0.73177  Biso   1.000  O
  O19      1.0000 0.77361  0.24594  0.24003  Biso   1.000  O
  O20      1.0000 0.77754  0.25708  0.74080  Biso   1.000  O
  O21      1.0000 0.27541  0.24515  0.48455  Biso   1.000  O
  O22      1.0000 0.29503  0.29228  0.96801  Biso   1.000  O
  O23      1.0000 0.77518  0.24051  0.49062  Biso   1.000  O
  O24      1.0000 0.77702  0.24036  0.99093  Biso   1.000  O
  O25      1.0000 0.22290  0.79850  0.01446  Biso   1.000  O
  O26      1.0000 0.22363  0.75688  0.50821  Biso   1.000  O
  O27      1.0000 0.72714  0.75350  0.01199  Biso   1.000  O
  O28      1.0000 0.72231  0.75401  0.51097  Biso   1.000  O
  O29      1.0000 0.21773  0.74031  0.25906  Biso   1.000  O
  O30      1.0000 0.22703  0.74350  0.76087  Biso   1.000  O
  O31      1.0000 0.72729  0.73409  0.26012  Biso   1.000  O
  O32      1.0000 0.72631  0.74572  0.76169  Biso   1.000  O
