data_image0
_cell_length_a       10.2373
_cell_length_b       10.3844
_cell_length_c       10.5634
_cell_angle_alpha    89.7268
_cell_angle_beta     80.31
_cell_angle_gamma    90.2218

_symmetry_space_group_name_H-M    "P 1"
_symmetry_int_tables_number       1

loop_
  _symmetry_equiv_pos_as_xyz
  'x, y, z'

loop_
  _atom_site_label
  _atom_site_occupancy
  _atom_site_fract_x
  _atom_site_fract_y
  _atom_site_fract_z
  _atom_site_thermal_displace_type
  _atom_site_B_iso_or_equiv
  _atom_site_type_symbol
  K1       1.0000 0.10076  0.98879  0.13919  Biso   1.000  K
  Zr1      1.0000 0.14027  0.02256  0.64447  Biso   1.000  Zr
  Zr2      1.0000 0.14379  0.51883  0.14325  Biso   1.000  Zr
  Zr3      1.0000 0.14211  0.52304  0.64524  Biso   1.000  Zr
  Zr4      1.0000 0.64178  0.02645  0.14290  Biso   1.000  Zr
  Zr5      1.0000 0.63725  0.02324  0.65112  Biso   1.000  Zr
  Zr6      1.0000 0.63229  0.51462  0.14628  Biso   1.000  Zr
  Zr7      1.0000 0.63999  0.52026  0.64434  Biso   1.000  Zr
  Zr8      1.0000 0.14099  0.22714  0.39412  Biso   1.000  Zr
  Zr9      1.0000 0.13811  0.22788  0.89827  Biso   1.000  Zr
  Zr10     1.0000 0.14143  0.72818  0.39370  Biso   1.000  Zr
  Zr11     1.0000 0.15223  0.73005  0.89011  Biso   1.000  Zr
  Zr12     1.0000 0.63641  0.23167  0.39608  Biso   1.000  Zr
  Zr13     1.0000 0.64057  0.23052  0.89685  Biso   1.000  Zr
  Zr14     1.0000 0.63549  0.72274  0.39851  Biso   1.000  Zr
  Zr15     1.0000 0.63645  0.72991  0.89220  Biso   1.000  Zr
  Zr16     1.0000 0.35307  0.26093  0.10477  Biso   1.000  Zr
  Zr17     1.0000 0.35930  0.27063  0.60469  Biso   1.000  Zr
  Zr18     1.0000 0.36529  0.77221  0.10397  Biso   1.000  Zr
  Zr19     1.0000 0.36274  0.77523  0.60133  Biso   1.000  Zr
  Zr20     1.0000 0.86427  0.27394  0.10420  Biso   1.000  Zr
  Zr21     1.0000 0.86333  0.27423  0.60508  Biso   1.000  Zr
  Zr22     1.0000 0.86670  0.74075  0.07751  Biso   1.000  Zr
  Zr23     1.0000 0.86392  0.77132  0.60539  Biso   1.000  Zr
  Zr24     1.0000 0.35717  0.47695  0.35310  Biso   1.000  Zr
  Zr25     1.0000 0.36322  0.47499  0.85434  Biso   1.000  Zr
  Zr26     1.0000 0.35909  0.98180  0.34913  Biso   1.000  Zr
  Zr27     1.0000 0.36002  0.98171  0.85593  Biso   1.000  Zr
  Zr28     1.0000 0.86286  0.48047  0.35320  Biso   1.000  Zr
  Zr29     1.0000 0.86387  0.47584  0.84921  Biso   1.000  Zr
  Zr30     1.0000 0.86056  0.99155  0.37940  Biso   1.000  Zr
  Zr31     1.0000 0.86172  0.97910  0.85546  Biso   1.000  Zr
  O1       1.0000 0.03678  0.19390  0.07935  Biso   1.000  O
  O2       1.0000 0.03697  0.17519  0.58660  Biso   1.000  O
  O3       1.0000 0.04797  0.67948  0.08163  Biso   1.000  O
  O4       1.0000 0.03754  0.66990  0.58064  Biso   1.000  O
  O5       1.0000 0.53489  0.16652  0.07754  Biso   1.000  O
  O6       1.0000 0.53075  0.16486  0.57823  Biso   1.000  O
  O7       1.0000 0.53572  0.66306  0.07550  Biso   1.000  O
  O8       1.0000 0.53321  0.66334  0.57546  Biso   1.000  O
  O9       1.0000 0.02773  0.08181  0.35609  Biso   1.000  O
  O10      1.0000 0.03653  0.07914  0.83180  Biso   1.000  O
  O11      1.0000 0.03621  0.58291  0.32799  Biso   1.000  O
  O12      1.0000 0.03582  0.58311  0.83113  Biso   1.000  O
  O13      1.0000 0.53710  0.08563  0.32545  Biso   1.000  O
  O14      1.0000 0.53669  0.08501  0.82926  Biso   1.000  O
  O15      1.0000 0.53104  0.58184  0.32843  Biso   1.000  O
  O16      1.0000 0.53358  0.58498  0.82431  Biso   1.000  O
  O17      1.0000 0.46303  0.41082  0.17324  Biso   1.000  O
  O18      1.0000 0.46809  0.41393  0.67144  Biso   1.000  O
  O19      1.0000 0.47514  0.91465  0.17156  Biso   1.000  O
  O20      1.0000 0.46894  0.91393  0.67505  Biso   1.000  O
  O21      1.0000 0.95926  0.43322  0.16424  Biso   1.000  O
  O22      1.0000 0.96639  0.42353  0.66630  Biso   1.000  O
  O23      1.0000 0.85861  0.89362  0.20442  Biso   1.000  O
  O24      1.0000 0.96528  0.92023  0.66990  Biso   1.000  O
  O25      1.0000 0.46487  0.33411  0.42223  Biso   1.000  O
  O26      1.0000 0.46979  0.33527  0.92219  Biso   1.000  O
  O27      1.0000 0.47431  0.83868  0.42249  Biso   1.000  O
  O28      1.0000 0.47876  0.84235  0.92334  Biso   1.000  O
  O29      1.0000 0.96449  0.33363  0.41895  Biso   1.000  O
  O30      1.0000 0.96177  0.33018  0.91156  Biso   1.000  O
  O31      1.0000 0.96719  0.83307  0.42030  Biso   1.000  O
  O32      1.0000 0.97532  0.83561  0.92105  Biso   1.000  O
  O33      1.0000 0.28374  0.13373  0.25018  Biso   1.000  O
  O34      1.0000 0.27551  0.12790  0.73813  Biso   1.000  O
  O35      1.0000 0.27800  0.62221  0.23727  Biso   1.000  O
  O36      1.0000 0.27947  0.63016  0.73751  Biso   1.000  O
  O37      1.0000 0.77868  0.13276  0.24571  Biso   1.000  O
  O38      1.0000 0.77818  0.13005  0.74338  Biso   1.000  O
  O39      1.0000 0.76931  0.63420  0.23780  Biso   1.000  O
  O40      1.0000 0.77558  0.62922  0.73722  Biso   1.000  O
  O41      1.0000 0.27505  0.12182  0.49266  Biso   1.000  O
  O42      1.0000 0.28567  0.12813  0.97911  Biso   1.000  O
  O43      1.0000 0.27690  0.62234  0.48866  Biso   1.000  O
  O44      1.0000 0.27998  0.61576  0.98791  Biso   1.000  O
  O45      1.0000 0.76945  0.12856  0.50032  Biso   1.000  O
  O46      1.0000 0.77746  0.12046  0.99181  Biso   1.000  O
  O47      1.0000 0.77621  0.62242  0.48853  Biso   1.000  O
  O48      1.0000 0.77177  0.61292  0.98391  Biso   1.000  O
  O49      1.0000 0.22593  0.37864  0.00829  Biso   1.000  O
  O50      1.0000 0.22425  0.38033  0.50894  Biso   1.000  O
  O51      1.0000 0.24451  0.86293  0.99211  Biso   1.000  O
  O52      1.0000 0.22800  0.88047  0.50807  Biso   1.000  O
  O53      1.0000 0.72342  0.37797  0.00879  Biso   1.000  O
  O54      1.0000 0.72508  0.38086  0.50945  Biso   1.000  O
  O55      1.0000 0.72964  0.87305  0.00919  Biso   1.000  O
  O56      1.0000 0.72599  0.88057  0.51699  Biso   1.000  O
  O57      1.0000 0.21937  0.37143  0.25760  Biso   1.000  O
  O58      1.0000 0.22528  0.37225  0.75901  Biso   1.000  O
  O59      1.0000 0.24031  0.85769  0.26316  Biso   1.000  O
  O60      1.0000 0.22617  0.87289  0.75350  Biso   1.000  O
  O61      1.0000 0.72349  0.37456  0.26133  Biso   1.000  O
  O62      1.0000 0.72576  0.37154  0.75733  Biso   1.000  O
  O63      1.0000 0.72159  0.88619  0.26948  Biso   1.000  O
  O64      1.0000 0.72824  0.87179  0.76085  Biso   1.000  O
