data_image0
_cell_length_a       10.0642
_cell_length_b       10.4514
_cell_length_c       10.1406
_cell_angle_alpha    89.9908
_cell_angle_beta     89.7866
_cell_angle_gamma    90.0368

_symmetry_space_group_name_H-M    "P 1"
_symmetry_int_tables_number       1

loop_
  _symmetry_equiv_pos_as_xyz
  'x, y, z'

loop_
  _atom_site_label
  _atom_site_occupancy
  _atom_site_fract_x
  _atom_site_fract_y
  _atom_site_fract_z
  _atom_site_thermal_displace_type
  _atom_site_B_iso_or_equiv
  _atom_site_type_symbol
  K1       1.0000 0.09946  0.99355  0.12805  Biso   1.000  K 
  Zr1      1.0000 0.13431  0.01863  0.63005  Biso   1.000  Zr
  Zr2      1.0000 0.13814  0.51483  0.13044  Biso   1.000  Zr
  Zr3      1.0000 0.13554  0.51678  0.62487  Biso   1.000  Zr
  Zr4      1.0000 0.63626  0.01770  0.11784  Biso   1.000  Zr
  Zr5      1.0000 0.62846  0.01653  0.62497  Biso   1.000  Zr
  Zr6      1.0000 0.63001  0.51238  0.12570  Biso   1.000  Zr
  Zr7      1.0000 0.63360  0.51614  0.62419  Biso   1.000  Zr
  Zr8      1.0000 0.13554  0.23315  0.37480  Biso   1.000  Zr
  Zr9      1.0000 0.13701  0.23418  0.87472  Biso   1.000  Zr
  Zr10     1.0000 0.13936  0.73627  0.38021  Biso   1.000  Zr
  Zr11     1.0000 0.14347  0.73517  0.87606  Biso   1.000  Zr
  Zr12     1.0000 0.63203  0.23433  0.37179  Biso   1.000  Zr
  Zr13     1.0000 0.63404  0.23349  0.87456  Biso   1.000  Zr
  Zr14     1.0000 0.63129  0.73141  0.37356  Biso   1.000  Zr
  Zr15     1.0000 0.63045  0.73548  0.87134  Biso   1.000  Zr
  Zr16     1.0000 0.36135  0.26098  0.12676  Biso   1.000  Zr
  Zr17     1.0000 0.36609  0.26569  0.62505  Biso   1.000  Zr
  Zr18     1.0000 0.36728  0.76407  0.12540  Biso   1.000  Zr
  Zr19     1.0000 0.36728  0.76916  0.62548  Biso   1.000  Zr
  Zr20     1.0000 0.86657  0.26764  0.12713  Biso   1.000  Zr
  Zr21     1.0000 0.86649  0.27009  0.62246  Biso   1.000  Zr
  Zr22     1.0000 0.88717  0.72877  0.08895  Biso   1.000  Zr
  Zr23     1.0000 0.86873  0.76387  0.62189  Biso   1.000  Zr
  Zr24     1.0000 0.36655  0.48278  0.37611  Biso   1.000  Zr
  Zr25     1.0000 0.36636  0.48160  0.87626  Biso   1.000  Zr
  Zr26     1.0000 0.36443  0.98588  0.37237  Biso   1.000  Zr
  Zr27     1.0000 0.36139  0.98523  0.88023  Biso   1.000  Zr
  Zr28     1.0000 0.86671  0.48745  0.37403  Biso   1.000  Zr
  Zr29     1.0000 0.86353  0.47936  0.87358  Biso   1.000  Zr
  Zr30     1.0000 0.86346  0.99224  0.39243  Biso   1.000  Zr
  Zr31     1.0000 0.86180  0.98402  0.86644  Biso   1.000  Zr
  Zr32     1.0000 0.02235  0.19655  0.21177  Biso   1.000  Zr
  Zr33     1.0000 0.03949  0.19208  0.68360  Biso   1.000  Zr
  Zr34     1.0000 0.04605  0.69164  0.19977  Biso   1.000  Zr
  Zr35     1.0000 0.03582  0.68388  0.69858  Biso   1.000  Zr
  Zr36     1.0000 0.53890  0.18384  0.18908  Biso   1.000  Zr
  Zr37     1.0000 0.53499  0.18474  0.69472  Biso   1.000  Zr
  Zr38     1.0000 0.53661  0.68027  0.19843  Biso   1.000  Zr
  Zr39     1.0000 0.53378  0.68259  0.69455  Biso   1.000  Zr
  Zr40     1.0000 0.03555  0.06731  0.44663  Biso   1.000  Zr
  Zr41     1.0000 0.03493  0.07041  0.89633  Biso   1.000  Zr
  Zr42     1.0000 0.03431  0.57006  0.44901  Biso   1.000  Zr
  Zr43     1.0000 0.01290  0.58816  0.96776  Biso   1.000  Zr
  Zr44     1.0000 0.53441  0.06837  0.44636  Biso   1.000  Zr
  Zr45     1.0000 0.53849  0.06640  0.94196  Biso   1.000  Zr
  Zr46     1.0000 0.53623  0.56845  0.44416  Biso   1.000  Zr
  Zr47     1.0000 0.52757  0.56953  0.94897  Biso   1.000  Zr
  Zr48     1.0000 0.46470  0.42945  0.19754  Biso   1.000  Zr
  Zr49     1.0000 0.46614  0.43391  0.69495  Biso   1.000  Zr
  Zr50     1.0000 0.48073  0.92752  0.20237  Biso   1.000  Zr
  Zr51     1.0000 0.46569  0.93284  0.70073  Biso   1.000  Zr
  Zr52     1.0000 0.96258  0.44239  0.19503  Biso   1.000  Zr
  Zr53     1.0000 0.96793  0.43491  0.70025  Biso   1.000  Zr
  Zr54     1.0000 0.87960  0.89572  0.20724  Biso   1.000  Zr
  Zr55     1.0000 0.95795  0.93585  0.68085  Biso   1.000  Zr
  Zr56     1.0000 0.46631  0.31746  0.44583  Biso   1.000  Zr
  Zr57     1.0000 0.46608  0.31715  0.94372  Biso   1.000  Zr
  Zr58     1.0000 0.47015  0.81835  0.45214  Biso   1.000  Zr
  Zr59     1.0000 0.47330  0.82150  0.95025  Biso   1.000  Zr
  Zr60     1.0000 0.96698  0.32337  0.44874  Biso   1.000  Zr
  Zr61     1.0000 0.96905  0.32298  0.94894  Biso   1.000  Zr
  Zr62     1.0000 0.96826  0.82081  0.44465  Biso   1.000  Zr
  Zr63     1.0000 0.97609  0.82863  0.94032  Biso   1.000  Zr
  Zr64     1.0000 0.28221  0.12772  0.25765  Biso   1.000  Zr
  Zr65     1.0000 0.27344  0.11933  0.74792  Biso   1.000  Zr
  Zr66     1.0000 0.27242  0.61252  0.25082  Biso   1.000  Zr
  Zr67     1.0000 0.26968  0.61770  0.75068  Biso   1.000  Zr
  Zr68     1.0000 0.76785  0.11512  0.25114  Biso   1.000  Zr
  Zr69     1.0000 0.76758  0.11840  0.74517  Biso   1.000  Zr
  Zr70     1.0000 0.77040  0.61652  0.24207  Biso   1.000  Zr
  Zr71     1.0000 0.77055  0.61547  0.74396  Biso   1.000  Zr
  Zr72     1.0000 0.26843  0.13234  0.50278  Biso   1.000  Zr
  Zr73     1.0000 0.27477  0.13694  0.99248  Biso   1.000  Zr
  Zr74     1.0000 0.27231  0.63348  0.50135  Biso   1.000  Zr
  Zr75     1.0000 0.26695  0.62626  0.00061  Biso   1.000  Zr
  Zr76     1.0000 0.76691  0.13760  0.50002  Biso   1.000  Zr
  Zr77     1.0000 0.77590  0.13180  0.99656  Biso   1.000  Zr
  Zr78     1.0000 0.76861  0.63555  0.49397  Biso   1.000  Zr
  Zr79     1.0000 0.75783  0.62165  0.98819  Biso   1.000  Zr
  Zr80     1.0000 0.23222  0.38449  0.49941  Biso   1.000  Zr
  Zr81     1.0000 0.22941  0.38383  0.00057  Biso   1.000  Zr
  Zr82     1.0000 0.23160  0.88588  0.50269  Biso   1.000  Zr
  Zr83     1.0000 0.24287  0.86834  0.99344  Biso   1.000  Zr
  Zr84     1.0000 0.73106  0.38577  0.49768  Biso   1.000  Zr
  Zr85     1.0000 0.72756  0.38064  0.99692  Biso   1.000  Zr
  Zr86     1.0000 0.72877  0.88390  0.49739  Biso   1.000  Zr
  Zr87     1.0000 0.73523  0.87365  0.99521  Biso   1.000  Zr
  Zr88     1.0000 0.22826  0.36936  0.25021  Biso   1.000  Zr
  Zr89     1.0000 0.23119  0.36835  0.74837  Biso   1.000  Zr
  Zr90     1.0000 0.25050  0.85474  0.26020  Biso   1.000  Zr
  Zr91     1.0000 0.22969  0.87023  0.74858  Biso   1.000  Zr
  Zr92     1.0000 0.73086  0.36783  0.24910  Biso   1.000  Zr
  Zr93     1.0000 0.73101  0.36754  0.74778  Biso   1.000  Zr
  Zr94     1.0000 0.74104  0.87530  0.24138  Biso   1.000  Zr
  Zr95     1.0000 0.73049  0.86539  0.74455  Biso   1.000  Zr
