data_image0
_cell_length_a       10.2664
_cell_length_b       10.4586
_cell_length_c       5.2919
_cell_angle_alpha    89.4272
_cell_angle_beta     80.4725
_cell_angle_gamma    90.4562

_symmetry_space_group_name_H-M    "P 1"
_symmetry_int_tables_number       1

loop_
  _symmetry_equiv_pos_as_xyz
  'x, y, z'

loop_
  _atom_site_label
  _atom_site_occupancy
  _atom_site_fract_x
  _atom_site_fract_y
  _atom_site_fract_z
  _atom_site_thermal_displace_type
  _atom_site_B_iso_or_equiv
  _atom_site_type_symbol
  K1       1.0000 0.09950  0.99214  0.27396  Biso   1.000  K
  Zr1      1.0000 0.14595  0.52060  0.28656  Biso   1.000  Zr
  Zr2      1.0000 0.63805  0.02933  0.29739  Biso   1.000  Zr
  Zr3      1.0000 0.63373  0.51432  0.28917  Biso   1.000  Zr
  Zr4      1.0000 0.13746  0.22845  0.79450  Biso   1.000  Zr
  Zr5      1.0000 0.15487  0.72905  0.77658  Biso   1.000  Zr
  Zr6      1.0000 0.63778  0.23328  0.79426  Biso   1.000  Zr
  Zr7      1.0000 0.63278  0.72205  0.78794  Biso   1.000  Zr
  Zr8      1.0000 0.35379  0.26407  0.20820  Biso   1.000  Zr
  Zr9      1.0000 0.36695  0.77479  0.20111  Biso   1.000  Zr
  Zr10     1.0000 0.86435  0.27710  0.21031  Biso   1.000  Zr
  Zr11     1.0000 0.87021  0.74078  0.15483  Biso   1.000  Zr
  Zr12     1.0000 0.35923  0.47403  0.70549  Biso   1.000  Zr
  Zr13     1.0000 0.35996  0.98047  0.69780  Biso   1.000  Zr
  Zr14     1.0000 0.86584  0.47815  0.69585  Biso   1.000  Zr
  Zr15     1.0000 0.86050  0.99058  0.76321  Biso   1.000  Zr
  O1       1.0000 0.04029  0.20415  0.17300  Biso   1.000  O
  O2       1.0000 0.05103  0.68041  0.16586  Biso   1.000  O
  O3       1.0000 0.53192  0.16665  0.15365  Biso   1.000  O
  O4       1.0000 0.53592  0.66086  0.14387  Biso   1.000  O
  O5       1.0000 0.02892  0.07854  0.72852  Biso   1.000  O
  O6       1.0000 0.03754  0.58336  0.66049  Biso   1.000  O
  O7       1.0000 0.53827  0.08742  0.65210  Biso   1.000  O
  O8       1.0000 0.53077  0.58247  0.64778  Biso   1.000  O
  O9       1.0000 0.46473  0.41019  0.34453  Biso   1.000  O
  O10      1.0000 0.47709  0.91348  0.34457  Biso   1.000  O
  O11      1.0000 0.96009  0.43789  0.32082  Biso   1.000  O
  O12      1.0000 0.86345  0.88824  0.41933  Biso   1.000  O
  O13      1.0000 0.46819  0.33596  0.84415  Biso   1.000  O
  O14      1.0000 0.48552  0.84368  0.83990  Biso   1.000  O
  O15      1.0000 0.96046  0.33172  0.82206  Biso   1.000  O
  O16      1.0000 0.97716  0.83540  0.84342  Biso   1.000  O
  O17      1.0000 0.28356  0.13305  0.49510  Biso   1.000  O
  O18      1.0000 0.28119  0.62376  0.47034  Biso   1.000  O
  O19      1.0000 0.78186  0.13269  0.49610  Biso   1.000  O
  O20      1.0000 0.76878  0.63375  0.46946  Biso   1.000  O
  O21      1.0000 0.28618  0.12860  0.96007  Biso   1.000  O
  O22      1.0000 0.28108  0.61663  0.97287  Biso   1.000  O
  O23      1.0000 0.77144  0.12874  0.00299  Biso   1.000  O
  O24      1.0000 0.77388  0.61469  0.96382  Biso   1.000  O
  O25      1.0000 0.22601  0.38072  0.01521  Biso   1.000  O
  O26      1.0000 0.24781  0.86534  0.98291  Biso   1.000  O
  O27      1.0000 0.72363  0.38057  0.01665  Biso   1.000  O
  O28      1.0000 0.73220  0.87680  0.03656  Biso   1.000  O
  O29      1.0000 0.22076  0.37202  0.51493  Biso   1.000  O
  O30      1.0000 0.24174  0.85966  0.50975  Biso   1.000  O
  O31      1.0000 0.72485  0.37388  0.51685  Biso   1.000  O
  O32      1.0000 0.72523  0.88625  0.54094  Biso   1.000  O
