data_image0
_cell_length_a       10.1406
_cell_length_b       10.3688
_cell_length_c       5.24492
_cell_angle_alpha    90.1653
_cell_angle_beta     91.6209
_cell_angle_gamma    89.9681

_symmetry_space_group_name_H-M    "P 1"
_symmetry_int_tables_number       1

loop_
  _symmetry_equiv_pos_as_xyz
  'x, y, z'

loop_
  _atom_site_label
  _atom_site_occupancy
  _atom_site_fract_x
  _atom_site_fract_y
  _atom_site_fract_z
  _atom_site_thermal_displace_type
  _atom_site_B_iso_or_equiv
  _atom_site_type_symbol
  La1      1.0000 0.11552  0.00250  0.30094  Biso   1.000  La
  Zr1      1.0000 0.14032  0.52363  0.32011  Biso   1.000  Zr
  Zr2      1.0000 0.14022  0.23154  0.82247  Biso   1.000  Zr
  Zr3      1.0000 0.11890  0.74709  0.80441  Biso   1.000  Zr
  Zr4      1.0000 0.35597  0.26717  0.33255  Biso   1.000  Zr
  Zr5      1.0000 0.36343  0.76685  0.32336  Biso   1.000  Zr
  Zr6      1.0000 0.35538  0.48273  0.83153  Biso   1.000  Zr
  Zr7      1.0000 0.36370  0.98137  0.82418  Biso   1.000  Zr
  Zr8      1.0000 0.63877  0.02153  0.16459  Biso   1.000  Zr
  Zr9      1.0000 0.63667  0.51713  0.15544  Biso   1.000  Zr
  Zr10     1.0000 0.63872  0.23089  0.65669  Biso   1.000  Zr
  Zr11     1.0000 0.63793  0.72785  0.66182  Biso   1.000  Zr
  Zr12     1.0000 0.86052  0.27369  0.15852  Biso   1.000  Zr
  Zr13     1.0000 0.85890  0.76411  0.18835  Biso   1.000  Zr
  Zr14     1.0000 0.86258  0.48070  0.65957  Biso   1.000  Zr
  Zr15     1.0000 0.85747  0.97682  0.69228  Biso   1.000  Zr
  O1       1.0000 0.03913  0.19543  0.17266  Biso   1.000  O
  O2       1.0000 0.03011  0.66283  0.13388  Biso   1.000  O
  O3       1.0000 0.02460  0.08520  0.68871  Biso   1.000  O
  O4       1.0000 0.03241  0.58723  0.65213  Biso   1.000  O
  O5       1.0000 0.46620  0.41433  0.15974  Biso   1.000  O
  O6       1.0000 0.47157  0.91663  0.16137  Biso   1.000  O
  O7       1.0000 0.46775  0.33590  0.66061  Biso   1.000  O
  O8       1.0000 0.47528  0.83754  0.65455  Biso   1.000  O
  O9       1.0000 0.27700  0.12824  0.57917  Biso   1.000  O
  O10      1.0000 0.27296  0.62579  0.56899  Biso   1.000  O
  O11      1.0000 0.28127  0.12950  0.06161  Biso   1.000  O
  O12      1.0000 0.27213  0.62280  0.07162  Biso   1.000  O
  O13      1.0000 0.22258  0.37639  0.57431  Biso   1.000  O
  O14      1.0000 0.23718  0.86960  0.57265  Biso   1.000  O
  O15      1.0000 0.22372  0.37784  0.07529  Biso   1.000  O
  O16      1.0000 0.24154  0.86190  0.04923  Biso   1.000  O
  O17      1.0000 0.53448  0.16740  0.32584  Biso   1.000  O
  O18      1.0000 0.53400  0.66398  0.32521  Biso   1.000  O
  O19      1.0000 0.53804  0.08284  0.82279  Biso   1.000  O
  O20      1.0000 0.53132  0.58496  0.82701  Biso   1.000  O
  O21      1.0000 0.96095  0.42717  0.31763  Biso   1.000  O
  O22      1.0000 0.97328  0.83801  0.50461  Biso   1.000  O
  O23      1.0000 0.96342  0.33398  0.81557  Biso   1.000  O
  O24      1.0000 0.97821  0.88418  0.97769  Biso   1.000  O
  O25      1.0000 0.77375  0.12527  0.92548  Biso   1.000  O
  O26      1.0000 0.77740  0.62424  0.92085  Biso   1.000  O
  O27      1.0000 0.78177  0.12327  0.42174  Biso   1.000  O
  O28      1.0000 0.76947  0.62280  0.42012  Biso   1.000  O
  O29      1.0000 0.72374  0.37608  0.90834  Biso   1.000  O
  O30      1.0000 0.72759  0.86866  0.92384  Biso   1.000  O
  O31      1.0000 0.72522  0.37428  0.41046  Biso   1.000  O
  O32      1.0000 0.72774  0.87956  0.41937  Biso   1.000  O
