data_image0
_cell_length_a       10.1644
_cell_length_b       10.3804
_cell_length_c       5.21256
_cell_angle_alpha    93.2867
_cell_angle_beta     90.2476
_cell_angle_gamma    91.1481

_symmetry_space_group_name_H-M    "P 1"
_symmetry_int_tables_number       1

loop_
  _symmetry_equiv_pos_as_xyz
  'x, y, z'

loop_
  _atom_site_label
  _atom_site_occupancy
  _atom_site_fract_x
  _atom_site_fract_y
  _atom_site_fract_z
  _atom_site_thermal_displace_type
  _atom_site_B_iso_or_equiv
  _atom_site_type_symbol
  Zr1      1.0000 0.11140  0.97630  0.20409  Biso   1.000  Zr
  Zr2      1.0000 0.13053  0.25746  0.80749  Biso   1.000  Zr
  Zr3      1.0000 0.41504  0.24076  0.20391  Biso   1.000  Zr
  Zr4      1.0000 0.37293  0.01837  0.72157  Biso   1.000  Zr
  Zr5      1.0000 0.00056  0.13053  0.02231  Biso   1.000  Zr
  Zr6      1.0000 0.04541  0.08601  0.54471  Biso   1.000  Zr
  Zr7      1.0000 0.96369  0.32297  0.58580  Biso   1.000  Zr
  Zr8      1.0000 0.00256  0.39392  0.05509  Biso   1.000  Zr
  Zr9      1.0000 0.30018  0.19155  0.58725  Biso   1.000  Zr
  Zr10     1.0000 0.25999  0.11754  0.02938  Biso   1.000  Zr
  Zr11     1.0000 0.26958  0.38708  0.05238  Biso   1.000  Zr
  Zr12     1.0000 0.21453  0.44303  0.57553  Biso   1.000  Zr
  Zr13     1.0000 0.13914  0.54043  0.23137  Biso   1.000  Zr
  Zr14     1.0000 0.10405  0.74173  0.73717  Biso   1.000  Zr
  Zr15     1.0000 0.36431  0.78213  0.19953  Biso   1.000  Zr
  Zr16     1.0000 0.38062  0.49653  0.77791  Biso   1.000  Zr
  Zr17     1.0000 0.99852  0.63621  0.00028  Biso   1.000  Zr
  Zr18     1.0000 0.98882  0.59471  0.50233  Biso   1.000  Zr
  Zr19     1.0000 0.00689  0.84519  0.44747  Biso   1.000  Zr
  Zr20     1.0000 0.98453  0.87598  0.94615  Biso   1.000  Zr
  Zr21     1.0000 0.23133  0.69166  0.43888  Biso   1.000  Zr
  Zr22     1.0000 0.25214  0.63396  0.95762  Biso   1.000  Zr
  Zr23     1.0000 0.24338  0.87291  0.91884  Biso   1.000  Zr
  Zr24     1.0000 0.27416  0.93753  0.40559  Biso   1.000  Zr
  Zr25     1.0000 0.64571  0.97680  0.26891  Biso   1.000  Zr
  Zr26     1.0000 0.61981  0.25693  0.69223  Biso   1.000  Zr
  Zr27     1.0000 0.84756  0.24479  0.23227  Biso   1.000  Zr
  Zr28     1.0000 0.89168  0.00835  0.73402  Biso   1.000  Zr
  Zr29     1.0000 0.51309  0.14205  0.92017  Biso   1.000  Zr
  Zr30     1.0000 0.51525  0.11327  0.42756  Biso   1.000  Zr
  Zr31     1.0000 0.48908  0.37214  0.49086  Biso   1.000  Zr
  Zr32     1.0000 0.51788  0.38947  0.98859  Biso   1.000  Zr
  Zr33     1.0000 0.76240  0.12954  0.51093  Biso   1.000  Zr
  Zr34     1.0000 0.76403  0.07253  0.02602  Biso   1.000  Zr
  Zr35     1.0000 0.76350  0.32386  0.93197  Biso   1.000  Zr
  Zr36     1.0000 0.73764  0.38695  0.45768  Biso   1.000  Zr
  Zr37     1.0000 0.60789  0.51472  0.28574  Biso   1.000  Zr
  Zr38     1.0000 0.60482  0.75805  0.74895  Biso   1.000  Zr
  Zr39     1.0000 0.85784  0.72300  0.27585  Biso   1.000  Zr
  Zr40     1.0000 0.87845  0.47930  0.77053  Biso   1.000  Zr
  Zr41     1.0000 0.50232  0.64469  0.03295  Biso   1.000  Zr
  Zr42     1.0000 0.48603  0.61610  0.53923  Biso   1.000  Zr
  Zr43     1.0000 0.50171  0.86360  0.49308  Biso   1.000  Zr
  Zr44     1.0000 0.49490  0.90166  0.98999  Biso   1.000  Zr
  Zr45     1.0000 0.73698  0.63589  0.54319  Biso   1.000  Zr
  Zr46     1.0000 0.76188  0.56691  0.05953  Biso   1.000  Zr
  Zr47     1.0000 0.72620  0.81566  0.05949  Biso   1.000  Zr
  Zr48     1.0000 0.75391  0.88023  0.54180  Biso   1.000  Zr
  La1      1.0000 0.13520  0.26029  0.31404  Biso   1.000  La
