data_image0
_cell_length_a       10.2303
_cell_length_b       10.4013
_cell_length_c       10.632
_cell_angle_alpha    89.9041
_cell_angle_beta     79.5015
_cell_angle_gamma    90.2583

_symmetry_space_group_name_H-M    "P 1"
_symmetry_int_tables_number       1

loop_
  _symmetry_equiv_pos_as_xyz
  'x, y, z'

loop_
  _atom_site_label
  _atom_site_occupancy
  _atom_site_fract_x
  _atom_site_fract_y
  _atom_site_fract_z
  _atom_site_thermal_displace_type
  _atom_site_B_iso_or_equiv
  _atom_site_type_symbol
  Zr1      1.0000 0.13444  0.02094  0.14536  Biso   1.000  Zr
  Zr2      1.0000 0.13420  0.22745  0.39285  Biso   1.000  Zr
  Zr3      1.0000 0.34232  0.27204  0.07464  Biso   1.000  Zr
  Zr4      1.0000 0.35623  0.49437  0.35758  Biso   1.000  Zr
  O1       1.0000 0.03147  0.16682  0.07550  Biso   1.000  O
  O2       1.0000 0.03212  0.08121  0.32857  Biso   1.000  O
  O3       1.0000 0.46105  0.42798  0.16314  Biso   1.000  O
  O4       1.0000 0.47949  0.36619  0.44619  Biso   1.000  O
  O5       1.0000 0.27222  0.12243  0.23335  Biso   1.000  O
  O6       1.0000 0.28923  0.12973  0.47619  Biso   1.000  O
  O7       1.0000 0.20898  0.38756  0.99963  Biso   1.000  O
  O8       1.0000 0.22895  0.36792  0.25509  Biso   1.000  O
  Zr5      1.0000 0.13948  0.02160  0.64378  Biso   1.000  Zr
  Zr6      1.0000 0.13069  0.22845  0.88927  Biso   1.000  Zr
  Zr7      1.0000 0.36147  0.27923  0.60678  Biso   1.000  Zr
  Zr8      1.0000 0.35745  0.48394  0.85239  Biso   1.000  Zr
  O9       1.0000 0.04060  0.16834  0.57857  Biso   1.000  O
  O10      1.0000 0.03083  0.08287  0.82517  Biso   1.000  O
  O11      1.0000 0.46723  0.41686  0.68143  Biso   1.000  O
  O12      1.0000 0.46418  0.33684  0.91533  Biso   1.000  O
  O13      1.0000 0.27334  0.12898  0.73458  Biso   1.000  O
  O14      1.0000 0.26644  0.11921  0.98065  Biso   1.000  O
  O15      1.0000 0.22426  0.38197  0.50825  Biso   1.000  O
  O16      1.0000 0.22258  0.37286  0.75619  Biso   1.000  O
  Zr9      1.0000 0.13712  0.52148  0.14691  Biso   1.000  Zr
  Zr10     1.0000 0.13367  0.72920  0.39659  Biso   1.000  Zr
  Zr11     1.0000 0.35895  0.77278  0.10357  Biso   1.000  Zr
  Zr12     1.0000 0.36160  0.96519  0.35479  Biso   1.000  Zr
  O17      1.0000 0.03303  0.66491  0.07918  Biso   1.000  O
  O18      1.0000 0.03209  0.58195  0.32963  Biso   1.000  O
  O19      1.0000 0.46642  0.91457  0.17449  Biso   1.000  O
  O20      1.0000 0.46402  0.82530  0.42587  Biso   1.000  O
  O21      1.0000 0.27197  0.62978  0.24121  Biso   1.000  O
  O22      1.0000 0.27049  0.62771  0.49372  Biso   1.000  O
  O23      1.0000 0.22304  0.87895  0.00991  Biso   1.000  O
  O24      1.0000 0.22038  0.86755  0.25886  Biso   1.000  O
  Zr13     1.0000 0.13695  0.52348  0.64608  Biso   1.000  Zr
  Zr14     1.0000 0.13698  0.72869  0.89726  Biso   1.000  Zr
  Zr15     1.0000 0.36143  0.77151  0.60665  Biso   1.000  Zr
  Zr16     1.0000 0.35924  0.97719  0.85258  Biso   1.000  Zr
  O25      1.0000 0.02967  0.66564  0.57878  Biso   1.000  O
  O26      1.0000 0.03251  0.58437  0.82914  Biso   1.000  O
  O27      1.0000 0.46608  0.91581  0.67252  Biso   1.000  O
  O28      1.0000 0.46527  0.83638  0.92254  Biso   1.000  O
  O29      1.0000 0.27413  0.62887  0.74111  Biso   1.000  O
  O30      1.0000 0.27503  0.62464  0.99171  Biso   1.000  O
  O31      1.0000 0.22331  0.88046  0.51153  Biso   1.000  O
  O32      1.0000 0.22290  0.87127  0.76016  Biso   1.000  O
  Zr17     1.0000 0.64369  0.01483  0.14984  Biso   1.000  Zr
  Zr18     1.0000 0.65955  0.22680  0.41764  Biso   1.000  Zr
  Zr19     1.0000 0.85740  0.27051  0.10771  Biso   1.000  Zr
  Zr20     1.0000 0.85955  0.47794  0.35573  Biso   1.000  Zr
  O33      1.0000 0.52465  0.16103  0.07127  Biso   1.000  O
  O34      1.0000 0.55520  0.05716  0.34400  Biso   1.000  O
  O35      1.0000 0.96308  0.41511  0.17495  Biso   1.000  O
  O36      1.0000 0.96427  0.33203  0.42436  Biso   1.000  O
  O37      1.0000 0.78432  0.12764  0.24611  Biso   1.000  O
  O38      1.0000 0.78793  0.11484  0.50248  Biso   1.000  O
  O39      1.0000 0.72017  0.37795  0.01412  Biso   1.000  O
  O40      1.0000 0.71613  0.36831  0.26544  Biso   1.000  O
  Zr21     1.0000 0.63893  0.02049  0.64937  Biso   1.000  Zr
  Zr22     1.0000 0.63732  0.22676  0.89789  Biso   1.000  Zr
  Zr23     1.0000 0.86577  0.27185  0.61261  Biso   1.000  Zr
  Zr24     1.0000 0.85840  0.47894  0.85793  Biso   1.000  Zr
  O41      1.0000 0.53644  0.16902  0.58304  Biso   1.000  O
  O42      1.0000 0.53093  0.08467  0.82667  Biso   1.000  O
  O43      1.0000 0.96683  0.41698  0.67574  Biso   1.000  O
  O44      1.0000 0.95926  0.33185  0.92172  Biso   1.000  O
  O45      1.0000 0.77496  0.12916  0.74650  Biso   1.000  O
  O46      1.0000 0.77345  0.12058  0.99474  Biso   1.000  O
  O47      1.0000 0.73192  0.37894  0.51896  Biso   1.000  O
  O48      1.0000 0.72435  0.37200  0.76448  Biso   1.000  O
  Zr25     1.0000 0.63623  0.52498  0.14473  Biso   1.000  Zr
  Zr26     1.0000 0.63959  0.72592  0.39818  Biso   1.000  Zr
  Zr27     1.0000 0.86097  0.76899  0.10569  Biso   1.000  Zr
  Zr28     1.0000 0.85739  0.97588  0.35561  Biso   1.000  Zr
  O49      1.0000 0.53380  0.67129  0.07759  Biso   1.000  O
  O50      1.0000 0.53156  0.59074  0.32361  Biso   1.000  O
  O51      1.0000 0.96385  0.91353  0.17428  Biso   1.000  O
  O52      1.0000 0.96443  0.83378  0.42450  Biso   1.000  O
  O53      1.0000 0.77615  0.62508  0.24160  Biso   1.000  O
  O54      1.0000 0.77435  0.62012  0.49168  Biso   1.000  O
  O55      1.0000 0.72538  0.87672  0.01096  Biso   1.000  O
  O56      1.0000 0.72513  0.86472  0.25916  Biso   1.000  O
  Zr29     1.0000 0.63852  0.52278  0.64966  Biso   1.000  Zr
  Zr30     1.0000 0.63691  0.72979  0.89719  Biso   1.000  Zr
  Zr31     1.0000 0.85980  0.77278  0.60658  Biso   1.000  Zr
  Zr32     1.0000 0.85944  0.97732  0.85707  Biso   1.000  Zr
  O57      1.0000 0.53190  0.66321  0.58000  Biso   1.000  O
  O58      1.0000 0.53157  0.58769  0.82938  Biso   1.000  O
  O59      1.0000 0.96590  0.91597  0.67419  Biso   1.000  O
  O60      1.0000 0.96633  0.83403  0.92419  Biso   1.000  O
  O61      1.0000 0.77430  0.62978  0.74216  Biso   1.000  O
  O62      1.0000 0.77394  0.62144  0.99093  Biso   1.000  O
  O63      1.0000 0.72228  0.87583  0.51250  Biso   1.000  O
  O64      1.0000 0.72319  0.87316  0.76198  Biso   1.000  O
  La1      1.0000 0.45623  0.23769  0.27923  Biso   1.000  La
