data_image0
_cell_length_a       10.0332
_cell_length_b       10.4583
_cell_length_c       10.0826
_cell_angle_alpha    89.8645
_cell_angle_beta     90.083
_cell_angle_gamma    89.9685

_symmetry_space_group_name_H-M    "P 1"
_symmetry_int_tables_number       1

loop_
  _symmetry_equiv_pos_as_xyz
  'x, y, z'

loop_
  _atom_site_label
  _atom_site_occupancy
  _atom_site_fract_x
  _atom_site_fract_y
  _atom_site_fract_z
  _atom_site_thermal_displace_type
  _atom_site_B_iso_or_equiv
  _atom_site_type_symbol
  Zr1      1.0000 0.13255  0.01487  0.12324  Biso   1.000  Zr
  Zr2      1.0000 0.13472  0.23226  0.37926  Biso   1.000  Zr
  Zr3      1.0000 0.36931  0.26465  0.12448  Biso   1.000  Zr
  Zr4      1.0000 0.36609  0.48342  0.37346  Biso   1.000  Zr
  Zr5      1.0000 0.02696  0.18006  0.19912  Biso   1.000  Zr
  Zr6      1.0000 0.03639  0.06495  0.44456  Biso   1.000  Zr
  Zr7      1.0000 0.46128  0.43464  0.19289  Biso   1.000  Zr
  Zr8      1.0000 0.46580  0.31676  0.44512  Biso   1.000  Zr
  Zr9      1.0000 0.26699  0.11743  0.24795  Biso   1.000  Zr
  Zr10     1.0000 0.27130  0.13203  0.49853  Biso   1.000  Zr
  Zr11     1.0000 0.23143  0.38223  0.49768  Biso   1.000  Zr
  Zr12     1.0000 0.22415  0.36625  0.24487  Biso   1.000  Zr
  Zr13     1.0000 0.13420  0.01301  0.62448  Biso   1.000  Zr
  Zr14     1.0000 0.13521  0.23119  0.86689  Biso   1.000  Zr
  Zr15     1.0000 0.36878  0.26568  0.62431  Biso   1.000  Zr
  Zr16     1.0000 0.36491  0.48200  0.87660  Biso   1.000  Zr
  Zr17     1.0000 0.03611  0.18075  0.69032  Biso   1.000  Zr
  Zr18     1.0000 0.03687  0.06465  0.94201  Biso   1.000  Zr
  Zr19     1.0000 0.46754  0.43205  0.69665  Biso   1.000  Zr
  Zr20     1.0000 0.46494  0.31523  0.94480  Biso   1.000  Zr
  Zr21     1.0000 0.27111  0.11486  0.74620  Biso   1.000  Zr
  Zr22     1.0000 0.27125  0.13272  0.99664  Biso   1.000  Zr
  Zr23     1.0000 0.22492  0.38227  0.00022  Biso   1.000  Zr
  Zr24     1.0000 0.23383  0.36614  0.74719  Biso   1.000  Zr
  Zr25     1.0000 0.13703  0.53311  0.12519  Biso   1.000  Zr
  Zr26     1.0000 0.13534  0.73620  0.37853  Biso   1.000  Zr
  Zr27     1.0000 0.36719  0.76835  0.12501  Biso   1.000  Zr
  Zr28     1.0000 0.36595  0.98474  0.37454  Biso   1.000  Zr
  Zr29     1.0000 0.03256  0.68643  0.20031  Biso   1.000  Zr
  Zr30     1.0000 0.03634  0.56625  0.44458  Biso   1.000  Zr
  Zr31     1.0000 0.46333  0.93522  0.19367  Biso   1.000  Zr
  Zr32     1.0000 0.46510  0.81650  0.44362  Biso   1.000  Zr
  Zr33     1.0000 0.27310  0.62298  0.25125  Biso   1.000  Zr
  Zr34     1.0000 0.27030  0.63226  0.49984  Biso   1.000  Zr
  Zr35     1.0000 0.23228  0.88267  0.49882  Biso   1.000  Zr
  Zr36     1.0000 0.22912  0.86835  0.24885  Biso   1.000  Zr
  Zr37     1.0000 0.13531  0.51501  0.62529  Biso   1.000  Zr
  Zr38     1.0000 0.13393  0.73564  0.87271  Biso   1.000  Zr
  Zr39     1.0000 0.36875  0.76448  0.62487  Biso   1.000  Zr
  Zr40     1.0000 0.36679  0.98347  0.87464  Biso   1.000  Zr
  Zr41     1.0000 0.03690  0.68228  0.69277  Biso   1.000  Zr
  Zr42     1.0000 0.03574  0.57004  0.94598  Biso   1.000  Zr
  Zr43     1.0000 0.46654  0.93208  0.69428  Biso   1.000  Zr
  Zr44     1.0000 0.46681  0.81687  0.94456  Biso   1.000  Zr
  Zr45     1.0000 0.27080  0.61549  0.74895  Biso   1.000  Zr
  Zr46     1.0000 0.27235  0.63501  0.99728  Biso   1.000  Zr
  Zr47     1.0000 0.23098  0.88288  0.99819  Biso   1.000  Zr
  Zr48     1.0000 0.23274  0.86563  0.74766  Biso   1.000  Zr
  Zr49     1.0000 0.63287  0.01414  0.12411  Biso   1.000  Zr
  Zr50     1.0000 0.63362  0.23278  0.37773  Biso   1.000  Zr
  Zr51     1.0000 0.85193  0.26281  0.12745  Biso   1.000  Zr
  Zr52     1.0000 0.86899  0.48359  0.37229  Biso   1.000  Zr
  Zr53     1.0000 0.53561  0.18303  0.19629  Biso   1.000  Zr
  Zr54     1.0000 0.53545  0.06581  0.44501  Biso   1.000  Zr
  Zr55     1.0000 0.96704  0.43030  0.18984  Biso   1.000  Zr
  Zr56     1.0000 0.96667  0.31712  0.44655  Biso   1.000  Zr
  Zr57     1.0000 0.76621  0.11522  0.25006  Biso   1.000  Zr
  Zr58     1.0000 0.77099  0.13206  0.49879  Biso   1.000  Zr
  Zr59     1.0000 0.73281  0.38278  0.49905  Biso   1.000  Zr
  Zr60     1.0000 0.72683  0.36836  0.25043  Biso   1.000  Zr
  Zr61     1.0000 0.63529  0.01365  0.62500  Biso   1.000  Zr
  Zr62     1.0000 0.63320  0.23252  0.87275  Biso   1.000  Zr
  Zr63     1.0000 0.86629  0.26558  0.62483  Biso   1.000  Zr
  Zr64     1.0000 0.86868  0.48066  0.87886  Biso   1.000  Zr
  Zr65     1.0000 0.53724  0.18208  0.69274  Biso   1.000  Zr
  Zr66     1.0000 0.53544  0.06628  0.94437  Biso   1.000  Zr
  Zr67     1.0000 0.96966  0.42950  0.70140  Biso   1.000  Zr
  Zr68     1.0000 0.97027  0.31265  0.95482  Biso   1.000  Zr
  Zr69     1.0000 0.77091  0.11532  0.74841  Biso   1.000  Zr
  Zr70     1.0000 0.76939  0.13068  0.99803  Biso   1.000  Zr
  Zr71     1.0000 0.72835  0.38024  0.99980  Biso   1.000  Zr
  Zr72     1.0000 0.73327  0.36567  0.74975  Biso   1.000  Zr
  Zr73     1.0000 0.63275  0.51735  0.12471  Biso   1.000  Zr
  Zr74     1.0000 0.63408  0.73276  0.37593  Biso   1.000  Zr
  Zr75     1.0000 0.86332  0.76597  0.12512  Biso   1.000  Zr
  Zr76     1.0000 0.86690  0.98314  0.37481  Biso   1.000  Zr
  Zr77     1.0000 0.53604  0.68427  0.19427  Biso   1.000  Zr
  Zr78     1.0000 0.53463  0.56528  0.44439  Biso   1.000  Zr
  Zr79     1.0000 0.96303  0.93365  0.19373  Biso   1.000  Zr
  Zr80     1.0000 0.96573  0.81723  0.44649  Biso   1.000  Zr
  Zr81     1.0000 0.76976  0.61686  0.24904  Biso   1.000  Zr
  Zr82     1.0000 0.77047  0.63180  0.49871  Biso   1.000  Zr
  Zr83     1.0000 0.73140  0.88195  0.49880  Biso   1.000  Zr
  Zr84     1.0000 0.72922  0.86646  0.24929  Biso   1.000  Zr
  Zr85     1.0000 0.63596  0.51430  0.62577  Biso   1.000  Zr
  Zr86     1.0000 0.63458  0.73219  0.87490  Biso   1.000  Zr
  Zr87     1.0000 0.86626  0.76393  0.62546  Biso   1.000  Zr
  Zr88     1.0000 0.86706  0.98235  0.87513  Biso   1.000  Zr
  Zr89     1.0000 0.53811  0.68259  0.69319  Biso   1.000  Zr
  Zr90     1.0000 0.53507  0.56562  0.94410  Biso   1.000  Zr
  Zr91     1.0000 0.96646  0.93073  0.69597  Biso   1.000  Zr
  Zr92     1.0000 0.96574  0.81592  0.94624  Biso   1.000  Zr
  Zr93     1.0000 0.77228  0.61413  0.74988  Biso   1.000  Zr
  Zr94     1.0000 0.77028  0.63078  0.99885  Biso   1.000  Zr
  Zr95     1.0000 0.73023  0.88118  0.99882  Biso   1.000  Zr
  Zr96     1.0000 0.73178  0.86500  0.74896  Biso   1.000  Zr
  Li1      1.0000 0.09754  0.30893  0.11295  Biso   1.000  Li
