data_image0
_cell_length_a       10.1412
_cell_length_b       10.2639
_cell_length_c       5.24143
_cell_angle_alpha    89.9081
_cell_angle_beta     89.9993
_cell_angle_gamma    89.9082

_symmetry_space_group_name_H-M    "P 1"
_symmetry_int_tables_number       1

loop_
  _symmetry_equiv_pos_as_xyz
  'x, y, z'

loop_
  _atom_site_label
  _atom_site_occupancy
  _atom_site_fract_x
  _atom_site_fract_y
  _atom_site_fract_z
  _atom_site_thermal_displace_type
  _atom_site_B_iso_or_equiv
  _atom_site_type_symbol
  Mg1      1.0000 0.13527  0.01225  0.35099  Biso   1.000  Mg
  Zr1      1.0000 0.14063  0.52161  0.34559  Biso   1.000  Zr
  Zr2      1.0000 0.14165  0.22520  0.84503  Biso   1.000  Zr
  Zr3      1.0000 0.14311  0.73322  0.84363  Biso   1.000  Zr
  Zr4      1.0000 0.35599  0.26633  0.34509  Biso   1.000  Zr
  Zr5      1.0000 0.35783  0.77515  0.34289  Biso   1.000  Zr
  Zr6      1.0000 0.35986  0.47817  0.84577  Biso   1.000  Zr
  Zr7      1.0000 0.35560  0.98085  0.84213  Biso   1.000  Zr
  Zr8      1.0000 0.63863  0.02107  0.15315  Biso   1.000  Zr
  Zr9      1.0000 0.63850  0.52023  0.15738  Biso   1.000  Zr
  Zr10     1.0000 0.63900  0.22956  0.65558  Biso   1.000  Zr
  Zr11     1.0000 0.63826  0.72999  0.65527  Biso   1.000  Zr
  Zr12     1.0000 0.86372  0.26837  0.15604  Biso   1.000  Zr
  Zr13     1.0000 0.86118  0.77204  0.15763  Biso   1.000  Zr
  Zr14     1.0000 0.86119  0.47964  0.65848  Biso   1.000  Zr
  Zr15     1.0000 0.86198  0.97966  0.65121  Biso   1.000  Zr
  O1       1.0000 0.03148  0.15737  0.16116  Biso   1.000  O
  O2       1.0000 0.03089  0.66211  0.16459  Biso   1.000  O
  O3       1.0000 0.02641  0.09160  0.66925  Biso   1.000  O
  O4       1.0000 0.03076  0.58927  0.66480  Biso   1.000  O
  O5       1.0000 0.46800  0.41269  0.16837  Biso   1.000  O
  O6       1.0000 0.47011  0.91354  0.16429  Biso   1.000  O
  O7       1.0000 0.46875  0.33633  0.66780  Biso   1.000  O
  O8       1.0000 0.46925  0.83814  0.66479  Biso   1.000  O
  O9       1.0000 0.27581  0.12500  0.59420  Biso   1.000  O
  O10      1.0000 0.27591  0.62391  0.59252  Biso   1.000  O
  O11      1.0000 0.28220  0.13108  0.08263  Biso   1.000  O
  O12      1.0000 0.27542  0.62568  0.09322  Biso   1.000  O
  O13      1.0000 0.22477  0.37495  0.59456  Biso   1.000  O
  O14      1.0000 0.22531  0.87322  0.59021  Biso   1.000  O
  O15      1.0000 0.22350  0.37713  0.09472  Biso   1.000  O
  O16      1.0000 0.22788  0.87464  0.08688  Biso   1.000  O
  O17      1.0000 0.53213  0.16497  0.33140  Biso   1.000  O
  O18      1.0000 0.53071  0.66366  0.33357  Biso   1.000  O
  O19      1.0000 0.53219  0.08541  0.82946  Biso   1.000  O
  O20      1.0000 0.53076  0.58616  0.83409  Biso   1.000  O
  O21      1.0000 0.97081  0.41084  0.33897  Biso   1.000  O
  O22      1.0000 0.96663  0.91033  0.33686  Biso   1.000  O
  O23      1.0000 0.97056  0.33971  0.83956  Biso   1.000  O
  O24      1.0000 0.96975  0.83807  0.83589  Biso   1.000  O
  O25      1.0000 0.77448  0.12531  0.90721  Biso   1.000  O
  O26      1.0000 0.77391  0.62389  0.90787  Biso   1.000  O
  O27      1.0000 0.77401  0.12557  0.40675  Biso   1.000  O
  O28      1.0000 0.77478  0.62572  0.40822  Biso   1.000  O
  O29      1.0000 0.72548  0.37417  0.90891  Biso   1.000  O
  O30      1.0000 0.72593  0.87445  0.90607  Biso   1.000  O
  O31      1.0000 0.72659  0.37599  0.40886  Biso   1.000  O
  O32      1.0000 0.72242  0.87575  0.40650  Biso   1.000  O
