data_image0
_cell_length_a       10.0423
_cell_length_b       10.4718
_cell_length_c       10.1444
_cell_angle_alpha    89.8272
_cell_angle_beta     89.6042
_cell_angle_gamma    89.8339

_symmetry_space_group_name_H-M    "P 1"
_symmetry_int_tables_number       1

loop_
  _symmetry_equiv_pos_as_xyz
  'x, y, z'

loop_
  _atom_site_label
  _atom_site_occupancy
  _atom_site_fract_x
  _atom_site_fract_y
  _atom_site_fract_z
  _atom_site_thermal_displace_type
  _atom_site_B_iso_or_equiv
  _atom_site_type_symbol
  Zr1      1.0000 0.12662  0.00883  0.12092  Biso   1.000  Zr
  Zr2      1.0000 0.13615  0.22958  0.38161  Biso   1.000  Zr
  Zr3      1.0000 0.40400  0.25253  0.10417  Biso   1.000  Zr
  Zr4      1.0000 0.36724  0.47817  0.37074  Biso   1.000  Zr
  Zr5      1.0000 0.01567  0.17425  0.20252  Biso   1.000  Zr
  Zr6      1.0000 0.03439  0.06321  0.44580  Biso   1.000  Zr
  Zr7      1.0000 0.46888  0.42200  0.19550  Biso   1.000  Zr
  Zr8      1.0000 0.47106  0.32137  0.45470  Biso   1.000  Zr
  Zr9      1.0000 0.25019  0.10599  0.24863  Biso   1.000  Zr
  Zr10     1.0000 0.27226  0.13534  0.49892  Biso   1.000  Zr
  Zr11     1.0000 0.23250  0.38247  0.49549  Biso   1.000  Zr
  Zr12     1.0000 0.22845  0.35967  0.24527  Biso   1.000  Zr
  Zr13     1.0000 0.13598  0.00832  0.61881  Biso   1.000  Zr
  Zr14     1.0000 0.12347  0.23462  0.84656  Biso   1.000  Zr
  Zr15     1.0000 0.37483  0.26368  0.62664  Biso   1.000  Zr
  Zr16     1.0000 0.36437  0.49020  0.87232  Biso   1.000  Zr
  Zr17     1.0000 0.03274  0.17548  0.68074  Biso   1.000  Zr
  Zr18     1.0000 0.03539  0.06288  0.93426  Biso   1.000  Zr
  Zr19     1.0000 0.46657  0.43490  0.69298  Biso   1.000  Zr
  Zr20     1.0000 0.46474  0.32674  0.92844  Biso   1.000  Zr
  Zr21     1.0000 0.26691  0.11290  0.74646  Biso   1.000  Zr
  Zr22     1.0000 0.24166  0.15901  0.00549  Biso   1.000  Zr
  Zr23     1.0000 0.22992  0.40159  0.99725  Biso   1.000  Zr
  Zr24     1.0000 0.23660  0.36585  0.74296  Biso   1.000  Zr
  Zr25     1.0000 0.13540  0.53897  0.12488  Biso   1.000  Zr
  Zr26     1.0000 0.13881  0.73849  0.37623  Biso   1.000  Zr
  Zr27     1.0000 0.37147  0.76748  0.12253  Biso   1.000  Zr
  Zr28     1.0000 0.37761  0.99507  0.36384  Biso   1.000  Zr
  Zr29     1.0000 0.03043  0.68754  0.20228  Biso   1.000  Zr
  Zr30     1.0000 0.03615  0.56742  0.44573  Biso   1.000  Zr
  Zr31     1.0000 0.46957  0.92416  0.19536  Biso   1.000  Zr
  Zr32     1.0000 0.47022  0.82142  0.44560  Biso   1.000  Zr
  Zr33     1.0000 0.27437  0.61823  0.24775  Biso   1.000  Zr
  Zr34     1.0000 0.27084  0.63348  0.49661  Biso   1.000  Zr
  Zr35     1.0000 0.23735  0.88597  0.49164  Biso   1.000  Zr
  Zr36     1.0000 0.23058  0.86230  0.24157  Biso   1.000  Zr
  Zr37     1.0000 0.13747  0.51493  0.62148  Biso   1.000  Zr
  Zr38     1.0000 0.13130  0.73966  0.86801  Biso   1.000  Zr
  Zr39     1.0000 0.37136  0.76553  0.61940  Biso   1.000  Zr
  Zr40     1.0000 0.36636  0.98575  0.87066  Biso   1.000  Zr
  Zr41     1.0000 0.03208  0.67667  0.69553  Biso   1.000  Zr
  Zr42     1.0000 0.03230  0.57485  0.94788  Biso   1.000  Zr
  Zr43     1.0000 0.47129  0.92795  0.70484  Biso   1.000  Zr
  Zr44     1.0000 0.46889  0.82272  0.94543  Biso   1.000  Zr
  Zr45     1.0000 0.26765  0.61679  0.74444  Biso   1.000  Zr
  Zr46     1.0000 0.26510  0.64662  0.99449  Biso   1.000  Zr
  Zr47     1.0000 0.23425  0.89143  0.99258  Biso   1.000  Zr
  Zr48     1.0000 0.23438  0.86391  0.74191  Biso   1.000  Zr
  Zr49     1.0000 0.63234  0.02317  0.12563  Biso   1.000  Zr
  Zr50     1.0000 0.63265  0.22999  0.38474  Biso   1.000  Zr
  Zr51     1.0000 0.84166  0.26191  0.12630  Biso   1.000  Zr
  Zr52     1.0000 0.87147  0.48299  0.37197  Biso   1.000  Zr
  Zr53     1.0000 0.50375  0.15197  0.24523  Biso   1.000  Zr
  Zr54     1.0000 0.53122  0.06964  0.47049  Biso   1.000  Zr
  Zr55     1.0000 0.97378  0.42657  0.18900  Biso   1.000  Zr
  Zr56     1.0000 0.96727  0.31848  0.44789  Biso   1.000  Zr
  Zr57     1.0000 0.76070  0.11741  0.25349  Biso   1.000  Zr
  Zr58     1.0000 0.77028  0.13215  0.50146  Biso   1.000  Zr
  Zr59     1.0000 0.73564  0.38432  0.50084  Biso   1.000  Zr
  Zr60     1.0000 0.72615  0.36851  0.25540  Biso   1.000  Zr
  Zr61     1.0000 0.63752  0.01425  0.63221  Biso   1.000  Zr
  Zr62     1.0000 0.63787  0.23530  0.88353  Biso   1.000  Zr
  Zr63     1.0000 0.86226  0.26707  0.62418  Biso   1.000  Zr
  Zr64     1.0000 0.87147  0.48649  0.87481  Biso   1.000  Zr
  Zr65     1.0000 0.53172  0.17602  0.71249  Biso   1.000  Zr
  Zr66     1.0000 0.50520  0.08533  0.97437  Biso   1.000  Zr
  Zr67     1.0000 0.97812  0.42025  0.70856  Biso   1.000  Zr
  Zr68     1.0000 0.97555  0.31101  0.95924  Biso   1.000  Zr
  Zr69     1.0000 0.77208  0.11708  0.74984  Biso   1.000  Zr
  Zr70     1.0000 0.77655  0.12240  0.99426  Biso   1.000  Zr
  Zr71     1.0000 0.73846  0.38858  0.99525  Biso   1.000  Zr
  Zr72     1.0000 0.73280  0.36739  0.75011  Biso   1.000  Zr
  Zr73     1.0000 0.63317  0.51515  0.12568  Biso   1.000  Zr
  Zr74     1.0000 0.63390  0.73246  0.37552  Biso   1.000  Zr
  Zr75     1.0000 0.85935  0.76604  0.12598  Biso   1.000  Zr
  Zr76     1.0000 0.86679  0.98314  0.37539  Biso   1.000  Zr
  Zr77     1.0000 0.53525  0.67806  0.19775  Biso   1.000  Zr
  Zr78     1.0000 0.53268  0.56693  0.44490  Biso   1.000  Zr
  Zr79     1.0000 0.95979  0.93132  0.19609  Biso   1.000  Zr
  Zr80     1.0000 0.96929  0.81798  0.44790  Biso   1.000  Zr
  Zr81     1.0000 0.77125  0.61408  0.24663  Biso   1.000  Zr
  Zr82     1.0000 0.77035  0.63233  0.49655  Biso   1.000  Zr
  Zr83     1.0000 0.73337  0.88340  0.50073  Biso   1.000  Zr
  Zr84     1.0000 0.72957  0.86595  0.25147  Biso   1.000  Zr
  Zr85     1.0000 0.63394  0.51460  0.62458  Biso   1.000  Zr
  Zr86     1.0000 0.63365  0.73357  0.87572  Biso   1.000  Zr
  Zr87     1.0000 0.86624  0.76338  0.62298  Biso   1.000  Zr
  Zr88     1.0000 0.86772  0.97943  0.87490  Biso   1.000  Zr
  Zr89     1.0000 0.53582  0.68179  0.69632  Biso   1.000  Zr
  Zr90     1.0000 0.52999  0.57147  0.95127  Biso   1.000  Zr
  Zr91     1.0000 0.97065  0.92523  0.69697  Biso   1.000  Zr
  Zr92     1.0000 0.96790  0.81785  0.95265  Biso   1.000  Zr
  Zr93     1.0000 0.77109  0.61354  0.74820  Biso   1.000  Zr
  Zr94     1.0000 0.76778  0.63417  0.99767  Biso   1.000  Zr
  Zr95     1.0000 0.72678  0.88196  0.00001  Biso   1.000  Zr
  Zr96     1.0000 0.73439  0.86321  0.74976  Biso   1.000  Zr
  Mg1      1.0000 0.11865  0.28965  0.10477  Biso   1.000  Mg
