data_image0
_cell_length_a       10.0557
_cell_length_b       10.1831
_cell_length_c       10.0557
_cell_angle_alpha    89.9336
_cell_angle_beta     90.2938
_cell_angle_gamma    89.9354

_symmetry_space_group_name_H-M    "P 1"
_symmetry_int_tables_number       1

loop_
  _symmetry_equiv_pos_as_xyz
  'x, y, z'

loop_
  _atom_site_label
  _atom_site_occupancy
  _atom_site_fract_x
  _atom_site_fract_y
  _atom_site_fract_z
  _atom_site_thermal_displace_type
  _atom_site_B_iso_or_equiv
  _atom_site_type_symbol
  Mn1      1.0000 0.12115  0.01350  0.12115  Biso   1.000  Mn
  Zr1      1.0000 0.12446  0.00253  0.62539  Biso   1.000  Zr
  Zr2      1.0000 0.12499  0.49856  0.12499  Biso   1.000  Zr
  Zr3      1.0000 0.12571  0.50069  0.62478  Biso   1.000  Zr
  Zr4      1.0000 0.62539  0.00253  0.12447  Biso   1.000  Zr
  Zr5      1.0000 0.62458  0.99866  0.62458  Biso   1.000  Zr
  Zr6      1.0000 0.62479  0.50070  0.12571  Biso   1.000  Zr
  Zr7      1.0000 0.62493  0.50145  0.62493  Biso   1.000  Zr
  Zr8      1.0000 0.12778  0.25090  0.37668  Biso   1.000  Zr
  Zr9      1.0000 0.12333  0.25064  0.87518  Biso   1.000  Zr
  Zr10     1.0000 0.12096  0.74965  0.37312  Biso   1.000  Zr
  Zr11     1.0000 0.12915  0.74770  0.87559  Biso   1.000  Zr
  Zr12     1.0000 0.62625  0.24895  0.37565  Biso   1.000  Zr
  Zr13     1.0000 0.62438  0.24951  0.87471  Biso   1.000  Zr
  Zr14     1.0000 0.62167  0.75223  0.37390  Biso   1.000  Zr
  Zr15     1.0000 0.62762  0.75132  0.87623  Biso   1.000  Zr
  Zr16     1.0000 0.37668  0.25090  0.12778  Biso   1.000  Zr
  Zr17     1.0000 0.37565  0.24895  0.62625  Biso   1.000  Zr
  Zr18     1.0000 0.37313  0.74964  0.12095  Biso   1.000  Zr
  Zr19     1.0000 0.37390  0.75223  0.62167  Biso   1.000  Zr
  Zr20     1.0000 0.87519  0.25064  0.12333  Biso   1.000  Zr
  Zr21     1.0000 0.87471  0.24951  0.62438  Biso   1.000  Zr
  Zr22     1.0000 0.87560  0.74770  0.12915  Biso   1.000  Zr
  Zr23     1.0000 0.87623  0.75132  0.62762  Biso   1.000  Zr
  Zr24     1.0000 0.36982  0.00265  0.36982  Biso   1.000  Zr
  Zr25     1.0000 0.37602  0.99622  0.87428  Biso   1.000  Zr
  Zr26     1.0000 0.37619  0.50207  0.37619  Biso   1.000  Zr
  Zr27     1.0000 0.37698  0.49953  0.87346  Biso   1.000  Zr
  Zr28     1.0000 0.87429  0.99622  0.37602  Biso   1.000  Zr
  Zr29     1.0000 0.87842  0.00174  0.87843  Biso   1.000  Zr
  Zr30     1.0000 0.87346  0.49954  0.37698  Biso   1.000  Zr
  Zr31     1.0000 0.87408  0.50147  0.87408  Biso   1.000  Zr
  Zr32     1.0000 0.99194  0.14584  0.99194  Biso   1.000  Zr
  Zr33     1.0000 0.99121  0.14391  0.48718  Biso   1.000  Zr
  Zr34     1.0000 0.99652  0.64887  0.99652  Biso   1.000  Zr
  Zr35     1.0000 0.99602  0.64386  0.49717  Biso   1.000  Zr
  Zr36     1.0000 0.48718  0.14390  0.99121  Biso   1.000  Zr
  Zr37     1.0000 0.49140  0.14461  0.49141  Biso   1.000  Zr
  Zr38     1.0000 0.49717  0.64386  0.99602  Biso   1.000  Zr
  Zr39     1.0000 0.49633  0.64430  0.49633  Biso   1.000  Zr
  Zr40     1.0000 0.01619  0.09374  0.23736  Biso   1.000  Zr
  Zr41     1.0000 0.00451  0.10848  0.74393  Biso   1.000  Zr
  Zr42     1.0000 0.00169  0.60033  0.24753  Biso   1.000  Zr
  Zr43     1.0000 0.00278  0.60656  0.74753  Biso   1.000  Zr
  Zr44     1.0000 0.50901  0.10858  0.24573  Biso   1.000  Zr
  Zr45     1.0000 0.50560  0.10712  0.74479  Biso   1.000  Zr
  Zr46     1.0000 0.50199  0.60750  0.24768  Biso   1.000  Zr
  Zr47     1.0000 0.50303  0.60724  0.74777  Biso   1.000  Zr
  Zr48     1.0000 0.99780  0.34962  0.25321  Biso   1.000  Zr
  Zr49     1.0000 0.99597  0.35663  0.75364  Biso   1.000  Zr
  Zr50     1.0000 0.97297  0.84371  0.27571  Biso   1.000  Zr
  Zr51     1.0000 0.99262  0.85679  0.76880  Biso   1.000  Zr
  Zr52     1.0000 0.49788  0.35766  0.25423  Biso   1.000  Zr
  Zr53     1.0000 0.49631  0.35681  0.75392  Biso   1.000  Zr
  Zr54     1.0000 0.48024  0.85738  0.25749  Biso   1.000  Zr
  Zr55     1.0000 0.49459  0.85591  0.75539  Biso   1.000  Zr
  Zr56     1.0000 0.00173  0.39597  0.00172  Biso   1.000  Zr
  Zr57     1.0000 0.00265  0.39353  0.50267  Biso   1.000  Zr
  Zr58     1.0000 0.02288  0.90407  0.02289  Biso   1.000  Zr
  Zr59     1.0000 0.00182  0.89292  0.51429  Biso   1.000  Zr
  Zr60     1.0000 0.50268  0.39352  0.00265  Biso   1.000  Zr
  Zr61     1.0000 0.50280  0.39369  0.50280  Biso   1.000  Zr
  Zr62     1.0000 0.51429  0.89292  0.00181  Biso   1.000  Zr
  Zr63     1.0000 0.50276  0.89427  0.50275  Biso   1.000  Zr
  Zr64     1.0000 0.26552  0.15291  0.26552  Biso   1.000  Zr
  Zr65     1.0000 0.25914  0.14384  0.76468  Biso   1.000  Zr
  Zr66     1.0000 0.25253  0.65053  0.25253  Biso   1.000  Zr
  Zr67     1.0000 0.25457  0.64345  0.75191  Biso   1.000  Zr
  Zr68     1.0000 0.76468  0.14384  0.25914  Biso   1.000  Zr
  Zr69     1.0000 0.75901  0.14459  0.75901  Biso   1.000  Zr
  Zr70     1.0000 0.75191  0.64345  0.25457  Biso   1.000  Zr
  Zr71     1.0000 0.75437  0.64437  0.75437  Biso   1.000  Zr
  Zr72     1.0000 0.23736  0.09374  0.01619  Biso   1.000  Zr
  Zr73     1.0000 0.24573  0.10858  0.50900  Biso   1.000  Zr
  Zr74     1.0000 0.24753  0.60033  0.00168  Biso   1.000  Zr
  Zr75     1.0000 0.24768  0.60750  0.50199  Biso   1.000  Zr
  Zr76     1.0000 0.74393  0.10848  0.00450  Biso   1.000  Zr
  Zr77     1.0000 0.74479  0.10713  0.50560  Biso   1.000  Zr
  Zr78     1.0000 0.74753  0.60657  0.00278  Biso   1.000  Zr
  Zr79     1.0000 0.74777  0.60724  0.50303  Biso   1.000  Zr
  Zr80     1.0000 0.25321  0.34962  0.99780  Biso   1.000  Zr
  Zr81     1.0000 0.25423  0.35766  0.49788  Biso   1.000  Zr
  Zr82     1.0000 0.27570  0.84371  0.97297  Biso   1.000  Zr
  Zr83     1.0000 0.25750  0.85737  0.48024  Biso   1.000  Zr
  Zr84     1.0000 0.75364  0.35663  0.99597  Biso   1.000  Zr
  Zr85     1.0000 0.75392  0.35681  0.49631  Biso   1.000  Zr
  Zr86     1.0000 0.76880  0.85679  0.99262  Biso   1.000  Zr
  Zr87     1.0000 0.75540  0.85591  0.49460  Biso   1.000  Zr
  Zr88     1.0000 0.24891  0.39863  0.24891  Biso   1.000  Zr
  Zr89     1.0000 0.24734  0.39333  0.74864  Biso   1.000  Zr
  Zr90     1.0000 0.22484  0.90804  0.22485  Biso   1.000  Zr
  Zr91     1.0000 0.24853  0.89290  0.73514  Biso   1.000  Zr
  Zr92     1.0000 0.74864  0.39333  0.24734  Biso   1.000  Zr
  Zr93     1.0000 0.74738  0.39379  0.74738  Biso   1.000  Zr
  Zr94     1.0000 0.73514  0.89290  0.24853  Biso   1.000  Zr
  Zr95     1.0000 0.74714  0.89440  0.74714  Biso   1.000  Zr
