data_image0
_cell_length_a       10.148
_cell_length_b       5.17323
_cell_length_c       10.5743
_cell_angle_alpha    89.5439
_cell_angle_beta     90.7563
_cell_angle_gamma    89.8811

_symmetry_space_group_name_H-M    "P 1"
_symmetry_int_tables_number       1

loop_
  _symmetry_equiv_pos_as_xyz
  'x, y, z'

loop_
  _atom_site_label
  _atom_site_occupancy
  _atom_site_fract_x
  _atom_site_fract_y
  _atom_site_fract_z
  _atom_site_thermal_displace_type
  _atom_site_B_iso_or_equiv
  _atom_site_type_symbol
  Zr1      1.0000 0.14045  0.04138  0.17186  Biso   1.000  Zr
  Zr2      1.0000 0.13575  0.45964  0.42196  Biso   1.000  Zr
  Zr3      1.0000 0.35618  0.53969  0.17599  Biso   1.000  Zr
  Zr4      1.0000 0.36014  0.95984  0.42532  Biso   1.000  Zr
  Zr5      1.0000 0.64174  0.06173  0.06970  Biso   1.000  Zr
  Zr6      1.0000 0.63286  0.46721  0.33939  Biso   1.000  Zr
  Zr7      1.0000 0.87530  0.54857  0.07526  Biso   1.000  Zr
  Zr8      1.0000 0.86169  0.96111  0.33157  Biso   1.000  Zr
  O1       1.0000 0.03742  0.31945  0.07606  Biso   1.000  O
  O2       1.0000 0.02642  0.18832  0.32542  Biso   1.000  O
  O3       1.0000 0.47796  0.79454  0.07573  Biso   1.000  O
  O4       1.0000 0.46200  0.67533  0.33536  Biso   1.000  O
  O5       1.0000 0.27016  0.24956  0.29757  Biso   1.000  O
  O6       1.0000 0.27896  0.24411  0.04457  Biso   1.000  O
  O7       1.0000 0.22119  0.74963  0.29692  Biso   1.000  O
  O8       1.0000 0.22666  0.74810  0.04597  Biso   1.000  O
  O9       1.0000 0.51508  0.29073  0.17791  Biso   1.000  O
  O10      1.0000 0.52897  0.17392  0.42563  Biso   1.000  O
  O11      1.0000 0.97028  0.83146  0.17066  Biso   1.000  O
  O12      1.0000 0.96628  0.68223  0.41988  Biso   1.000  O
  O13      1.0000 0.77707  0.24507  0.45430  Biso   1.000  O
  O14      1.0000 0.75759  0.30678  0.19444  Biso   1.000  O
  O15      1.0000 0.72452  0.74835  0.46227  Biso   1.000  O
  O16      1.0000 0.72386  0.78858  0.21113  Biso   1.000  O
  Zr9      1.0000 0.13921  0.03931  0.66963  Biso   1.000  Zr
  Zr10     1.0000 0.14412  0.44938  0.91835  Biso   1.000  Zr
  Zr11     1.0000 0.36428  0.53742  0.67173  Biso   1.000  Zr
  Zr12     1.0000 0.36154  0.94693  0.91893  Biso   1.000  Zr
  Zr13     1.0000 0.63932  0.04209  0.58182  Biso   1.000  Zr
  Zr14     1.0000 0.64075  0.45106  0.83319  Biso   1.000  Zr
  Zr15     1.0000 0.86067  0.54044  0.58174  Biso   1.000  Zr
  Zr16     1.0000 0.86541  0.95521  0.82746  Biso   1.000  Zr
  O17      1.0000 0.03083  0.32356  0.57865  Biso   1.000  O
  O18      1.0000 0.03536  0.17306  0.82729  Biso   1.000  O
  O19      1.0000 0.46840  0.82639  0.58531  Biso   1.000  O
  O20      1.0000 0.46746  0.66072  0.83347  Biso   1.000  O
  O21      1.0000 0.27773  0.24026  0.79396  Biso   1.000  O
  O22      1.0000 0.27320  0.25107  0.54551  Biso   1.000  O
  O23      1.0000 0.22625  0.74239  0.79434  Biso   1.000  O
  O24      1.0000 0.22487  0.75006  0.54559  Biso   1.000  O
  O25      1.0000 0.53368  0.32698  0.66903  Biso   1.000  O
  O26      1.0000 0.53263  0.14859  0.90812  Biso   1.000  O
  O27      1.0000 0.96978  0.82450  0.66623  Biso   1.000  O
  O28      1.0000 0.97539  0.67412  0.91521  Biso   1.000  O
  O29      1.0000 0.78939  0.23501  0.94737  Biso   1.000  O
  O30      1.0000 0.77725  0.24854  0.70305  Biso   1.000  O
  O31      1.0000 0.72460  0.73679  0.96485  Biso   1.000  O
  O32      1.0000 0.72706  0.74854  0.71111  Biso   1.000  O
  Mn1      1.0000 0.62100  0.55264  0.10846  Biso   1.000  Mn
