data_image0
_cell_length_a       9.98071
_cell_length_b       10.4306
_cell_length_c       5.01901
_cell_angle_alpha    90.733
_cell_angle_beta     89.2537
_cell_angle_gamma    90.3917

_symmetry_space_group_name_H-M    "P 1"
_symmetry_int_tables_number       1

loop_
  _symmetry_equiv_pos_as_xyz
  'x, y, z'

loop_
  _atom_site_label
  _atom_site_occupancy
  _atom_site_fract_x
  _atom_site_fract_y
  _atom_site_fract_z
  _atom_site_thermal_displace_type
  _atom_site_B_iso_or_equiv
  _atom_site_type_symbol
  Mn1      1.0000 0.12245  0.03734  0.21900  Biso   1.000  Mn
  Zr1      1.0000 0.13472  0.51402  0.25173  Biso   1.000  Zr
  Zr2      1.0000 0.62956  0.01383  0.24287  Biso   1.000  Zr
  Zr3      1.0000 0.63297  0.51778  0.25231  Biso   1.000  Zr
  Zr4      1.0000 0.13140  0.23340  0.73968  Biso   1.000  Zr
  Zr5      1.0000 0.13484  0.73478  0.76525  Biso   1.000  Zr
  Zr6      1.0000 0.63171  0.23371  0.74856  Biso   1.000  Zr
  Zr7      1.0000 0.63368  0.73887  0.74967  Biso   1.000  Zr
  Zr8      1.0000 0.36546  0.26190  0.24392  Biso   1.000  Zr
  Zr9      1.0000 0.36531  0.76679  0.26278  Biso   1.000  Zr
  Zr10     1.0000 0.86392  0.26597  0.24338  Biso   1.000  Zr
  Zr11     1.0000 0.87518  0.76513  0.23804  Biso   1.000  Zr
  Zr12     1.0000 0.36710  0.48508  0.75051  Biso   1.000  Zr
  Zr13     1.0000 0.35643  0.98255  0.76194  Biso   1.000  Zr
  Zr14     1.0000 0.86419  0.48584  0.74762  Biso   1.000  Zr
  Zr15     1.0000 0.86802  0.98903  0.74017  Biso   1.000  Zr
  Zr16     1.0000 0.03304  0.18200  0.37883  Biso   1.000  Zr
  Zr17     1.0000 0.03672  0.68523  0.39478  Biso   1.000  Zr
  Zr18     1.0000 0.52953  0.18183  0.39778  Biso   1.000  Zr
  Zr19     1.0000 0.53426  0.68332  0.40078  Biso   1.000  Zr
  Zr20     1.0000 0.03332  0.06687  0.91123  Biso   1.000  Zr
  Zr21     1.0000 0.03103  0.56701  0.90057  Biso   1.000  Zr
  Zr22     1.0000 0.52818  0.07159  0.90254  Biso   1.000  Zr
  Zr23     1.0000 0.53580  0.56984  0.89140  Biso   1.000  Zr
  Zr24     1.0000 0.46436  0.43204  0.38715  Biso   1.000  Zr
  Zr25     1.0000 0.47323  0.93032  0.41714  Biso   1.000  Zr
  Zr26     1.0000 0.96547  0.43115  0.39066  Biso   1.000  Zr
  Zr27     1.0000 0.99797  0.94435  0.38000  Biso   1.000  Zr
  Zr28     1.0000 0.46342  0.31778  0.89011  Biso   1.000  Zr
  Zr29     1.0000 0.46692  0.82315  0.91234  Biso   1.000  Zr
  Zr30     1.0000 0.96190  0.31503  0.87947  Biso   1.000  Zr
  Zr31     1.0000 0.96233  0.82002  0.87710  Biso   1.000  Zr
  Zr32     1.0000 0.25159  0.10107  0.47859  Biso   1.000  Zr
  Zr33     1.0000 0.26666  0.60907  0.50264  Biso   1.000  Zr
  Zr34     1.0000 0.76753  0.11541  0.48653  Biso   1.000  Zr
  Zr35     1.0000 0.77061  0.61671  0.49617  Biso   1.000  Zr
  Zr36     1.0000 0.26125  0.13512  0.99078  Biso   1.000  Zr
  Zr37     1.0000 0.27029  0.63495  0.00356  Biso   1.000  Zr
  Zr38     1.0000 0.76874  0.13422  0.98628  Biso   1.000  Zr
  Zr39     1.0000 0.76821  0.63764  0.99765  Biso   1.000  Zr
  Zr40     1.0000 0.22849  0.38376  0.99292  Biso   1.000  Zr
  Zr41     1.0000 0.22168  0.89366  0.04334  Biso   1.000  Zr
  Zr42     1.0000 0.72942  0.38459  0.99613  Biso   1.000  Zr
  Zr43     1.0000 0.73269  0.88765  0.98731  Biso   1.000  Zr
  Zr44     1.0000 0.23214  0.36088  0.49363  Biso   1.000  Zr
  Zr45     1.0000 0.24849  0.84968  0.54390  Biso   1.000  Zr
  Zr46     1.0000 0.72832  0.36650  0.49468  Biso   1.000  Zr
  Zr47     1.0000 0.74561  0.86677  0.48633  Biso   1.000  Zr
