data_image0
_cell_length_a       10.2236
_cell_length_b       5.2199
_cell_length_c       10.457
_cell_angle_alpha    90.5946
_cell_angle_beta     79.4828
_cell_angle_gamma    90.1934

_symmetry_space_group_name_H-M    "P 1"
_symmetry_int_tables_number       1

loop_
  _symmetry_equiv_pos_as_xyz
  'x, y, z'

loop_
  _atom_site_label
  _atom_site_occupancy
  _atom_site_fract_x
  _atom_site_fract_y
  _atom_site_fract_z
  _atom_site_thermal_displace_type
  _atom_site_B_iso_or_equiv
  _atom_site_type_symbol
  Zr1      1.0000 0.13344  0.05126  0.14301  Biso   1.000  Zr
  Zr2      1.0000 0.14079  0.46261  0.39255  Biso   1.000  Zr
  Zr3      1.0000 0.35079  0.55310  0.09957  Biso   1.000  Zr
  Zr4      1.0000 0.35752  0.91953  0.34710  Biso   1.000  Zr
  O1       1.0000 0.03185  0.35140  0.07950  Biso   1.000  O
  O2       1.0000 0.03295  0.16751  0.32978  Biso   1.000  O
  O3       1.0000 0.45918  0.86375  0.15901  Biso   1.000  O
  O4       1.0000 0.47156  0.64712  0.41838  Biso   1.000  O
  O5       1.0000 0.27341  0.25642  0.23620  Biso   1.000  O
  O6       1.0000 0.29146  0.25486  0.47462  Biso   1.000  O
  O7       1.0000 0.21837  0.77130  0.00204  Biso   1.000  O
  O8       1.0000 0.20586  0.74983  0.24992  Biso   1.000  O
  Zr5      1.0000 0.13742  0.04278  0.64388  Biso   1.000  Zr
  Zr6      1.0000 0.13427  0.46298  0.89329  Biso   1.000  Zr
  Zr7      1.0000 0.36254  0.54319  0.60679  Biso   1.000  Zr
  Zr8      1.0000 0.35919  0.96201  0.85391  Biso   1.000  Zr
  O9       1.0000 0.04064  0.34173  0.58139  Biso   1.000  O
  O10      1.0000 0.03482  0.15697  0.83232  Biso   1.000  O
  O11      1.0000 0.46438  0.84659  0.66826  Biso   1.000  O
  O12      1.0000 0.46234  0.65800  0.91630  Biso   1.000  O
  O13      1.0000 0.27441  0.25688  0.73661  Biso   1.000  O
  O14      1.0000 0.27186  0.25153  0.98652  Biso   1.000  O
  O15      1.0000 0.22327  0.75823  0.51088  Biso   1.000  O
  O16      1.0000 0.22397  0.74230  0.75669  Biso   1.000  O
  Zr9      1.0000 0.63593  0.04326  0.15249  Biso   1.000  Zr
  Zr10     1.0000 0.64848  0.45336  0.40253  Biso   1.000  Zr
  Zr11     1.0000 0.85729  0.54609  0.10704  Biso   1.000  Zr
  Zr12     1.0000 0.86224  0.95733  0.35656  Biso   1.000  Zr
  O17      1.0000 0.52799  0.36768  0.11394  Biso   1.000  O
  O18      1.0000 0.54329  0.12624  0.34897  Biso   1.000  O
  O19      1.0000 0.95934  0.85025  0.16563  Biso   1.000  O
  O20      1.0000 0.96384  0.66484  0.42157  Biso   1.000  O
  O21      1.0000 0.77741  0.26124  0.24411  Biso   1.000  O
  O22      1.0000 0.78119  0.23863  0.49780  Biso   1.000  O
  O23      1.0000 0.72104  0.76288  0.01331  Biso   1.000  O
  O24      1.0000 0.72417  0.74362  0.26301  Biso   1.000  O
  Zr13     1.0000 0.63948  0.04589  0.65008  Biso   1.000  Zr
  Zr14     1.0000 0.63657  0.46687  0.90115  Biso   1.000  Zr
  Zr15     1.0000 0.86332  0.54377  0.60770  Biso   1.000  Zr
  Zr16     1.0000 0.85832  0.96200  0.85858  Biso   1.000  Zr
  O25      1.0000 0.53857  0.34688  0.58982  Biso   1.000  O
  O26      1.0000 0.53549  0.15879  0.84097  Biso   1.000  O
  O27      1.0000 0.96347  0.84472  0.67092  Biso   1.000  O
  O28      1.0000 0.95850  0.65788  0.91636  Biso   1.000  O
  O29      1.0000 0.77526  0.26238  0.74644  Biso   1.000  O
  O30      1.0000 0.76683  0.24621  0.99650  Biso   1.000  O
  O31      1.0000 0.72591  0.75745  0.51519  Biso   1.000  O
  O32      1.0000 0.72324  0.74241  0.76409  Biso   1.000  O
  Mn1      1.0000 0.41765  0.37741  0.30912  Biso   1.000  Mn
