data_image0
_cell_length_a       10.0497
_cell_length_b       5.02545
_cell_length_c       10.1685
_cell_angle_alpha    89.9997
_cell_angle_beta     90.0006
_cell_angle_gamma    90.0002

_symmetry_space_group_name_H-M    "P 1"
_symmetry_int_tables_number       1

loop_
  _symmetry_equiv_pos_as_xyz
  'x, y, z'

loop_
  _atom_site_label
  _atom_site_occupancy
  _atom_site_fract_x
  _atom_site_fract_y
  _atom_site_fract_z
  _atom_site_thermal_displace_type
  _atom_site_B_iso_or_equiv
  _atom_site_type_symbol
  Mo1      1.0000 0.12542  0.00013  0.12544  Biso   1.000  Mo
  Zr1      1.0000 0.12542  0.50013  0.37449  Biso   1.000  Zr
  Zr2      1.0000 0.37444  0.50013  0.12542  Biso   1.000  Zr
  Zr3      1.0000 0.37454  0.00266  0.37468  Biso   1.000  Zr
  Zr4      1.0000 0.99376  0.26488  0.98244  Biso   1.000  Zr
  Zr5      1.0000 0.00885  0.23652  0.22783  Biso   1.000  Zr
  Zr6      1.0000 0.99379  0.73543  0.26840  Biso   1.000  Zr
  Zr7      1.0000 0.00885  0.76377  0.02302  Biso   1.000  Zr
  Zr8      1.0000 0.25705  0.26484  0.26840  Biso   1.000  Zr
  Zr9      1.0000 0.24197  0.23651  0.02302  Biso   1.000  Zr
  Zr10     1.0000 0.25705  0.73541  0.98245  Biso   1.000  Zr
  Zr11     1.0000 0.24199  0.76374  0.22783  Biso   1.000  Zr
  Zr12     1.0000 0.12541  0.00015  0.62542  Biso   1.000  Zr
  Zr13     1.0000 0.12541  0.50014  0.87636  Biso   1.000  Zr
  Zr14     1.0000 0.37617  0.50016  0.62543  Biso   1.000  Zr
  Zr15     1.0000 0.37452  0.99761  0.87618  Biso   1.000  Zr
  Zr16     1.0000 0.99625  0.25694  0.47931  Biso   1.000  Zr
  Zr17     1.0000 0.00313  0.24666  0.73096  Biso   1.000  Zr
  Zr18     1.0000 0.99623  0.74331  0.77154  Biso   1.000  Zr
  Zr19     1.0000 0.00313  0.75359  0.51989  Biso   1.000  Zr
  Zr20     1.0000 0.25458  0.25696  0.77154  Biso   1.000  Zr
  Zr21     1.0000 0.24770  0.24669  0.51990  Biso   1.000  Zr
  Zr22     1.0000 0.25458  0.74334  0.47931  Biso   1.000  Zr
  Zr23     1.0000 0.24769  0.75361  0.73096  Biso   1.000  Zr
  Zr24     1.0000 0.62541  0.00013  0.12542  Biso   1.000  Zr
  Zr25     1.0000 0.62542  0.50014  0.37527  Biso   1.000  Zr
  Zr26     1.0000 0.87638  0.50013  0.12542  Biso   1.000  Zr
  Zr27     1.0000 0.87630  0.99760  0.37467  Biso   1.000  Zr
  Zr28     1.0000 0.49139  0.26245  0.98098  Biso   1.000  Zr
  Zr29     1.0000 0.50586  0.24469  0.23199  Biso   1.000  Zr
  Zr30     1.0000 0.49140  0.73782  0.26987  Biso   1.000  Zr
  Zr31     1.0000 0.50586  0.75556  0.01886  Biso   1.000  Zr
  Zr32     1.0000 0.75944  0.26247  0.26987  Biso   1.000  Zr
  Zr33     1.0000 0.74496  0.24471  0.01887  Biso   1.000  Zr
  Zr34     1.0000 0.75943  0.73782  0.98098  Biso   1.000  Zr
  Zr35     1.0000 0.74498  0.75558  0.23199  Biso   1.000  Zr
  Zr36     1.0000 0.62541  0.00016  0.62543  Biso   1.000  Zr
  Zr37     1.0000 0.62541  0.50013  0.87558  Biso   1.000  Zr
  Zr38     1.0000 0.87466  0.50014  0.62543  Biso   1.000  Zr
  Zr39     1.0000 0.87630  0.00265  0.87618  Biso   1.000  Zr
  Zr40     1.0000 0.49640  0.25573  0.48107  Biso   1.000  Zr
  Zr41     1.0000 0.50357  0.24790  0.73136  Biso   1.000  Zr
  Zr42     1.0000 0.49639  0.74457  0.76979  Biso   1.000  Zr
  Zr43     1.0000 0.50357  0.75241  0.51950  Biso   1.000  Zr
  Zr44     1.0000 0.75442  0.25569  0.76979  Biso   1.000  Zr
  Zr45     1.0000 0.74725  0.24788  0.51949  Biso   1.000  Zr
  Zr46     1.0000 0.75443  0.74456  0.48106  Biso   1.000  Zr
  Zr47     1.0000 0.74724  0.75237  0.73135  Biso   1.000  Zr
