data_image0
_cell_length_a       10.144
_cell_length_b       5.21913
_cell_length_c       10.144
_cell_angle_alpha    90.0001
_cell_angle_beta     88.3087
_cell_angle_gamma    90.0001

_symmetry_space_group_name_H-M    "P 1"
_symmetry_int_tables_number       1

loop_
  _symmetry_equiv_pos_as_xyz
  'x, y, z'

loop_
  _atom_site_label
  _atom_site_occupancy
  _atom_site_fract_x
  _atom_site_fract_y
  _atom_site_fract_z
  _atom_site_thermal_displace_type
  _atom_site_B_iso_or_equiv
  _atom_site_type_symbol
  Zr1      1.0000 0.12536  0.86703  0.12536  Biso   1.000  Zr
  Zr2      1.0000 0.13880  0.51235  0.39027  Biso   1.000  Zr
  Zr3      1.0000 0.39027  0.51235  0.13880  Biso   1.000  Zr
  Zr4      1.0000 0.38262  0.02014  0.38262  Biso   1.000  Zr
  Zr5      1.0000 0.98201  0.30546  0.98201  Biso   1.000  Zr
  Zr6      1.0000 0.01025  0.11892  0.24046  Biso   1.000  Zr
  Zr7      1.0000 0.00118  0.61448  0.24954  Biso   1.000  Zr
  Zr8      1.0000 0.98521  0.80407  0.98521  Biso   1.000  Zr
  Zr9      1.0000 0.26870  0.30547  0.26870  Biso   1.000  Zr
  Zr10     1.0000 0.24046  0.11892  0.01025  Biso   1.000  Zr
  Zr11     1.0000 0.24954  0.61448  0.00118  Biso   1.000  Zr
  Zr12     1.0000 0.26551  0.80408  0.26551  Biso   1.000  Zr
  Zr13     1.0000 0.12536  0.00401  0.62536  Biso   1.000  Zr
  Zr14     1.0000 0.11193  0.51233  0.86045  Biso   1.000  Zr
  Zr15     1.0000 0.37561  0.51285  0.63268  Biso   1.000  Zr
  Zr16     1.0000 0.37540  0.01111  0.87533  Biso   1.000  Zr
  Zr17     1.0000 0.99681  0.30096  0.49166  Biso   1.000  Zr
  Zr18     1.0000 0.99819  0.22530  0.73958  Biso   1.000  Zr
  Zr19     1.0000 0.99201  0.72811  0.73963  Biso   1.000  Zr
  Zr20     1.0000 0.00904  0.80661  0.49337  Biso   1.000  Zr
  Zr21     1.0000 0.25391  0.30095  0.75906  Biso   1.000  Zr
  Zr22     1.0000 0.25253  0.22531  0.51114  Biso   1.000  Zr
  Zr23     1.0000 0.25871  0.72811  0.51108  Biso   1.000  Zr
  Zr24     1.0000 0.24168  0.80660  0.75735  Biso   1.000  Zr
  Zr25     1.0000 0.62536  0.00401  0.12536  Biso   1.000  Zr
  Zr26     1.0000 0.63268  0.51285  0.37561  Biso   1.000  Zr
  Zr27     1.0000 0.86045  0.51233  0.11193  Biso   1.000  Zr
  Zr28     1.0000 0.87533  0.01111  0.37540  Biso   1.000  Zr
  Zr29     1.0000 0.49166  0.30096  0.99681  Biso   1.000  Zr
  Zr30     1.0000 0.51114  0.22531  0.25253  Biso   1.000  Zr
  Zr31     1.0000 0.51109  0.72811  0.25871  Biso   1.000  Zr
  Zr32     1.0000 0.49337  0.80661  0.00905  Biso   1.000  Zr
  Zr33     1.0000 0.75905  0.30095  0.25391  Biso   1.000  Zr
  Zr34     1.0000 0.73958  0.22531  0.99819  Biso   1.000  Zr
  Zr35     1.0000 0.73963  0.72810  0.99201  Biso   1.000  Zr
  Zr36     1.0000 0.75735  0.80660  0.24168  Biso   1.000  Zr
  Zr37     1.0000 0.62536  0.01983  0.62536  Biso   1.000  Zr
  Zr38     1.0000 0.61804  0.51285  0.87512  Biso   1.000  Zr
  Zr39     1.0000 0.87512  0.51285  0.61804  Biso   1.000  Zr
  Zr40     1.0000 0.86810  0.02013  0.86810  Biso   1.000  Zr
  Zr41     1.0000 0.50119  0.32017  0.50119  Biso   1.000  Zr
  Zr42     1.0000 0.50071  0.22157  0.75001  Biso   1.000  Zr
  Zr43     1.0000 0.49248  0.72003  0.75824  Biso   1.000  Zr
  Zr44     1.0000 0.50657  0.81651  0.50657  Biso   1.000  Zr
  Zr45     1.0000 0.74953  0.32017  0.74953  Biso   1.000  Zr
  Zr46     1.0000 0.75001  0.22157  0.50071  Biso   1.000  Zr
  Zr47     1.0000 0.75824  0.72003  0.49248  Biso   1.000  Zr
  Zr48     1.0000 0.74415  0.81650  0.74415  Biso   1.000  Zr
  Mo1      1.0000 0.12536  0.36269  0.12536  Biso   1.000  Mo
