data_image0
_cell_length_a       10.0032
_cell_length_b       5.2017
_cell_length_c       10.0415
_cell_angle_alpha    89.8891
_cell_angle_beta     89.891
_cell_angle_gamma    90.0043

_symmetry_space_group_name_H-M    "P 1"
_symmetry_int_tables_number       1

loop_
  _symmetry_equiv_pos_as_xyz
  'x, y, z'

loop_
  _atom_site_label
  _atom_site_occupancy
  _atom_site_fract_x
  _atom_site_fract_y
  _atom_site_fract_z
  _atom_site_thermal_displace_type
  _atom_site_B_iso_or_equiv
  _atom_site_type_symbol
  Mo1      1.0000 0.13702  0.03887  0.12509  Biso   1.000  Mo
  Zr1      1.0000 0.13285  0.46854  0.37394  Biso   1.000  Zr
  Zr2      1.0000 0.36519  0.53628  0.12599  Biso   1.000  Zr
  Zr3      1.0000 0.36531  0.96923  0.37467  Biso   1.000  Zr
  Zr4      1.0000 0.03917  0.35781  0.19127  Biso   1.000  Zr
  Zr5      1.0000 0.03389  0.13645  0.44823  Biso   1.000  Zr
  Zr6      1.0000 0.46520  0.86751  0.19417  Biso   1.000  Zr
  Zr7      1.0000 0.46418  0.63363  0.44308  Biso   1.000  Zr
  Zr8      1.0000 0.26850  0.23515  0.24583  Biso   1.000  Zr
  Zr9      1.0000 0.26945  0.26672  0.49774  Biso   1.000  Zr
  Zr10     1.0000 0.22996  0.76598  0.49907  Biso   1.000  Zr
  Zr11     1.0000 0.22761  0.74271  0.24805  Biso   1.000  Zr
  Zr12     1.0000 0.13386  0.03142  0.62615  Biso   1.000  Zr
  Zr13     1.0000 0.13336  0.46636  0.87853  Biso   1.000  Zr
  Zr14     1.0000 0.36561  0.53235  0.62555  Biso   1.000  Zr
  Zr15     1.0000 0.36403  0.96767  0.87703  Biso   1.000  Zr
  Zr16     1.0000 0.03290  0.36140  0.70068  Biso   1.000  Zr
  Zr17     1.0000 0.03596  0.12769  0.95778  Biso   1.000  Zr
  Zr18     1.0000 0.46276  0.86908  0.69402  Biso   1.000  Zr
  Zr19     1.0000 0.46051  0.62970  0.94342  Biso   1.000  Zr
  Zr20     1.0000 0.26943  0.23489  0.74984  Biso   1.000  Zr
  Zr21     1.0000 0.26882  0.26035  0.00163  Biso   1.000  Zr
  Zr22     1.0000 0.22414  0.76654  0.00194  Biso   1.000  Zr
  Zr23     1.0000 0.22930  0.73283  0.75052  Biso   1.000  Zr
  Zr24     1.0000 0.63500  0.03313  0.12503  Biso   1.000  Zr
  Zr25     1.0000 0.63480  0.47016  0.37415  Biso   1.000  Zr
  Zr26     1.0000 0.86984  0.53206  0.12348  Biso   1.000  Zr
  Zr27     1.0000 0.86836  0.96934  0.37412  Biso   1.000  Zr
  Zr28     1.0000 0.53623  0.36965  0.19310  Biso   1.000  Zr
  Zr29     1.0000 0.53563  0.13388  0.44266  Biso   1.000  Zr
  Zr30     1.0000 0.97610  0.86094  0.19246  Biso   1.000  Zr
  Zr31     1.0000 0.96552  0.63354  0.44586  Biso   1.000  Zr
  Zr32     1.0000 0.77193  0.23464  0.24788  Biso   1.000  Zr
  Zr33     1.0000 0.76972  0.26649  0.49805  Biso   1.000  Zr
  Zr34     1.0000 0.73084  0.76700  0.49754  Biso   1.000  Zr
  Zr35     1.0000 0.73493  0.73617  0.24723  Biso   1.000  Zr
  Zr36     1.0000 0.63309  0.03115  0.62445  Biso   1.000  Zr
  Zr37     1.0000 0.63302  0.46795  0.87516  Biso   1.000  Zr
  Zr38     1.0000 0.86583  0.53024  0.62605  Biso   1.000  Zr
  Zr39     1.0000 0.86676  0.96923  0.87547  Biso   1.000  Zr
  Zr40     1.0000 0.53564  0.36909  0.69312  Biso   1.000  Zr
  Zr41     1.0000 0.53504  0.13079  0.94346  Biso   1.000  Zr
  Zr42     1.0000 0.96454  0.86584  0.69516  Biso   1.000  Zr
  Zr43     1.0000 0.96136  0.62879  0.94101  Biso   1.000  Zr
  Zr44     1.0000 0.76831  0.23290  0.74861  Biso   1.000  Zr
  Zr45     1.0000 0.76952  0.26579  0.99803  Biso   1.000  Zr
  Zr46     1.0000 0.72959  0.76620  0.99781  Biso   1.000  Zr
  Zr47     1.0000 0.72965  0.73409  0.74826  Biso   1.000  Zr
