data_image0
_cell_length_a       10.1628
_cell_length_b       10.2964
_cell_length_c       5.33059
_cell_angle_alpha    90.0166
_cell_angle_beta     91.3189
_cell_angle_gamma    90.4681

_symmetry_space_group_name_H-M    "P 1"
_symmetry_int_tables_number       1

loop_
  _symmetry_equiv_pos_as_xyz
  'x, y, z'

loop_
  _atom_site_label
  _atom_site_occupancy
  _atom_site_fract_x
  _atom_site_fract_y
  _atom_site_fract_z
  _atom_site_thermal_displace_type
  _atom_site_B_iso_or_equiv
  _atom_site_type_symbol
  Zr1      1.0000 0.14160  0.02270  0.34319  Biso   1.000  Zr
  Zr2      1.0000 0.14207  0.22873  0.84265  Biso   1.000  Zr
  Zr3      1.0000 0.36546  0.26736  0.35976  Biso   1.000  Zr
  Zr4      1.0000 0.35783  0.48028  0.84346  Biso   1.000  Zr
  Zr5      1.0000 0.64374  0.00366  0.14976  Biso   1.000  Zr
  Zr6      1.0000 0.63473  0.22615  0.67135  Biso   1.000  Zr
  Zr7      1.0000 0.87318  0.26985  0.14682  Biso   1.000  Zr
  Zr8      1.0000 0.86266  0.47895  0.65569  Biso   1.000  Zr
  O1       1.0000 0.03217  0.15382  0.13961  Biso   1.000  O
  O2       1.0000 0.02825  0.09649  0.63733  Biso   1.000  O
  O3       1.0000 0.47169  0.41042  0.15153  Biso   1.000  O
  O4       1.0000 0.46665  0.34332  0.67250  Biso   1.000  O
  O5       1.0000 0.27132  0.12545  0.60212  Biso   1.000  O
  O6       1.0000 0.27398  0.12388  0.09727  Biso   1.000  O
  O7       1.0000 0.22243  0.37619  0.59379  Biso   1.000  O
  O8       1.0000 0.22461  0.37662  0.09260  Biso   1.000  O
  O9       1.0000 0.51399  0.12141  0.40901  Biso   1.000  O
  O10      1.0000 0.51730  0.11683  0.91775  Biso   1.000  O
  O11      1.0000 0.96799  0.41220  0.34177  Biso   1.000  O
  O12      1.0000 0.97143  0.34064  0.83440  Biso   1.000  O
  O13      1.0000 0.78290  0.11441  0.87879  Biso   1.000  O
  O14      1.0000 0.76012  0.13599  0.37496  Biso   1.000  O
  O15      1.0000 0.72520  0.37510  0.93458  Biso   1.000  O
  O16      1.0000 0.71636  0.38258  0.42646  Biso   1.000  O
  Zr9      1.0000 0.14050  0.51997  0.34140  Biso   1.000  Zr
  Zr10     1.0000 0.14030  0.72880  0.84084  Biso   1.000  Zr
  Zr11     1.0000 0.36174  0.77325  0.34736  Biso   1.000  Zr
  Zr12     1.0000 0.36387  0.97993  0.85181  Biso   1.000  Zr
  Zr13     1.0000 0.64015  0.53260  0.15269  Biso   1.000  Zr
  Zr14     1.0000 0.63957  0.72898  0.65284  Biso   1.000  Zr
  Zr15     1.0000 0.86850  0.76993  0.15508  Biso   1.000  Zr
  Zr16     1.0000 0.86731  0.97702  0.65205  Biso   1.000  Zr
  O17      1.0000 0.03285  0.65885  0.15060  Biso   1.000  O
  O18      1.0000 0.03037  0.59117  0.65145  Biso   1.000  O
  O19      1.0000 0.47439  0.89289  0.13412  Biso   1.000  O
  O20      1.0000 0.47750  0.85256  0.64256  Biso   1.000  O
  O21      1.0000 0.27417  0.62629  0.59050  Biso   1.000  O
  O22      1.0000 0.27482  0.62612  0.09176  Biso   1.000  O
  O23      1.0000 0.22798  0.87477  0.59330  Biso   1.000  O
  O24      1.0000 0.22767  0.87716  0.09160  Biso   1.000  O
  O25      1.0000 0.52733  0.65724  0.35449  Biso   1.000  O
  O26      1.0000 0.52733  0.59885  0.85098  Biso   1.000  O
  O27      1.0000 0.97400  0.91004  0.33622  Biso   1.000  O
  O28      1.0000 0.97378  0.84159  0.83978  Biso   1.000  O
  O29      1.0000 0.77733  0.62365  0.90004  Biso   1.000  O
  O30      1.0000 0.77746  0.62900  0.40314  Biso   1.000  O
  O31      1.0000 0.73080  0.86916  0.90777  Biso   1.000  O
  O32      1.0000 0.73335  0.87182  0.41170  Biso   1.000  O
  Mo1      1.0000 0.60801  0.25551  0.18928  Biso   1.000  Mo
