data_image0
_cell_length_a       10.1095
_cell_length_b       5.04657
_cell_length_c       10.1096
_cell_angle_alpha    88.509
_cell_angle_beta     87.629
_cell_angle_gamma    88.5095

_symmetry_space_group_name_H-M    "P 1"
_symmetry_int_tables_number       1

loop_
  _symmetry_equiv_pos_as_xyz
  'x, y, z'

loop_
  _atom_site_label
  _atom_site_occupancy
  _atom_site_fract_x
  _atom_site_fract_y
  _atom_site_fract_z
  _atom_site_thermal_displace_type
  _atom_site_B_iso_or_equiv
  _atom_site_type_symbol
  N1       1.0000 0.16106  0.03075  0.16124  Biso   1.000  N 
  Zr1      1.0000 0.11184  0.99121  0.61787  Biso   1.000  Zr
  Zr2      1.0000 0.61768  0.99119  0.11200  Biso   1.000  Zr
  Zr3      1.0000 0.62238  0.99594  0.62255  Biso   1.000  Zr
  Zr4      1.0000 0.12550  0.50208  0.38116  Biso   1.000  Zr
  Zr5      1.0000 0.10871  0.53182  0.87180  Biso   1.000  Zr
  Zr6      1.0000 0.63195  0.49996  0.37111  Biso   1.000  Zr
  Zr7      1.0000 0.61917  0.48469  0.86587  Biso   1.000  Zr
  Zr8      1.0000 0.38098  0.50206  0.12567  Biso   1.000  Zr
  Zr9      1.0000 0.37095  0.49997  0.63210  Biso   1.000  Zr
  Zr10     1.0000 0.87162  0.53183  0.10888  Biso   1.000  Zr
  Zr11     1.0000 0.86570  0.48470  0.61934  Biso   1.000  Zr
  Zr12     1.0000 0.38301  0.01831  0.38318  Biso   1.000  Zr
  Zr13     1.0000 0.36286  0.97468  0.88206  Biso   1.000  Zr
  Zr14     1.0000 0.88190  0.97471  0.36303  Biso   1.000  Zr
  Zr15     1.0000 0.88566  0.02510  0.88584  Biso   1.000  Zr
  Zr16     1.0000 0.98344  0.29187  0.98362  Biso   1.000  Zr
  Zr17     1.0000 0.99033  0.24283  0.47505  Biso   1.000  Zr
  Zr18     1.0000 0.47487  0.24281  0.99049  Biso   1.000  Zr
  Zr19     1.0000 0.49054  0.26489  0.49069  Biso   1.000  Zr
  Zr20     1.0000 0.07158  0.16454  0.23144  Biso   1.000  Zr
  Zr21     1.0000 0.00910  0.26674  0.73239  Biso   1.000  Zr
  Zr22     1.0000 0.53280  0.25786  0.23925  Biso   1.000  Zr
  Zr23     1.0000 0.50752  0.24971  0.73814  Biso   1.000  Zr
  Zr24     1.0000 0.98003  0.66764  0.26673  Biso   1.000  Zr
  Zr25     1.0000 0.97774  0.75920  0.75454  Biso   1.000  Zr
  Zr26     1.0000 0.48132  0.75356  0.25718  Biso   1.000  Zr
  Zr27     1.0000 0.47956  0.74341  0.76165  Biso   1.000  Zr
  Zr28     1.0000 0.00383  0.77817  0.00401  Biso   1.000  Zr
  Zr29     1.0000 0.00665  0.74220  0.51054  Biso   1.000  Zr
  Zr30     1.0000 0.51036  0.74217  0.00682  Biso   1.000  Zr
  Zr31     1.0000 0.50928  0.75524  0.50946  Biso   1.000  Zr
  Zr32     1.0000 0.29245  0.34781  0.29263  Biso   1.000  Zr
  Zr33     1.0000 0.26055  0.27609  0.79420  Biso   1.000  Zr
  Zr34     1.0000 0.79402  0.27617  0.26077  Biso   1.000  Zr
  Zr35     1.0000 0.75606  0.21882  0.75625  Biso   1.000  Zr
  Zr36     1.0000 0.23125  0.16456  0.07177  Biso   1.000  Zr
  Zr37     1.0000 0.23909  0.25786  0.53298  Biso   1.000  Zr
  Zr38     1.0000 0.73222  0.26674  0.00930  Biso   1.000  Zr
  Zr39     1.0000 0.73798  0.24973  0.50771  Biso   1.000  Zr
  Zr40     1.0000 0.26655  0.66763  0.98020  Biso   1.000  Zr
  Zr41     1.0000 0.25701  0.75357  0.48149  Biso   1.000  Zr
  Zr42     1.0000 0.75436  0.75919  0.97790  Biso   1.000  Zr
  Zr43     1.0000 0.76147  0.74343  0.47972  Biso   1.000  Zr
  Zr44     1.0000 0.23048  0.84888  0.23066  Biso   1.000  Zr
  Zr45     1.0000 0.23376  0.77189  0.73543  Biso   1.000  Zr
  Zr46     1.0000 0.73527  0.77195  0.23392  Biso   1.000  Zr
  Zr47     1.0000 0.72402  0.70606  0.72418  Biso   1.000  Zr
