data_image0
_cell_length_a       10.0954
_cell_length_b       5.05371
_cell_length_c       10.0954
_cell_angle_alpha    89.9994
_cell_angle_beta     89.9951
_cell_angle_gamma    89.999

_symmetry_space_group_name_H-M    "P 1"
_symmetry_int_tables_number       1

loop_
  _symmetry_equiv_pos_as_xyz
  'x, y, z'

loop_
  _atom_site_label
  _atom_site_occupancy
  _atom_site_fract_x
  _atom_site_fract_y
  _atom_site_fract_z
  _atom_site_thermal_displace_type
  _atom_site_B_iso_or_equiv
  _atom_site_type_symbol
  Na1      1.0000 0.12502  0.00049  0.12501  Biso   1.000  Na
  Zr1      1.0000 0.12501  0.00051  0.62501  Biso   1.000  Zr
  Zr2      1.0000 0.62502  0.00052  0.12501  Biso   1.000  Zr
  Zr3      1.0000 0.62501  0.00051  0.62500  Biso   1.000  Zr
  Zr4      1.0000 0.12503  0.50051  0.37174  Biso   1.000  Zr
  Zr5      1.0000 0.12502  0.50051  0.87829  Biso   1.000  Zr
  Zr6      1.0000 0.62502  0.50052  0.37507  Biso   1.000  Zr
  Zr7      1.0000 0.62501  0.50051  0.87495  Biso   1.000  Zr
  Zr8      1.0000 0.37174  0.50051  0.12502  Biso   1.000  Zr
  Zr9      1.0000 0.37507  0.50052  0.62501  Biso   1.000  Zr
  Zr10     1.0000 0.87829  0.50051  0.12501  Biso   1.000  Zr
  Zr11     1.0000 0.87495  0.50051  0.62500  Biso   1.000  Zr
  Zr12     1.0000 0.37347  0.99930  0.37346  Biso   1.000  Zr
  Zr13     1.0000 0.37347  0.00170  0.87656  Biso   1.000  Zr
  Zr14     1.0000 0.87657  0.00169  0.37347  Biso   1.000  Zr
  Zr15     1.0000 0.87656  0.99929  0.87656  Biso   1.000  Zr
  Zr16     1.0000 0.99497  0.27426  0.99497  Biso   1.000  Zr
  Zr17     1.0000 0.00277  0.27609  0.50433  Biso   1.000  Zr
  Zr18     1.0000 0.50433  0.27608  0.00277  Biso   1.000  Zr
  Zr19     1.0000 0.50261  0.28056  0.50261  Biso   1.000  Zr
  Zr20     1.0000 0.99214  0.24783  0.25790  Biso   1.000  Zr
  Zr21     1.0000 0.99795  0.22400  0.75022  Biso   1.000  Zr
  Zr22     1.0000 0.49980  0.22396  0.25209  Biso   1.000  Zr
  Zr23     1.0000 0.49863  0.22119  0.75141  Biso   1.000  Zr
  Zr24     1.0000 0.99498  0.72669  0.25505  Biso   1.000  Zr
  Zr25     1.0000 0.00276  0.72497  0.74570  Biso   1.000  Zr
  Zr26     1.0000 0.50434  0.72492  0.24724  Biso   1.000  Zr
  Zr27     1.0000 0.50259  0.72048  0.74742  Biso   1.000  Zr
  Zr28     1.0000 0.99213  0.75316  0.99213  Biso   1.000  Zr
  Zr29     1.0000 0.99794  0.77707  0.49981  Biso   1.000  Zr
  Zr30     1.0000 0.49982  0.77707  0.99794  Biso   1.000  Zr
  Zr31     1.0000 0.49862  0.77986  0.49862  Biso   1.000  Zr
  Zr32     1.0000 0.25505  0.27430  0.25505  Biso   1.000  Zr
  Zr33     1.0000 0.24726  0.27609  0.74569  Biso   1.000  Zr
  Zr34     1.0000 0.74569  0.27609  0.24725  Biso   1.000  Zr
  Zr35     1.0000 0.74743  0.28054  0.74742  Biso   1.000  Zr
  Zr36     1.0000 0.25789  0.24784  0.99213  Biso   1.000  Zr
  Zr37     1.0000 0.25209  0.22395  0.49980  Biso   1.000  Zr
  Zr38     1.0000 0.75022  0.22401  0.99794  Biso   1.000  Zr
  Zr39     1.0000 0.75141  0.22120  0.49862  Biso   1.000  Zr
  Zr40     1.0000 0.25506  0.72669  0.99498  Biso   1.000  Zr
  Zr41     1.0000 0.24725  0.72491  0.50434  Biso   1.000  Zr
  Zr42     1.0000 0.74570  0.72497  0.00276  Biso   1.000  Zr
  Zr43     1.0000 0.74743  0.72049  0.50259  Biso   1.000  Zr
  Zr44     1.0000 0.25790  0.75320  0.25790  Biso   1.000  Zr
  Zr45     1.0000 0.25207  0.77708  0.75023  Biso   1.000  Zr
  Zr46     1.0000 0.75023  0.77708  0.25207  Biso   1.000  Zr
  Zr47     1.0000 0.75139  0.77986  0.75140  Biso   1.000  Zr
