data_image0
_cell_length_a       10.1184
_cell_length_b       10.4136
_cell_length_c       5.05202
_cell_angle_alpha    90.0669
_cell_angle_beta     90.1459
_cell_angle_gamma    89.9821

_symmetry_space_group_name_H-M    "P 1"
_symmetry_int_tables_number       1

loop_
  _symmetry_equiv_pos_as_xyz
  'x, y, z'

loop_
  _atom_site_label
  _atom_site_occupancy
  _atom_site_fract_x
  _atom_site_fract_y
  _atom_site_fract_z
  _atom_site_thermal_displace_type
  _atom_site_B_iso_or_equiv
  _atom_site_type_symbol
  Na1      1.0000 0.12920  0.01434  0.24838  Biso   1.000  Na
  Zr1      1.0000 0.13763  0.51520  0.25235  Biso   1.000  Zr
  Zr2      1.0000 0.63157  0.01367  0.24383  Biso   1.000  Zr
  Zr3      1.0000 0.63264  0.51565  0.25196  Biso   1.000  Zr
  Zr4      1.0000 0.13559  0.23320  0.75564  Biso   1.000  Zr
  Zr5      1.0000 0.13809  0.73599  0.75697  Biso   1.000  Zr
  Zr6      1.0000 0.63221  0.23275  0.74606  Biso   1.000  Zr
  Zr7      1.0000 0.63370  0.73396  0.75087  Biso   1.000  Zr
  Zr8      1.0000 0.36513  0.26487  0.25471  Biso   1.000  Zr
  Zr9      1.0000 0.36475  0.76671  0.25256  Biso   1.000  Zr
  Zr10     1.0000 0.85954  0.26469  0.24641  Biso   1.000  Zr
  Zr11     1.0000 0.86552  0.76633  0.25192  Biso   1.000  Zr
  Zr12     1.0000 0.36576  0.48303  0.75273  Biso   1.000  Zr
  Zr13     1.0000 0.36041  0.98188  0.75186  Biso   1.000  Zr
  Zr14     1.0000 0.86479  0.48543  0.75619  Biso   1.000  Zr
  Zr15     1.0000 0.86622  0.98211  0.74462  Biso   1.000  Zr
  Zr16     1.0000 0.02853  0.20540  0.40724  Biso   1.000  Zr
  Zr17     1.0000 0.03342  0.68003  0.39602  Biso   1.000  Zr
  Zr18     1.0000 0.53887  0.18458  0.38102  Biso   1.000  Zr
  Zr19     1.0000 0.53428  0.68080  0.39515  Biso   1.000  Zr
  Zr20     1.0000 0.02970  0.07458  0.85146  Biso   1.000  Zr
  Zr21     1.0000 0.03392  0.56735  0.89620  Biso   1.000  Zr
  Zr22     1.0000 0.53495  0.06592  0.88304  Biso   1.000  Zr
  Zr23     1.0000 0.53349  0.56729  0.89394  Biso   1.000  Zr
  Zr24     1.0000 0.46632  0.43212  0.39438  Biso   1.000  Zr
  Zr25     1.0000 0.46628  0.93345  0.39475  Biso   1.000  Zr
  Zr26     1.0000 0.96620  0.43585  0.39494  Biso   1.000  Zr
  Zr27     1.0000 0.95308  0.92475  0.40043  Biso   1.000  Zr
  Zr28     1.0000 0.46741  0.31779  0.89083  Biso   1.000  Zr
  Zr29     1.0000 0.47272  0.81995  0.90313  Biso   1.000  Zr
  Zr30     1.0000 0.96681  0.32218  0.90066  Biso   1.000  Zr
  Zr31     1.0000 0.96766  0.81644  0.89568  Biso   1.000  Zr
  Zr32     1.0000 0.28165  0.12896  0.51436  Biso   1.000  Zr
  Zr33     1.0000 0.26940  0.61476  0.49953  Biso   1.000  Zr
  Zr34     1.0000 0.76817  0.11483  0.49037  Biso   1.000  Zr
  Zr35     1.0000 0.77000  0.61551  0.49586  Biso   1.000  Zr
  Zr36     1.0000 0.27818  0.13370  0.99389  Biso   1.000  Zr
  Zr37     1.0000 0.27095  0.62889  0.00059  Biso   1.000  Zr
  Zr38     1.0000 0.76744  0.13424  0.99125  Biso   1.000  Zr
  Zr39     1.0000 0.76774  0.63192  0.99544  Biso   1.000  Zr
  Zr40     1.0000 0.23251  0.38193  0.00080  Biso   1.000  Zr
  Zr41     1.0000 0.23718  0.87313  0.99490  Biso   1.000  Zr
  Zr42     1.0000 0.72923  0.38402  0.99649  Biso   1.000  Zr
  Zr43     1.0000 0.73262  0.88199  0.99555  Biso   1.000  Zr
  Zr44     1.0000 0.23006  0.37013  0.49958  Biso   1.000  Zr
  Zr45     1.0000 0.23977  0.85839  0.50982  Biso   1.000  Zr
  Zr46     1.0000 0.73148  0.36725  0.49853  Biso   1.000  Zr
  Zr47     1.0000 0.72283  0.86507  0.49360  Biso   1.000  Zr
