data_image0
_cell_length_a       5.1248
_cell_length_b       10.3613
_cell_length_c       10.6249
_cell_angle_alpha    90.0297
_cell_angle_beta     79.0297
_cell_angle_gamma    90.4589

_symmetry_space_group_name_H-M    "P 1"
_symmetry_int_tables_number       1

loop_
  _symmetry_equiv_pos_as_xyz
  'x, y, z'

loop_
  _atom_site_label
  _atom_site_occupancy
  _atom_site_fract_x
  _atom_site_fract_y
  _atom_site_fract_z
  _atom_site_thermal_displace_type
  _atom_site_B_iso_or_equiv
  _atom_site_type_symbol
  Zr1      1.0000 0.27937  0.01999  0.14853  Biso   1.000  Zr
  Zr2      1.0000 0.30093  0.22725  0.40810  Biso   1.000  Zr
  Zr3      1.0000 0.68817  0.27580  0.09095  Biso   1.000  Zr
  Zr4      1.0000 0.71198  0.48276  0.35661  Biso   1.000  Zr
  O1       1.0000 0.05618  0.16660  0.07769  Biso   1.000  O
  O2       1.0000 0.08410  0.07545  0.33662  Biso   1.000  O
  O3       1.0000 0.91401  0.41802  0.17241  Biso   1.000  O
  O4       1.0000 0.94186  0.33884  0.43058  Biso   1.000  O
  O5       1.0000 0.56474  0.13100  0.24265  Biso   1.000  O
  O6       1.0000 0.56930  0.12036  0.49391  Biso   1.000  O
  O7       1.0000 0.42306  0.38226  0.00650  Biso   1.000  O
  O8       1.0000 0.42940  0.36926  0.25993  Biso   1.000  O
  Zr5      1.0000 0.27823  0.02040  0.64884  Biso   1.000  Zr
  Zr6      1.0000 0.26397  0.22720  0.89541  Biso   1.000  Zr
  Zr7      1.0000 0.72743  0.27342  0.60926  Biso   1.000  Zr
  Zr8      1.0000 0.71132  0.48211  0.85444  Biso   1.000  Zr
  O9       1.0000 0.07636  0.16818  0.58437  Biso   1.000  O
  O10      1.0000 0.05867  0.08296  0.82895  Biso   1.000  O
  O11      1.0000 0.93107  0.41828  0.67578  Biso   1.000  O
  O12      1.0000 0.91627  0.33389  0.91922  Biso   1.000  O
  O13      1.0000 0.54695  0.12833  0.74322  Biso   1.000  O
  O14      1.0000 0.54051  0.12180  0.99021  Biso   1.000  O
  O15      1.0000 0.45339  0.37896  0.51308  Biso   1.000  O
  O16      1.0000 0.44351  0.37187  0.76017  Biso   1.000  O
  Zr9      1.0000 0.26626  0.52372  0.14851  Biso   1.000  Zr
  Zr10     1.0000 0.27338  0.72743  0.39881  Biso   1.000  Zr
  Zr11     1.0000 0.71657  0.77226  0.10627  Biso   1.000  Zr
  Zr12     1.0000 0.72163  0.97236  0.35713  Biso   1.000  Zr
  O17      1.0000 0.05909  0.66713  0.08053  Biso   1.000  O
  O18      1.0000 0.05858  0.58481  0.32982  Biso   1.000  O
  O19      1.0000 0.93166  0.91611  0.17500  Biso   1.000  O
  O20      1.0000 0.92900  0.83089  0.42460  Biso   1.000  O
  O21      1.0000 0.54413  0.62827  0.24327  Biso   1.000  O
  O22      1.0000 0.54643  0.62275  0.49299  Biso   1.000  O
  O23      1.0000 0.44382  0.87862  0.01259  Biso   1.000  O
  O24      1.0000 0.44540  0.87042  0.26148  Biso   1.000  O
  Zr13     1.0000 0.27490  0.52309  0.64853  Biso   1.000  Zr
  Zr14     1.0000 0.27019  0.72876  0.89883  Biso   1.000  Zr
  Zr15     1.0000 0.71946  0.77176  0.60703  Biso   1.000  Zr
  Zr16     1.0000 0.71563  0.97693  0.85581  Biso   1.000  Zr
  O25      1.0000 0.06201  0.66575  0.58042  Biso   1.000  O
  O26      1.0000 0.06179  0.58509  0.82995  Biso   1.000  O
  O27      1.0000 0.92922  0.91589  0.67443  Biso   1.000  O
  O28      1.0000 0.92795  0.83461  0.92483  Biso   1.000  O
  O29      1.0000 0.54777  0.62914  0.74296  Biso   1.000  O
  O30      1.0000 0.54345  0.62337  0.99304  Biso   1.000  O
  O31      1.0000 0.44592  0.87769  0.51235  Biso   1.000  O
  O32      1.0000 0.44236  0.87143  0.76223  Biso   1.000  O
  Na1      1.0000 0.93527  0.23686  0.26615  Biso   1.000  Na
