data_image0
_cell_length_a       10.1286
_cell_length_b       10.2892
_cell_length_c       5.0858
_cell_angle_alpha    89.4065
_cell_angle_beta     89.1651
_cell_angle_gamma    90.0594

_symmetry_space_group_name_H-M    "P 1"
_symmetry_int_tables_number       1

loop_
  _symmetry_equiv_pos_as_xyz
  'x, y, z'

loop_
  _atom_site_label
  _atom_site_occupancy
  _atom_site_fract_x
  _atom_site_fract_y
  _atom_site_fract_z
  _atom_site_thermal_displace_type
  _atom_site_B_iso_or_equiv
  _atom_site_type_symbol
  Zr1      1.0000 0.11522  0.97610  0.23793  Biso   1.000  Zr
  Zr2      1.0000 0.12682  0.25150  0.66145  Biso   1.000  Zr
  Zr3      1.0000 0.39913  0.24281  0.22411  Biso   1.000  Zr
  Zr4      1.0000 0.37536  0.50359  0.72095  Biso   1.000  Zr
  Zr5      1.0000 0.99641  0.13539  0.41334  Biso   1.000  Zr
  Zr6      1.0000 0.03996  0.07645  0.90492  Biso   1.000  Zr
  Zr7      1.0000 0.49319  0.39446  0.46084  Biso   1.000  Zr
  Zr8      1.0000 0.48675  0.36277  0.95089  Biso   1.000  Zr
  Zr9      1.0000 0.24987  0.11081  0.41740  Biso   1.000  Zr
  Zr10     1.0000 0.27926  0.18272  0.89336  Biso   1.000  Zr
  Zr11     1.0000 0.20780  0.42193  0.88391  Biso   1.000  Zr
  Zr12     1.0000 0.24717  0.36162  0.39137  Biso   1.000  Zr
  Zr13     1.0000 0.13695  0.52068  0.21735  Biso   1.000  Zr
  Zr14     1.0000 0.11713  0.73975  0.71713  Biso   1.000  Zr
  Zr15     1.0000 0.37907  0.76280  0.23324  Biso   1.000  Zr
  Zr16     1.0000 0.36414  0.01574  0.71204  Biso   1.000  Zr
  Zr17     1.0000 0.00262  0.63327  0.47053  Biso   1.000  Zr
  Zr18     1.0000 0.98924  0.59059  0.96990  Biso   1.000  Zr
  Zr19     1.0000 0.49540  0.89757  0.48486  Biso   1.000  Zr
  Zr20     1.0000 0.52489  0.85040  0.00119  Biso   1.000  Zr
  Zr21     1.0000 0.25511  0.61695  0.47479  Biso   1.000  Zr
  Zr22     1.0000 0.24698  0.66172  0.98547  Biso   1.000  Zr
  Zr23     1.0000 0.27836  0.91636  0.02035  Biso   1.000  Zr
  Zr24     1.0000 0.24516  0.86202  0.50714  Biso   1.000  Zr
  Zr25     1.0000 0.63069  0.99278  0.22451  Biso   1.000  Zr
  Zr26     1.0000 0.62136  0.25035  0.73868  Biso   1.000  Zr
  Zr27     1.0000 0.84705  0.25866  0.22315  Biso   1.000  Zr
  Zr28     1.0000 0.88297  0.48457  0.70263  Biso   1.000  Zr
  Zr29     1.0000 0.50330  0.14072  0.49477  Biso   1.000  Zr
  Zr30     1.0000 0.50654  0.10217  0.98532  Biso   1.000  Zr
  Zr31     1.0000 0.99599  0.38882  0.40319  Biso   1.000  Zr
  Zr32     1.0000 0.96840  0.31862  0.88784  Biso   1.000  Zr
  Zr33     1.0000 0.75047  0.11043  0.46449  Biso   1.000  Zr
  Zr34     1.0000 0.75796  0.14094  0.95481  Biso   1.000  Zr
  Zr35     1.0000 0.74123  0.39849  0.98340  Biso   1.000  Zr
  Zr36     1.0000 0.74272  0.36254  0.49253  Biso   1.000  Zr
  Zr37     1.0000 0.62079  0.50841  0.22660  Biso   1.000  Zr
  Zr38     1.0000 0.62437  0.74905  0.72277  Biso   1.000  Zr
  Zr39     1.0000 0.86740  0.74255  0.22535  Biso   1.000  Zr
  Zr40     1.0000 0.87675  0.01041  0.71175  Biso   1.000  Zr
  Zr41     1.0000 0.50337  0.64641  0.48122  Biso   1.000  Zr
  Zr42     1.0000 0.48772  0.60689  0.98529  Biso   1.000  Zr
  Zr43     1.0000 0.99298  0.87941  0.50437  Biso   1.000  Zr
  Zr44     1.0000 0.02457  0.82984  0.02322  Biso   1.000  Zr
  Zr45     1.0000 0.75273  0.60489  0.47418  Biso   1.000  Zr
  Zr46     1.0000 0.73906  0.64840  0.98299  Biso   1.000  Zr
  Zr47     1.0000 0.77609  0.89731  0.98946  Biso   1.000  Zr
  Zr48     1.0000 0.74552  0.85676  0.47715  Biso   1.000  Zr
  Na1      1.0000 0.12100  0.24693  0.14858  Biso   1.000  Na
