data_image0
_cell_length_a       10.2479
_cell_length_b       10.3669
_cell_length_c       5.31506
_cell_angle_alpha    90.0922
_cell_angle_beta     79.0586
_cell_angle_gamma    90.3205

_symmetry_space_group_name_H-M    "P 1"
_symmetry_int_tables_number       1

loop_
  _symmetry_equiv_pos_as_xyz
  'x, y, z'

loop_
  _atom_site_label
  _atom_site_occupancy
  _atom_site_fract_x
  _atom_site_fract_y
  _atom_site_fract_z
  _atom_site_thermal_displace_type
  _atom_site_B_iso_or_equiv
  _atom_site_type_symbol
  Zr1      1.0000 0.13710  0.02297  0.29039  Biso   1.000  Zr
  Zr2      1.0000 0.13247  0.22797  0.78269  Biso   1.000  Zr
  Zr3      1.0000 0.34721  0.27902  0.17514  Biso   1.000  Zr
  Zr4      1.0000 0.35546  0.48753  0.70608  Biso   1.000  Zr
  O1       1.0000 0.03676  0.16958  0.15715  Biso   1.000  O
  O2       1.0000 0.03072  0.08273  0.65459  Biso   1.000  O
  O3       1.0000 0.46223  0.41545  0.35017  Biso   1.000  O
  O4       1.0000 0.46986  0.34420  0.85466  Biso   1.000  O
  O5       1.0000 0.27484  0.13078  0.46831  Biso   1.000  O
  O6       1.0000 0.27792  0.12513  0.96275  Biso   1.000  O
  O7       1.0000 0.21495  0.38464  0.00290  Biso   1.000  O
  O8       1.0000 0.22177  0.37195  0.50950  Biso   1.000  O
  Zr5      1.0000 0.13519  0.52498  0.29444  Biso   1.000  Zr
  Zr6      1.0000 0.13493  0.72964  0.79633  Biso   1.000  Zr
  Zr7      1.0000 0.35976  0.77250  0.21308  Biso   1.000  Zr
  Zr8      1.0000 0.35998  0.97109  0.71326  Biso   1.000  Zr
  O9       1.0000 0.03017  0.66715  0.15986  Biso   1.000  O
  O10      1.0000 0.03143  0.58453  0.65952  Biso   1.000  O
  O11      1.0000 0.46613  0.91498  0.35210  Biso   1.000  O
  O12      1.0000 0.46480  0.83171  0.85150  Biso   1.000  O
  O13      1.0000 0.27319  0.62968  0.48428  Biso   1.000  O
  O14      1.0000 0.27231  0.62629  0.98495  Biso   1.000  O
  O15      1.0000 0.22323  0.87978  0.02450  Biso   1.000  O
  O16      1.0000 0.22132  0.87189  0.52287  Biso   1.000  O
  Zr9      1.0000 0.64027  0.01941  0.30107  Biso   1.000  Zr
  Zr10     1.0000 0.64992  0.22603  0.82119  Biso   1.000  Zr
  Zr11     1.0000 0.86095  0.27224  0.22164  Biso   1.000  Zr
  Zr12     1.0000 0.85844  0.47840  0.71601  Biso   1.000  Zr
  O17      1.0000 0.53170  0.16700  0.16716  Biso   1.000  O
  O18      1.0000 0.53902  0.07584  0.67595  Biso   1.000  O
  O19      1.0000 0.96518  0.41695  0.35060  Biso   1.000  O
  O20      1.0000 0.95995  0.33119  0.84634  Biso   1.000  O
  O21      1.0000 0.77706  0.12826  0.49426  Biso   1.000  O
  O22      1.0000 0.78094  0.11811  0.99841  Biso   1.000  O
  O23      1.0000 0.72270  0.37786  0.03448  Biso   1.000  O
  O24      1.0000 0.72122  0.36961  0.53376  Biso   1.000  O
  Zr13     1.0000 0.63563  0.52178  0.29949  Biso   1.000  Zr
  Zr14     1.0000 0.63779  0.72680  0.79897  Biso   1.000  Zr
  Zr15     1.0000 0.85805  0.77138  0.21512  Biso   1.000  Zr
  Zr16     1.0000 0.85896  0.97556  0.71311  Biso   1.000  Zr
  O25      1.0000 0.53053  0.66442  0.16000  Biso   1.000  O
  O26      1.0000 0.52943  0.58759  0.65681  Biso   1.000  O
  O27      1.0000 0.96447  0.91568  0.34841  Biso   1.000  O
  O28      1.0000 0.96413  0.83373  0.85018  Biso   1.000  O
  O29      1.0000 0.77360  0.62717  0.48744  Biso   1.000  O
  O30      1.0000 0.77306  0.62080  0.98698  Biso   1.000  O
  O31      1.0000 0.72223  0.87654  0.02683  Biso   1.000  O
  O32      1.0000 0.72195  0.87016  0.52539  Biso   1.000  O
  Na1      1.0000 0.45037  0.23144  0.54938  Biso   1.000  Na
