data_image0
_cell_length_a       10.1068
_cell_length_b       5.16674
_cell_length_c       10.626
_cell_angle_alpha    89.9151
_cell_angle_beta     91.0831
_cell_angle_gamma    90.4059

_symmetry_space_group_name_H-M    "P 1"
_symmetry_int_tables_number       1

loop_
  _symmetry_equiv_pos_as_xyz
  'x, y, z'

loop_
  _atom_site_label
  _atom_site_occupancy
  _atom_site_fract_x
  _atom_site_fract_y
  _atom_site_fract_z
  _atom_site_thermal_displace_type
  _atom_site_B_iso_or_equiv
  _atom_site_type_symbol
  Zr1      1.0000 0.13897  0.04536  0.17422  Biso   1.000  Zr
  Zr2      1.0000 0.13928  0.45383  0.42735  Biso   1.000  Zr
  Zr3      1.0000 0.35058  0.54868  0.18736  Biso   1.000  Zr
  Zr4      1.0000 0.36119  0.95687  0.42895  Biso   1.000  Zr
  Zr5      1.0000 0.64421  0.04196  0.08105  Biso   1.000  Zr
  Zr6      1.0000 0.63856  0.45548  0.33003  Biso   1.000  Zr
  Zr7      1.0000 0.86467  0.54041  0.07901  Biso   1.000  Zr
  Zr8      1.0000 0.86231  0.95674  0.32807  Biso   1.000  Zr
  O1       1.0000 0.03475  0.32822  0.08381  Biso   1.000  O
  O2       1.0000 0.03191  0.17337  0.33350  Biso   1.000  O
  O3       1.0000 0.46257  0.84770  0.09355  Biso   1.000  O
  O4       1.0000 0.46746  0.67189  0.33902  Biso   1.000  O
  O5       1.0000 0.27445  0.24987  0.30241  Biso   1.000  O
  O6       1.0000 0.27985  0.25979  0.04927  Biso   1.000  O
  O7       1.0000 0.22026  0.75179  0.30476  Biso   1.000  O
  O8       1.0000 0.22175  0.75639  0.05265  Biso   1.000  O
  O9       1.0000 0.52788  0.32377  0.17587  Biso   1.000  O
  O10      1.0000 0.53173  0.17157  0.42070  Biso   1.000  O
  O11      1.0000 0.96740  0.82999  0.16918  Biso   1.000  O
  O12      1.0000 0.97040  0.67355  0.41985  Biso   1.000  O
  O13      1.0000 0.77756  0.24840  0.45151  Biso   1.000  O
  O14      1.0000 0.77721  0.25120  0.20347  Biso   1.000  O
  O15      1.0000 0.72654  0.74889  0.45354  Biso   1.000  O
  O16      1.0000 0.72299  0.74531  0.20326  Biso   1.000  O
  Zr9      1.0000 0.14206  0.04165  0.67605  Biso   1.000  Zr
  Zr10     1.0000 0.14215  0.45947  0.92488  Biso   1.000  Zr
  Zr11     1.0000 0.36417  0.54397  0.67713  Biso   1.000  Zr
  Zr12     1.0000 0.36180  0.96461  0.92625  Biso   1.000  Zr
  Zr13     1.0000 0.64284  0.03747  0.57429  Biso   1.000  Zr
  Zr14     1.0000 0.65297  0.44543  0.81068  Biso   1.000  Zr
  Zr15     1.0000 0.86687  0.54349  0.57612  Biso   1.000  Zr
  Zr16     1.0000 0.86613  0.95278  0.83076  Biso   1.000  Zr
  O17      1.0000 0.03442  0.32441  0.58409  Biso   1.000  O
  O18      1.0000 0.03614  0.17083  0.83493  Biso   1.000  O
  O19      1.0000 0.47268  0.82272  0.58456  Biso   1.000  O
  O20      1.0000 0.47498  0.67091  0.83415  Biso   1.000  O
  O21      1.0000 0.27926  0.25199  0.80014  Biso   1.000  O
  O22      1.0000 0.27819  0.24931  0.55102  Biso   1.000  O
  O23      1.0000 0.22834  0.74984  0.80141  Biso   1.000  O
  O24      1.0000 0.22653  0.74950  0.55293  Biso   1.000  O
  O25      1.0000 0.53466  0.32103  0.66617  Biso   1.000  O
  O26      1.0000 0.53759  0.16816  0.91834  Biso   1.000  O
  O27      1.0000 0.97250  0.82412  0.67141  Biso   1.000  O
  O28      1.0000 0.97003  0.66994  0.92021  Biso   1.000  O
  O29      1.0000 0.78101  0.24542  0.95005  Biso   1.000  O
  O30      1.0000 0.78380  0.24282  0.69771  Biso   1.000  O
  O31      1.0000 0.72367  0.74155  0.95503  Biso   1.000  O
  O32      1.0000 0.73027  0.74611  0.70166  Biso   1.000  O
  Na1      1.0000 0.54118  0.53178  0.01291  Biso   1.000  Na
