data_image0
_cell_length_a       10.12
_cell_length_b       5.17566
_cell_length_c       10.159
_cell_angle_alpha    90.0777
_cell_angle_beta     90.0964
_cell_angle_gamma    89.9952

_symmetry_space_group_name_H-M    "P 1"
_symmetry_int_tables_number       1

loop_
  _symmetry_equiv_pos_as_xyz
  'x, y, z'

loop_
  _atom_site_label
  _atom_site_occupancy
  _atom_site_fract_x
  _atom_site_fract_y
  _atom_site_fract_z
  _atom_site_thermal_displace_type
  _atom_site_B_iso_or_equiv
  _atom_site_type_symbol
  Na1      1.0000 0.13174  0.02896  0.11989  Biso   1.000  Na
  Zr1      1.0000 0.13336  0.03351  0.62737  Biso   1.000  Zr
  Zr2      1.0000 0.63298  0.02614  0.12250  Biso   1.000  Zr
  Zr3      1.0000 0.63119  0.02860  0.62290  Biso   1.000  Zr
  Zr4      1.0000 0.13764  0.47093  0.37500  Biso   1.000  Zr
  Zr5      1.0000 0.13896  0.46863  0.87822  Biso   1.000  Zr
  Zr6      1.0000 0.63105  0.46798  0.37438  Biso   1.000  Zr
  Zr7      1.0000 0.63500  0.46617  0.87265  Biso   1.000  Zr
  Zr8      1.0000 0.36022  0.52950  0.12615  Biso   1.000  Zr
  Zr9      1.0000 0.36538  0.53302  0.62581  Biso   1.000  Zr
  Zr10     1.0000 0.86172  0.52979  0.12378  Biso   1.000  Zr
  Zr11     1.0000 0.86512  0.52930  0.62277  Biso   1.000  Zr
  Zr12     1.0000 0.36038  0.96995  0.37241  Biso   1.000  Zr
  Zr13     1.0000 0.36246  0.96586  0.87870  Biso   1.000  Zr
  Zr14     1.0000 0.86634  0.96791  0.37557  Biso   1.000  Zr
  Zr15     1.0000 0.86511  0.96732  0.87176  Biso   1.000  Zr
  Zr16     1.0000 0.02569  0.39447  0.20791  Biso   1.000  Zr
  Zr17     1.0000 0.03641  0.37546  0.69132  Biso   1.000  Zr
  Zr18     1.0000 0.53544  0.36344  0.19454  Biso   1.000  Zr
  Zr19     1.0000 0.53377  0.36391  0.69519  Biso   1.000  Zr
  Zr20     1.0000 0.03174  0.13623  0.44955  Biso   1.000  Zr
  Zr21     1.0000 0.03098  0.14557  0.92300  Biso   1.000  Zr
  Zr22     1.0000 0.53218  0.13386  0.44542  Biso   1.000  Zr
  Zr23     1.0000 0.53597  0.13124  0.94393  Biso   1.000  Zr
  Zr24     1.0000 0.46846  0.86408  0.19762  Biso   1.000  Zr
  Zr25     1.0000 0.46626  0.86385  0.69822  Biso   1.000  Zr
  Zr26     1.0000 0.95825  0.85268  0.20386  Biso   1.000  Zr
  Zr27     1.0000 0.96335  0.86732  0.69210  Biso   1.000  Zr
  Zr28     1.0000 0.46768  0.63649  0.45025  Biso   1.000  Zr
  Zr29     1.0000 0.47339  0.63665  0.94844  Biso   1.000  Zr
  Zr30     1.0000 0.96746  0.63779  0.44928  Biso   1.000  Zr
  Zr31     1.0000 0.96741  0.63827  0.94567  Biso   1.000  Zr
  Zr32     1.0000 0.27911  0.24842  0.25434  Biso   1.000  Zr
  Zr33     1.0000 0.27028  0.23542  0.74784  Biso   1.000  Zr
  Zr34     1.0000 0.76796  0.22604  0.24535  Biso   1.000  Zr
  Zr35     1.0000 0.76871  0.23080  0.74414  Biso   1.000  Zr
  Zr36     1.0000 0.26824  0.26514  0.50099  Biso   1.000  Zr
  Zr37     1.0000 0.27889  0.26710  0.99292  Biso   1.000  Zr
  Zr38     1.0000 0.76635  0.26960  0.49573  Biso   1.000  Zr
  Zr39     1.0000 0.76940  0.26356  0.99479  Biso   1.000  Zr
  Zr40     1.0000 0.23054  0.76859  0.50129  Biso   1.000  Zr
  Zr41     1.0000 0.23841  0.74886  0.99510  Biso   1.000  Zr
  Zr42     1.0000 0.73105  0.76741  0.49684  Biso   1.000  Zr
  Zr43     1.0000 0.73171  0.76451  0.99657  Biso   1.000  Zr
  Zr44     1.0000 0.23983  0.72316  0.25639  Biso   1.000  Zr
  Zr45     1.0000 0.23032  0.73632  0.74781  Biso   1.000  Zr
  Zr46     1.0000 0.72547  0.72808  0.24698  Biso   1.000  Zr
  Zr47     1.0000 0.73035  0.73082  0.74587  Biso   1.000  Zr
