data_image0
_cell_length_a       10.1176
_cell_length_b       10.1379
_cell_length_c       5.12831
_cell_angle_alpha    89.9999
_cell_angle_beta     90.0003
_cell_angle_gamma    89.9999

_symmetry_space_group_name_H-M    "P 1"
_symmetry_int_tables_number       1

loop_
  _symmetry_equiv_pos_as_xyz
  'x, y, z'

loop_
  _atom_site_label
  _atom_site_occupancy
  _atom_site_fract_x
  _atom_site_fract_y
  _atom_site_fract_z
  _atom_site_thermal_displace_type
  _atom_site_B_iso_or_equiv
  _atom_site_type_symbol
  Zr1      1.0000 0.12507  0.98345  0.21332  Biso   1.000  Zr
  Zr2      1.0000 0.12507  0.25008  0.71332  Biso   1.000  Zr
  Zr3      1.0000 0.39715  0.25008  0.21333  Biso   1.000  Zr
  Zr4      1.0000 0.37259  0.49929  0.71335  Biso   1.000  Zr
  Zr5      1.0000 0.00396  0.12913  0.47301  Biso   1.000  Zr
  Zr6      1.0000 0.99860  0.12208  0.98487  Biso   1.000  Zr
  Zr7      1.0000 0.49583  0.38900  0.44394  Biso   1.000  Zr
  Zr8      1.0000 0.50100  0.36976  0.93058  Biso   1.000  Zr
  Zr9      1.0000 0.25153  0.12209  0.44178  Biso   1.000  Zr
  Zr10     1.0000 0.24617  0.12912  0.95364  Biso   1.000  Zr
  Zr11     1.0000 0.25153  0.37807  0.98486  Biso   1.000  Zr
  Zr12     1.0000 0.24617  0.37104  0.47299  Biso   1.000  Zr
  Zr13     1.0000 0.12507  0.51671  0.21331  Biso   1.000  Zr
  Zr14     1.0000 0.12507  0.75008  0.71332  Biso   1.000  Zr
  Zr15     1.0000 0.38020  0.75008  0.21334  Biso   1.000  Zr
  Zr16     1.0000 0.37258  0.00088  0.71330  Biso   1.000  Zr
  Zr17     1.0000 0.00566  0.62915  0.49243  Biso   1.000  Zr
  Zr18     1.0000 0.99113  0.62303  0.98965  Biso   1.000  Zr
  Zr19     1.0000 0.49144  0.88585  0.42735  Biso   1.000  Zr
  Zr20     1.0000 0.50380  0.86691  0.92888  Biso   1.000  Zr
  Zr21     1.0000 0.25900  0.62304  0.43698  Biso   1.000  Zr
  Zr22     1.0000 0.24446  0.62915  0.93420  Biso   1.000  Zr
  Zr23     1.0000 0.25900  0.87713  0.98966  Biso   1.000  Zr
  Zr24     1.0000 0.24447  0.87101  0.49244  Biso   1.000  Zr
  Zr25     1.0000 0.62507  0.00163  0.21332  Biso   1.000  Zr
  Zr26     1.0000 0.62506  0.25008  0.71334  Biso   1.000  Zr
  Zr27     1.0000 0.85298  0.25008  0.21333  Biso   1.000  Zr
  Zr28     1.0000 0.87755  0.49928  0.71329  Biso   1.000  Zr
  Zr29     1.0000 0.50100  0.13039  0.49607  Biso   1.000  Zr
  Zr30     1.0000 0.49583  0.11116  0.98272  Biso   1.000  Zr
  Zr31     1.0000 0.99860  0.37807  0.44178  Biso   1.000  Zr
  Zr32     1.0000 0.00396  0.37103  0.95364  Biso   1.000  Zr
  Zr33     1.0000 0.75429  0.11116  0.44394  Biso   1.000  Zr
  Zr34     1.0000 0.74913  0.13039  0.93059  Biso   1.000  Zr
  Zr35     1.0000 0.75429  0.38900  0.98272  Biso   1.000  Zr
  Zr36     1.0000 0.74913  0.36976  0.49607  Biso   1.000  Zr
  Zr37     1.0000 0.62507  0.49852  0.21332  Biso   1.000  Zr
  Zr38     1.0000 0.62507  0.75009  0.71333  Biso   1.000  Zr
  Zr39     1.0000 0.86994  0.75007  0.21333  Biso   1.000  Zr
  Zr40     1.0000 0.87755  0.00088  0.71335  Biso   1.000  Zr
  Zr41     1.0000 0.50380  0.63325  0.49779  Biso   1.000  Zr
  Zr42     1.0000 0.49143  0.61431  0.99932  Biso   1.000  Zr
  Zr43     1.0000 0.99112  0.87713  0.43698  Biso   1.000  Zr
  Zr44     1.0000 0.00567  0.87101  0.93420  Biso   1.000  Zr
  Zr45     1.0000 0.75869  0.61432  0.42734  Biso   1.000  Zr
  Zr46     1.0000 0.74633  0.63324  0.92887  Biso   1.000  Zr
  Zr47     1.0000 0.75870  0.88584  0.99931  Biso   1.000  Zr
  Zr48     1.0000 0.74633  0.86692  0.49779  Biso   1.000  Zr
  Nb1      1.0000 0.12507  0.25008  0.21332  Biso   1.000  Nb
