data_image0
_cell_length_a       10.0593
_cell_length_b       10.205
_cell_length_c       10.0593
_cell_angle_alpha    89.9988
_cell_angle_beta     89.9984
_cell_angle_gamma    90.0027

_symmetry_space_group_name_H-M    "P 1"
_symmetry_int_tables_number       1

loop_
  _symmetry_equiv_pos_as_xyz
  'x, y, z'

loop_
  _atom_site_label
  _atom_site_occupancy
  _atom_site_fract_x
  _atom_site_fract_y
  _atom_site_fract_z
  _atom_site_thermal_displace_type
  _atom_site_B_iso_or_equiv
  _atom_site_type_symbol
  Nb1      1.0000 0.12500  0.99995  0.12502  Biso   1.000  Nb
  Zr1      1.0000 0.12500  0.99995  0.62502  Biso   1.000  Zr
  Zr2      1.0000 0.12500  0.49995  0.12502  Biso   1.000  Zr
  Zr3      1.0000 0.12500  0.49995  0.62502  Biso   1.000  Zr
  Zr4      1.0000 0.62500  0.99996  0.12501  Biso   1.000  Zr
  Zr5      1.0000 0.62500  0.99995  0.62502  Biso   1.000  Zr
  Zr6      1.0000 0.62500  0.49995  0.12501  Biso   1.000  Zr
  Zr7      1.0000 0.62500  0.49995  0.62502  Biso   1.000  Zr
  Zr8      1.0000 0.12606  0.24997  0.37497  Biso   1.000  Zr
  Zr9      1.0000 0.12396  0.24997  0.87505  Biso   1.000  Zr
  Zr10     1.0000 0.12396  0.74994  0.37496  Biso   1.000  Zr
  Zr11     1.0000 0.12606  0.74993  0.87505  Biso   1.000  Zr
  Zr12     1.0000 0.62550  0.24955  0.37498  Biso   1.000  Zr
  Zr13     1.0000 0.62452  0.24955  0.87503  Biso   1.000  Zr
  Zr14     1.0000 0.62452  0.75036  0.37498  Biso   1.000  Zr
  Zr15     1.0000 0.62550  0.75036  0.87503  Biso   1.000  Zr
  Zr16     1.0000 0.37496  0.24997  0.12606  Biso   1.000  Zr
  Zr17     1.0000 0.37498  0.24955  0.62550  Biso   1.000  Zr
  Zr18     1.0000 0.37497  0.74993  0.12396  Biso   1.000  Zr
  Zr19     1.0000 0.37499  0.75035  0.62452  Biso   1.000  Zr
  Zr20     1.0000 0.87505  0.24997  0.12396  Biso   1.000  Zr
  Zr21     1.0000 0.87503  0.24955  0.62452  Biso   1.000  Zr
  Zr22     1.0000 0.87505  0.74994  0.12606  Biso   1.000  Zr
  Zr23     1.0000 0.87503  0.75036  0.62549  Biso   1.000  Zr
  Zr24     1.0000 0.37484  0.00040  0.37485  Biso   1.000  Zr
  Zr25     1.0000 0.37483  0.99950  0.87518  Biso   1.000  Zr
  Zr26     1.0000 0.37544  0.50044  0.37545  Biso   1.000  Zr
  Zr27     1.0000 0.37544  0.49946  0.87458  Biso   1.000  Zr
  Zr28     1.0000 0.87517  0.99951  0.37485  Biso   1.000  Zr
  Zr29     1.0000 0.87517  0.00040  0.87518  Biso   1.000  Zr
  Zr30     1.0000 0.87457  0.49946  0.37545  Biso   1.000  Zr
  Zr31     1.0000 0.87457  0.50044  0.87458  Biso   1.000  Zr
  Zr32     1.0000 0.99720  0.14539  0.99721  Biso   1.000  Zr
  Zr33     1.0000 0.99727  0.14566  0.49549  Biso   1.000  Zr
  Zr34     1.0000 0.99905  0.64761  0.99905  Biso   1.000  Zr
  Zr35     1.0000 0.99900  0.64584  0.49918  Biso   1.000  Zr
  Zr36     1.0000 0.49548  0.14566  0.99728  Biso   1.000  Zr
  Zr37     1.0000 0.49767  0.14567  0.49768  Biso   1.000  Zr
  Zr38     1.0000 0.49917  0.64583  0.99900  Biso   1.000  Zr
  Zr39     1.0000 0.49906  0.64568  0.49906  Biso   1.000  Zr
  Zr40     1.0000 0.00467  0.10019  0.24536  Biso   1.000  Zr
  Zr41     1.0000 0.00109  0.10448  0.74757  Biso   1.000  Zr
  Zr42     1.0000 0.00051  0.60341  0.24951  Biso   1.000  Zr
  Zr43     1.0000 0.00058  0.60418  0.74935  Biso   1.000  Zr
  Zr44     1.0000 0.50245  0.10448  0.24893  Biso   1.000  Zr
  Zr45     1.0000 0.50124  0.10419  0.74877  Biso   1.000  Zr
  Zr46     1.0000 0.50066  0.60418  0.24943  Biso   1.000  Zr
  Zr47     1.0000 0.50061  0.60426  0.74941  Biso   1.000  Zr
  Zr48     1.0000 0.99905  0.35230  0.25097  Biso   1.000  Zr
  Zr49     1.0000 0.99899  0.35407  0.75085  Biso   1.000  Zr
  Zr50     1.0000 0.99721  0.85451  0.25281  Biso   1.000  Zr
  Zr51     1.0000 0.99727  0.85425  0.75454  Biso   1.000  Zr
  Zr52     1.0000 0.49917  0.35407  0.25102  Biso   1.000  Zr
  Zr53     1.0000 0.49906  0.35422  0.75096  Biso   1.000  Zr
  Zr54     1.0000 0.49548  0.85425  0.25275  Biso   1.000  Zr
  Zr55     1.0000 0.49767  0.85423  0.75235  Biso   1.000  Zr
  Zr56     1.0000 0.00051  0.39650  0.00052  Biso   1.000  Zr
  Zr57     1.0000 0.00058  0.39572  0.50067  Biso   1.000  Zr
  Zr58     1.0000 0.00466  0.89972  0.00467  Biso   1.000  Zr
  Zr59     1.0000 0.00109  0.89543  0.50245  Biso   1.000  Zr
  Zr60     1.0000 0.50066  0.39572  0.00059  Biso   1.000  Zr
  Zr61     1.0000 0.50061  0.39565  0.50061  Biso   1.000  Zr
  Zr62     1.0000 0.50244  0.89543  0.00109  Biso   1.000  Zr
  Zr63     1.0000 0.50125  0.89571  0.50125  Biso   1.000  Zr
  Zr64     1.0000 0.25281  0.14540  0.25282  Biso   1.000  Zr
  Zr65     1.0000 0.25274  0.14566  0.75455  Biso   1.000  Zr
  Zr66     1.0000 0.25097  0.64761  0.25098  Biso   1.000  Zr
  Zr67     1.0000 0.25101  0.64583  0.75085  Biso   1.000  Zr
  Zr68     1.0000 0.75453  0.14566  0.25275  Biso   1.000  Zr
  Zr69     1.0000 0.75234  0.14567  0.75235  Biso   1.000  Zr
  Zr70     1.0000 0.75084  0.64584  0.25102  Biso   1.000  Zr
  Zr71     1.0000 0.75096  0.64568  0.75096  Biso   1.000  Zr
  Zr72     1.0000 0.24535  0.10019  0.00468  Biso   1.000  Zr
  Zr73     1.0000 0.24893  0.10448  0.50245  Biso   1.000  Zr
  Zr74     1.0000 0.24950  0.60341  0.00051  Biso   1.000  Zr
  Zr75     1.0000 0.24943  0.60418  0.50067  Biso   1.000  Zr
  Zr76     1.0000 0.74757  0.10448  0.00109  Biso   1.000  Zr
  Zr77     1.0000 0.74876  0.10419  0.50125  Biso   1.000  Zr
  Zr78     1.0000 0.74935  0.60418  0.00059  Biso   1.000  Zr
  Zr79     1.0000 0.74941  0.60426  0.50062  Biso   1.000  Zr
  Zr80     1.0000 0.25096  0.35229  0.99906  Biso   1.000  Zr
  Zr81     1.0000 0.25102  0.35407  0.49918  Biso   1.000  Zr
  Zr82     1.0000 0.25281  0.85450  0.99721  Biso   1.000  Zr
  Zr83     1.0000 0.25274  0.85425  0.49549  Biso   1.000  Zr
  Zr84     1.0000 0.75084  0.35407  0.99900  Biso   1.000  Zr
  Zr85     1.0000 0.75095  0.35423  0.49907  Biso   1.000  Zr
  Zr86     1.0000 0.75453  0.85425  0.99727  Biso   1.000  Zr
  Zr87     1.0000 0.75234  0.85423  0.49768  Biso   1.000  Zr
  Zr88     1.0000 0.24950  0.39650  0.24951  Biso   1.000  Zr
  Zr89     1.0000 0.24943  0.39572  0.74935  Biso   1.000  Zr
  Zr90     1.0000 0.24535  0.89972  0.24535  Biso   1.000  Zr
  Zr91     1.0000 0.24892  0.89543  0.74757  Biso   1.000  Zr
  Zr92     1.0000 0.74935  0.39572  0.24943  Biso   1.000  Zr
  Zr93     1.0000 0.74940  0.39565  0.74941  Biso   1.000  Zr
  Zr94     1.0000 0.74757  0.89543  0.24893  Biso   1.000  Zr
  Zr95     1.0000 0.74876  0.89571  0.74877  Biso   1.000  Zr
