data_image0
_cell_length_a       10.1129
_cell_length_b       5.15714
_cell_length_c       10.1129
_cell_angle_alpha    90.1478
_cell_angle_beta     90.2381
_cell_angle_gamma    90.1529

_symmetry_space_group_name_H-M    "P 1"
_symmetry_int_tables_number       1

loop_
  _symmetry_equiv_pos_as_xyz
  'x, y, z'

loop_
  _atom_site_label
  _atom_site_occupancy
  _atom_site_fract_x
  _atom_site_fract_y
  _atom_site_fract_z
  _atom_site_thermal_displace_type
  _atom_site_B_iso_or_equiv
  _atom_site_type_symbol
  Zr1      1.0000 0.12872  0.04145  0.12875  Biso   1.000  Zr
  Zr2      1.0000 0.12439  0.49864  0.37535  Biso   1.000  Zr
  Zr3      1.0000 0.37535  0.49864  0.12438  Biso   1.000  Zr
  Zr4      1.0000 0.37527  0.99540  0.37527  Biso   1.000  Zr
  Zr5      1.0000 0.99699  0.32894  0.99699  Biso   1.000  Zr
  Zr6      1.0000 0.99752  0.20522  0.25606  Biso   1.000  Zr
  Zr7      1.0000 0.99694  0.69952  0.25335  Biso   1.000  Zr
  Zr8      1.0000 0.00128  0.84077  0.00141  Biso   1.000  Zr
  Zr9      1.0000 0.26134  0.29200  0.26135  Biso   1.000  Zr
  Zr10     1.0000 0.25604  0.20517  0.99751  Biso   1.000  Zr
  Zr11     1.0000 0.25334  0.69949  0.99690  Biso   1.000  Zr
  Zr12     1.0000 0.24989  0.80219  0.24986  Biso   1.000  Zr
  Zr13     1.0000 0.12599  0.99707  0.62309  Biso   1.000  Zr
  Zr14     1.0000 0.13002  0.49623  0.85926  Biso   1.000  Zr
  Zr15     1.0000 0.37679  0.49532  0.62207  Biso   1.000  Zr
  Zr16     1.0000 0.37767  0.99367  0.87409  Biso   1.000  Zr
  Zr17     1.0000 0.00143  0.28988  0.50202  Biso   1.000  Zr
  Zr18     1.0000 0.00487  0.20534  0.74949  Biso   1.000  Zr
  Zr19     1.0000 0.99822  0.70820  0.74953  Biso   1.000  Zr
  Zr20     1.0000 0.00158  0.78947  0.50054  Biso   1.000  Zr
  Zr21     1.0000 0.25723  0.28176  0.74858  Biso   1.000  Zr
  Zr22     1.0000 0.25192  0.20034  0.50314  Biso   1.000  Zr
  Zr23     1.0000 0.25283  0.70155  0.49908  Biso   1.000  Zr
  Zr24     1.0000 0.25028  0.78591  0.74771  Biso   1.000  Zr
  Zr25     1.0000 0.62308  0.99710  0.12599  Biso   1.000  Zr
  Zr26     1.0000 0.62208  0.49534  0.37678  Biso   1.000  Zr
  Zr27     1.0000 0.85928  0.49634  0.12999  Biso   1.000  Zr
  Zr28     1.0000 0.87408  0.99370  0.37768  Biso   1.000  Zr
  Zr29     1.0000 0.50201  0.28987  0.00142  Biso   1.000  Zr
  Zr30     1.0000 0.50314  0.20036  0.25190  Biso   1.000  Zr
  Zr31     1.0000 0.49909  0.70157  0.25282  Biso   1.000  Zr
  Zr32     1.0000 0.50052  0.78947  0.00159  Biso   1.000  Zr
  Zr33     1.0000 0.74859  0.28183  0.25722  Biso   1.000  Zr
  Zr34     1.0000 0.74949  0.20539  0.00487  Biso   1.000  Zr
  Zr35     1.0000 0.74948  0.70824  0.99822  Biso   1.000  Zr
  Zr36     1.0000 0.74774  0.78597  0.25027  Biso   1.000  Zr
  Zr37     1.0000 0.62629  0.99345  0.62630  Biso   1.000  Zr
  Zr38     1.0000 0.62497  0.49565  0.87566  Biso   1.000  Zr
  Zr39     1.0000 0.87568  0.49567  0.62498  Biso   1.000  Zr
  Zr40     1.0000 0.87445  0.00420  0.87446  Biso   1.000  Zr
  Zr41     1.0000 0.50201  0.28811  0.50200  Biso   1.000  Zr
  Zr42     1.0000 0.50525  0.19717  0.75244  Biso   1.000  Zr
  Zr43     1.0000 0.49924  0.69744  0.75197  Biso   1.000  Zr
  Zr44     1.0000 0.50229  0.78734  0.50229  Biso   1.000  Zr
  Zr45     1.0000 0.75446  0.29558  0.75446  Biso   1.000  Zr
  Zr46     1.0000 0.75245  0.19718  0.50525  Biso   1.000  Zr
  Zr47     1.0000 0.75197  0.69744  0.49924  Biso   1.000  Zr
  Zr48     1.0000 0.75007  0.79314  0.75006  Biso   1.000  Zr
  Ni1      1.0000 0.10067  0.56805  0.10064  Biso   1.000  Ni
