data_image0
_cell_length_a       10.0081
_cell_length_b       10.4237
_cell_length_c       10.0476
_cell_angle_alpha    90.3327
_cell_angle_beta     89.4435
_cell_angle_gamma    90.2368

_symmetry_space_group_name_H-M    "P 1"
_symmetry_int_tables_number       1

loop_
  _symmetry_equiv_pos_as_xyz
  'x, y, z'

loop_
  _atom_site_label
  _atom_site_occupancy
  _atom_site_fract_x
  _atom_site_fract_y
  _atom_site_fract_z
  _atom_site_thermal_displace_type
  _atom_site_B_iso_or_equiv
  _atom_site_type_symbol
  Ni1      1.0000 0.12581  0.04131  0.10208  Biso   1.000  Ni
  Zr1      1.0000 0.13527  0.01682  0.62871  Biso   1.000  Zr
  Zr2      1.0000 0.13394  0.51384  0.12605  Biso   1.000  Zr
  Zr3      1.0000 0.13453  0.51615  0.62575  Biso   1.000  Zr
  Zr4      1.0000 0.63471  0.01613  0.12626  Biso   1.000  Zr
  Zr5      1.0000 0.63058  0.01291  0.62100  Biso   1.000  Zr
  Zr6      1.0000 0.63569  0.51766  0.12825  Biso   1.000  Zr
  Zr7      1.0000 0.63325  0.51669  0.62471  Biso   1.000  Zr
  Zr8      1.0000 0.13480  0.22912  0.37160  Biso   1.000  Zr
  Zr9      1.0000 0.13053  0.23915  0.87574  Biso   1.000  Zr
  Zr10     1.0000 0.13677  0.73214  0.37782  Biso   1.000  Zr
  Zr11     1.0000 0.13189  0.73653  0.87916  Biso   1.000  Zr
  Zr12     1.0000 0.63448  0.23303  0.37742  Biso   1.000  Zr
  Zr13     1.0000 0.63117  0.23418  0.87289  Biso   1.000  Zr
  Zr14     1.0000 0.63709  0.73674  0.37521  Biso   1.000  Zr
  Zr15     1.0000 0.63175  0.73515  0.87660  Biso   1.000  Zr
  Zr16     1.0000 0.36774  0.26332  0.12508  Biso   1.000  Zr
  Zr17     1.0000 0.36573  0.26612  0.62556  Biso   1.000  Zr
  Zr18     1.0000 0.36628  0.76365  0.12874  Biso   1.000  Zr
  Zr19     1.0000 0.36649  0.76782  0.62955  Biso   1.000  Zr
  Zr20     1.0000 0.86308  0.26577  0.12223  Biso   1.000  Zr
  Zr21     1.0000 0.86539  0.26460  0.62383  Biso   1.000  Zr
  Zr22     1.0000 0.87589  0.76948  0.12206  Biso   1.000  Zr
  Zr23     1.0000 0.86790  0.76654  0.62345  Biso   1.000  Zr
  Zr24     1.0000 0.36781  0.48272  0.37606  Biso   1.000  Zr
  Zr25     1.0000 0.36535  0.48718  0.87560  Biso   1.000  Zr
  Zr26     1.0000 0.36311  0.98044  0.37296  Biso   1.000  Zr
  Zr27     1.0000 0.36036  0.98509  0.88311  Biso   1.000  Zr
  Zr28     1.0000 0.86662  0.48376  0.37552  Biso   1.000  Zr
  Zr29     1.0000 0.86395  0.48677  0.87391  Biso   1.000  Zr
  Zr30     1.0000 0.87447  0.98676  0.37003  Biso   1.000  Zr
  Zr31     1.0000 0.86203  0.98471  0.87228  Biso   1.000  Zr
  Zr32     1.0000 0.04076  0.18243  0.17954  Biso   1.000  Zr
  Zr33     1.0000 0.03230  0.18289  0.69998  Biso   1.000  Zr
  Zr34     1.0000 0.03765  0.68279  0.19495  Biso   1.000  Zr
  Zr35     1.0000 0.03561  0.68463  0.69557  Biso   1.000  Zr
  Zr36     1.0000 0.53119  0.18128  0.20025  Biso   1.000  Zr
  Zr37     1.0000 0.53497  0.18411  0.69285  Biso   1.000  Zr
  Zr38     1.0000 0.53668  0.68371  0.19805  Biso   1.000  Zr
  Zr39     1.0000 0.53375  0.68259  0.69776  Biso   1.000  Zr
  Zr40     1.0000 0.03632  0.06710  0.45016  Biso   1.000  Zr
  Zr41     1.0000 0.03358  0.06455  0.94530  Biso   1.000  Zr
  Zr42     1.0000 0.03576  0.56335  0.44595  Biso   1.000  Zr
  Zr43     1.0000 0.03302  0.56701  0.94634  Biso   1.000  Zr
  Zr44     1.0000 0.53533  0.06580  0.44368  Biso   1.000  Zr
  Zr45     1.0000 0.52791  0.07065  0.95185  Biso   1.000  Zr
  Zr46     1.0000 0.53781  0.56693  0.44365  Biso   1.000  Zr
  Zr47     1.0000 0.53409  0.56722  0.94766  Biso   1.000  Zr
  Zr48     1.0000 0.46606  0.43134  0.19357  Biso   1.000  Zr
  Zr49     1.0000 0.46355  0.43419  0.69545  Biso   1.000  Zr
  Zr50     1.0000 0.47261  0.92937  0.19876  Biso   1.000  Zr
  Zr51     1.0000 0.46334  0.93494  0.70117  Biso   1.000  Zr
  Zr52     1.0000 0.96666  0.42776  0.19586  Biso   1.000  Zr
  Zr53     1.0000 0.96365  0.43348  0.69271  Biso   1.000  Zr
  Zr54     1.0000 0.98280  0.94386  0.18471  Biso   1.000  Zr
  Zr55     1.0000 0.96457  0.93446  0.69380  Biso   1.000  Zr
  Zr56     1.0000 0.46618  0.31725  0.44664  Biso   1.000  Zr
  Zr57     1.0000 0.45918  0.31442  0.94271  Biso   1.000  Zr
  Zr58     1.0000 0.47090  0.81881  0.45401  Biso   1.000  Zr
  Zr59     1.0000 0.45735  0.81754  0.94403  Biso   1.000  Zr
  Zr60     1.0000 0.96418  0.31215  0.44014  Biso   1.000  Zr
  Zr61     1.0000 0.96047  0.31795  0.94155  Biso   1.000  Zr
  Zr62     1.0000 0.96651  0.81702  0.44160  Biso   1.000  Zr
  Zr63     1.0000 0.95928  0.81643  0.93806  Biso   1.000  Zr
  Zr64     1.0000 0.25460  0.09988  0.24276  Biso   1.000  Zr
  Zr65     1.0000 0.26971  0.11981  0.75253  Biso   1.000  Zr
  Zr66     1.0000 0.26909  0.60690  0.24879  Biso   1.000  Zr
  Zr67     1.0000 0.26812  0.61862  0.75128  Biso   1.000  Zr
  Zr68     1.0000 0.77094  0.11864  0.24667  Biso   1.000  Zr
  Zr69     1.0000 0.76579  0.11542  0.74631  Biso   1.000  Zr
  Zr70     1.0000 0.77356  0.61691  0.24897  Biso   1.000  Zr
  Zr71     1.0000 0.76794  0.61765  0.74896  Biso   1.000  Zr
  Zr72     1.0000 0.27147  0.13291  0.49652  Biso   1.000  Zr
  Zr73     1.0000 0.25589  0.13341  0.00451  Biso   1.000  Zr
  Zr74     1.0000 0.27260  0.63222  0.50069  Biso   1.000  Zr
  Zr75     1.0000 0.26670  0.63621  0.00003  Biso   1.000  Zr
  Zr76     1.0000 0.77077  0.13258  0.49659  Biso   1.000  Zr
  Zr77     1.0000 0.76655  0.13410  0.99543  Biso   1.000  Zr
  Zr78     1.0000 0.76969  0.63405  0.49902  Biso   1.000  Zr
  Zr79     1.0000 0.76914  0.63585  0.99975  Biso   1.000  Zr
  Zr80     1.0000 0.22942  0.38101  0.49832  Biso   1.000  Zr
  Zr81     1.0000 0.22967  0.38477  0.99843  Biso   1.000  Zr
  Zr82     1.0000 0.23064  0.88257  0.50645  Biso   1.000  Zr
  Zr83     1.0000 0.22120  0.89606  0.01638  Biso   1.000  Zr
  Zr84     1.0000 0.73170  0.38292  0.49938  Biso   1.000  Zr
  Zr85     1.0000 0.72815  0.38336  0.99863  Biso   1.000  Zr
  Zr86     1.0000 0.73550  0.88498  0.49533  Biso   1.000  Zr
  Zr87     1.0000 0.72667  0.88482  0.99609  Biso   1.000  Zr
  Zr88     1.0000 0.23391  0.36016  0.24846  Biso   1.000  Zr
  Zr89     1.0000 0.22856  0.36871  0.74890  Biso   1.000  Zr
  Zr90     1.0000 0.25006  0.84763  0.26485  Biso   1.000  Zr
  Zr91     1.0000 0.22851  0.86921  0.75681  Biso   1.000  Zr
  Zr92     1.0000 0.72944  0.36701  0.24866  Biso   1.000  Zr
  Zr93     1.0000 0.72923  0.36701  0.74816  Biso   1.000  Zr
  Zr94     1.0000 0.74227  0.86800  0.24530  Biso   1.000  Zr
  Zr95     1.0000 0.72909  0.86574  0.74634  Biso   1.000  Zr
