data_image0
_cell_length_a       5.10237
_cell_length_b       10.3939
_cell_length_c       10.5344
_cell_angle_alpha    90.4861
_cell_angle_beta     80.2266
_cell_angle_gamma    90.2209

_symmetry_space_group_name_H-M    "P 1"
_symmetry_int_tables_number       1

loop_
  _symmetry_equiv_pos_as_xyz
  'x, y, z'

loop_
  _atom_site_label
  _atom_site_occupancy
  _atom_site_fract_x
  _atom_site_fract_y
  _atom_site_fract_z
  _atom_site_thermal_displace_type
  _atom_site_B_iso_or_equiv
  _atom_site_type_symbol
  Zr1      1.0000 0.27585  0.02294  0.14675  Biso   1.000  Zr
  Zr2      1.0000 0.29669  0.23192  0.40014  Biso   1.000  Zr
  Zr3      1.0000 0.71841  0.27661  0.10189  Biso   1.000  Zr
  Zr4      1.0000 0.71543  0.47662  0.34935  Biso   1.000  Zr
  O1       1.0000 0.06779  0.16952  0.08002  Biso   1.000  O
  O2       1.0000 0.08186  0.07543  0.33578  Biso   1.000  O
  O3       1.0000 0.91600  0.43144  0.16045  Biso   1.000  O
  O4       1.0000 0.94729  0.34157  0.42459  Biso   1.000  O
  O5       1.0000 0.56547  0.13175  0.24372  Biso   1.000  O
  O6       1.0000 0.55165  0.11366  0.49764  Biso   1.000  O
  O7       1.0000 0.44314  0.38204  0.00683  Biso   1.000  O
  O8       1.0000 0.42343  0.37765  0.25492  Biso   1.000  O
  Zr5      1.0000 0.27270  0.02010  0.64779  Biso   1.000  Zr
  Zr6      1.0000 0.27474  0.22956  0.89658  Biso   1.000  Zr
  Zr7      1.0000 0.72330  0.27128  0.60953  Biso   1.000  Zr
  Zr8      1.0000 0.71971  0.47992  0.85567  Biso   1.000  Zr
  O9       1.0000 0.07178  0.16965  0.58130  Biso   1.000  O
  O10      1.0000 0.06718  0.08136  0.83063  Biso   1.000  O
  O11      1.0000 0.92963  0.41847  0.67245  Biso   1.000  O
  O12      1.0000 0.92705  0.33163  0.91822  Biso   1.000  O
  O13      1.0000 0.54956  0.12974  0.74379  Biso   1.000  O
  O14      1.0000 0.54743  0.12275  0.99274  Biso   1.000  O
  O15      1.0000 0.45330  0.37767  0.51319  Biso   1.000  O
  O16      1.0000 0.44770  0.37143  0.76022  Biso   1.000  O
  Zr9      1.0000 0.27257  0.52446  0.14397  Biso   1.000  Zr
  Zr10     1.0000 0.27488  0.72507  0.39626  Biso   1.000  Zr
  Zr11     1.0000 0.71854  0.77250  0.10477  Biso   1.000  Zr
  Zr12     1.0000 0.71964  0.96908  0.35879  Biso   1.000  Zr
  O17      1.0000 0.06888  0.67553  0.08007  Biso   1.000  O
  O18      1.0000 0.06248  0.58336  0.32765  Biso   1.000  O
  O19      1.0000 0.92783  0.92090  0.17177  Biso   1.000  O
  O20      1.0000 0.92716  0.82760  0.42270  Biso   1.000  O
  O21      1.0000 0.54763  0.63141  0.24081  Biso   1.000  O
  O22      1.0000 0.54585  0.61833  0.49063  Biso   1.000  O
  O23      1.0000 0.44504  0.88175  0.01134  Biso   1.000  O
  O24      1.0000 0.44488  0.87111  0.26089  Biso   1.000  O
  Zr13     1.0000 0.27686  0.52157  0.64645  Biso   1.000  Zr
  Zr14     1.0000 0.27253  0.73056  0.89660  Biso   1.000  Zr
  Zr15     1.0000 0.71921  0.76914  0.60645  Biso   1.000  Zr
  Zr16     1.0000 0.71829  0.97975  0.85618  Biso   1.000  Zr
  O25      1.0000 0.06609  0.66629  0.58077  Biso   1.000  O
  O26      1.0000 0.06849  0.58246  0.83094  Biso   1.000  O
  O27      1.0000 0.92441  0.91833  0.67088  Biso   1.000  O
  O28      1.0000 0.92472  0.83291  0.92039  Biso   1.000  O
  O29      1.0000 0.54942  0.62885  0.74145  Biso   1.000  O
  O30      1.0000 0.54824  0.62394  0.99059  Biso   1.000  O
  O31      1.0000 0.44441  0.87447  0.51196  Biso   1.000  O
  O32      1.0000 0.44470  0.87157  0.76122  Biso   1.000  O
  Ni1      1.0000 0.82278  0.21443  0.32730  Biso   1.000  Ni
