data_image0
_cell_length_a       10.1731
_cell_length_b       10.3358
_cell_length_c       10.4834
_cell_angle_alpha    89.8943
_cell_angle_beta     80.247
_cell_angle_gamma    89.9927

_symmetry_space_group_name_H-M    "P 1"
_symmetry_int_tables_number       1

loop_
  _symmetry_equiv_pos_as_xyz
  'x, y, z'

loop_
  _atom_site_label
  _atom_site_occupancy
  _atom_site_fract_x
  _atom_site_fract_y
  _atom_site_fract_z
  _atom_site_thermal_displace_type
  _atom_site_B_iso_or_equiv
  _atom_site_type_symbol
  Os1      1.0000 0.14149  0.02145  0.15113  Biso   1.000  Os
  Zr1      1.0000 0.13883  0.02105  0.64529  Biso   1.000  Zr
  Zr2      1.0000 0.13912  0.52180  0.14546  Biso   1.000  Zr
  Zr3      1.0000 0.13875  0.52112  0.64580  Biso   1.000  Zr
  Zr4      1.0000 0.63870  0.02202  0.14512  Biso   1.000  Zr
  Zr5      1.0000 0.63804  0.02100  0.64565  Biso   1.000  Zr
  Zr6      1.0000 0.63948  0.52205  0.14488  Biso   1.000  Zr
  Zr7      1.0000 0.63895  0.52126  0.64592  Biso   1.000  Zr
  Zr8      1.0000 0.14007  0.22989  0.39453  Biso   1.000  Zr
  Zr9      1.0000 0.13698  0.22543  0.89866  Biso   1.000  Zr
  Zr10     1.0000 0.13832  0.72945  0.39495  Biso   1.000  Zr
  Zr11     1.0000 0.13872  0.72940  0.89535  Biso   1.000  Zr
  Zr12     1.0000 0.63862  0.22909  0.39518  Biso   1.000  Zr
  Zr13     1.0000 0.63831  0.22879  0.89581  Biso   1.000  Zr
  Zr14     1.0000 0.63997  0.72906  0.39513  Biso   1.000  Zr
  Zr15     1.0000 0.63799  0.72811  0.89666  Biso   1.000  Zr
  Zr16     1.0000 0.36011  0.27132  0.10607  Biso   1.000  Zr
  Zr17     1.0000 0.36084  0.27152  0.60590  Biso   1.000  Zr
  Zr18     1.0000 0.35849  0.77506  0.10439  Biso   1.000  Zr
  Zr19     1.0000 0.36160  0.77102  0.60423  Biso   1.000  Zr
  Zr20     1.0000 0.86461  0.26895  0.10507  Biso   1.000  Zr
  Zr21     1.0000 0.86086  0.27125  0.60405  Biso   1.000  Zr
  Zr22     1.0000 0.86449  0.77355  0.10369  Biso   1.000  Zr
  Zr23     1.0000 0.86066  0.77160  0.60460  Biso   1.000  Zr
  Zr24     1.0000 0.36200  0.47975  0.35472  Biso   1.000  Zr
  Zr25     1.0000 0.35992  0.47826  0.85509  Biso   1.000  Zr
  Zr26     1.0000 0.36092  0.97869  0.35425  Biso   1.000  Zr
  Zr27     1.0000 0.35939  0.97815  0.85583  Biso   1.000  Zr
  Zr28     1.0000 0.86095  0.47893  0.35390  Biso   1.000  Zr
  Zr29     1.0000 0.86094  0.47830  0.85542  Biso   1.000  Zr
  Zr30     1.0000 0.86180  0.98003  0.35266  Biso   1.000  Zr
  Zr31     1.0000 0.86014  0.97881  0.85434  Biso   1.000  Zr
  O1       1.0000 0.03537  0.16427  0.08036  Biso   1.000  O
  O2       1.0000 0.03353  0.16483  0.57451  Biso   1.000  O
  O3       1.0000 0.03546  0.66799  0.07933  Biso   1.000  O
  O4       1.0000 0.03475  0.66844  0.57915  Biso   1.000  O
  O5       1.0000 0.53571  0.17063  0.08196  Biso   1.000  O
  O6       1.0000 0.53636  0.17067  0.58167  Biso   1.000  O
  O7       1.0000 0.53427  0.67008  0.08106  Biso   1.000  O
  O8       1.0000 0.53656  0.67015  0.58087  Biso   1.000  O
  O9       1.0000 0.03999  0.08310  0.31758  Biso   1.000  O
  O10      1.0000 0.03343  0.08245  0.82656  Biso   1.000  O
  O11      1.0000 0.03535  0.58154  0.33007  Biso   1.000  O
  O12      1.0000 0.03507  0.58099  0.83001  Biso   1.000  O
  O13      1.0000 0.53585  0.08005  0.33160  Biso   1.000  O
  O14      1.0000 0.53456  0.07945  0.83228  Biso   1.000  O
  O15      1.0000 0.53687  0.57991  0.33136  Biso   1.000  O
  O16      1.0000 0.53554  0.57908  0.83168  Biso   1.000  O
  O17      1.0000 0.46413  0.42031  0.16906  Biso   1.000  O
  O18      1.0000 0.46387  0.42030  0.66935  Biso   1.000  O
  O19      1.0000 0.46555  0.91856  0.17088  Biso   1.000  O
  O20      1.0000 0.46371  0.91973  0.66952  Biso   1.000  O
  O21      1.0000 0.96492  0.41987  0.16975  Biso   1.000  O
  O22      1.0000 0.96514  0.41706  0.67052  Biso   1.000  O
  O23      1.0000 0.97463  0.92113  0.16554  Biso   1.000  O
  O24      1.0000 0.96481  0.91816  0.66958  Biso   1.000  O
  O25      1.0000 0.46375  0.33027  0.41964  Biso   1.000  O
  O26      1.0000 0.46122  0.32706  0.91902  Biso   1.000  O
  O27      1.0000 0.46499  0.82962  0.41865  Biso   1.000  O
  O28      1.0000 0.46206  0.82962  0.91924  Biso   1.000  O
  O29      1.0000 0.96478  0.33087  0.41906  Biso   1.000  O
  O30      1.0000 0.96564  0.33010  0.92094  Biso   1.000  O
  O31      1.0000 0.96550  0.83397  0.41958  Biso   1.000  O
  O32      1.0000 0.96400  0.83079  0.91878  Biso   1.000  O
  O33      1.0000 0.27771  0.12622  0.24107  Biso   1.000  O
  O34      1.0000 0.27614  0.12844  0.74397  Biso   1.000  O
  O35      1.0000 0.27601  0.63146  0.24112  Biso   1.000  O
  O36      1.0000 0.27609  0.62865  0.74066  Biso   1.000  O
  O37      1.0000 0.77567  0.12871  0.24071  Biso   1.000  O
  O38      1.0000 0.77496  0.12883  0.74013  Biso   1.000  O
  O39      1.0000 0.77645  0.63025  0.24024  Biso   1.000  O
  O40      1.0000 0.77594  0.62870  0.74120  Biso   1.000  O
  O41      1.0000 0.27678  0.12167  0.49156  Biso   1.000  O
  O42      1.0000 0.27092  0.11489  0.00132  Biso   1.000  O
  O43      1.0000 0.27601  0.62127  0.49075  Biso   1.000  O
  O44      1.0000 0.27589  0.62184  0.99067  Biso   1.000  O
  O45      1.0000 0.77719  0.12060  0.48918  Biso   1.000  O
  O46      1.0000 0.77502  0.12121  0.99002  Biso   1.000  O
  O47      1.0000 0.77648  0.62131  0.49058  Biso   1.000  O
  O48      1.0000 0.77664  0.62198  0.99103  Biso   1.000  O
  O49      1.0000 0.22355  0.37822  0.01046  Biso   1.000  O
  O50      1.0000 0.22364  0.37854  0.50949  Biso   1.000  O
  O51      1.0000 0.21875  0.88181  0.00969  Biso   1.000  O
  O52      1.0000 0.22438  0.87869  0.50821  Biso   1.000  O
  O53      1.0000 0.72435  0.37900  0.00929  Biso   1.000  O
  O54      1.0000 0.72410  0.37877  0.50955  Biso   1.000  O
  O55      1.0000 0.72330  0.87907  0.00970  Biso   1.000  O
  O56      1.0000 0.72399  0.87921  0.50885  Biso   1.000  O
  O57      1.0000 0.22467  0.37159  0.25975  Biso   1.000  O
  O58      1.0000 0.22335  0.37029  0.76016  Biso   1.000  O
  O59      1.0000 0.21944  0.87490  0.25637  Biso   1.000  O
  O60      1.0000 0.22382  0.87086  0.75841  Biso   1.000  O
  O61      1.0000 0.72440  0.37096  0.25930  Biso   1.000  O
  O62      1.0000 0.72373  0.37112  0.75962  Biso   1.000  O
  O63      1.0000 0.72993  0.87281  0.25860  Biso   1.000  O
  O64      1.0000 0.72327  0.87094  0.75949  Biso   1.000  O
