data_image0
_cell_length_a       10.1502
_cell_length_b       10.3871
_cell_length_c       5.32466
_cell_angle_alpha    89.4428
_cell_angle_beta     91.0377
_cell_angle_gamma    89.9359

_symmetry_space_group_name_H-M    "P 1"
_symmetry_int_tables_number       1

loop_
  _symmetry_equiv_pos_as_xyz
  'x, y, z'

loop_
  _atom_site_label
  _atom_site_occupancy
  _atom_site_fract_x
  _atom_site_fract_y
  _atom_site_fract_z
  _atom_site_thermal_displace_type
  _atom_site_B_iso_or_equiv
  _atom_site_type_symbol
  Zr1      1.0000 0.14387  0.01820  0.33701  Biso   1.000  Zr
  Zr2      1.0000 0.14660  0.22669  0.82777  Biso   1.000  Zr
  Zr3      1.0000 0.36223  0.26671  0.34389  Biso   1.000  Zr
  Zr4      1.0000 0.36163  0.48048  0.83925  Biso   1.000  Zr
  Zr5      1.0000 0.63513  0.01590  0.14581  Biso   1.000  Zr
  Zr6      1.0000 0.62765  0.22271  0.70546  Biso   1.000  Zr
  Zr7      1.0000 0.88210  0.26549  0.14163  Biso   1.000  Zr
  Zr8      1.0000 0.86153  0.48290  0.66976  Biso   1.000  Zr
  O1       1.0000 0.04157  0.15337  0.13360  Biso   1.000  O
  O2       1.0000 0.03141  0.09460  0.63358  Biso   1.000  O
  O3       1.0000 0.47718  0.41115  0.16033  Biso   1.000  O
  O4       1.0000 0.45841  0.33267  0.67831  Biso   1.000  O
  O5       1.0000 0.27462  0.12074  0.58622  Biso   1.000  O
  O6       1.0000 0.28092  0.12226  0.08414  Biso   1.000  O
  O7       1.0000 0.22312  0.37291  0.57830  Biso   1.000  O
  O8       1.0000 0.22828  0.37426  0.08206  Biso   1.000  O
  O9       1.0000 0.51827  0.13707  0.38918  Biso   1.000  O
  O10      1.0000 0.53077  0.06220  0.82621  Biso   1.000  O
  O11      1.0000 0.96168  0.41200  0.34124  Biso   1.000  O
  O12      1.0000 0.97611  0.33930  0.82918  Biso   1.000  O
  O13      1.0000 0.79060  0.11637  0.88352  Biso   1.000  O
  O14      1.0000 0.75933  0.14752  0.37894  Biso   1.000  O
  O15      1.0000 0.73337  0.37983  0.96147  Biso   1.000  O
  O16      1.0000 0.70304  0.41150  0.48470  Biso   1.000  O
  Zr9      1.0000 0.13584  0.51882  0.33803  Biso   1.000  Zr
  Zr10     1.0000 0.13746  0.72574  0.83970  Biso   1.000  Zr
  Zr11     1.0000 0.35910  0.76817  0.34591  Biso   1.000  Zr
  Zr12     1.0000 0.35900  0.97062  0.84450  Biso   1.000  Zr
  Zr13     1.0000 0.64570  0.53816  0.16961  Biso   1.000  Zr
  Zr14     1.0000 0.63953  0.73164  0.65981  Biso   1.000  Zr
  Zr15     1.0000 0.86476  0.77667  0.15823  Biso   1.000  Zr
  Zr16     1.0000 0.86645  0.97829  0.65297  Biso   1.000  Zr
  O17      1.0000 0.02960  0.65929  0.14836  Biso   1.000  O
  O18      1.0000 0.03111  0.59152  0.64601  Biso   1.000  O
  O19      1.0000 0.46517  0.90457  0.16272  Biso   1.000  O
  O20      1.0000 0.46503  0.83056  0.66285  Biso   1.000  O
  O21      1.0000 0.27299  0.62068  0.58842  Biso   1.000  O
  O22      1.0000 0.27369  0.62182  0.09051  Biso   1.000  O
  O23      1.0000 0.22301  0.87052  0.58921  Biso   1.000  O
  O24      1.0000 0.22185  0.87096  0.09067  Biso   1.000  O
  O25      1.0000 0.53028  0.66330  0.34883  Biso   1.000  O
  O26      1.0000 0.53080  0.59218  0.84985  Biso   1.000  O
  O27      1.0000 0.97164  0.91461  0.33209  Biso   1.000  O
  O28      1.0000 0.97142  0.84147  0.83555  Biso   1.000  O
  O29      1.0000 0.77739  0.62819  0.90967  Biso   1.000  O
  O30      1.0000 0.78171  0.63999  0.41093  Biso   1.000  O
  O31      1.0000 0.72667  0.87166  0.91279  Biso   1.000  O
  O32      1.0000 0.72837  0.88221  0.41510  Biso   1.000  O
  Os1      1.0000 0.62071  0.27172  0.20668  Biso   1.000  Os
