data_image0
_cell_length_a       10.0812
_cell_length_b       10.1442
_cell_length_c       10.0812
_cell_angle_alpha    90.0002
_cell_angle_beta     90.0003
_cell_angle_gamma    89.9996

_symmetry_space_group_name_H-M    "P 1"
_symmetry_int_tables_number       1

loop_
  _symmetry_equiv_pos_as_xyz
  'x, y, z'

loop_
  _atom_site_label
  _atom_site_occupancy
  _atom_site_fract_x
  _atom_site_fract_y
  _atom_site_fract_z
  _atom_site_thermal_displace_type
  _atom_site_B_iso_or_equiv
  _atom_site_type_symbol
  P1       1.0000 0.12556  0.99975  0.12555  Biso   1.000  P 
  Zr1      1.0000 0.12556  0.99974  0.62556  Biso   1.000  Zr
  Zr2      1.0000 0.12556  0.49975  0.12556  Biso   1.000  Zr
  Zr3      1.0000 0.12556  0.49974  0.62556  Biso   1.000  Zr
  Zr4      1.0000 0.62556  0.99974  0.12555  Biso   1.000  Zr
  Zr5      1.0000 0.62556  0.99974  0.62555  Biso   1.000  Zr
  Zr6      1.0000 0.62556  0.49974  0.12556  Biso   1.000  Zr
  Zr7      1.0000 0.62556  0.49974  0.62556  Biso   1.000  Zr
  Zr8      1.0000 0.13177  0.25330  0.37770  Biso   1.000  Zr
  Zr9      1.0000 0.11935  0.25330  0.87342  Biso   1.000  Zr
  Zr10     1.0000 0.11934  0.74618  0.37770  Biso   1.000  Zr
  Zr11     1.0000 0.13177  0.74618  0.87341  Biso   1.000  Zr
  Zr12     1.0000 0.62995  0.24897  0.37389  Biso   1.000  Zr
  Zr13     1.0000 0.62117  0.24897  0.87723  Biso   1.000  Zr
  Zr14     1.0000 0.62117  0.75051  0.37389  Biso   1.000  Zr
  Zr15     1.0000 0.62995  0.75051  0.87723  Biso   1.000  Zr
  Zr16     1.0000 0.37770  0.25330  0.13177  Biso   1.000  Zr
  Zr17     1.0000 0.37389  0.24897  0.62995  Biso   1.000  Zr
  Zr18     1.0000 0.37770  0.74618  0.11934  Biso   1.000  Zr
  Zr19     1.0000 0.37389  0.75051  0.62117  Biso   1.000  Zr
  Zr20     1.0000 0.87342  0.25330  0.11935  Biso   1.000  Zr
  Zr21     1.0000 0.87723  0.24897  0.62117  Biso   1.000  Zr
  Zr22     1.0000 0.87341  0.74618  0.13177  Biso   1.000  Zr
  Zr23     1.0000 0.87723  0.75051  0.62995  Biso   1.000  Zr
  Zr24     1.0000 0.37828  0.00730  0.37828  Biso   1.000  Zr
  Zr25     1.0000 0.37829  0.99218  0.87283  Biso   1.000  Zr
  Zr26     1.0000 0.37800  0.50173  0.37800  Biso   1.000  Zr
  Zr27     1.0000 0.37800  0.49775  0.87311  Biso   1.000  Zr
  Zr28     1.0000 0.87283  0.99218  0.37829  Biso   1.000  Zr
  Zr29     1.0000 0.87283  0.00731  0.87283  Biso   1.000  Zr
  Zr30     1.0000 0.87312  0.49774  0.37800  Biso   1.000  Zr
  Zr31     1.0000 0.87312  0.50174  0.87312  Biso   1.000  Zr
  Zr32     1.0000 0.97126  0.15754  0.97126  Biso   1.000  Zr
  Zr33     1.0000 0.99161  0.13791  0.47526  Biso   1.000  Zr
  Zr34     1.0000 0.99651  0.65371  0.99651  Biso   1.000  Zr
  Zr35     1.0000 0.99317  0.63753  0.49642  Biso   1.000  Zr
  Zr36     1.0000 0.47526  0.13791  0.99161  Biso   1.000  Zr
  Zr37     1.0000 0.49284  0.14101  0.49283  Biso   1.000  Zr
  Zr38     1.0000 0.49642  0.63753  0.99317  Biso   1.000  Zr
  Zr39     1.0000 0.49373  0.64033  0.49373  Biso   1.000  Zr
  Zr40     1.0000 0.03486  0.08701  0.21625  Biso   1.000  Zr
  Zr41     1.0000 0.00412  0.11287  0.73297  Biso   1.000  Zr
  Zr42     1.0000 0.00308  0.59998  0.24803  Biso   1.000  Zr
  Zr43     1.0000 0.00593  0.61120  0.74693  Biso   1.000  Zr
  Zr44     1.0000 0.51814  0.11287  0.24699  Biso   1.000  Zr
  Zr45     1.0000 0.50656  0.11012  0.74454  Biso   1.000  Zr
  Zr46     1.0000 0.50418  0.61119  0.24518  Biso   1.000  Zr
  Zr47     1.0000 0.50544  0.61037  0.74566  Biso   1.000  Zr
  Zr48     1.0000 0.99651  0.34578  0.25460  Biso   1.000  Zr
  Zr49     1.0000 0.99318  0.36195  0.75470  Biso   1.000  Zr
  Zr50     1.0000 0.97127  0.84195  0.27985  Biso   1.000  Zr
  Zr51     1.0000 0.99162  0.86158  0.77585  Biso   1.000  Zr
  Zr52     1.0000 0.49642  0.36196  0.25794  Biso   1.000  Zr
  Zr53     1.0000 0.49373  0.35916  0.75739  Biso   1.000  Zr
  Zr54     1.0000 0.47526  0.86157  0.25950  Biso   1.000  Zr
  Zr55     1.0000 0.49284  0.85847  0.75828  Biso   1.000  Zr
  Zr56     1.0000 0.00308  0.39950  0.00309  Biso   1.000  Zr
  Zr57     1.0000 0.00594  0.38829  0.50418  Biso   1.000  Zr
  Zr58     1.0000 0.03486  0.91248  0.03485  Biso   1.000  Zr
  Zr59     1.0000 0.00412  0.88661  0.51814  Biso   1.000  Zr
  Zr60     1.0000 0.50418  0.38829  0.00594  Biso   1.000  Zr
  Zr61     1.0000 0.50545  0.38912  0.50545  Biso   1.000  Zr
  Zr62     1.0000 0.51814  0.88662  0.00412  Biso   1.000  Zr
  Zr63     1.0000 0.50656  0.88936  0.50656  Biso   1.000  Zr
  Zr64     1.0000 0.27985  0.15755  0.27985  Biso   1.000  Zr
  Zr65     1.0000 0.25950  0.13791  0.77585  Biso   1.000  Zr
  Zr66     1.0000 0.25460  0.65371  0.25460  Biso   1.000  Zr
  Zr67     1.0000 0.25794  0.63753  0.75469  Biso   1.000  Zr
  Zr68     1.0000 0.77585  0.13791  0.25950  Biso   1.000  Zr
  Zr69     1.0000 0.75827  0.14101  0.75827  Biso   1.000  Zr
  Zr70     1.0000 0.75470  0.63753  0.25794  Biso   1.000  Zr
  Zr71     1.0000 0.75739  0.64033  0.75739  Biso   1.000  Zr
  Zr72     1.0000 0.21626  0.08701  0.03485  Biso   1.000  Zr
  Zr73     1.0000 0.24699  0.11287  0.51814  Biso   1.000  Zr
  Zr74     1.0000 0.24803  0.59999  0.00308  Biso   1.000  Zr
  Zr75     1.0000 0.24518  0.61120  0.50418  Biso   1.000  Zr
  Zr76     1.0000 0.73298  0.11287  0.00412  Biso   1.000  Zr
  Zr77     1.0000 0.74455  0.11012  0.50656  Biso   1.000  Zr
  Zr78     1.0000 0.74694  0.61120  0.00593  Biso   1.000  Zr
  Zr79     1.0000 0.74567  0.61037  0.50544  Biso   1.000  Zr
  Zr80     1.0000 0.25460  0.34578  0.99651  Biso   1.000  Zr
  Zr81     1.0000 0.25795  0.36196  0.49642  Biso   1.000  Zr
  Zr82     1.0000 0.27985  0.84194  0.97126  Biso   1.000  Zr
  Zr83     1.0000 0.25949  0.86158  0.47526  Biso   1.000  Zr
  Zr84     1.0000 0.75470  0.36195  0.99317  Biso   1.000  Zr
  Zr85     1.0000 0.75739  0.35916  0.49373  Biso   1.000  Zr
  Zr86     1.0000 0.77585  0.86158  0.99162  Biso   1.000  Zr
  Zr87     1.0000 0.75828  0.85848  0.49284  Biso   1.000  Zr
  Zr88     1.0000 0.24803  0.39950  0.24803  Biso   1.000  Zr
  Zr89     1.0000 0.24518  0.38829  0.74693  Biso   1.000  Zr
  Zr90     1.0000 0.21626  0.91249  0.21626  Biso   1.000  Zr
  Zr91     1.0000 0.24700  0.88661  0.73297  Biso   1.000  Zr
  Zr92     1.0000 0.74693  0.38829  0.24518  Biso   1.000  Zr
  Zr93     1.0000 0.74568  0.38912  0.74567  Biso   1.000  Zr
  Zr94     1.0000 0.73297  0.88661  0.24699  Biso   1.000  Zr
  Zr95     1.0000 0.74455  0.88936  0.74455  Biso   1.000  Zr
