data_image0
_cell_length_a       10.3369
_cell_length_b       5.08375
_cell_length_c       10.31
_cell_angle_alpha    88.8689
_cell_angle_beta     90.8824
_cell_angle_gamma    88.6098

_symmetry_space_group_name_H-M    "P 1"
_symmetry_int_tables_number       1

loop_
  _symmetry_equiv_pos_as_xyz
  'x, y, z'

loop_
  _atom_site_label
  _atom_site_occupancy
  _atom_site_fract_x
  _atom_site_fract_y
  _atom_site_fract_z
  _atom_site_thermal_displace_type
  _atom_site_B_iso_or_equiv
  _atom_site_type_symbol
  Zr1      1.0000 0.12632  0.11738  0.13141  Biso   1.000  Zr
  Zr2      1.0000 0.10555  0.53324  0.38885  Biso   1.000  Zr
  Zr3      1.0000 0.37991  0.48707  0.10559  Biso   1.000  Zr
  Zr4      1.0000 0.36088  0.00548  0.36076  Biso   1.000  Zr
  Zr5      1.0000 0.97867  0.28281  0.00729  Biso   1.000  Zr
  Zr6      1.0000 0.00206  0.23870  0.27320  Biso   1.000  Zr
  Zr7      1.0000 0.92777  0.69790  0.30881  Biso   1.000  Zr
  Zr8      1.0000 0.07527  0.81064  0.96569  Biso   1.000  Zr
  Zr9      1.0000 0.26249  0.31396  0.24821  Biso   1.000  Zr
  Zr10     1.0000 0.25512  0.18837  0.98728  Biso   1.000  Zr
  Zr11     1.0000 0.31720  0.66553  0.93915  Biso   1.000  Zr
  Zr12     1.0000 0.18109  0.84527  0.28276  Biso   1.000  Zr
  Zr13     1.0000 0.13899  0.01468  0.62020  Biso   1.000  Zr
  Zr14     1.0000 0.14910  0.47441  0.85548  Biso   1.000  Zr
  Zr15     1.0000 0.37350  0.49206  0.61016  Biso   1.000  Zr
  Zr16     1.0000 0.40067  0.99307  0.87124  Biso   1.000  Zr
  Zr17     1.0000 0.98357  0.27242  0.51792  Biso   1.000  Zr
  Zr18     1.0000 0.03688  0.19798  0.76145  Biso   1.000  Zr
  Zr19     1.0000 0.97586  0.69354  0.77374  Biso   1.000  Zr
  Zr20     1.0000 0.01521  0.76856  0.52729  Biso   1.000  Zr
  Zr21     1.0000 0.28524  0.22005  0.73813  Biso   1.000  Zr
  Zr22     1.0000 0.22938  0.25825  0.49274  Biso   1.000  Zr
  Zr23     1.0000 0.27014  0.75083  0.49028  Biso   1.000  Zr
  Zr24     1.0000 0.22338  0.70097  0.71589  Biso   1.000  Zr
  Zr25     1.0000 0.62573  0.00332  0.12435  Biso   1.000  Zr
  Zr26     1.0000 0.62301  0.45120  0.38251  Biso   1.000  Zr
  Zr27     1.0000 0.85510  0.48492  0.15406  Biso   1.000  Zr
  Zr28     1.0000 0.87676  0.01505  0.40775  Biso   1.000  Zr
  Zr29     1.0000 0.49468  0.24872  0.99177  Biso   1.000  Zr
  Zr30     1.0000 0.51133  0.26266  0.24538  Biso   1.000  Zr
  Zr31     1.0000 0.43029  0.80701  0.20585  Biso   1.000  Zr
  Zr32     1.0000 0.55451  0.76653  0.97990  Biso   1.000  Zr
  Zr33     1.0000 0.75638  0.19430  0.26961  Biso   1.000  Zr
  Zr34     1.0000 0.72794  0.29006  0.02090  Biso   1.000  Zr
  Zr35     1.0000 0.81422  0.80425  0.03329  Biso   1.000  Zr
  Zr36     1.0000 0.68474  0.68381  0.23713  Biso   1.000  Zr
  Zr37     1.0000 0.61240  0.95397  0.61297  Biso   1.000  Zr
  Zr38     1.0000 0.63212  0.47488  0.86671  Biso   1.000  Zr
  Zr39     1.0000 0.87261  0.50724  0.64054  Biso   1.000  Zr
  Zr40     1.0000 0.88966  0.99102  0.87894  Biso   1.000  Zr
  Zr41     1.0000 0.47908  0.22104  0.49495  Biso   1.000  Zr
  Zr42     1.0000 0.53515  0.22577  0.74546  Biso   1.000  Zr
  Zr43     1.0000 0.48179  0.73070  0.72868  Biso   1.000  Zr
  Zr44     1.0000 0.51112  0.72779  0.47762  Biso   1.000  Zr
  Zr45     1.0000 0.78760  0.27428  0.77505  Biso   1.000  Zr
  Zr46     1.0000 0.73190  0.23400  0.52025  Biso   1.000  Zr
  Zr47     1.0000 0.75864  0.73433  0.50906  Biso   1.000  Zr
  Zr48     1.0000 0.73171  0.76917  0.75909  Biso   1.000  Zr
  P1       1.0000 0.10044  0.63835  0.09971  Biso   1.000  P 
