data_image0
_cell_length_a       10.1657
_cell_length_b       10.3093
_cell_length_c       10.1467
_cell_angle_alpha    88.6885
_cell_angle_beta     87.9628
_cell_angle_gamma    90.6775

_symmetry_space_group_name_H-M    "P 1"
_symmetry_int_tables_number       1

loop_
  _symmetry_equiv_pos_as_xyz
  'x, y, z'

loop_
  _atom_site_label
  _atom_site_occupancy
  _atom_site_fract_x
  _atom_site_fract_y
  _atom_site_fract_z
  _atom_site_thermal_displace_type
  _atom_site_B_iso_or_equiv
  _atom_site_type_symbol
  Zr1      1.0000 0.13435  0.98981  0.12428  Biso   1.000  Zr
  Zr2      1.0000 0.14109  0.24148  0.35478  Biso   1.000  Zr
  Zr3      1.0000 0.40061  0.25940  0.13528  Biso   1.000  Zr
  Zr4      1.0000 0.38209  0.99007  0.37949  Biso   1.000  Zr
  Zr5      1.0000 0.95452  0.16071  0.96012  Biso   1.000  Zr
  Zr6      1.0000 0.00331  0.11305  0.22441  Biso   1.000  Zr
  Zr7      1.0000 0.00482  0.36893  0.27093  Biso   1.000  Zr
  Zr8      1.0000 0.97105  0.44064  0.03485  Biso   1.000  Zr
  Zr9      1.0000 0.25028  0.14469  0.21111  Biso   1.000  Zr
  Zr10     1.0000 0.21127  0.07272  0.95356  Biso   1.000  Zr
  Zr11     1.0000 0.28962  0.31080  0.97119  Biso   1.000  Zr
  Zr12     1.0000 0.26646  0.39541  0.25160  Biso   1.000  Zr
  Zr13     1.0000 0.13688  0.98105  0.62162  Biso   1.000  Zr
  Zr14     1.0000 0.12154  0.21386  0.83419  Biso   1.000  Zr
  Zr15     1.0000 0.38513  0.25996  0.62683  Biso   1.000  Zr
  Zr16     1.0000 0.37969  0.98871  0.87879  Biso   1.000  Zr
  Zr17     1.0000 0.97693  0.17147  0.46522  Biso   1.000  Zr
  Zr18     1.0000 0.99787  0.09954  0.71881  Biso   1.000  Zr
  Zr19     1.0000 0.99007  0.35206  0.75847  Biso   1.000  Zr
  Zr20     1.0000 0.98666  0.42273  0.52405  Biso   1.000  Zr
  Zr21     1.0000 0.25301  0.12681  0.70509  Biso   1.000  Zr
  Zr22     1.0000 0.22015  0.07837  0.45697  Biso   1.000  Zr
  Zr23     1.0000 0.25520  0.33248  0.49025  Biso   1.000  Zr
  Zr24     1.0000 0.24738  0.38507  0.74475  Biso   1.000  Zr
  Zr25     1.0000 0.12494  0.53205  0.16822  Biso   1.000  Zr
  Zr26     1.0000 0.11512  0.76777  0.38238  Biso   1.000  Zr
  Zr27     1.0000 0.38149  0.74078  0.13266  Biso   1.000  Zr
  Zr28     1.0000 0.37360  0.49478  0.38814  Biso   1.000  Zr
  Zr29     1.0000 0.03978  0.67729  0.05135  Biso   1.000  Zr
  Zr30     1.0000 0.99421  0.62529  0.29788  Biso   1.000  Zr
  Zr31     1.0000 0.00011  0.86797  0.25072  Biso   1.000  Zr
  Zr32     1.0000 0.99671  0.90744  0.99719  Biso   1.000  Zr
  Zr33     1.0000 0.25075  0.64823  0.28289  Biso   1.000  Zr
  Zr34     1.0000 0.28558  0.58105  0.03932  Biso   1.000  Zr
  Zr35     1.0000 0.25578  0.84004  0.00785  Biso   1.000  Zr
  Zr36     1.0000 0.25311  0.89328  0.25331  Biso   1.000  Zr
  Zr37     1.0000 0.11414  0.50693  0.64884  Biso   1.000  Zr
  Zr38     1.0000 0.11874  0.75795  0.88009  Biso   1.000  Zr
  Zr39     1.0000 0.37645  0.73766  0.63785  Biso   1.000  Zr
  Zr40     1.0000 0.37020  0.48917  0.87763  Biso   1.000  Zr
  Zr41     1.0000 0.03279  0.67268  0.54816  Biso   1.000  Zr
  Zr42     1.0000 0.00988  0.60078  0.79638  Biso   1.000  Zr
  Zr43     1.0000 0.99845  0.85449  0.75156  Biso   1.000  Zr
  Zr44     1.0000 0.99686  0.90994  0.49513  Biso   1.000  Zr
  Zr45     1.0000 0.25585  0.63878  0.78102  Biso   1.000  Zr
  Zr46     1.0000 0.27422  0.58208  0.53839  Biso   1.000  Zr
  Zr47     1.0000 0.25605  0.84104  0.50826  Biso   1.000  Zr
  Zr48     1.0000 0.25180  0.88299  0.75381  Biso   1.000  Zr
  Zr49     1.0000 0.62253  0.99593  0.12568  Biso   1.000  Zr
  Zr50     1.0000 0.63183  0.24288  0.37357  Biso   1.000  Zr
  Zr51     1.0000 0.89130  0.26426  0.12613  Biso   1.000  Zr
  Zr52     1.0000 0.87716  0.01346  0.36482  Biso   1.000  Zr
  Zr53     1.0000 0.48000  0.13974  0.99719  Biso   1.000  Zr
  Zr54     1.0000 0.50351  0.10656  0.24982  Biso   1.000  Zr
  Zr55     1.0000 0.51390  0.35830  0.25947  Biso   1.000  Zr
  Zr56     1.0000 0.50986  0.40048  0.00745  Biso   1.000  Zr
  Zr57     1.0000 0.75385  0.14746  0.23929  Biso   1.000  Zr
  Zr58     1.0000 0.71810  0.08887  0.97783  Biso   1.000  Zr
  Zr59     1.0000 0.74935  0.34262  0.99659  Biso   1.000  Zr
  Zr60     1.0000 0.75779  0.39350  0.24593  Biso   1.000  Zr
  Zr61     1.0000 0.62301  0.99996  0.62708  Biso   1.000  Zr
  Zr62     1.0000 0.62541  0.24278  0.87425  Biso   1.000  Zr
  Zr63     1.0000 0.87852  0.25650  0.61807  Biso   1.000  Zr
  Zr64     1.0000 0.86994  0.00351  0.87111  Biso   1.000  Zr
  Zr65     1.0000 0.48644  0.14389  0.49429  Biso   1.000  Zr
  Zr66     1.0000 0.49997  0.10385  0.74966  Biso   1.000  Zr
  Zr67     1.0000 0.49626  0.35479  0.75803  Biso   1.000  Zr
  Zr68     1.0000 0.50330  0.39805  0.50872  Biso   1.000  Zr
  Zr69     1.0000 0.74825  0.14636  0.73894  Biso   1.000  Zr
  Zr70     1.0000 0.73720  0.10095  0.48879  Biso   1.000  Zr
  Zr71     1.0000 0.74475  0.35250  0.49748  Biso   1.000  Zr
  Zr72     1.0000 0.74196  0.39157  0.74703  Biso   1.000  Zr
  Zr73     1.0000 0.62767  0.50534  0.13106  Biso   1.000  Zr
  Zr74     1.0000 0.62868  0.75183  0.37841  Biso   1.000  Zr
  Zr75     1.0000 0.87339  0.75880  0.12840  Biso   1.000  Zr
  Zr76     1.0000 0.86518  0.49075  0.37860  Biso   1.000  Zr
  Zr77     1.0000 0.52306  0.65024  0.01563  Biso   1.000  Zr
  Zr78     1.0000 0.49946  0.60284  0.25912  Biso   1.000  Zr
  Zr79     1.0000 0.50195  0.85253  0.25880  Biso   1.000  Zr
  Zr80     1.0000 0.49880  0.89188  0.00777  Biso   1.000  Zr
  Zr81     1.0000 0.74794  0.64458  0.25536  Biso   1.000  Zr
  Zr82     1.0000 0.76928  0.60615  0.00923  Biso   1.000  Zr
  Zr83     1.0000 0.75359  0.85160  0.99718  Biso   1.000  Zr
  Zr84     1.0000 0.75224  0.89838  0.24524  Biso   1.000  Zr
  Zr85     1.0000 0.62436  0.50303  0.62847  Biso   1.000  Zr
  Zr86     1.0000 0.63029  0.75007  0.87720  Biso   1.000  Zr
  Zr87     1.0000 0.86939  0.75995  0.62359  Biso   1.000  Zr
  Zr88     1.0000 0.85818  0.48817  0.87379  Biso   1.000  Zr
  Zr89     1.0000 0.51363  0.64758  0.51149  Biso   1.000  Zr
  Zr90     1.0000 0.50382  0.60140  0.76000  Biso   1.000  Zr
  Zr91     1.0000 0.49999  0.85054  0.75927  Biso   1.000  Zr
  Zr92     1.0000 0.50041  0.89469  0.50773  Biso   1.000  Zr
  Zr93     1.0000 0.75516  0.64227  0.75671  Biso   1.000  Zr
  Zr94     1.0000 0.76409  0.60829  0.51039  Biso   1.000  Zr
  Zr95     1.0000 0.75263  0.85610  0.49506  Biso   1.000  Zr
  Zr96     1.0000 0.74795  0.89506  0.74388  Biso   1.000  Zr
  P1       1.0000 0.13342  0.35393  0.02041  Biso   1.000  P 
