data_image0
_cell_length_a       10.0176
_cell_length_b       10.4047
_cell_length_c       5.0289
_cell_angle_alpha    90.1329
_cell_angle_beta     89.1053
_cell_angle_gamma    89.7887

_symmetry_space_group_name_H-M    "P 1"
_symmetry_int_tables_number       1

loop_
  _symmetry_equiv_pos_as_xyz
  'x, y, z'

loop_
  _atom_site_label
  _atom_site_occupancy
  _atom_site_fract_x
  _atom_site_fract_y
  _atom_site_fract_z
  _atom_site_thermal_displace_type
  _atom_site_B_iso_or_equiv
  _atom_site_type_symbol
  P1       1.0000 0.08832  0.03341  0.21731  Biso   1.000  P 
  Zr1      1.0000 0.13559  0.51716  0.25473  Biso   1.000  Zr
  Zr2      1.0000 0.62859  0.01462  0.24462  Biso   1.000  Zr
  Zr3      1.0000 0.63195  0.51679  0.25122  Biso   1.000  Zr
  Zr4      1.0000 0.14519  0.23488  0.75456  Biso   1.000  Zr
  Zr5      1.0000 0.13849  0.73624  0.76269  Biso   1.000  Zr
  Zr6      1.0000 0.63076  0.23283  0.74679  Biso   1.000  Zr
  Zr7      1.0000 0.63045  0.73576  0.74474  Biso   1.000  Zr
  Zr8      1.0000 0.36504  0.26257  0.25849  Biso   1.000  Zr
  Zr9      1.0000 0.36128  0.77058  0.26249  Biso   1.000  Zr
  Zr10     1.0000 0.86118  0.26684  0.23983  Biso   1.000  Zr
  Zr11     1.0000 0.87024  0.76027  0.23196  Biso   1.000  Zr
  Zr12     1.0000 0.36761  0.48530  0.75414  Biso   1.000  Zr
  Zr13     1.0000 0.35514  0.98351  0.76782  Biso   1.000  Zr
  Zr14     1.0000 0.86808  0.48296  0.74474  Biso   1.000  Zr
  Zr15     1.0000 0.85951  0.98322  0.74282  Biso   1.000  Zr
  Zr16     1.0000 0.04107  0.16651  0.37397  Biso   1.000  Zr
  Zr17     1.0000 0.03562  0.68523  0.38710  Biso   1.000  Zr
  Zr18     1.0000 0.54200  0.18697  0.38029  Biso   1.000  Zr
  Zr19     1.0000 0.53457  0.68325  0.39397  Biso   1.000  Zr
  Zr20     1.0000 0.03073  0.06376  0.92432  Biso   1.000  Zr
  Zr21     1.0000 0.03309  0.56582  0.89522  Biso   1.000  Zr
  Zr22     1.0000 0.53175  0.06806  0.89276  Biso   1.000  Zr
  Zr23     1.0000 0.53750  0.56614  0.88704  Biso   1.000  Zr
  Zr24     1.0000 0.46339  0.43346  0.38959  Biso   1.000  Zr
  Zr25     1.0000 0.46967  0.93225  0.40920  Biso   1.000  Zr
  Zr26     1.0000 0.96731  0.42476  0.38527  Biso   1.000  Zr
  Zr27     1.0000 0.97481  0.94260  0.34707  Biso   1.000  Zr
  Zr28     1.0000 0.46410  0.31652  0.88845  Biso   1.000  Zr
  Zr29     1.0000 0.46635  0.81946  0.90739  Biso   1.000  Zr
  Zr30     1.0000 0.96537  0.31175  0.87959  Biso   1.000  Zr
  Zr31     1.0000 0.96072  0.81804  0.86567  Biso   1.000  Zr
  Zr32     1.0000 0.28609  0.13018  0.53112  Biso   1.000  Zr
  Zr33     1.0000 0.26794  0.61577  0.50467  Biso   1.000  Zr
  Zr34     1.0000 0.77225  0.11524  0.48555  Biso   1.000  Zr
  Zr35     1.0000 0.77171  0.61435  0.48932  Biso   1.000  Zr
  Zr36     1.0000 0.25800  0.13187  0.02223  Biso   1.000  Zr
  Zr37     1.0000 0.27199  0.63109  0.00592  Biso   1.000  Zr
  Zr38     1.0000 0.77008  0.13113  0.98524  Biso   1.000  Zr
  Zr39     1.0000 0.76800  0.63413  0.99009  Biso   1.000  Zr
  Zr40     1.0000 0.23068  0.38181  0.00090  Biso   1.000  Zr
  Zr41     1.0000 0.22130  0.88064  0.02214  Biso   1.000  Zr
  Zr42     1.0000 0.73205  0.38175  0.99640  Biso   1.000  Zr
  Zr43     1.0000 0.72916  0.88392  0.98734  Biso   1.000  Zr
  Zr44     1.0000 0.22748  0.36984  0.50073  Biso   1.000  Zr
  Zr45     1.0000 0.23970  0.86186  0.52998  Biso   1.000  Zr
  Zr46     1.0000 0.72988  0.36698  0.49511  Biso   1.000  Zr
  Zr47     1.0000 0.74130  0.86553  0.48683  Biso   1.000  Zr
