data_image0
_cell_length_a       10.1945
_cell_length_b       5.19361
_cell_length_c       10.508
_cell_angle_alpha    90.0159
_cell_angle_beta     80.7352
_cell_angle_gamma    89.973

_symmetry_space_group_name_H-M    "P 1"
_symmetry_int_tables_number       1

loop_
  _symmetry_equiv_pos_as_xyz
  'x, y, z'

loop_
  _atom_site_label
  _atom_site_occupancy
  _atom_site_fract_x
  _atom_site_fract_y
  _atom_site_fract_z
  _atom_site_thermal_displace_type
  _atom_site_B_iso_or_equiv
  _atom_site_type_symbol
  Pb1      1.0000 0.13554  0.03530  0.14532  Biso   1.000  Pb
  Zr1      1.0000 0.13895  0.04234  0.64476  Biso   1.000  Zr
  Zr2      1.0000 0.63894  0.03996  0.14546  Biso   1.000  Zr
  Zr3      1.0000 0.63916  0.04329  0.64586  Biso   1.000  Zr
  Zr4      1.0000 0.13767  0.45715  0.39670  Biso   1.000  Zr
  Zr5      1.0000 0.13959  0.45901  0.89255  Biso   1.000  Zr
  Zr6      1.0000 0.63764  0.45647  0.39588  Biso   1.000  Zr
  Zr7      1.0000 0.63987  0.45826  0.89479  Biso   1.000  Zr
  Zr8      1.0000 0.36369  0.53965  0.10397  Biso   1.000  Zr
  Zr9      1.0000 0.36138  0.54257  0.60422  Biso   1.000  Zr
  Zr10     1.0000 0.85877  0.53807  0.10440  Biso   1.000  Zr
  Zr11     1.0000 0.86159  0.54330  0.60554  Biso   1.000  Zr
  Zr12     1.0000 0.36172  0.95686  0.35504  Biso   1.000  Zr
  Zr13     1.0000 0.36351  0.95971  0.85258  Biso   1.000  Zr
  Zr14     1.0000 0.85668  0.95699  0.35834  Biso   1.000  Zr
  Zr15     1.0000 0.86229  0.95717  0.85505  Biso   1.000  Zr
  O1       1.0000 0.03861  0.35973  0.07997  Biso   1.000  O
  O2       1.0000 0.03680  0.34442  0.58334  Biso   1.000  O
  O3       1.0000 0.53808  0.33976  0.08050  Biso   1.000  O
  O4       1.0000 0.53576  0.33979  0.58110  Biso   1.000  O
  O5       1.0000 0.03212  0.15854  0.33778  Biso   1.000  O
  O6       1.0000 0.03747  0.15704  0.83149  Biso   1.000  O
  O7       1.0000 0.53607  0.15771  0.33137  Biso   1.000  O
  O8       1.0000 0.53775  0.15999  0.83022  Biso   1.000  O
  O9       1.0000 0.46448  0.83942  0.16920  Biso   1.000  O
  O10      1.0000 0.46496  0.84055  0.66802  Biso   1.000  O
  O11      1.0000 0.95101  0.84660  0.16947  Biso   1.000  O
  O12      1.0000 0.96367  0.84282  0.66882  Biso   1.000  O
  O13      1.0000 0.46348  0.65755  0.41903  Biso   1.000  O
  O14      1.0000 0.46534  0.65956  0.91816  Biso   1.000  O
  O15      1.0000 0.96268  0.65948  0.41972  Biso   1.000  O
  O16      1.0000 0.96329  0.65786  0.91835  Biso   1.000  O
  O17      1.0000 0.27839  0.25624  0.24163  Biso   1.000  O
  O18      1.0000 0.27622  0.25820  0.73838  Biso   1.000  O
  O19      1.0000 0.77418  0.25841  0.24186  Biso   1.000  O
  O20      1.0000 0.77677  0.25920  0.74094  Biso   1.000  O
  O21      1.0000 0.27579  0.24173  0.49015  Biso   1.000  O
  O22      1.0000 0.28022  0.24888  0.98431  Biso   1.000  O
  O23      1.0000 0.77498  0.24239  0.49209  Biso   1.000  O
  O24      1.0000 0.77620  0.23991  0.99058  Biso   1.000  O
  O25      1.0000 0.22918  0.75774  0.00536  Biso   1.000  O
  O26      1.0000 0.22423  0.75862  0.50930  Biso   1.000  O
  O27      1.0000 0.72363  0.75699  0.00926  Biso   1.000  O
  O28      1.0000 0.72289  0.75745  0.51067  Biso   1.000  O
  O29      1.0000 0.22665  0.73147  0.26010  Biso   1.000  O
  O30      1.0000 0.22525  0.74274  0.75799  Biso   1.000  O
  O31      1.0000 0.72189  0.74050  0.26082  Biso   1.000  O
  O32      1.0000 0.72497  0.74263  0.75958  Biso   1.000  O
