data_image0
_cell_length_a       10.221
_cell_length_b       10.5191
_cell_length_c       5.30472
_cell_angle_alpha    91.0766
_cell_angle_beta     93.0459
_cell_angle_gamma    89.1068

_symmetry_space_group_name_H-M    "P 1"
_symmetry_int_tables_number       1

loop_
  _symmetry_equiv_pos_as_xyz
  'x, y, z'

loop_
  _atom_site_label
  _atom_site_occupancy
  _atom_site_fract_x
  _atom_site_fract_y
  _atom_site_fract_z
  _atom_site_thermal_displace_type
  _atom_site_B_iso_or_equiv
  _atom_site_type_symbol
  Zr1      1.0000 0.13458  0.01663  0.35993  Biso   1.000  Zr
  Zr2      1.0000 0.14152  0.22812  0.87242  Biso   1.000  Zr
  Zr3      1.0000 0.34038  0.26132  0.39678  Biso   1.000  Zr
  Zr4      1.0000 0.36539  0.49219  0.84848  Biso   1.000  Zr
  Zr5      1.0000 0.64028  0.00782  0.16174  Biso   1.000  Zr
  Zr6      1.0000 0.66528  0.23869  0.61344  Biso   1.000  Zr
  Zr7      1.0000 0.86414  0.27189  0.13781  Biso   1.000  Zr
  Zr8      1.0000 0.87108  0.48337  0.65031  Biso   1.000  Zr
  O1       1.0000 0.03290  0.16721  0.17934  Biso   1.000  O
  O2       1.0000 0.03649  0.08251  0.67903  Biso   1.000  O
  O3       1.0000 0.47427  0.45387  0.17258  Biso   1.000  O
  O4       1.0000 0.47946  0.35433  0.62140  Biso   1.000  O
  O5       1.0000 0.27242  0.12254  0.62372  Biso   1.000  O
  O6       1.0000 0.26461  0.10881  0.12448  Biso   1.000  O
  O7       1.0000 0.22330  0.37645  0.62931  Biso   1.000  O
  O8       1.0000 0.22067  0.37239  0.13342  Biso   1.000  O
  O9       1.0000 0.52620  0.14569  0.38882  Biso   1.000  O
  O10      1.0000 0.53139  0.04613  0.83763  Biso   1.000  O
  O11      1.0000 0.96917  0.41751  0.33120  Biso   1.000  O
  O12      1.0000 0.97277  0.33279  0.83089  Biso   1.000  O
  O13      1.0000 0.78498  0.12761  0.87683  Biso   1.000  O
  O14      1.0000 0.78237  0.12356  0.38093  Biso   1.000  O
  O15      1.0000 0.74105  0.39119  0.88575  Biso   1.000  O
  O16      1.0000 0.73324  0.37747  0.38651  Biso   1.000  O
  Zr9      1.0000 0.13842  0.51986  0.34562  Biso   1.000  Zr
  Zr10     1.0000 0.13882  0.73000  0.84802  Biso   1.000  Zr
  Zr11     1.0000 0.36285  0.76722  0.35680  Biso   1.000  Zr
  Zr12     1.0000 0.35800  0.96666  0.87013  Biso   1.000  Zr
  Zr13     1.0000 0.64766  0.53335  0.14010  Biso   1.000  Zr
  Zr14     1.0000 0.64281  0.73279  0.65342  Biso   1.000  Zr
  Zr15     1.0000 0.86684  0.77001  0.16220  Biso   1.000  Zr
  Zr16     1.0000 0.86724  0.98015  0.66460  Biso   1.000  Zr
  O17      1.0000 0.03627  0.66517  0.16954  Biso   1.000  O
  O18      1.0000 0.03822  0.58400  0.67244  Biso   1.000  O
  O19      1.0000 0.46744  0.91133  0.19573  Biso   1.000  O
  O20      1.0000 0.46414  0.82165  0.68758  Biso   1.000  O
  O21      1.0000 0.27491  0.62594  0.59006  Biso   1.000  O
  O22      1.0000 0.27341  0.62358  0.09027  Biso   1.000  O
  O23      1.0000 0.22326  0.87201  0.60615  Biso   1.000  O
  O24      1.0000 0.22444  0.86757  0.11007  Biso   1.000  O
  O25      1.0000 0.54152  0.67835  0.32264  Biso   1.000  O
  O26      1.0000 0.53823  0.58868  0.81450  Biso   1.000  O
  O27      1.0000 0.96744  0.91601  0.33778  Biso   1.000  O
  O28      1.0000 0.96939  0.83483  0.84068  Biso   1.000  O
  O29      1.0000 0.78122  0.63243  0.90016  Biso   1.000  O
  O30      1.0000 0.78240  0.62800  0.40408  Biso   1.000  O
  O31      1.0000 0.73225  0.87642  0.91995  Biso   1.000  O
  O32      1.0000 0.73075  0.87407  0.42016  Biso   1.000  O
  Pb1      1.0000 0.50282  0.25000  0.00509  Biso   1.000  Pb
