data_image0
_cell_length_a       10.1457
_cell_length_b       10.3657
_cell_length_c       10.5805
_cell_angle_alpha    89.9189
_cell_angle_beta     91.3063
_cell_angle_gamma    90.0231

_symmetry_space_group_name_H-M    "P 1"
_symmetry_int_tables_number       1

loop_
  _symmetry_equiv_pos_as_xyz
  'x, y, z'

loop_
  _atom_site_label
  _atom_site_occupancy
  _atom_site_fract_x
  _atom_site_fract_y
  _atom_site_fract_z
  _atom_site_thermal_displace_type
  _atom_site_B_iso_or_equiv
  _atom_site_type_symbol
  Zr1      1.0000 0.13351  0.01794  0.17410  Biso   1.000  Zr
  Zr2      1.0000 0.13644  0.22711  0.42842  Biso   1.000  Zr
  Zr3      1.0000 0.33990  0.26879  0.19280  Biso   1.000  Zr
  Zr4      1.0000 0.36154  0.48063  0.42387  Biso   1.000  Zr
  Zr5      1.0000 0.64430  0.01353  0.07394  Biso   1.000  Zr
  Zr6      1.0000 0.63582  0.22613  0.32914  Biso   1.000  Zr
  Zr7      1.0000 0.85991  0.27130  0.07560  Biso   1.000  Zr
  Zr8      1.0000 0.85995  0.47855  0.32725  Biso   1.000  Zr
  O1       1.0000 0.03102  0.16743  0.08694  Biso   1.000  O
  O2       1.0000 0.02852  0.08610  0.33477  Biso   1.000  O
  O3       1.0000 0.46183  0.44485  0.10539  Biso   1.000  O
  O4       1.0000 0.46328  0.33400  0.33647  Biso   1.000  O
  O5       1.0000 0.26645  0.12404  0.30459  Biso   1.000  O
  O6       1.0000 0.26412  0.11283  0.05291  Biso   1.000  O
  O7       1.0000 0.21525  0.37813  0.30619  Biso   1.000  O
  O8       1.0000 0.21583  0.37878  0.05596  Biso   1.000  O
  O9       1.0000 0.51574  0.14416  0.19042  Biso   1.000  O
  O10      1.0000 0.52972  0.08705  0.42638  Biso   1.000  O
  O11      1.0000 0.96274  0.41656  0.16782  Biso   1.000  O
  O12      1.0000 0.96878  0.33653  0.41805  Biso   1.000  O
  O13      1.0000 0.77456  0.12514  0.45109  Biso   1.000  O
  O14      1.0000 0.77039  0.12611  0.20083  Biso   1.000  O
  O15      1.0000 0.72592  0.37570  0.45218  Biso   1.000  O
  O16      1.0000 0.71983  0.37425  0.20322  Biso   1.000  O
  Zr9      1.0000 0.14274  0.02145  0.67517  Biso   1.000  Zr
  Zr10     1.0000 0.14278  0.22870  0.92682  Biso   1.000  Zr
  Zr11     1.0000 0.36688  0.27387  0.67328  Biso   1.000  Zr
  Zr12     1.0000 0.35840  0.48647  0.92848  Biso   1.000  Zr
  Zr13     1.0000 0.64115  0.01937  0.57855  Biso   1.000  Zr
  Zr14     1.0000 0.66280  0.23121  0.80962  Biso   1.000  Zr
  Zr15     1.0000 0.86625  0.27289  0.57400  Biso   1.000  Zr
  Zr16     1.0000 0.86918  0.48206  0.82833  Biso   1.000  Zr
  O17      1.0000 0.03391  0.16347  0.58437  Biso   1.000  O
  O18      1.0000 0.03995  0.08344  0.83460  Biso   1.000  O
  O19      1.0000 0.47297  0.41295  0.57604  Biso   1.000  O
  O20      1.0000 0.48696  0.35585  0.81200  Biso   1.000  O
  O21      1.0000 0.28287  0.12575  0.79920  Biso   1.000  O
  O22      1.0000 0.27678  0.12430  0.55025  Biso   1.000  O
  O23      1.0000 0.23230  0.37389  0.80159  Biso   1.000  O
  O24      1.0000 0.22814  0.37486  0.55133  Biso   1.000  O
  O25      1.0000 0.53942  0.16601  0.66595  Biso   1.000  O
  O26      1.0000 0.54087  0.05512  0.89701  Biso   1.000  O
  O27      1.0000 0.97418  0.41390  0.66765  Biso   1.000  O
  O28      1.0000 0.97168  0.33257  0.91548  Biso   1.000  O
  O29      1.0000 0.78687  0.12122  0.94646  Biso   1.000  O
  O30      1.0000 0.78744  0.12187  0.69623  Biso   1.000  O
  O31      1.0000 0.73857  0.38716  0.94951  Biso   1.000  O
  O32      1.0000 0.73624  0.37596  0.69783  Biso   1.000  O
  Zr17     1.0000 0.13510  0.52305  0.17338  Biso   1.000  Zr
  Zr18     1.0000 0.13784  0.72903  0.42247  Biso   1.000  Zr
  Zr19     1.0000 0.36200  0.77293  0.17512  Biso   1.000  Zr
  Zr20     1.0000 0.36175  0.97767  0.42748  Biso   1.000  Zr
  Zr21     1.0000 0.64058  0.52766  0.08038  Biso   1.000  Zr
  Zr22     1.0000 0.63932  0.73160  0.32943  Biso   1.000  Zr
  Zr23     1.0000 0.86245  0.76938  0.07960  Biso   1.000  Zr
  Zr24     1.0000 0.86053  0.98013  0.32946  Biso   1.000  Zr
  O33      1.0000 0.03254  0.66516  0.08302  Biso   1.000  O
  O34      1.0000 0.03010  0.58661  0.33429  Biso   1.000  O
  O35      1.0000 0.46942  0.91426  0.08320  Biso   1.000  O
  O36      1.0000 0.46879  0.83787  0.33624  Biso   1.000  O
  O37      1.0000 0.27371  0.62635  0.29567  Biso   1.000  O
  O38      1.0000 0.27361  0.62687  0.04603  Biso   1.000  O
  O39      1.0000 0.22480  0.87505  0.29893  Biso   1.000  O
  O40      1.0000 0.22467  0.87111  0.04934  Biso   1.000  O
  O41      1.0000 0.53735  0.67640  0.16655  Biso   1.000  O
  O42      1.0000 0.53182  0.58780  0.41558  Biso   1.000  O
  O43      1.0000 0.96419  0.91546  0.16762  Biso   1.000  O
  O44      1.0000 0.96739  0.83541  0.41800  Biso   1.000  O
  O45      1.0000 0.77609  0.62518  0.45429  Biso   1.000  O
  O46      1.0000 0.77662  0.62680  0.20544  Biso   1.000  O
  O47      1.0000 0.72682  0.87593  0.45637  Biso   1.000  O
  O48      1.0000 0.72585  0.87528  0.20573  Biso   1.000  O
  Zr25     1.0000 0.14216  0.51987  0.67296  Biso   1.000  Zr
  Zr26     1.0000 0.14024  0.73062  0.92281  Biso   1.000  Zr
  Zr27     1.0000 0.36338  0.76840  0.67299  Biso   1.000  Zr
  Zr28     1.0000 0.36211  0.97233  0.92204  Biso   1.000  Zr
  Zr29     1.0000 0.64094  0.52233  0.57494  Biso   1.000  Zr
  Zr30     1.0000 0.64069  0.72707  0.82730  Biso   1.000  Zr
  Zr31     1.0000 0.86485  0.77097  0.57995  Biso   1.000  Zr
  Zr32     1.0000 0.86759  0.97695  0.82904  Biso   1.000  Zr
  O49      1.0000 0.03531  0.66459  0.58442  Biso   1.000  O
  O50      1.0000 0.03850  0.58454  0.83480  Biso   1.000  O
  O51      1.0000 0.47088  0.91220  0.58685  Biso   1.000  O
  O52      1.0000 0.46533  0.82358  0.83587  Biso   1.000  O
  O53      1.0000 0.27684  0.62472  0.79669  Biso   1.000  O
  O54      1.0000 0.27587  0.62407  0.54606  Biso   1.000  O
  O55      1.0000 0.22607  0.87320  0.79698  Biso   1.000  O
  O56      1.0000 0.22660  0.87482  0.54813  Biso   1.000  O
  O57      1.0000 0.53390  0.66213  0.66618  Biso   1.000  O
  O58      1.0000 0.53328  0.58574  0.91922  Biso   1.000  O
  O59      1.0000 0.97260  0.91339  0.66813  Biso   1.000  O
  O60      1.0000 0.97016  0.83484  0.91940  Biso   1.000  O
  O61      1.0000 0.77802  0.62888  0.95308  Biso   1.000  O
  O62      1.0000 0.77790  0.62495  0.70350  Biso   1.000  O
  O63      1.0000 0.72908  0.87313  0.95639  Biso   1.000  O
  O64      1.0000 0.72898  0.87365  0.70675  Biso   1.000  O
  Pb1      1.0000 0.50132  0.24998  0.00119  Biso   1.000  Pb
