data_image0
_cell_length_a       10.2367
_cell_length_b       10.4142
_cell_length_c       5.15797
_cell_angle_alpha    89.9955
_cell_angle_beta     95.5757
_cell_angle_gamma    89.9972

_symmetry_space_group_name_H-M    "P 1"
_symmetry_int_tables_number       1

loop_
  _symmetry_equiv_pos_as_xyz
  'x, y, z'

loop_
  _atom_site_label
  _atom_site_occupancy
  _atom_site_fract_x
  _atom_site_fract_y
  _atom_site_fract_z
  _atom_site_thermal_displace_type
  _atom_site_B_iso_or_equiv
  _atom_site_type_symbol
  Zr1      1.0000 0.12541  0.97948  0.25069  Biso   1.000  Zr
  Zr2      1.0000 0.12540  0.19579  0.75072  Biso   1.000  Zr
  Zr3      1.0000 0.38670  0.25221  0.17307  Biso   1.000  Zr
  Zr4      1.0000 0.39023  0.00936  0.70716  Biso   1.000  Zr
  Zr5      1.0000 0.99356  0.13016  0.03435  Biso   1.000  Zr
  Zr6      1.0000 0.98754  0.08272  0.51834  Biso   1.000  Zr
  Zr7      1.0000 0.96847  0.33217  0.68831  Biso   1.000  Zr
  Zr8      1.0000 0.97112  0.44110  0.15763  Biso   1.000  Zr
  Zr9      1.0000 0.25727  0.13021  0.46713  Biso   1.000  Zr
  Zr10     1.0000 0.26323  0.08266  0.98316  Biso   1.000  Zr
  Zr11     1.0000 0.28237  0.33211  0.81332  Biso   1.000  Zr
  Zr12     1.0000 0.27963  0.44105  0.34406  Biso   1.000  Zr
  Zr13     1.0000 0.12539  0.57599  0.25077  Biso   1.000  Zr
  Zr14     1.0000 0.12540  0.76102  0.75074  Biso   1.000  Zr
  Zr15     1.0000 0.39588  0.74004  0.22187  Biso   1.000  Zr
  Zr16     1.0000 0.36922  0.49808  0.70636  Biso   1.000  Zr
  Zr17     1.0000 0.98726  0.66741  0.00626  Biso   1.000  Zr
  Zr18     1.0000 0.00639  0.60456  0.55059  Biso   1.000  Zr
  Zr19     1.0000 0.01711  0.83386  0.40809  Biso   1.000  Zr
  Zr20     1.0000 0.01640  0.90444  0.91253  Biso   1.000  Zr
  Zr21     1.0000 0.26351  0.66740  0.49528  Biso   1.000  Zr
  Zr22     1.0000 0.24431  0.60447  0.95088  Biso   1.000  Zr
  Zr23     1.0000 0.23371  0.83382  0.09334  Biso   1.000  Zr
  Zr24     1.0000 0.23444  0.90443  0.58886  Biso   1.000  Zr
  Zr25     1.0000 0.62543  0.99767  0.25076  Biso   1.000  Zr
  Zr26     1.0000 0.62542  0.25977  0.75089  Biso   1.000  Zr
  Zr27     1.0000 0.86409  0.25229  0.32864  Biso   1.000  Zr
  Zr28     1.0000 0.86058  0.00938  0.79438  Biso   1.000  Zr
  Zr29     1.0000 0.50532  0.14379  0.95209  Biso   1.000  Zr
  Zr30     1.0000 0.50059  0.10482  0.44641  Biso   1.000  Zr
  Zr31     1.0000 0.50324  0.35218  0.47431  Biso   1.000  Zr
  Zr32     1.0000 0.50467  0.39418  0.97956  Biso   1.000  Zr
  Zr33     1.0000 0.74544  0.14381  0.54944  Biso   1.000  Zr
  Zr34     1.0000 0.75018  0.10490  0.05505  Biso   1.000  Zr
  Zr35     1.0000 0.74757  0.35224  0.02730  Biso   1.000  Zr
  Zr36     1.0000 0.74613  0.39421  0.52209  Biso   1.000  Zr
  Zr37     1.0000 0.62535  0.49235  0.25083  Biso   1.000  Zr
  Zr38     1.0000 0.62539  0.74153  0.75092  Biso   1.000  Zr
  Zr39     1.0000 0.85493  0.74002  0.27989  Biso   1.000  Zr
  Zr40     1.0000 0.88153  0.49813  0.79529  Biso   1.000  Zr
  Zr41     1.0000 0.49775  0.63988  0.96441  Biso   1.000  Zr
  Zr42     1.0000 0.50704  0.60339  0.47286  Biso   1.000  Zr
  Zr43     1.0000 0.49830  0.85585  0.50481  Biso   1.000  Zr
  Zr44     1.0000 0.49660  0.88846  0.00443  Biso   1.000  Zr
  Zr45     1.0000 0.75302  0.63990  0.53739  Biso   1.000  Zr
  Zr46     1.0000 0.74373  0.60343  0.02892  Biso   1.000  Zr
  Zr47     1.0000 0.75252  0.85588  0.99681  Biso   1.000  Zr
  Zr48     1.0000 0.75424  0.88848  0.49715  Biso   1.000  Zr
  Pb1      1.0000 0.12537  0.29259  0.25066  Biso   1.000  Pb
