data_image0
_cell_length_a       10.0766
_cell_length_b       10.2475
_cell_length_c       10.0766
_cell_angle_alpha    89.9988
_cell_angle_beta     89.9988
_cell_angle_gamma    90.0014

_symmetry_space_group_name_H-M    "P 1"
_symmetry_int_tables_number       1

loop_
  _symmetry_equiv_pos_as_xyz
  'x, y, z'

loop_
  _atom_site_label
  _atom_site_occupancy
  _atom_site_fract_x
  _atom_site_fract_y
  _atom_site_fract_z
  _atom_site_thermal_displace_type
  _atom_site_B_iso_or_equiv
  _atom_site_type_symbol
  Pb1      1.0000 0.12497  0.99994  0.12499  Biso   1.000  Pb
  Zr1      1.0000 0.12497  0.99996  0.62499  Biso   1.000  Zr
  Zr2      1.0000 0.12498  0.49997  0.12499  Biso   1.000  Zr
  Zr3      1.0000 0.12498  0.49997  0.62499  Biso   1.000  Zr
  Zr4      1.0000 0.62497  0.99996  0.12499  Biso   1.000  Zr
  Zr5      1.0000 0.62498  0.99997  0.62499  Biso   1.000  Zr
  Zr6      1.0000 0.62498  0.49997  0.12500  Biso   1.000  Zr
  Zr7      1.0000 0.62498  0.49996  0.62499  Biso   1.000  Zr
  Zr8      1.0000 0.12547  0.25167  0.37594  Biso   1.000  Zr
  Zr9      1.0000 0.12450  0.25167  0.87404  Biso   1.000  Zr
  Zr10     1.0000 0.12450  0.74827  0.37594  Biso   1.000  Zr
  Zr11     1.0000 0.12546  0.74827  0.87403  Biso   1.000  Zr
  Zr12     1.0000 0.62559  0.24972  0.37473  Biso   1.000  Zr
  Zr13     1.0000 0.62438  0.24972  0.87525  Biso   1.000  Zr
  Zr14     1.0000 0.62438  0.75022  0.37473  Biso   1.000  Zr
  Zr15     1.0000 0.62558  0.75021  0.87524  Biso   1.000  Zr
  Zr16     1.0000 0.37593  0.25167  0.12547  Biso   1.000  Zr
  Zr17     1.0000 0.37472  0.24972  0.62560  Biso   1.000  Zr
  Zr18     1.0000 0.37594  0.74827  0.12451  Biso   1.000  Zr
  Zr19     1.0000 0.37473  0.75021  0.62438  Biso   1.000  Zr
  Zr20     1.0000 0.87404  0.25167  0.12451  Biso   1.000  Zr
  Zr21     1.0000 0.87524  0.24972  0.62438  Biso   1.000  Zr
  Zr22     1.0000 0.87402  0.74826  0.12546  Biso   1.000  Zr
  Zr23     1.0000 0.87523  0.75021  0.62559  Biso   1.000  Zr
  Zr24     1.0000 0.37634  0.00196  0.37636  Biso   1.000  Zr
  Zr25     1.0000 0.37633  0.99798  0.87363  Biso   1.000  Zr
  Zr26     1.0000 0.37545  0.50018  0.37546  Biso   1.000  Zr
  Zr27     1.0000 0.37545  0.49974  0.87453  Biso   1.000  Zr
  Zr28     1.0000 0.87362  0.99798  0.37634  Biso   1.000  Zr
  Zr29     1.0000 0.87361  0.00196  0.87363  Biso   1.000  Zr
  Zr30     1.0000 0.87451  0.49974  0.37546  Biso   1.000  Zr
  Zr31     1.0000 0.87451  0.50018  0.87453  Biso   1.000  Zr
  Zr32     1.0000 0.99152  0.15114  0.99153  Biso   1.000  Zr
  Zr33     1.0000 0.99790  0.14687  0.49677  Biso   1.000  Zr
  Zr34     1.0000 0.99946  0.64710  0.99947  Biso   1.000  Zr
  Zr35     1.0000 0.99864  0.64588  0.50027  Biso   1.000  Zr
  Zr36     1.0000 0.49675  0.14687  0.99791  Biso   1.000  Zr
  Zr37     1.0000 0.49844  0.14694  0.49845  Biso   1.000  Zr
  Zr38     1.0000 0.50026  0.64588  0.99865  Biso   1.000  Zr
  Zr39     1.0000 0.49864  0.64673  0.49864  Biso   1.000  Zr
  Zr40     1.0000 0.99978  0.10612  0.25020  Biso   1.000  Zr
  Zr41     1.0000 0.00010  0.10339  0.74642  Biso   1.000  Zr
  Zr42     1.0000 0.00015  0.60154  0.24982  Biso   1.000  Zr
  Zr43     1.0000 0.00097  0.60332  0.74996  Biso   1.000  Zr
  Zr44     1.0000 0.50356  0.10339  0.24987  Biso   1.000  Zr
  Zr45     1.0000 0.50127  0.10317  0.74870  Biso   1.000  Zr
  Zr46     1.0000 0.50001  0.60333  0.24899  Biso   1.000  Zr
  Zr47     1.0000 0.50079  0.60330  0.74918  Biso   1.000  Zr
  Zr48     1.0000 0.99945  0.35284  0.25053  Biso   1.000  Zr
  Zr49     1.0000 0.99864  0.35405  0.74972  Biso   1.000  Zr
  Zr50     1.0000 0.99154  0.84879  0.25843  Biso   1.000  Zr
  Zr51     1.0000 0.99790  0.85306  0.75320  Biso   1.000  Zr
  Zr52     1.0000 0.50026  0.35405  0.25133  Biso   1.000  Zr
  Zr53     1.0000 0.49864  0.35320  0.75133  Biso   1.000  Zr
  Zr54     1.0000 0.49677  0.85307  0.25207  Biso   1.000  Zr
  Zr55     1.0000 0.49843  0.85300  0.75154  Biso   1.000  Zr
  Zr56     1.0000 0.00016  0.39839  0.00017  Biso   1.000  Zr
  Zr57     1.0000 0.00096  0.39660  0.50003  Biso   1.000  Zr
  Zr58     1.0000 0.99976  0.89382  0.99976  Biso   1.000  Zr
  Zr59     1.0000 0.00011  0.89654  0.50354  Biso   1.000  Zr
  Zr60     1.0000 0.50002  0.39661  0.00098  Biso   1.000  Zr
  Zr61     1.0000 0.50078  0.39663  0.50080  Biso   1.000  Zr
  Zr62     1.0000 0.50353  0.89655  0.00012  Biso   1.000  Zr
  Zr63     1.0000 0.50128  0.89677  0.50129  Biso   1.000  Zr
  Zr64     1.0000 0.25845  0.15115  0.25847  Biso   1.000  Zr
  Zr65     1.0000 0.25206  0.14687  0.75322  Biso   1.000  Zr
  Zr66     1.0000 0.25051  0.64710  0.25052  Biso   1.000  Zr
  Zr67     1.0000 0.25132  0.64588  0.74970  Biso   1.000  Zr
  Zr68     1.0000 0.75321  0.14687  0.25208  Biso   1.000  Zr
  Zr69     1.0000 0.75152  0.14694  0.75153  Biso   1.000  Zr
  Zr70     1.0000 0.74970  0.64588  0.25133  Biso   1.000  Zr
  Zr71     1.0000 0.75132  0.64673  0.75133  Biso   1.000  Zr
  Zr72     1.0000 0.25019  0.10612  0.99980  Biso   1.000  Zr
  Zr73     1.0000 0.24986  0.10339  0.50357  Biso   1.000  Zr
  Zr74     1.0000 0.24981  0.60154  0.00016  Biso   1.000  Zr
  Zr75     1.0000 0.24899  0.60333  0.50002  Biso   1.000  Zr
  Zr76     1.0000 0.74641  0.10339  0.00011  Biso   1.000  Zr
  Zr77     1.0000 0.74869  0.10316  0.50128  Biso   1.000  Zr
  Zr78     1.0000 0.74996  0.60332  0.00098  Biso   1.000  Zr
  Zr79     1.0000 0.74917  0.60330  0.50079  Biso   1.000  Zr
  Zr80     1.0000 0.25051  0.35283  0.99946  Biso   1.000  Zr
  Zr81     1.0000 0.25132  0.35405  0.50027  Biso   1.000  Zr
  Zr82     1.0000 0.25842  0.84879  0.99155  Biso   1.000  Zr
  Zr83     1.0000 0.25207  0.85306  0.49677  Biso   1.000  Zr
  Zr84     1.0000 0.74971  0.35405  0.99865  Biso   1.000  Zr
  Zr85     1.0000 0.75132  0.35320  0.49865  Biso   1.000  Zr
  Zr86     1.0000 0.75319  0.85306  0.99791  Biso   1.000  Zr
  Zr87     1.0000 0.75153  0.85300  0.49844  Biso   1.000  Zr
  Zr88     1.0000 0.24980  0.39839  0.24982  Biso   1.000  Zr
  Zr89     1.0000 0.24899  0.39660  0.74996  Biso   1.000  Zr
  Zr90     1.0000 0.25020  0.89382  0.25021  Biso   1.000  Zr
  Zr91     1.0000 0.24985  0.89654  0.74643  Biso   1.000  Zr
  Zr92     1.0000 0.74995  0.39661  0.24901  Biso   1.000  Zr
  Zr93     1.0000 0.74917  0.39663  0.74919  Biso   1.000  Zr
  Zr94     1.0000 0.74642  0.89655  0.24986  Biso   1.000  Zr
  Zr95     1.0000 0.74868  0.89677  0.74869  Biso   1.000  Zr
