data_image0
_cell_length_a       10.1231
_cell_length_b       10.2883
_cell_length_c       10.1218
_cell_angle_alpha    89.3594
_cell_angle_beta     90.0222
_cell_angle_gamma    89.2378

_symmetry_space_group_name_H-M    "P 1"
_symmetry_int_tables_number       1

loop_
  _symmetry_equiv_pos_as_xyz
  'x, y, z'

loop_
  _atom_site_label
  _atom_site_occupancy
  _atom_site_fract_x
  _atom_site_fract_y
  _atom_site_fract_z
  _atom_site_thermal_displace_type
  _atom_site_B_iso_or_equiv
  _atom_site_type_symbol
  Zr1      1.0000 0.10826  0.98147  0.11385  Biso   1.000  Zr
  Zr2      1.0000 0.12370  0.24528  0.39329  Biso   1.000  Zr
  Zr3      1.0000 0.40761  0.26481  0.13457  Biso   1.000  Zr
  Zr4      1.0000 0.37467  0.00766  0.37307  Biso   1.000  Zr
  Zr5      1.0000 0.98452  0.14172  0.99648  Biso   1.000  Zr
  Zr6      1.0000 0.01030  0.09842  0.25731  Biso   1.000  Zr
  Zr7      1.0000 0.00611  0.35864  0.25966  Biso   1.000  Zr
  Zr8      1.0000 0.01318  0.39818  0.00092  Biso   1.000  Zr
  Zr9      1.0000 0.29142  0.17877  0.28890  Biso   1.000  Zr
  Zr10     1.0000 0.22763  0.07828  0.98045  Biso   1.000  Zr
  Zr11     1.0000 0.28245  0.32995  0.97364  Biso   1.000  Zr
  Zr12     1.0000 0.27736  0.42207  0.22650  Biso   1.000  Zr
  Zr13     1.0000 0.12251  0.99575  0.62698  Biso   1.000  Zr
  Zr14     1.0000 0.12669  0.24331  0.87082  Biso   1.000  Zr
  Zr15     1.0000 0.37662  0.25285  0.62558  Biso   1.000  Zr
  Zr16     1.0000 0.37304  0.00274  0.86628  Biso   1.000  Zr
  Zr17     1.0000 0.99568  0.14401  0.50676  Biso   1.000  Zr
  Zr18     1.0000 0.00037  0.10054  0.75271  Biso   1.000  Zr
  Zr19     1.0000 0.99561  0.35140  0.75408  Biso   1.000  Zr
  Zr20     1.0000 0.00184  0.39504  0.50565  Biso   1.000  Zr
  Zr21     1.0000 0.25214  0.14500  0.74495  Biso   1.000  Zr
  Zr22     1.0000 0.24636  0.10132  0.50802  Biso   1.000  Zr
  Zr23     1.0000 0.25340  0.35952  0.49368  Biso   1.000  Zr
  Zr24     1.0000 0.24869  0.39511  0.74200  Biso   1.000  Zr
  Zr25     1.0000 0.12067  0.51142  0.13184  Biso   1.000  Zr
  Zr26     1.0000 0.12257  0.75773  0.37910  Biso   1.000  Zr
  Zr27     1.0000 0.37453  0.74984  0.12462  Biso   1.000  Zr
  Zr28     1.0000 0.37784  0.50479  0.37817  Biso   1.000  Zr
  Zr29     1.0000 0.99716  0.64435  0.00213  Biso   1.000  Zr
  Zr30     1.0000 0.99406  0.60761  0.25269  Biso   1.000  Zr
  Zr31     1.0000 0.99197  0.85134  0.24746  Biso   1.000  Zr
  Zr32     1.0000 0.98203  0.88715  0.99519  Biso   1.000  Zr
  Zr33     1.0000 0.24219  0.66139  0.24887  Biso   1.000  Zr
  Zr34     1.0000 0.24718  0.59108  0.99614  Biso   1.000  Zr
  Zr35     1.0000 0.23124  0.83592  0.01016  Biso   1.000  Zr
  Zr36     1.0000 0.24192  0.91639  0.25344  Biso   1.000  Zr
  Zr37     1.0000 0.12646  0.50258  0.62323  Biso   1.000  Zr
  Zr38     1.0000 0.12240  0.74197  0.87205  Biso   1.000  Zr
  Zr39     1.0000 0.37370  0.74955  0.62640  Biso   1.000  Zr
  Zr40     1.0000 0.37430  0.49131  0.87534  Biso   1.000  Zr
  Zr41     1.0000 0.99884  0.64769  0.50092  Biso   1.000  Zr
  Zr42     1.0000 0.00132  0.60024  0.75153  Biso   1.000  Zr
  Zr43     1.0000 0.99869  0.85031  0.74692  Biso   1.000  Zr
  Zr44     1.0000 0.00151  0.89730  0.49759  Biso   1.000  Zr
  Zr45     1.0000 0.25115  0.64283  0.74853  Biso   1.000  Zr
  Zr46     1.0000 0.24830  0.60727  0.49859  Biso   1.000  Zr
  Zr47     1.0000 0.25182  0.85501  0.50107  Biso   1.000  Zr
  Zr48     1.0000 0.24731  0.89102  0.75357  Biso   1.000  Zr
  Zr49     1.0000 0.61491  0.99358  0.11611  Biso   1.000  Zr
  Zr50     1.0000 0.63289  0.24698  0.38270  Biso   1.000  Zr
  Zr51     1.0000 0.88131  0.25549  0.13244  Biso   1.000  Zr
  Zr52     1.0000 0.87209  0.00067  0.37195  Biso   1.000  Zr
  Zr53     1.0000 0.49361  0.14343  0.99659  Biso   1.000  Zr
  Zr54     1.0000 0.51734  0.10912  0.24969  Biso   1.000  Zr
  Zr55     1.0000 0.52062  0.36631  0.25984  Biso   1.000  Zr
  Zr56     1.0000 0.51633  0.39838  0.00511  Biso   1.000  Zr
  Zr57     1.0000 0.76564  0.15477  0.25990  Biso   1.000  Zr
  Zr58     1.0000 0.73965  0.09984  0.99998  Biso   1.000  Zr
  Zr59     1.0000 0.76321  0.34894  0.99645  Biso   1.000  Zr
  Zr60     1.0000 0.76300  0.40428  0.24592  Biso   1.000  Zr
  Zr61     1.0000 0.62291  0.99878  0.62347  Biso   1.000  Zr
  Zr62     1.0000 0.62858  0.25021  0.88001  Biso   1.000  Zr
  Zr63     1.0000 0.87487  0.25075  0.63110  Biso   1.000  Zr
  Zr64     1.0000 0.86724  0.00290  0.87298  Biso   1.000  Zr
  Zr65     1.0000 0.49951  0.14920  0.49901  Biso   1.000  Zr
  Zr66     1.0000 0.50070  0.10354  0.74731  Biso   1.000  Zr
  Zr67     1.0000 0.49829  0.35064  0.75505  Biso   1.000  Zr
  Zr68     1.0000 0.50048  0.39894  0.50625  Biso   1.000  Zr
  Zr69     1.0000 0.75022  0.14711  0.75220  Biso   1.000  Zr
  Zr70     1.0000 0.74861  0.10196  0.50332  Biso   1.000  Zr
  Zr71     1.0000 0.75357  0.35455  0.50122  Biso   1.000  Zr
  Zr72     1.0000 0.74798  0.39666  0.75204  Biso   1.000  Zr
  Zr73     1.0000 0.62853  0.50902  0.13301  Biso   1.000  Zr
  Zr74     1.0000 0.62136  0.75662  0.37643  Biso   1.000  Zr
  Zr75     1.0000 0.86817  0.74841  0.12277  Biso   1.000  Zr
  Zr76     1.0000 0.87637  0.50174  0.37977  Biso   1.000  Zr
  Zr77     1.0000 0.49755  0.64555  0.00022  Biso   1.000  Zr
  Zr78     1.0000 0.49742  0.61178  0.25021  Biso   1.000  Zr
  Zr79     1.0000 0.49213  0.85855  0.25029  Biso   1.000  Zr
  Zr80     1.0000 0.48539  0.89386  0.00007  Biso   1.000  Zr
  Zr81     1.0000 0.74430  0.65163  0.25188  Biso   1.000  Zr
  Zr82     1.0000 0.75144  0.60153  0.00133  Biso   1.000  Zr
  Zr83     1.0000 0.73534  0.84958  0.00167  Biso   1.000  Zr
  Zr84     1.0000 0.74339  0.90222  0.24985  Biso   1.000  Zr
  Zr85     1.0000 0.62521  0.50105  0.62687  Biso   1.000  Zr
  Zr86     1.0000 0.62123  0.74506  0.87264  Biso   1.000  Zr
  Zr87     1.0000 0.87323  0.74937  0.62638  Biso   1.000  Zr
  Zr88     1.0000 0.87765  0.49497  0.87779  Biso   1.000  Zr
  Zr89     1.0000 0.49824  0.64938  0.49956  Biso   1.000  Zr
  Zr90     1.0000 0.50112  0.60166  0.75061  Biso   1.000  Zr
  Zr91     1.0000 0.49769  0.85285  0.74891  Biso   1.000  Zr
  Zr92     1.0000 0.50223  0.89933  0.49926  Biso   1.000  Zr
  Zr93     1.0000 0.75102  0.64581  0.75197  Biso   1.000  Zr
  Zr94     1.0000 0.74847  0.60392  0.50221  Biso   1.000  Zr
  Zr95     1.0000 0.75145  0.85305  0.49863  Biso   1.000  Zr
  Zr96     1.0000 0.74711  0.89530  0.74945  Biso   1.000  Zr
  Pd1      1.0000 0.16363  0.23131  0.13351  Biso   1.000  Pd
