data_image0
_cell_length_a       10.0974
_cell_length_b       10.2657
_cell_length_c       5.24186
_cell_angle_alpha    90.0648
_cell_angle_beta     90.5782
_cell_angle_gamma    89.3847

_symmetry_space_group_name_H-M    "P 1"
_symmetry_int_tables_number       1

loop_
  _symmetry_equiv_pos_as_xyz
  'x, y, z'

loop_
  _atom_site_label
  _atom_site_occupancy
  _atom_site_fract_x
  _atom_site_fract_y
  _atom_site_fract_z
  _atom_site_thermal_displace_type
  _atom_site_B_iso_or_equiv
  _atom_site_type_symbol
  Pd1      1.0000 0.12455  0.00902  0.37731  Biso   1.000  Pd
  Zr1      1.0000 0.13934  0.52275  0.34577  Biso   1.000  Zr
  Zr2      1.0000 0.14560  0.22824  0.83670  Biso   1.000  Zr
  Zr3      1.0000 0.13598  0.73109  0.84767  Biso   1.000  Zr
  Zr4      1.0000 0.35986  0.27129  0.33228  Biso   1.000  Zr
  Zr5      1.0000 0.35893  0.77645  0.33945  Biso   1.000  Zr
  Zr6      1.0000 0.36117  0.48016  0.84182  Biso   1.000  Zr
  Zr7      1.0000 0.35999  0.98372  0.84173  Biso   1.000  Zr
  Zr8      1.0000 0.63787  0.02194  0.15685  Biso   1.000  Zr
  Zr9      1.0000 0.63942  0.51894  0.16045  Biso   1.000  Zr
  Zr10     1.0000 0.63885  0.23011  0.65882  Biso   1.000  Zr
  Zr11     1.0000 0.63564  0.72723  0.65765  Biso   1.000  Zr
  Zr12     1.0000 0.86880  0.26490  0.16772  Biso   1.000  Zr
  Zr13     1.0000 0.85815  0.76844  0.15878  Biso   1.000  Zr
  Zr14     1.0000 0.86344  0.47605  0.66539  Biso   1.000  Zr
  Zr15     1.0000 0.85493  0.97705  0.66265  Biso   1.000  Zr
  O1       1.0000 0.04475  0.15344  0.16620  Biso   1.000  O
  O2       1.0000 0.03188  0.66643  0.17225  Biso   1.000  O
  O3       1.0000 0.03102  0.08543  0.66044  Biso   1.000  O
  O4       1.0000 0.03336  0.58371  0.67574  Biso   1.000  O
  O5       1.0000 0.46650  0.41877  0.16959  Biso   1.000  O
  O6       1.0000 0.46684  0.91794  0.16637  Biso   1.000  O
  O7       1.0000 0.46700  0.33322  0.66862  Biso   1.000  O
  O8       1.0000 0.46162  0.83242  0.66918  Biso   1.000  O
  O9       1.0000 0.27058  0.11613  0.55229  Biso   1.000  O
  O10      1.0000 0.27444  0.62703  0.59084  Biso   1.000  O
  O11      1.0000 0.30060  0.14810  0.03903  Biso   1.000  O
  O12      1.0000 0.27590  0.63204  0.09050  Biso   1.000  O
  O13      1.0000 0.22633  0.37378  0.58953  Biso   1.000  O
  O14      1.0000 0.21580  0.87445  0.59031  Biso   1.000  O
  O15      1.0000 0.22127  0.38313  0.08818  Biso   1.000  O
  O16      1.0000 0.21947  0.88954  0.09565  Biso   1.000  O
  O17      1.0000 0.53611  0.17006  0.32475  Biso   1.000  O
  O18      1.0000 0.53229  0.66815  0.32730  Biso   1.000  O
  O19      1.0000 0.53787  0.07910  0.81917  Biso   1.000  O
  O20      1.0000 0.53401  0.58173  0.82903  Biso   1.000  O
  O21      1.0000 0.97080  0.41150  0.34408  Biso   1.000  O
  O22      1.0000 0.95952  0.91672  0.32914  Biso   1.000  O
  O23      1.0000 0.97043  0.33059  0.84713  Biso   1.000  O
  O24      1.0000 0.96337  0.83359  0.83359  Biso   1.000  O
  O25      1.0000 0.77811  0.12246  0.91374  Biso   1.000  O
  O26      1.0000 0.77549  0.62243  0.91365  Biso   1.000  O
  O27      1.0000 0.77652  0.12444  0.41249  Biso   1.000  O
  O28      1.0000 0.77526  0.62366  0.41468  Biso   1.000  O
  O29      1.0000 0.72810  0.37183  0.91708  Biso   1.000  O
  O30      1.0000 0.72078  0.87187  0.91106  Biso   1.000  O
  O31      1.0000 0.72819  0.37389  0.41468  Biso   1.000  O
  O32      1.0000 0.72328  0.87507  0.41267  Biso   1.000  O
