data_image0
_cell_length_a       10.0781
_cell_length_b       10.4608
_cell_length_c       10.1009
_cell_angle_alpha    89.6491
_cell_angle_beta     89.7684
_cell_angle_gamma    89.9788

_symmetry_space_group_name_H-M    "P 1"
_symmetry_int_tables_number       1

loop_
  _symmetry_equiv_pos_as_xyz
  'x, y, z'

loop_
  _atom_site_label
  _atom_site_occupancy
  _atom_site_fract_x
  _atom_site_fract_y
  _atom_site_fract_z
  _atom_site_thermal_displace_type
  _atom_site_B_iso_or_equiv
  _atom_site_type_symbol
  Zr1      1.0000 0.13511  0.01551  0.12246  Biso   1.000  Zr
  Zr2      1.0000 0.13581  0.23175  0.38263  Biso   1.000  Zr
  Zr3      1.0000 0.36931  0.26606  0.12477  Biso   1.000  Zr
  Zr4      1.0000 0.36796  0.48615  0.37815  Biso   1.000  Zr
  Zr5      1.0000 0.00467  0.15846  0.22713  Biso   1.000  Zr
  Zr6      1.0000 0.03679  0.06387  0.45431  Biso   1.000  Zr
  Zr7      1.0000 0.46638  0.43386  0.19534  Biso   1.000  Zr
  Zr8      1.0000 0.46583  0.31840  0.44767  Biso   1.000  Zr
  Zr9      1.0000 0.26563  0.11723  0.24993  Biso   1.000  Zr
  Zr10     1.0000 0.27205  0.13265  0.49988  Biso   1.000  Zr
  Zr11     1.0000 0.23267  0.38328  0.50327  Biso   1.000  Zr
  Zr12     1.0000 0.23907  0.37392  0.25888  Biso   1.000  Zr
  Zr13     1.0000 0.13510  0.01199  0.62683  Biso   1.000  Zr
  Zr14     1.0000 0.13507  0.22625  0.86620  Biso   1.000  Zr
  Zr15     1.0000 0.36787  0.26643  0.62649  Biso   1.000  Zr
  Zr16     1.0000 0.36830  0.48497  0.87449  Biso   1.000  Zr
  Zr17     1.0000 0.03645  0.18089  0.69097  Biso   1.000  Zr
  Zr18     1.0000 0.03778  0.05947  0.94078  Biso   1.000  Zr
  Zr19     1.0000 0.46604  0.43367  0.69530  Biso   1.000  Zr
  Zr20     1.0000 0.46599  0.31592  0.94319  Biso   1.000  Zr
  Zr21     1.0000 0.27052  0.11422  0.74633  Biso   1.000  Zr
  Zr22     1.0000 0.28153  0.12654  0.99290  Biso   1.000  Zr
  Zr23     1.0000 0.23439  0.38721  0.00110  Biso   1.000  Zr
  Zr24     1.0000 0.23218  0.36576  0.75039  Biso   1.000  Zr
  Zr25     1.0000 0.13589  0.52913  0.12824  Biso   1.000  Zr
  Zr26     1.0000 0.13544  0.73663  0.37789  Biso   1.000  Zr
  Zr27     1.0000 0.36680  0.76715  0.12627  Biso   1.000  Zr
  Zr28     1.0000 0.36637  0.98510  0.37573  Biso   1.000  Zr
  Zr29     1.0000 0.03552  0.68594  0.19813  Biso   1.000  Zr
  Zr30     1.0000 0.03723  0.56782  0.44392  Biso   1.000  Zr
  Zr31     1.0000 0.46285  0.93407  0.19544  Biso   1.000  Zr
  Zr32     1.0000 0.46668  0.81730  0.44449  Biso   1.000  Zr
  Zr33     1.0000 0.27309  0.62257  0.25099  Biso   1.000  Zr
  Zr34     1.0000 0.27062  0.63348  0.50010  Biso   1.000  Zr
  Zr35     1.0000 0.23311  0.88280  0.49941  Biso   1.000  Zr
  Zr36     1.0000 0.23032  0.86904  0.24933  Biso   1.000  Zr
  Zr37     1.0000 0.13440  0.51543  0.62587  Biso   1.000  Zr
  Zr38     1.0000 0.13335  0.73465  0.87395  Biso   1.000  Zr
  Zr39     1.0000 0.36930  0.76486  0.62508  Biso   1.000  Zr
  Zr40     1.0000 0.36913  0.98170  0.87469  Biso   1.000  Zr
  Zr41     1.0000 0.03658  0.68389  0.69349  Biso   1.000  Zr
  Zr42     1.0000 0.03586  0.56623  0.94678  Biso   1.000  Zr
  Zr43     1.0000 0.46801  0.93214  0.69313  Biso   1.000  Zr
  Zr44     1.0000 0.46772  0.81681  0.94705  Biso   1.000  Zr
  Zr45     1.0000 0.26934  0.61546  0.74949  Biso   1.000  Zr
  Zr46     1.0000 0.26936  0.63590  0.99938  Biso   1.000  Zr
  Zr47     1.0000 0.23056  0.88133  0.99902  Biso   1.000  Zr
  Zr48     1.0000 0.23469  0.86439  0.74907  Biso   1.000  Zr
  Zr49     1.0000 0.63053  0.01174  0.12304  Biso   1.000  Zr
  Zr50     1.0000 0.63147  0.23315  0.37798  Biso   1.000  Zr
  Zr51     1.0000 0.84488  0.26294  0.12491  Biso   1.000  Zr
  Zr52     1.0000 0.86876  0.48462  0.37581  Biso   1.000  Zr
  Zr53     1.0000 0.53254  0.18169  0.19537  Biso   1.000  Zr
  Zr54     1.0000 0.53444  0.06665  0.44603  Biso   1.000  Zr
  Zr55     1.0000 0.95787  0.43841  0.19263  Biso   1.000  Zr
  Zr56     1.0000 0.96858  0.31908  0.44764  Biso   1.000  Zr
  Zr57     1.0000 0.75732  0.11376  0.24808  Biso   1.000  Zr
  Zr58     1.0000 0.77119  0.13585  0.49679  Biso   1.000  Zr
  Zr59     1.0000 0.73250  0.38365  0.49901  Biso   1.000  Zr
  Zr60     1.0000 0.72596  0.36731  0.25159  Biso   1.000  Zr
  Zr61     1.0000 0.63671  0.01479  0.62345  Biso   1.000  Zr
  Zr62     1.0000 0.63299  0.23305  0.87196  Biso   1.000  Zr
  Zr63     1.0000 0.86659  0.26689  0.62618  Biso   1.000  Zr
  Zr64     1.0000 0.86732  0.48315  0.87460  Biso   1.000  Zr
  Zr65     1.0000 0.53709  0.18302  0.69302  Biso   1.000  Zr
  Zr66     1.0000 0.53895  0.06425  0.94112  Biso   1.000  Zr
  Zr67     1.0000 0.96401  0.43568  0.69130  Biso   1.000  Zr
  Zr68     1.0000 0.95359  0.31140  0.92422  Biso   1.000  Zr
  Zr69     1.0000 0.77092  0.11569  0.74739  Biso   1.000  Zr
  Zr70     1.0000 0.76767  0.13051  0.99793  Biso   1.000  Zr
  Zr71     1.0000 0.72594  0.38192  0.00003  Biso   1.000  Zr
  Zr72     1.0000 0.72946  0.36767  0.74796  Biso   1.000  Zr
  Zr73     1.0000 0.63279  0.51806  0.12709  Biso   1.000  Zr
  Zr74     1.0000 0.63627  0.73600  0.37532  Biso   1.000  Zr
  Zr75     1.0000 0.86482  0.76407  0.12445  Biso   1.000  Zr
  Zr76     1.0000 0.87277  0.98902  0.36845  Biso   1.000  Zr
  Zr77     1.0000 0.53641  0.68531  0.19511  Biso   1.000  Zr
  Zr78     1.0000 0.53832  0.56790  0.44506  Biso   1.000  Zr
  Zr79     1.0000 0.96548  0.92744  0.19023  Biso   1.000  Zr
  Zr80     1.0000 0.96697  0.81921  0.44411  Biso   1.000  Zr
  Zr81     1.0000 0.76925  0.61730  0.24959  Biso   1.000  Zr
  Zr82     1.0000 0.77119  0.63476  0.49843  Biso   1.000  Zr
  Zr83     1.0000 0.73521  0.88676  0.49558  Biso   1.000  Zr
  Zr84     1.0000 0.73134  0.86644  0.24662  Biso   1.000  Zr
  Zr85     1.0000 0.63584  0.51593  0.62464  Biso   1.000  Zr
  Zr86     1.0000 0.63524  0.73301  0.87474  Biso   1.000  Zr
  Zr87     1.0000 0.86782  0.76621  0.62349  Biso   1.000  Zr
  Zr88     1.0000 0.86670  0.98157  0.87394  Biso   1.000  Zr
  Zr89     1.0000 0.53585  0.68221  0.69619  Biso   1.000  Zr
  Zr90     1.0000 0.53426  0.56731  0.94614  Biso   1.000  Zr
  Zr91     1.0000 0.96731  0.93037  0.69777  Biso   1.000  Zr
  Zr92     1.0000 0.96358  0.81293  0.94340  Biso   1.000  Zr
  Zr93     1.0000 0.77009  0.61663  0.74780  Biso   1.000  Zr
  Zr94     1.0000 0.76858  0.63150  0.99825  Biso   1.000  Zr
  Zr95     1.0000 0.73122  0.88109  0.99749  Biso   1.000  Zr
  Zr96     1.0000 0.73200  0.86578  0.74696  Biso   1.000  Zr
  Pd1      1.0000 0.09429  0.28325  0.10938  Biso   1.000  Pd
