data_image0
_cell_length_a       5.00957
_cell_length_b       10.4352
_cell_length_c       10.0664
_cell_angle_alpha    90.4049
_cell_angle_beta     89.0251
_cell_angle_gamma    90.3851

_symmetry_space_group_name_H-M    "P 1"
_symmetry_int_tables_number       1

loop_
  _symmetry_equiv_pos_as_xyz
  'x, y, z'

loop_
  _atom_site_label
  _atom_site_occupancy
  _atom_site_fract_x
  _atom_site_fract_y
  _atom_site_fract_z
  _atom_site_thermal_displace_type
  _atom_site_B_iso_or_equiv
  _atom_site_type_symbol
  Pd1      1.0000 0.25155  0.03928  0.10303  Biso   1.000  Pd
  Zr1      1.0000 0.26465  0.01441  0.62409  Biso   1.000  Zr
  Zr2      1.0000 0.26973  0.51586  0.12859  Biso   1.000  Zr
  Zr3      1.0000 0.26766  0.51735  0.62485  Biso   1.000  Zr
  Zr4      1.0000 0.27114  0.22945  0.37602  Biso   1.000  Zr
  Zr5      1.0000 0.25871  0.24010  0.87060  Biso   1.000  Zr
  Zr6      1.0000 0.27911  0.73556  0.37623  Biso   1.000  Zr
  Zr7      1.0000 0.26043  0.73576  0.87943  Biso   1.000  Zr
  Zr8      1.0000 0.72519  0.26638  0.12461  Biso   1.000  Zr
  Zr9      1.0000 0.73158  0.26504  0.62335  Biso   1.000  Zr
  Zr10     1.0000 0.74849  0.76520  0.12503  Biso   1.000  Zr
  Zr11     1.0000 0.73625  0.76706  0.62623  Biso   1.000  Zr
  Zr12     1.0000 0.73610  0.48363  0.37623  Biso   1.000  Zr
  Zr13     1.0000 0.72868  0.48822  0.87448  Biso   1.000  Zr
  Zr14     1.0000 0.74159  0.98277  0.37020  Biso   1.000  Zr
  Zr15     1.0000 0.71341  0.98297  0.87539  Biso   1.000  Zr
  Zr16     1.0000 0.06856  0.18462  0.18967  Biso   1.000  Zr
  Zr17     1.0000 0.06815  0.18495  0.69474  Biso   1.000  Zr
  Zr18     1.0000 0.07732  0.68304  0.19865  Biso   1.000  Zr
  Zr19     1.0000 0.06676  0.68268  0.69949  Biso   1.000  Zr
  Zr20     1.0000 0.07191  0.06675  0.44843  Biso   1.000  Zr
  Zr21     1.0000 0.05924  0.06514  0.93706  Biso   1.000  Zr
  Zr22     1.0000 0.07401  0.56501  0.44623  Biso   1.000  Zr
  Zr23     1.0000 0.06235  0.56800  0.95015  Biso   1.000  Zr
  Zr24     1.0000 0.93148  0.42901  0.19523  Biso   1.000  Zr
  Zr25     1.0000 0.92948  0.43298  0.69554  Biso   1.000  Zr
  Zr26     1.0000 0.96264  0.93768  0.19200  Biso   1.000  Zr
  Zr27     1.0000 0.92512  0.93477  0.69684  Biso   1.000  Zr
  Zr28     1.0000 0.93057  0.31434  0.44230  Biso   1.000  Zr
  Zr29     1.0000 0.91759  0.31574  0.94287  Biso   1.000  Zr
  Zr30     1.0000 0.94440  0.81821  0.45109  Biso   1.000  Zr
  Zr31     1.0000 0.91229  0.81770  0.93949  Biso   1.000  Zr
  Zr32     1.0000 0.52327  0.10732  0.24542  Biso   1.000  Zr
  Zr33     1.0000 0.53419  0.11785  0.74803  Biso   1.000  Zr
  Zr34     1.0000 0.54415  0.60829  0.24864  Biso   1.000  Zr
  Zr35     1.0000 0.53388  0.61785  0.75061  Biso   1.000  Zr
  Zr36     1.0000 0.54384  0.13277  0.49609  Biso   1.000  Zr
  Zr37     1.0000 0.52302  0.13661  0.99671  Biso   1.000  Zr
  Zr38     1.0000 0.54318  0.63363  0.49989  Biso   1.000  Zr
  Zr39     1.0000 0.53288  0.63718  0.00011  Biso   1.000  Zr
  Zr40     1.0000 0.46190  0.38176  0.49923  Biso   1.000  Zr
  Zr41     1.0000 0.45662  0.38527  0.99838  Biso   1.000  Zr
  Zr42     1.0000 0.46957  0.88423  0.50268  Biso   1.000  Zr
  Zr43     1.0000 0.44505  0.89152  0.00997  Biso   1.000  Zr
  Zr44     1.0000 0.46067  0.36295  0.24923  Biso   1.000  Zr
  Zr45     1.0000 0.45917  0.36856  0.74783  Biso   1.000  Zr
  Zr46     1.0000 0.51594  0.85026  0.26055  Biso   1.000  Zr
  Zr47     1.0000 0.45487  0.86656  0.75274  Biso   1.000  Zr
