data_image0
_cell_length_a       10.3505
_cell_length_b       5.4502
_cell_length_c       10.3901
_cell_angle_alpha    101.975
_cell_angle_beta     84.1117
_cell_angle_gamma    101.138

_symmetry_space_group_name_H-M    "P 1"
_symmetry_int_tables_number       1

loop_
  _symmetry_equiv_pos_as_xyz
  'x, y, z'

loop_
  _atom_site_label
  _atom_site_occupancy
  _atom_site_fract_x
  _atom_site_fract_y
  _atom_site_fract_z
  _atom_site_thermal_displace_type
  _atom_site_B_iso_or_equiv
  _atom_site_type_symbol
  Zr1      1.0000 0.14821  0.95507  0.15413  Biso   1.000  Zr
  Zr2      1.0000 0.10755  0.51042  0.35505  Biso   1.000  Zr
  Zr3      1.0000 0.35752  0.52765  0.11093  Biso   1.000  Zr
  Zr4      1.0000 0.39938  0.98093  0.40188  Biso   1.000  Zr
  Zr5      1.0000 0.94081  0.38313  0.94462  Biso   1.000  Zr
  Zr6      1.0000 0.00669  0.15675  0.25916  Biso   1.000  Zr
  Zr7      1.0000 0.99650  0.68302  0.25117  Biso   1.000  Zr
  Zr8      1.0000 0.00678  0.82816  0.00790  Biso   1.000  Zr
  Zr9      1.0000 0.25099  0.31743  0.25208  Biso   1.000  Zr
  Zr10     1.0000 0.25624  0.17715  0.01336  Biso   1.000  Zr
  Zr11     1.0000 0.26247  0.71462  0.99523  Biso   1.000  Zr
  Zr12     1.0000 0.25697  0.79773  0.25954  Biso   1.000  Zr
  Zr13     1.0000 0.14883  0.99020  0.64523  Biso   1.000  Zr
  Zr14     1.0000 0.11180  0.54745  0.84056  Biso   1.000  Zr
  Zr15     1.0000 0.35779  0.52716  0.60446  Biso   1.000  Zr
  Zr16     1.0000 0.40338  0.98130  0.90035  Biso   1.000  Zr
  Zr17     1.0000 0.99771  0.33302  0.49798  Biso   1.000  Zr
  Zr18     1.0000 0.00863  0.17198  0.74192  Biso   1.000  Zr
  Zr19     1.0000 0.99589  0.70400  0.74279  Biso   1.000  Zr
  Zr20     1.0000 0.00733  0.80944  0.50261  Biso   1.000  Zr
  Zr21     1.0000 0.25205  0.34455  0.74349  Biso   1.000  Zr
  Zr22     1.0000 0.25747  0.17240  0.50314  Biso   1.000  Zr
  Zr23     1.0000 0.24970  0.68768  0.49786  Biso   1.000  Zr
  Zr24     1.0000 0.25733  0.82893  0.75528  Biso   1.000  Zr
  Zr25     1.0000 0.64768  0.97949  0.15371  Biso   1.000  Zr
  Zr26     1.0000 0.60414  0.52015  0.36018  Biso   1.000  Zr
  Zr27     1.0000 0.84500  0.53050  0.11360  Biso   1.000  Zr
  Zr28     1.0000 0.89894  0.97779  0.40248  Biso   1.000  Zr
  Zr29     1.0000 0.49705  0.33293  0.99975  Biso   1.000  Zr
  Zr30     1.0000 0.50372  0.16660  0.26065  Biso   1.000  Zr
  Zr31     1.0000 0.49749  0.68476  0.25250  Biso   1.000  Zr
  Zr32     1.0000 0.50771  0.81358  0.00908  Biso   1.000  Zr
  Zr33     1.0000 0.74574  0.33433  0.25546  Biso   1.000  Zr
  Zr34     1.0000 0.74926  0.15986  0.01693  Biso   1.000  Zr
  Zr35     1.0000 0.74331  0.69011  0.00147  Biso   1.000  Zr
  Zr36     1.0000 0.75374  0.81311  0.26086  Biso   1.000  Zr
  Zr37     1.0000 0.64859  0.98798  0.65034  Biso   1.000  Zr
  Zr38     1.0000 0.60371  0.52547  0.85818  Biso   1.000  Zr
  Zr39     1.0000 0.85491  0.52203  0.60472  Biso   1.000  Zr
  Zr40     1.0000 0.89296  0.98194  0.89201  Biso   1.000  Zr
  Zr41     1.0000 0.50027  0.33459  0.50253  Biso   1.000  Zr
  Zr42     1.0000 0.50650  0.17500  0.75765  Biso   1.000  Zr
  Zr43     1.0000 0.49731  0.69778  0.75240  Biso   1.000  Zr
  Zr44     1.0000 0.50638  0.81658  0.50876  Biso   1.000  Zr
  Zr45     1.0000 0.74761  0.34025  0.74871  Biso   1.000  Zr
  Zr46     1.0000 0.75598  0.16848  0.50797  Biso   1.000  Zr
  Zr47     1.0000 0.74831  0.69121  0.50112  Biso   1.000  Zr
  Zr48     1.0000 0.75163  0.81510  0.75660  Biso   1.000  Zr
  Pt1      1.0000 0.08551  0.30892  0.02952  Biso   1.000  Pt
