data_image0
_cell_length_a       10.0222
_cell_length_b       10.4073
_cell_length_c       10.0529
_cell_angle_alpha    89.878
_cell_angle_beta     89.9355
_cell_angle_gamma    90.0026

_symmetry_space_group_name_H-M    "P 1"
_symmetry_int_tables_number       1

loop_
  _symmetry_equiv_pos_as_xyz
  'x, y, z'

loop_
  _atom_site_label
  _atom_site_occupancy
  _atom_site_fract_x
  _atom_site_fract_y
  _atom_site_fract_z
  _atom_site_thermal_displace_type
  _atom_site_B_iso_or_equiv
  _atom_site_type_symbol
  Re1      1.0000 0.13710  0.02106  0.12199  Biso   1.000  Re
  Zr1      1.0000 0.13270  0.23296  0.37469  Biso   1.000  Zr
  Zr2      1.0000 0.36697  0.26683  0.12535  Biso   1.000  Zr
  Zr3      1.0000 0.36635  0.48503  0.37590  Biso   1.000  Zr
  Zr4      1.0000 0.03562  0.17693  0.19674  Biso   1.000  Zr
  Zr5      1.0000 0.03336  0.06848  0.45155  Biso   1.000  Zr
  Zr6      1.0000 0.46439  0.43436  0.19373  Biso   1.000  Zr
  Zr7      1.0000 0.46433  0.31704  0.44406  Biso   1.000  Zr
  Zr8      1.0000 0.26660  0.11618  0.24443  Biso   1.000  Zr
  Zr9      1.0000 0.26969  0.13326  0.49745  Biso   1.000  Zr
  Zr10     1.0000 0.23027  0.38303  0.49911  Biso   1.000  Zr
  Zr11     1.0000 0.23137  0.36748  0.24954  Biso   1.000  Zr
  Zr12     1.0000 0.13443  0.01565  0.62689  Biso   1.000  Zr
  Zr13     1.0000 0.13477  0.23418  0.87798  Biso   1.000  Zr
  Zr14     1.0000 0.36608  0.26602  0.62545  Biso   1.000  Zr
  Zr15     1.0000 0.36592  0.48474  0.87521  Biso   1.000  Zr
  Zr16     1.0000 0.03273  0.18032  0.70329  Biso   1.000  Zr
  Zr17     1.0000 0.03590  0.06466  0.96123  Biso   1.000  Zr
  Zr18     1.0000 0.46371  0.43427  0.69361  Biso   1.000  Zr
  Zr19     1.0000 0.46255  0.31475  0.94320  Biso   1.000  Zr
  Zr20     1.0000 0.26991  0.11744  0.74961  Biso   1.000  Zr
  Zr21     1.0000 0.27040  0.12809  0.00048  Biso   1.000  Zr
  Zr22     1.0000 0.23010  0.38198  0.99953  Biso   1.000  Zr
  Zr23     1.0000 0.22962  0.36639  0.74980  Biso   1.000  Zr
  Zr24     1.0000 0.13462  0.51576  0.12653  Biso   1.000  Zr
  Zr25     1.0000 0.13364  0.73606  0.37471  Biso   1.000  Zr
  Zr26     1.0000 0.36383  0.76819  0.12622  Biso   1.000  Zr
  Zr27     1.0000 0.36524  0.98480  0.37427  Biso   1.000  Zr
  Zr28     1.0000 0.03615  0.68186  0.19413  Biso   1.000  Zr
  Zr29     1.0000 0.03555  0.56703  0.44367  Biso   1.000  Zr
  Zr30     1.0000 0.46502  0.93333  0.19500  Biso   1.000  Zr
  Zr31     1.0000 0.46400  0.81670  0.44277  Biso   1.000  Zr
  Zr32     1.0000 0.27055  0.61978  0.24925  Biso   1.000  Zr
  Zr33     1.0000 0.26936  0.63348  0.49856  Biso   1.000  Zr
  Zr34     1.0000 0.23060  0.88349  0.49881  Biso   1.000  Zr
  Zr35     1.0000 0.22515  0.87377  0.24651  Biso   1.000  Zr
  Zr36     1.0000 0.13335  0.51560  0.62497  Biso   1.000  Zr
  Zr37     1.0000 0.13301  0.73345  0.87551  Biso   1.000  Zr
  Zr38     1.0000 0.36645  0.76571  0.62494  Biso   1.000  Zr
  Zr39     1.0000 0.36502  0.98272  0.87681  Biso   1.000  Zr
  Zr40     1.0000 0.03500  0.68309  0.69393  Biso   1.000  Zr
  Zr41     1.0000 0.03546  0.56506  0.94533  Biso   1.000  Zr
  Zr42     1.0000 0.46395  0.93393  0.69428  Biso   1.000  Zr
  Zr43     1.0000 0.46180  0.81556  0.94467  Biso   1.000  Zr
  Zr44     1.0000 0.26920  0.61672  0.74857  Biso   1.000  Zr
  Zr45     1.0000 0.27004  0.63275  0.99904  Biso   1.000  Zr
  Zr46     1.0000 0.22270  0.88322  0.00125  Biso   1.000  Zr
  Zr47     1.0000 0.23098  0.86630  0.74958  Biso   1.000  Zr
  Zr48     1.0000 0.63390  0.01573  0.12474  Biso   1.000  Zr
  Zr49     1.0000 0.63387  0.23447  0.37571  Biso   1.000  Zr
  Zr50     1.0000 0.86659  0.26415  0.12575  Biso   1.000  Zr
  Zr51     1.0000 0.86622  0.48441  0.37551  Biso   1.000  Zr
  Zr52     1.0000 0.53483  0.18353  0.19466  Biso   1.000  Zr
  Zr53     1.0000 0.53469  0.06668  0.44375  Biso   1.000  Zr
  Zr54     1.0000 0.96662  0.43009  0.19585  Biso   1.000  Zr
  Zr55     1.0000 0.96506  0.31652  0.44604  Biso   1.000  Zr
  Zr56     1.0000 0.76855  0.11726  0.24836  Biso   1.000  Zr
  Zr57     1.0000 0.76964  0.13335  0.49809  Biso   1.000  Zr
  Zr58     1.0000 0.73053  0.38319  0.49909  Biso   1.000  Zr
  Zr59     1.0000 0.73083  0.36722  0.24887  Biso   1.000  Zr
  Zr60     1.0000 0.63360  0.01523  0.62417  Biso   1.000  Zr
  Zr61     1.0000 0.63338  0.23365  0.87489  Biso   1.000  Zr
  Zr62     1.0000 0.86626  0.26453  0.62594  Biso   1.000  Zr
  Zr63     1.0000 0.86583  0.48386  0.87558  Biso   1.000  Zr
  Zr64     1.0000 0.53604  0.18427  0.69305  Biso   1.000  Zr
  Zr65     1.0000 0.53531  0.06557  0.94385  Biso   1.000  Zr
  Zr66     1.0000 0.96437  0.43269  0.69458  Biso   1.000  Zr
  Zr67     1.0000 0.96467  0.31506  0.94530  Biso   1.000  Zr
  Zr68     1.0000 0.76870  0.11605  0.74859  Biso   1.000  Zr
  Zr69     1.0000 0.76963  0.13274  0.99816  Biso   1.000  Zr
  Zr70     1.0000 0.73018  0.38208  0.99914  Biso   1.000  Zr
  Zr71     1.0000 0.73044  0.36653  0.74875  Biso   1.000  Zr
  Zr72     1.0000 0.63468  0.51665  0.12558  Biso   1.000  Zr
  Zr73     1.0000 0.63478  0.73553  0.37353  Biso   1.000  Zr
  Zr74     1.0000 0.86975  0.76745  0.12354  Biso   1.000  Zr
  Zr75     1.0000 0.87008  0.98570  0.37226  Biso   1.000  Zr
  Zr76     1.0000 0.53575  0.68490  0.19279  Biso   1.000  Zr
  Zr77     1.0000 0.53615  0.56732  0.44364  Biso   1.000  Zr
  Zr78     1.0000 0.97370  0.93337  0.19118  Biso   1.000  Zr
  Zr79     1.0000 0.96544  0.81740  0.44503  Biso   1.000  Zr
  Zr80     1.0000 0.77055  0.61741  0.24853  Biso   1.000  Zr
  Zr81     1.0000 0.76961  0.63372  0.49853  Biso   1.000  Zr
  Zr82     1.0000 0.73133  0.88412  0.49646  Biso   1.000  Zr
  Zr83     1.0000 0.73485  0.86812  0.24650  Biso   1.000  Zr
  Zr84     1.0000 0.63395  0.51605  0.62510  Biso   1.000  Zr
  Zr85     1.0000 0.63362  0.73416  0.87561  Biso   1.000  Zr
  Zr86     1.0000 0.86597  0.76620  0.62523  Biso   1.000  Zr
  Zr87     1.0000 0.86684  0.98424  0.87547  Biso   1.000  Zr
  Zr88     1.0000 0.53570  0.68417  0.69426  Biso   1.000  Zr
  Zr89     1.0000 0.53635  0.56519  0.94299  Biso   1.000  Zr
  Zr90     1.0000 0.96565  0.93299  0.69665  Biso   1.000  Zr
  Zr91     1.0000 0.96158  0.81462  0.94048  Biso   1.000  Zr
  Zr92     1.0000 0.76933  0.61695  0.74888  Biso   1.000  Zr
  Zr93     1.0000 0.76987  0.63286  0.99873  Biso   1.000  Zr
  Zr94     1.0000 0.72959  0.88344  0.99706  Biso   1.000  Zr
  Zr95     1.0000 0.73020  0.86726  0.74809  Biso   1.000  Zr
