data_image0
_cell_length_a       10.1471
_cell_length_b       5.2284
_cell_length_c       10.5605
_cell_angle_alpha    90.007
_cell_angle_beta     90.6031
_cell_angle_gamma    89.978

_symmetry_space_group_name_H-M    "P 1"
_symmetry_int_tables_number       1

loop_
  _symmetry_equiv_pos_as_xyz
  'x, y, z'

loop_
  _atom_site_label
  _atom_site_occupancy
  _atom_site_fract_x
  _atom_site_fract_y
  _atom_site_fract_z
  _atom_site_thermal_displace_type
  _atom_site_B_iso_or_equiv
  _atom_site_type_symbol
  Zr1      1.0000 0.14225  0.04066  0.17010  Biso   1.000  Zr
  Zr2      1.0000 0.13672  0.45900  0.42090  Biso   1.000  Zr
  Zr3      1.0000 0.35751  0.53897  0.17624  Biso   1.000  Zr
  Zr4      1.0000 0.35805  0.95767  0.42558  Biso   1.000  Zr
  Zr5      1.0000 0.64257  0.07166  0.06543  Biso   1.000  Zr
  Zr6      1.0000 0.62948  0.45477  0.34932  Biso   1.000  Zr
  Zr7      1.0000 0.87902  0.54905  0.07309  Biso   1.000  Zr
  Zr8      1.0000 0.86474  0.95652  0.33386  Biso   1.000  Zr
  O1       1.0000 0.03958  0.32279  0.07693  Biso   1.000  O
  O2       1.0000 0.02699  0.18384  0.32665  Biso   1.000  O
  O3       1.0000 0.46901  0.82784  0.07654  Biso   1.000  O
  O4       1.0000 0.45670  0.65745  0.34676  Biso   1.000  O
  O5       1.0000 0.26929  0.24922  0.29686  Biso   1.000  O
  O6       1.0000 0.27982  0.24350  0.04208  Biso   1.000  O
  O7       1.0000 0.22061  0.75240  0.29596  Biso   1.000  O
  O8       1.0000 0.22513  0.74734  0.04339  Biso   1.000  O
  O9       1.0000 0.51210  0.27490  0.18505  Biso   1.000  O
  O10      1.0000 0.53109  0.15651  0.42605  Biso   1.000  O
  O11      1.0000 0.97229  0.83119  0.16998  Biso   1.000  O
  O12      1.0000 0.96524  0.67446  0.41884  Biso   1.000  O
  O13      1.0000 0.77773  0.23754  0.45714  Biso   1.000  O
  O14      1.0000 0.75727  0.31949  0.19728  Biso   1.000  O
  O15      1.0000 0.72377  0.74140  0.46381  Biso   1.000  O
  O16      1.0000 0.72640  0.81042  0.20816  Biso   1.000  O
  Zr9      1.0000 0.13908  0.03978  0.66839  Biso   1.000  Zr
  Zr10     1.0000 0.14669  0.45199  0.91764  Biso   1.000  Zr
  Zr11     1.0000 0.36448  0.53749  0.67005  Biso   1.000  Zr
  Zr12     1.0000 0.35999  0.95047  0.91504  Biso   1.000  Zr
  Zr13     1.0000 0.63937  0.03581  0.58562  Biso   1.000  Zr
  Zr14     1.0000 0.63939  0.45175  0.83300  Biso   1.000  Zr
  Zr15     1.0000 0.86101  0.53651  0.58295  Biso   1.000  Zr
  Zr16     1.0000 0.86724  0.95719  0.82729  Biso   1.000  Zr
  O17      1.0000 0.03204  0.32655  0.57982  Biso   1.000  O
  O18      1.0000 0.03764  0.16936  0.82845  Biso   1.000  O
  O19      1.0000 0.46459  0.83726  0.59184  Biso   1.000  O
  O20      1.0000 0.46458  0.65133  0.83598  Biso   1.000  O
  O21      1.0000 0.27811  0.24332  0.79157  Biso   1.000  O
  O22      1.0000 0.27286  0.25021  0.54418  Biso   1.000  O
  O23      1.0000 0.22593  0.74476  0.79196  Biso   1.000  O
  O24      1.0000 0.22404  0.74833  0.54460  Biso   1.000  O
  O25      1.0000 0.53676  0.33868  0.66284  Biso   1.000  O
  O26      1.0000 0.53741  0.13396  0.89719  Biso   1.000  O
  O27      1.0000 0.96895  0.82841  0.66361  Biso   1.000  O
  O28      1.0000 0.97627  0.67073  0.91228  Biso   1.000  O
  O29      1.0000 0.79307  0.24015  0.94679  Biso   1.000  O
  O30      1.0000 0.77753  0.24507  0.70430  Biso   1.000  O
  O31      1.0000 0.72846  0.74764  0.96320  Biso   1.000  O
  O32      1.0000 0.72805  0.74530  0.71204  Biso   1.000  O
  Re1      1.0000 0.61181  0.55974  0.10866  Biso   1.000  Re
