data_image0
_cell_length_a       10.0878
_cell_length_b       10.5123
_cell_length_c       10.1349
_cell_angle_alpha    89.6901
_cell_angle_beta     89.603
_cell_angle_gamma    90.0134

_symmetry_space_group_name_H-M    "P 1"
_symmetry_int_tables_number       1

loop_
  _symmetry_equiv_pos_as_xyz
  'x, y, z'

loop_
  _atom_site_label
  _atom_site_occupancy
  _atom_site_fract_x
  _atom_site_fract_y
  _atom_site_fract_z
  _atom_site_thermal_displace_type
  _atom_site_B_iso_or_equiv
  _atom_site_type_symbol
  Zr1      1.0000 0.13262  0.01015  0.12025  Biso   1.000  Zr
  Zr2      1.0000 0.13669  0.22385  0.38047  Biso   1.000  Zr
  Zr3      1.0000 0.39007  0.26004  0.11364  Biso   1.000  Zr
  Zr4      1.0000 0.36675  0.47778  0.37207  Biso   1.000  Zr
  Zr5      1.0000 0.01437  0.17411  0.21654  Biso   1.000  Zr
  Zr6      1.0000 0.03586  0.05852  0.44914  Biso   1.000  Zr
  Zr7      1.0000 0.47650  0.42687  0.20204  Biso   1.000  Zr
  Zr8      1.0000 0.47145  0.31752  0.45859  Biso   1.000  Zr
  Zr9      1.0000 0.25969  0.09874  0.25092  Biso   1.000  Zr
  Zr10     1.0000 0.27388  0.12831  0.50301  Biso   1.000  Zr
  Zr11     1.0000 0.23223  0.37920  0.50127  Biso   1.000  Zr
  Zr12     1.0000 0.25222  0.34083  0.25530  Biso   1.000  Zr
  Zr13     1.0000 0.13595  0.00646  0.62209  Biso   1.000  Zr
  Zr14     1.0000 0.12021  0.22510  0.85522  Biso   1.000  Zr
  Zr15     1.0000 0.36474  0.26385  0.62933  Biso   1.000  Zr
  Zr16     1.0000 0.36987  0.49454  0.87033  Biso   1.000  Zr
  Zr17     1.0000 0.03125  0.17313  0.68069  Biso   1.000  Zr
  Zr18     1.0000 0.02119  0.06984  0.94758  Biso   1.000  Zr
  Zr19     1.0000 0.46753  0.42848  0.69780  Biso   1.000  Zr
  Zr20     1.0000 0.47300  0.32904  0.94239  Biso   1.000  Zr
  Zr21     1.0000 0.26237  0.10937  0.75378  Biso   1.000  Zr
  Zr22     1.0000 0.23663  0.17236  0.01368  Biso   1.000  Zr
  Zr23     1.0000 0.25122  0.41686  0.01070  Biso   1.000  Zr
  Zr24     1.0000 0.23258  0.36479  0.75457  Biso   1.000  Zr
  Zr25     1.0000 0.12786  0.54963  0.10729  Biso   1.000  Zr
  Zr26     1.0000 0.13642  0.73169  0.37470  Biso   1.000  Zr
  Zr27     1.0000 0.37045  0.76945  0.11952  Biso   1.000  Zr
  Zr28     1.0000 0.36973  0.98267  0.37484  Biso   1.000  Zr
  Zr29     1.0000 0.02198  0.68848  0.20845  Biso   1.000  Zr
  Zr30     1.0000 0.03386  0.56541  0.44853  Biso   1.000  Zr
  Zr31     1.0000 0.46733  0.92837  0.20101  Biso   1.000  Zr
  Zr32     1.0000 0.46714  0.81257  0.44215  Biso   1.000  Zr
  Zr33     1.0000 0.27102  0.61278  0.24256  Biso   1.000  Zr
  Zr34     1.0000 0.26997  0.62679  0.49337  Biso   1.000  Zr
  Zr35     1.0000 0.23271  0.87801  0.49226  Biso   1.000  Zr
  Zr36     1.0000 0.22857  0.85742  0.23918  Biso   1.000  Zr
  Zr37     1.0000 0.13418  0.51100  0.62422  Biso   1.000  Zr
  Zr38     1.0000 0.12610  0.74844  0.85815  Biso   1.000  Zr
  Zr39     1.0000 0.36986  0.75705  0.61702  Biso   1.000  Zr
  Zr40     1.0000 0.38870  0.98490  0.85584  Biso   1.000  Zr
  Zr41     1.0000 0.03441  0.67924  0.68795  Biso   1.000  Zr
  Zr42     1.0000 0.02854  0.57839  0.93355  Biso   1.000  Zr
  Zr43     1.0000 0.47251  0.92125  0.68494  Biso   1.000  Zr
  Zr44     1.0000 0.47644  0.82593  0.94542  Biso   1.000  Zr
  Zr45     1.0000 0.26601  0.61373  0.74167  Biso   1.000  Zr
  Zr46     1.0000 0.26261  0.66312  0.98467  Biso   1.000  Zr
  Zr47     1.0000 0.24412  0.90984  0.98812  Biso   1.000  Zr
  Zr48     1.0000 0.24184  0.86247  0.73938  Biso   1.000  Zr
  Zr49     1.0000 0.63025  0.01383  0.13030  Biso   1.000  Zr
  Zr50     1.0000 0.63379  0.23252  0.38071  Biso   1.000  Zr
  Zr51     1.0000 0.85349  0.25919  0.12316  Biso   1.000  Zr
  Zr52     1.0000 0.87187  0.48133  0.37285  Biso   1.000  Zr
  Zr53     1.0000 0.53179  0.17492  0.21651  Biso   1.000  Zr
  Zr54     1.0000 0.53405  0.06586  0.45416  Biso   1.000  Zr
  Zr55     1.0000 0.97775  0.42903  0.19562  Biso   1.000  Zr
  Zr56     1.0000 0.97030  0.31760  0.44750  Biso   1.000  Zr
  Zr57     1.0000 0.76277  0.11086  0.24948  Biso   1.000  Zr
  Zr58     1.0000 0.77137  0.13237  0.49724  Biso   1.000  Zr
  Zr59     1.0000 0.73563  0.38367  0.49839  Biso   1.000  Zr
  Zr60     1.0000 0.73436  0.36335  0.25038  Biso   1.000  Zr
  Zr61     1.0000 0.64067  0.01348  0.62490  Biso   1.000  Zr
  Zr62     1.0000 0.63138  0.23117  0.87138  Biso   1.000  Zr
  Zr63     1.0000 0.86506  0.26645  0.62143  Biso   1.000  Zr
  Zr64     1.0000 0.86221  0.48514  0.87311  Biso   1.000  Zr
  Zr65     1.0000 0.52264  0.16790  0.71158  Biso   1.000  Zr
  Zr66     1.0000 0.50241  0.09181  0.98067  Biso   1.000  Zr
  Zr67     1.0000 0.96984  0.42475  0.70348  Biso   1.000  Zr
  Zr68     1.0000 0.96976  0.32481  0.95618  Biso   1.000  Zr
  Zr69     1.0000 0.77592  0.11892  0.74516  Biso   1.000  Zr
  Zr70     1.0000 0.75753  0.13058  0.99715  Biso   1.000  Zr
  Zr71     1.0000 0.72930  0.38416  0.99784  Biso   1.000  Zr
  Zr72     1.0000 0.72967  0.36591  0.74836  Biso   1.000  Zr
  Zr73     1.0000 0.63464  0.51607  0.12585  Biso   1.000  Zr
  Zr74     1.0000 0.63348  0.73050  0.37343  Biso   1.000  Zr
  Zr75     1.0000 0.86174  0.76772  0.12623  Biso   1.000  Zr
  Zr76     1.0000 0.86913  0.98328  0.37290  Biso   1.000  Zr
  Zr77     1.0000 0.53483  0.68184  0.19578  Biso   1.000  Zr
  Zr78     1.0000 0.53166  0.56510  0.44739  Biso   1.000  Zr
  Zr79     1.0000 0.96324  0.93276  0.19611  Biso   1.000  Zr
  Zr80     1.0000 0.96878  0.81704  0.44773  Biso   1.000  Zr
  Zr81     1.0000 0.76873  0.61191  0.24712  Biso   1.000  Zr
  Zr82     1.0000 0.76811  0.63099  0.49626  Biso   1.000  Zr
  Zr83     1.0000 0.73419  0.88146  0.49737  Biso   1.000  Zr
  Zr84     1.0000 0.73011  0.86385  0.24954  Biso   1.000  Zr
  Zr85     1.0000 0.63288  0.51255  0.62237  Biso   1.000  Zr
  Zr86     1.0000 0.63635  0.73280  0.87347  Biso   1.000  Zr
  Zr87     1.0000 0.86695  0.76220  0.61878  Biso   1.000  Zr
  Zr88     1.0000 0.86119  0.98160  0.87454  Biso   1.000  Zr
  Zr89     1.0000 0.53249  0.67520  0.70093  Biso   1.000  Zr
  Zr90     1.0000 0.53075  0.57533  0.95347  Biso   1.000  Zr
  Zr91     1.0000 0.97699  0.91986  0.70887  Biso   1.000  Zr
  Zr92     1.0000 0.96951  0.82265  0.95585  Biso   1.000  Zr
  Zr93     1.0000 0.76894  0.61323  0.74525  Biso   1.000  Zr
  Zr94     1.0000 0.77012  0.63475  0.99614  Biso   1.000  Zr
  Zr95     1.0000 0.72770  0.88437  0.99900  Biso   1.000  Zr
  Zr96     1.0000 0.73641  0.86203  0.74628  Biso   1.000  Zr
  Re1      1.0000 0.11365  0.31020  0.10624  Biso   1.000  Re
