data_image0
_cell_length_a       10.0139
_cell_length_b       10.3871
_cell_length_c       5.01847
_cell_angle_alpha    89.7213
_cell_angle_beta     89.8144
_cell_angle_gamma    90.0257

_symmetry_space_group_name_H-M    "P 1"
_symmetry_int_tables_number       1

loop_
  _symmetry_equiv_pos_as_xyz
  'x, y, z'

loop_
  _atom_site_label
  _atom_site_occupancy
  _atom_site_fract_x
  _atom_site_fract_y
  _atom_site_fract_z
  _atom_site_thermal_displace_type
  _atom_site_B_iso_or_equiv
  _atom_site_type_symbol
  Re1      1.0000 0.13646  0.02158  0.25292  Biso   1.000  Re
  Zr1      1.0000 0.13394  0.23254  0.75653  Biso   1.000  Zr
  Zr2      1.0000 0.36683  0.26709  0.25024  Biso   1.000  Zr
  Zr3      1.0000 0.36616  0.48548  0.75111  Biso   1.000  Zr
  Zr4      1.0000 0.03145  0.17340  0.41558  Biso   1.000  Zr
  Zr5      1.0000 0.03426  0.06610  0.93905  Biso   1.000  Zr
  Zr6      1.0000 0.46348  0.43501  0.38570  Biso   1.000  Zr
  Zr7      1.0000 0.46242  0.31550  0.88485  Biso   1.000  Zr
  Zr8      1.0000 0.26894  0.11702  0.48851  Biso   1.000  Zr
  Zr9      1.0000 0.26981  0.12806  0.99784  Biso   1.000  Zr
  Zr10     1.0000 0.23012  0.38222  0.99981  Biso   1.000  Zr
  Zr11     1.0000 0.23025  0.36652  0.50120  Biso   1.000  Zr
  Zr12     1.0000 0.13400  0.51562  0.25255  Biso   1.000  Zr
  Zr13     1.0000 0.13327  0.73533  0.75027  Biso   1.000  Zr
  Zr14     1.0000 0.36443  0.76806  0.25157  Biso   1.000  Zr
  Zr15     1.0000 0.36373  0.98308  0.75210  Biso   1.000  Zr
  Zr16     1.0000 0.03551  0.68158  0.38730  Biso   1.000  Zr
  Zr17     1.0000 0.03530  0.56610  0.88979  Biso   1.000  Zr
  Zr18     1.0000 0.46507  0.93329  0.39011  Biso   1.000  Zr
  Zr19     1.0000 0.46116  0.81595  0.88651  Biso   1.000  Zr
  Zr20     1.0000 0.26993  0.61937  0.49816  Biso   1.000  Zr
  Zr21     1.0000 0.26977  0.63339  0.99777  Biso   1.000  Zr
  Zr22     1.0000 0.22202  0.88466  0.00474  Biso   1.000  Zr
  Zr23     1.0000 0.22684  0.87258  0.49488  Biso   1.000  Zr
  Zr24     1.0000 0.63394  0.01493  0.24578  Biso   1.000  Zr
  Zr25     1.0000 0.63316  0.23341  0.74949  Biso   1.000  Zr
  Zr26     1.0000 0.86573  0.26312  0.25261  Biso   1.000  Zr
  Zr27     1.0000 0.86605  0.48401  0.75081  Biso   1.000  Zr
  Zr28     1.0000 0.53572  0.18435  0.38509  Biso   1.000  Zr
  Zr29     1.0000 0.53423  0.06596  0.88618  Biso   1.000  Zr
  Zr30     1.0000 0.96626  0.42914  0.39258  Biso   1.000  Zr
  Zr31     1.0000 0.96593  0.31551  0.89548  Biso   1.000  Zr
  Zr32     1.0000 0.76724  0.11615  0.49491  Biso   1.000  Zr
  Zr33     1.0000 0.77029  0.13323  0.99304  Biso   1.000  Zr
  Zr34     1.0000 0.73039  0.38225  0.99838  Biso   1.000  Zr
  Zr35     1.0000 0.73068  0.36685  0.49735  Biso   1.000  Zr
  Zr36     1.0000 0.63456  0.51697  0.24994  Biso   1.000  Zr
  Zr37     1.0000 0.63473  0.73586  0.74659  Biso   1.000  Zr
  Zr38     1.0000 0.86914  0.76737  0.24472  Biso   1.000  Zr
  Zr39     1.0000 0.87283  0.98630  0.74193  Biso   1.000  Zr
  Zr40     1.0000 0.53589  0.68527  0.38571  Biso   1.000  Zr
  Zr41     1.0000 0.53673  0.56643  0.88473  Biso   1.000  Zr
  Zr42     1.0000 0.97326  0.93241  0.38133  Biso   1.000  Zr
  Zr43     1.0000 0.96246  0.81597  0.87882  Biso   1.000  Zr
  Zr44     1.0000 0.77017  0.61730  0.49623  Biso   1.000  Zr
  Zr45     1.0000 0.76969  0.63359  0.99553  Biso   1.000  Zr
  Zr46     1.0000 0.73082  0.88483  0.98768  Biso   1.000  Zr
  Zr47     1.0000 0.73522  0.86835  0.49068  Biso   1.000  Zr
