data_image0
_cell_length_a       10.1268
_cell_length_b       10.3023
_cell_length_c       10.1105
_cell_angle_alpha    89.6461
_cell_angle_beta     90.4515
_cell_angle_gamma    90.935

_symmetry_space_group_name_H-M    "P 1"
_symmetry_int_tables_number       1

loop_
  _symmetry_equiv_pos_as_xyz
  'x, y, z'

loop_
  _atom_site_label
  _atom_site_occupancy
  _atom_site_fract_x
  _atom_site_fract_y
  _atom_site_fract_z
  _atom_site_thermal_displace_type
  _atom_site_B_iso_or_equiv
  _atom_site_type_symbol
  Zr1      1.0000 0.13301  0.99644  0.12956  Biso   1.000  Zr
  Zr2      1.0000 0.12942  0.23850  0.36853  Biso   1.000  Zr
  Zr3      1.0000 0.38595  0.24192  0.11992  Biso   1.000  Zr
  Zr4      1.0000 0.37918  0.99671  0.37492  Biso   1.000  Zr
  Zr5      1.0000 0.00045  0.17588  0.99147  Biso   1.000  Zr
  Zr6      1.0000 0.00384  0.09949  0.24682  Biso   1.000  Zr
  Zr7      1.0000 0.98713  0.35210  0.27841  Biso   1.000  Zr
  Zr8      1.0000 0.96093  0.43209  0.03699  Biso   1.000  Zr
  Zr9      1.0000 0.26629  0.13744  0.25715  Biso   1.000  Zr
  Zr10     1.0000 0.25323  0.08905  0.99347  Biso   1.000  Zr
  Zr11     1.0000 0.28255  0.33080  0.96324  Biso   1.000  Zr
  Zr12     1.0000 0.24655  0.39845  0.22820  Biso   1.000  Zr
  Zr13     1.0000 0.13044  0.99401  0.62445  Biso   1.000  Zr
  Zr14     1.0000 0.13691  0.23937  0.84895  Biso   1.000  Zr
  Zr15     1.0000 0.37644  0.25032  0.61284  Biso   1.000  Zr
  Zr16     1.0000 0.38188  0.99400  0.87414  Biso   1.000  Zr
  Zr17     1.0000 0.00043  0.14887  0.49774  Biso   1.000  Zr
  Zr18     1.0000 0.00640  0.10252  0.74411  Biso   1.000  Zr
  Zr19     1.0000 0.99544  0.35674  0.76781  Biso   1.000  Zr
  Zr20     1.0000 0.99233  0.40147  0.52050  Biso   1.000  Zr
  Zr21     1.0000 0.26162  0.13551  0.73909  Biso   1.000  Zr
  Zr22     1.0000 0.25073  0.09753  0.49703  Biso   1.000  Zr
  Zr23     1.0000 0.25704  0.34683  0.48055  Biso   1.000  Zr
  Zr24     1.0000 0.24918  0.39189  0.73088  Biso   1.000  Zr
  Zr25     1.0000 0.11161  0.53177  0.13368  Biso   1.000  Zr
  Zr26     1.0000 0.12120  0.75305  0.38077  Biso   1.000  Zr
  Zr27     1.0000 0.37908  0.74529  0.12674  Biso   1.000  Zr
  Zr28     1.0000 0.36767  0.49698  0.37255  Biso   1.000  Zr
  Zr29     1.0000 0.00418  0.67062  0.01389  Biso   1.000  Zr
  Zr30     1.0000 0.99093  0.61359  0.26731  Biso   1.000  Zr
  Zr31     1.0000 0.00305  0.85557  0.24824  Biso   1.000  Zr
  Zr32     1.0000 0.00807  0.91588  0.99381  Biso   1.000  Zr
  Zr33     1.0000 0.24698  0.64984  0.25571  Biso   1.000  Zr
  Zr34     1.0000 0.24740  0.59307  0.99940  Biso   1.000  Zr
  Zr35     1.0000 0.25413  0.84466  0.00446  Biso   1.000  Zr
  Zr36     1.0000 0.25178  0.89258  0.25421  Biso   1.000  Zr
  Zr37     1.0000 0.11673  0.50888  0.63534  Biso   1.000  Zr
  Zr38     1.0000 0.12618  0.75451  0.87459  Biso   1.000  Zr
  Zr39     1.0000 0.37678  0.74381  0.62553  Biso   1.000  Zr
  Zr40     1.0000 0.37373  0.49618  0.87341  Biso   1.000  Zr
  Zr41     1.0000 0.99945  0.65032  0.51245  Biso   1.000  Zr
  Zr42     1.0000 0.99931  0.60693  0.76388  Biso   1.000  Zr
  Zr43     1.0000 0.00093  0.85461  0.74779  Biso   1.000  Zr
  Zr44     1.0000 0.00351  0.89788  0.49632  Biso   1.000  Zr
  Zr45     1.0000 0.24975  0.64500  0.75328  Biso   1.000  Zr
  Zr46     1.0000 0.24608  0.59754  0.50215  Biso   1.000  Zr
  Zr47     1.0000 0.25217  0.85003  0.50486  Biso   1.000  Zr
  Zr48     1.0000 0.25005  0.89187  0.75362  Biso   1.000  Zr
  Zr49     1.0000 0.62966  0.99927  0.12474  Biso   1.000  Zr
  Zr50     1.0000 0.62502  0.24957  0.37260  Biso   1.000  Zr
  Zr51     1.0000 0.86725  0.25810  0.12731  Biso   1.000  Zr
  Zr52     1.0000 0.87669  0.00445  0.37699  Biso   1.000  Zr
  Zr53     1.0000 0.50678  0.13953  0.99725  Biso   1.000  Zr
  Zr54     1.0000 0.50750  0.09966  0.24819  Biso   1.000  Zr
  Zr55     1.0000 0.49768  0.35052  0.25163  Biso   1.000  Zr
  Zr56     1.0000 0.50444  0.39691  0.99866  Biso   1.000  Zr
  Zr57     1.0000 0.75385  0.14707  0.25865  Biso   1.000  Zr
  Zr58     1.0000 0.75842  0.10370  0.00811  Biso   1.000  Zr
  Zr59     1.0000 0.74067  0.35206  0.99847  Biso   1.000  Zr
  Zr60     1.0000 0.74511  0.39806  0.25132  Biso   1.000  Zr
  Zr61     1.0000 0.62728  0.99846  0.62596  Biso   1.000  Zr
  Zr62     1.0000 0.62348  0.24970  0.86943  Biso   1.000  Zr
  Zr63     1.0000 0.87837  0.25134  0.62507  Biso   1.000  Zr
  Zr64     1.0000 0.87544  0.00584  0.87504  Biso   1.000  Zr
  Zr65     1.0000 0.50201  0.14382  0.49750  Biso   1.000  Zr
  Zr66     1.0000 0.50780  0.09901  0.74986  Biso   1.000  Zr
  Zr67     1.0000 0.49729  0.34957  0.74724  Biso   1.000  Zr
  Zr68     1.0000 0.49940  0.39636  0.49763  Biso   1.000  Zr
  Zr69     1.0000 0.75727  0.14890  0.75691  Biso   1.000  Zr
  Zr70     1.0000 0.75455  0.10220  0.50704  Biso   1.000  Zr
  Zr71     1.0000 0.74845  0.35061  0.50101  Biso   1.000  Zr
  Zr72     1.0000 0.74616  0.39670  0.74859  Biso   1.000  Zr
  Zr73     1.0000 0.62220  0.49987  0.12547  Biso   1.000  Zr
  Zr74     1.0000 0.62450  0.74847  0.37835  Biso   1.000  Zr
  Zr75     1.0000 0.86795  0.75509  0.13333  Biso   1.000  Zr
  Zr76     1.0000 0.87158  0.49526  0.38426  Biso   1.000  Zr
  Zr77     1.0000 0.49524  0.64446  0.99460  Biso   1.000  Zr
  Zr78     1.0000 0.49387  0.59942  0.24467  Biso   1.000  Zr
  Zr79     1.0000 0.50090  0.85045  0.25305  Biso   1.000  Zr
  Zr80     1.0000 0.50467  0.89188  0.00300  Biso   1.000  Zr
  Zr81     1.0000 0.74371  0.64755  0.25220  Biso   1.000  Zr
  Zr82     1.0000 0.74561  0.60819  0.00259  Biso   1.000  Zr
  Zr83     1.0000 0.75380  0.85658  0.99904  Biso   1.000  Zr
  Zr84     1.0000 0.75251  0.89731  0.25092  Biso   1.000  Zr
  Zr85     1.0000 0.62113  0.49792  0.62466  Biso   1.000  Zr
  Zr86     1.0000 0.62630  0.74925  0.87816  Biso   1.000  Zr
  Zr87     1.0000 0.87219  0.75168  0.62895  Biso   1.000  Zr
  Zr88     1.0000 0.86464  0.50038  0.87777  Biso   1.000  Zr
  Zr89     1.0000 0.49399  0.64356  0.49432  Biso   1.000  Zr
  Zr90     1.0000 0.49886  0.59978  0.74463  Biso   1.000  Zr
  Zr91     1.0000 0.49959  0.84875  0.75280  Biso   1.000  Zr
  Zr92     1.0000 0.50353  0.89298  0.50356  Biso   1.000  Zr
  Zr93     1.0000 0.74886  0.64730  0.75324  Biso   1.000  Zr
  Zr94     1.0000 0.74611  0.60314  0.50340  Biso   1.000  Zr
  Zr95     1.0000 0.75248  0.85278  0.50004  Biso   1.000  Zr
  Zr96     1.0000 0.75161  0.89790  0.75127  Biso   1.000  Zr
  Rh1      1.0000 0.13094  0.29305  0.09763  Biso   1.000  Rh
