data_image0
_cell_length_a       5.0063
_cell_length_b       10.4373
_cell_length_c       10.054
_cell_angle_alpha    90.4174
_cell_angle_beta     89.2286
_cell_angle_gamma    90.3971

_symmetry_space_group_name_H-M    "P 1"
_symmetry_int_tables_number       1

loop_
  _symmetry_equiv_pos_as_xyz
  'x, y, z'

loop_
  _atom_site_label
  _atom_site_occupancy
  _atom_site_fract_x
  _atom_site_fract_y
  _atom_site_fract_z
  _atom_site_thermal_displace_type
  _atom_site_B_iso_or_equiv
  _atom_site_type_symbol
  Rh1      1.0000 0.24963  0.03620  0.10680  Biso   1.000  Rh
  Zr1      1.0000 0.26390  0.01486  0.62446  Biso   1.000  Zr
  Zr2      1.0000 0.26848  0.51486  0.12805  Biso   1.000  Zr
  Zr3      1.0000 0.26812  0.51740  0.62503  Biso   1.000  Zr
  Zr4      1.0000 0.26738  0.22989  0.37504  Biso   1.000  Zr
  Zr5      1.0000 0.26102  0.23893  0.87171  Biso   1.000  Zr
  Zr6      1.0000 0.27908  0.73521  0.37628  Biso   1.000  Zr
  Zr7      1.0000 0.26251  0.73633  0.87974  Biso   1.000  Zr
  Zr8      1.0000 0.72641  0.26495  0.12410  Biso   1.000  Zr
  Zr9      1.0000 0.73147  0.26532  0.62366  Biso   1.000  Zr
  Zr10     1.0000 0.74593  0.76297  0.12419  Biso   1.000  Zr
  Zr11     1.0000 0.73685  0.76742  0.62660  Biso   1.000  Zr
  Zr12     1.0000 0.73550  0.48334  0.37625  Biso   1.000  Zr
  Zr13     1.0000 0.72922  0.48738  0.87472  Biso   1.000  Zr
  Zr14     1.0000 0.73760  0.98359  0.37146  Biso   1.000  Zr
  Zr15     1.0000 0.71393  0.98325  0.87718  Biso   1.000  Zr
  Zr16     1.0000 0.06159  0.18268  0.19383  Biso   1.000  Zr
  Zr17     1.0000 0.06841  0.18486  0.69498  Biso   1.000  Zr
  Zr18     1.0000 0.07723  0.68350  0.19833  Biso   1.000  Zr
  Zr19     1.0000 0.06868  0.68357  0.69836  Biso   1.000  Zr
  Zr20     1.0000 0.07042  0.06643  0.44852  Biso   1.000  Zr
  Zr21     1.0000 0.06012  0.06666  0.94254  Biso   1.000  Zr
  Zr22     1.0000 0.07407  0.56559  0.44591  Biso   1.000  Zr
  Zr23     1.0000 0.06285  0.56872  0.94979  Biso   1.000  Zr
  Zr24     1.0000 0.93053  0.42986  0.19531  Biso   1.000  Zr
  Zr25     1.0000 0.92922  0.43346  0.69525  Biso   1.000  Zr
  Zr26     1.0000 0.96964  0.93714  0.19131  Biso   1.000  Zr
  Zr27     1.0000 0.92635  0.93497  0.69795  Biso   1.000  Zr
  Zr28     1.0000 0.93067  0.31509  0.44354  Biso   1.000  Zr
  Zr29     1.0000 0.92041  0.31641  0.94330  Biso   1.000  Zr
  Zr30     1.0000 0.94367  0.81920  0.44926  Biso   1.000  Zr
  Zr31     1.0000 0.91359  0.81784  0.94017  Biso   1.000  Zr
  Zr32     1.0000 0.52137  0.10658  0.24203  Biso   1.000  Zr
  Zr33     1.0000 0.53530  0.11762  0.74752  Biso   1.000  Zr
  Zr34     1.0000 0.54263  0.60856  0.24875  Biso   1.000  Zr
  Zr35     1.0000 0.53550  0.61835  0.75067  Biso   1.000  Zr
  Zr36     1.0000 0.54325  0.13291  0.49454  Biso   1.000  Zr
  Zr37     1.0000 0.52361  0.13526  0.99653  Biso   1.000  Zr
  Zr38     1.0000 0.54406  0.63386  0.49993  Biso   1.000  Zr
  Zr39     1.0000 0.53385  0.63562  0.00002  Biso   1.000  Zr
  Zr40     1.0000 0.46141  0.38215  0.49918  Biso   1.000  Zr
  Zr41     1.0000 0.45659  0.38485  0.99817  Biso   1.000  Zr
  Zr42     1.0000 0.46907  0.88443  0.50245  Biso   1.000  Zr
  Zr43     1.0000 0.44504  0.88947  0.00944  Biso   1.000  Zr
  Zr44     1.0000 0.46097  0.36216  0.24887  Biso   1.000  Zr
  Zr45     1.0000 0.45925  0.36839  0.74807  Biso   1.000  Zr
  Zr46     1.0000 0.51523  0.85116  0.25928  Biso   1.000  Zr
  Zr47     1.0000 0.45614  0.86722  0.75270  Biso   1.000  Zr
