data_image0
_cell_length_a       10.3025
_cell_length_b       5.29842
_cell_length_c       10.4084
_cell_angle_alpha    101.6
_cell_angle_beta     90.1581
_cell_angle_gamma    90.0984

_symmetry_space_group_name_H-M    "P 1"
_symmetry_int_tables_number       1

loop_
  _symmetry_equiv_pos_as_xyz
  'x, y, z'

loop_
  _atom_site_label
  _atom_site_occupancy
  _atom_site_fract_x
  _atom_site_fract_y
  _atom_site_fract_z
  _atom_site_thermal_displace_type
  _atom_site_B_iso_or_equiv
  _atom_site_type_symbol
  Zr1      1.0000 0.14205  0.93808  0.15925  Biso   1.000  Zr
  Zr2      1.0000 0.10294  0.53005  0.36791  Biso   1.000  Zr
  Zr3      1.0000 0.35678  0.44964  0.14643  Biso   1.000  Zr
  Zr4      1.0000 0.39908  0.03883  0.36245  Biso   1.000  Zr
  Zr5      1.0000 0.95774  0.42840  0.96859  Biso   1.000  Zr
  Zr6      1.0000 0.99796  0.21598  0.24038  Biso   1.000  Zr
  Zr7      1.0000 0.99773  0.71709  0.23243  Biso   1.000  Zr
  Zr8      1.0000 0.03728  0.90993  0.97632  Biso   1.000  Zr
  Zr9      1.0000 0.24770  0.25324  0.28446  Biso   1.000  Zr
  Zr10     1.0000 0.29290  0.08195  0.03724  Biso   1.000  Zr
  Zr11     1.0000 0.21334  0.60045  0.02949  Biso   1.000  Zr
  Zr12     1.0000 0.25583  0.74960  0.28230  Biso   1.000  Zr
  Zr13     1.0000 0.14769  0.98034  0.63790  Biso   1.000  Zr
  Zr14     1.0000 0.10857  0.57230  0.84656  Biso   1.000  Zr
  Zr15     1.0000 0.35702  0.46976  0.63507  Biso   1.000  Zr
  Zr16     1.0000 0.39798  0.05432  0.86195  Biso   1.000  Zr
  Zr17     1.0000 0.95738  0.41092  0.47415  Biso   1.000  Zr
  Zr18     1.0000 0.00292  0.25713  0.72136  Biso   1.000  Zr
  Zr19     1.0000 0.99479  0.76077  0.72351  Biso   1.000  Zr
  Zr20     1.0000 0.04194  0.90773  0.46783  Biso   1.000  Zr
  Zr21     1.0000 0.25266  0.29441  0.76543  Biso   1.000  Zr
  Zr22     1.0000 0.29325  0.09944  0.53167  Biso   1.000  Zr
  Zr23     1.0000 0.20869  0.60266  0.53799  Biso   1.000  Zr
  Zr24     1.0000 0.25289  0.79330  0.77339  Biso   1.000  Zr
  Zr25     1.0000 0.64862  0.95945  0.13974  Biso   1.000  Zr
  Zr26     1.0000 0.60504  0.54549  0.36384  Biso   1.000  Zr
  Zr27     1.0000 0.85264  0.45604  0.14386  Biso   1.000  Zr
  Zr28     1.0000 0.89360  0.04062  0.37073  Biso   1.000  Zr
  Zr29     1.0000 0.45783  0.41079  0.97171  Biso   1.000  Zr
  Zr30     1.0000 0.50292  0.23064  0.22599  Biso   1.000  Zr
  Zr31     1.0000 0.49916  0.72997  0.22754  Biso   1.000  Zr
  Zr32     1.0000 0.53995  0.91250  0.97002  Biso   1.000  Zr
  Zr33     1.0000 0.74561  0.26927  0.27739  Biso   1.000  Zr
  Zr34     1.0000 0.79279  0.09958  0.03410  Biso   1.000  Zr
  Zr35     1.0000 0.71067  0.59786  0.03579  Biso   1.000  Zr
  Zr36     1.0000 0.75336  0.76964  0.27678  Biso   1.000  Zr
  Zr37     1.0000 0.64559  0.96488  0.64197  Biso   1.000  Zr
  Zr38     1.0000 0.60201  0.55091  0.86608  Biso   1.000  Zr
  Zr39     1.0000 0.85154  0.47153  0.64337  Biso   1.000  Zr
  Zr40     1.0000 0.89384  0.06073  0.85938  Biso   1.000  Zr
  Zr41     1.0000 0.46290  0.40500  0.46619  Biso   1.000  Zr
  Zr42     1.0000 0.50501  0.24109  0.72843  Biso   1.000  Zr
  Zr43     1.0000 0.49726  0.74073  0.72903  Biso   1.000  Zr
  Zr44     1.0000 0.54078  0.90682  0.47059  Biso   1.000  Zr
  Zr45     1.0000 0.74770  0.27973  0.77983  Biso   1.000  Zr
  Zr46     1.0000 0.78772  0.10535  0.53962  Biso   1.000  Zr
  Zr47     1.0000 0.70984  0.60353  0.53523  Biso   1.000  Zr
  Zr48     1.0000 0.75146  0.78040  0.77827  Biso   1.000  Zr
  Rh1      1.0000 0.12532  0.25517  0.00290  Biso   1.000  Rh
