data_image0
_cell_length_a       10.0622
_cell_length_b       10.2236
_cell_length_c       10.0622
_cell_angle_alpha    90.0004
_cell_angle_beta     90.6652
_cell_angle_gamma    89.9991

_symmetry_space_group_name_H-M    "P 1"
_symmetry_int_tables_number       1

loop_
  _symmetry_equiv_pos_as_xyz
  'x, y, z'

loop_
  _atom_site_label
  _atom_site_occupancy
  _atom_site_fract_x
  _atom_site_fract_y
  _atom_site_fract_z
  _atom_site_thermal_displace_type
  _atom_site_B_iso_or_equiv
  _atom_site_type_symbol
  Rh1      1.0000 0.12500  0.02983  0.12533  Biso   1.000  Rh
  Zr1      1.0000 0.12500  0.00501  0.62533  Biso   1.000  Zr
  Zr2      1.0000 0.12500  0.49502  0.12532  Biso   1.000  Zr
  Zr3      1.0000 0.12500  0.50069  0.62533  Biso   1.000  Zr
  Zr4      1.0000 0.62500  0.00501  0.12533  Biso   1.000  Zr
  Zr5      1.0000 0.62500  0.99694  0.62533  Biso   1.000  Zr
  Zr6      1.0000 0.62500  0.50070  0.12532  Biso   1.000  Zr
  Zr7      1.0000 0.62500  0.50282  0.62532  Biso   1.000  Zr
  Zr8      1.0000 0.12277  0.25026  0.37905  Biso   1.000  Zr
  Zr9      1.0000 0.12723  0.25026  0.87161  Biso   1.000  Zr
  Zr10     1.0000 0.12138  0.74837  0.37247  Biso   1.000  Zr
  Zr11     1.0000 0.12863  0.74837  0.87819  Biso   1.000  Zr
  Zr12     1.0000 0.62352  0.24980  0.37773  Biso   1.000  Zr
  Zr13     1.0000 0.62647  0.24980  0.87293  Biso   1.000  Zr
  Zr14     1.0000 0.62163  0.75110  0.37320  Biso   1.000  Zr
  Zr15     1.0000 0.62837  0.75110  0.87746  Biso   1.000  Zr
  Zr16     1.0000 0.37872  0.25027  0.12311  Biso   1.000  Zr
  Zr17     1.0000 0.37740  0.24980  0.62385  Biso   1.000  Zr
  Zr18     1.0000 0.37214  0.74837  0.12171  Biso   1.000  Zr
  Zr19     1.0000 0.37287  0.75110  0.62196  Biso   1.000  Zr
  Zr20     1.0000 0.87127  0.25027  0.12756  Biso   1.000  Zr
  Zr21     1.0000 0.87260  0.24980  0.62681  Biso   1.000  Zr
  Zr22     1.0000 0.87786  0.74837  0.12895  Biso   1.000  Zr
  Zr23     1.0000 0.87713  0.75110  0.62871  Biso   1.000  Zr
  Zr24     1.0000 0.36824  0.99755  0.36857  Biso   1.000  Zr
  Zr25     1.0000 0.37952  0.99449  0.87081  Biso   1.000  Zr
  Zr26     1.0000 0.37526  0.50184  0.37559  Biso   1.000  Zr
  Zr27     1.0000 0.37642  0.50132  0.87391  Biso   1.000  Zr
  Zr28     1.0000 0.87048  0.99449  0.37985  Biso   1.000  Zr
  Zr29     1.0000 0.88175  0.99755  0.88208  Biso   1.000  Zr
  Zr30     1.0000 0.87359  0.50132  0.37674  Biso   1.000  Zr
  Zr31     1.0000 0.87474  0.50184  0.87506  Biso   1.000  Zr
  Zr32     1.0000 0.00720  0.14789  0.00753  Biso   1.000  Zr
  Zr33     1.0000 0.99434  0.14676  0.49965  Biso   1.000  Zr
  Zr34     1.0000 0.99880  0.64864  0.99913  Biso   1.000  Zr
  Zr35     1.0000 0.99874  0.64612  0.50034  Biso   1.000  Zr
  Zr36     1.0000 0.49932  0.14676  0.99467  Biso   1.000  Zr
  Zr37     1.0000 0.49321  0.14589  0.49354  Biso   1.000  Zr
  Zr38     1.0000 0.50001  0.64613  0.99907  Biso   1.000  Zr
  Zr39     1.0000 0.49893  0.64651  0.49925  Biso   1.000  Zr
  Zr40     1.0000 0.99723  0.09493  0.25310  Biso   1.000  Zr
  Zr41     1.0000 0.00505  0.10498  0.75415  Biso   1.000  Zr
  Zr42     1.0000 0.00150  0.59827  0.24882  Biso   1.000  Zr
  Zr43     1.0000 0.00033  0.60389  0.74925  Biso   1.000  Zr
  Zr44     1.0000 0.49618  0.10499  0.24528  Biso   1.000  Zr
  Zr45     1.0000 0.50461  0.10481  0.74573  Biso   1.000  Zr
  Zr46     1.0000 0.50107  0.60390  0.24999  Biso   1.000  Zr
  Zr47     1.0000 0.50072  0.60458  0.74960  Biso   1.000  Zr
  Zr48     1.0000 0.00069  0.34949  0.24965  Biso   1.000  Zr
  Zr49     1.0000 0.99956  0.35460  0.74974  Biso   1.000  Zr
  Zr50     1.0000 0.97411  0.84202  0.27623  Biso   1.000  Zr
  Zr51     1.0000 0.99661  0.85421  0.76533  Biso   1.000  Zr
  Zr52     1.0000 0.50059  0.35460  0.25077  Biso   1.000  Zr
  Zr53     1.0000 0.49916  0.35509  0.75117  Biso   1.000  Zr
  Zr54     1.0000 0.48501  0.85422  0.25372  Biso   1.000  Zr
  Zr55     1.0000 0.50023  0.85270  0.75010  Biso   1.000  Zr
  Zr56     1.0000 0.99885  0.39606  0.99919  Biso   1.000  Zr
  Zr57     1.0000 0.00124  0.39582  0.49913  Biso   1.000  Zr
  Zr58     1.0000 0.01840  0.90400  0.01874  Biso   1.000  Zr
  Zr59     1.0000 0.99743  0.89659  0.51486  Biso   1.000  Zr
  Zr60     1.0000 0.49880  0.39582  0.00158  Biso   1.000  Zr
  Zr61     1.0000 0.50075  0.39605  0.50108  Biso   1.000  Zr
  Zr62     1.0000 0.51453  0.89659  0.99776  Biso   1.000  Zr
  Zr63     1.0000 0.49894  0.89709  0.49927  Biso   1.000  Zr
  Zr64     1.0000 0.24280  0.14789  0.24313  Biso   1.000  Zr
  Zr65     1.0000 0.25566  0.14676  0.75100  Biso   1.000  Zr
  Zr66     1.0000 0.25120  0.64864  0.25154  Biso   1.000  Zr
  Zr67     1.0000 0.25126  0.64612  0.75032  Biso   1.000  Zr
  Zr68     1.0000 0.75067  0.14676  0.25600  Biso   1.000  Zr
  Zr69     1.0000 0.75679  0.14589  0.75712  Biso   1.000  Zr
  Zr70     1.0000 0.74999  0.64613  0.25158  Biso   1.000  Zr
  Zr71     1.0000 0.75107  0.64651  0.75140  Biso   1.000  Zr
  Zr72     1.0000 0.25276  0.09493  0.99756  Biso   1.000  Zr
  Zr73     1.0000 0.24494  0.10498  0.49651  Biso   1.000  Zr
  Zr74     1.0000 0.24850  0.59827  0.00183  Biso   1.000  Zr
  Zr75     1.0000 0.24967  0.60389  0.50141  Biso   1.000  Zr
  Zr76     1.0000 0.75382  0.10498  0.00539  Biso   1.000  Zr
  Zr77     1.0000 0.74539  0.10481  0.50494  Biso   1.000  Zr
  Zr78     1.0000 0.74893  0.60389  0.00066  Biso   1.000  Zr
  Zr79     1.0000 0.74928  0.60458  0.50105  Biso   1.000  Zr
  Zr80     1.0000 0.24931  0.34949  0.00102  Biso   1.000  Zr
  Zr81     1.0000 0.25043  0.35460  0.50092  Biso   1.000  Zr
  Zr82     1.0000 0.27590  0.84202  0.97443  Biso   1.000  Zr
  Zr83     1.0000 0.25339  0.85422  0.48534  Biso   1.000  Zr
  Zr84     1.0000 0.74940  0.35460  0.99989  Biso   1.000  Zr
  Zr85     1.0000 0.75083  0.35509  0.49950  Biso   1.000  Zr
  Zr86     1.0000 0.76500  0.85422  0.99693  Biso   1.000  Zr
  Zr87     1.0000 0.74977  0.85270  0.50056  Biso   1.000  Zr
  Zr88     1.0000 0.25114  0.39607  0.25147  Biso   1.000  Zr
  Zr89     1.0000 0.24875  0.39582  0.75153  Biso   1.000  Zr
  Zr90     1.0000 0.23160  0.90400  0.23192  Biso   1.000  Zr
  Zr91     1.0000 0.25257  0.89659  0.73581  Biso   1.000  Zr
  Zr92     1.0000 0.75120  0.39582  0.24908  Biso   1.000  Zr
  Zr93     1.0000 0.74924  0.39605  0.74957  Biso   1.000  Zr
  Zr94     1.0000 0.73548  0.89659  0.25290  Biso   1.000  Zr
  Zr95     1.0000 0.75106  0.89709  0.75139  Biso   1.000  Zr
