data_image0
_cell_length_a       10.1134
_cell_length_b       10.5738
_cell_length_c       5.0593
_cell_angle_alpha    89.3474
_cell_angle_beta     90.0338
_cell_angle_gamma    90.1457

_symmetry_space_group_name_H-M    "P 1"
_symmetry_int_tables_number       1

loop_
  _symmetry_equiv_pos_as_xyz
  'x, y, z'

loop_
  _atom_site_label
  _atom_site_occupancy
  _atom_site_fract_x
  _atom_site_fract_y
  _atom_site_fract_z
  _atom_site_thermal_displace_type
  _atom_site_B_iso_or_equiv
  _atom_site_type_symbol
  Zr1      1.0000 0.13531  0.01093  0.24077  Biso   1.000  Zr
  Zr2      1.0000 0.13713  0.21521  0.73824  Biso   1.000  Zr
  Zr3      1.0000 0.37003  0.26420  0.24201  Biso   1.000  Zr
  Zr4      1.0000 0.37091  0.48677  0.74613  Biso   1.000  Zr
  Zr5      1.0000 0.01182  0.16279  0.41943  Biso   1.000  Zr
  Zr6      1.0000 0.03473  0.05788  0.89588  Biso   1.000  Zr
  Zr7      1.0000 0.46968  0.43012  0.39696  Biso   1.000  Zr
  Zr8      1.0000 0.46890  0.31672  0.89196  Biso   1.000  Zr
  Zr9      1.0000 0.26741  0.10770  0.48399  Biso   1.000  Zr
  Zr10     1.0000 0.28604  0.12420  0.97395  Biso   1.000  Zr
  Zr11     1.0000 0.24704  0.40267  0.02211  Biso   1.000  Zr
  Zr12     1.0000 0.23876  0.36078  0.52186  Biso   1.000  Zr
  Zr13     1.0000 0.13207  0.53491  0.24797  Biso   1.000  Zr
  Zr14     1.0000 0.13354  0.74066  0.74881  Biso   1.000  Zr
  Zr15     1.0000 0.36974  0.76509  0.24836  Biso   1.000  Zr
  Zr16     1.0000 0.37095  0.98068  0.74425  Biso   1.000  Zr
  Zr17     1.0000 0.03253  0.68868  0.39798  Biso   1.000  Zr
  Zr18     1.0000 0.03434  0.57162  0.89202  Biso   1.000  Zr
  Zr19     1.0000 0.46844  0.92984  0.38526  Biso   1.000  Zr
  Zr20     1.0000 0.46947  0.81634  0.89164  Biso   1.000  Zr
  Zr21     1.0000 0.27102  0.61863  0.49863  Biso   1.000  Zr
  Zr22     1.0000 0.26762  0.64367  0.99415  Biso   1.000  Zr
  Zr23     1.0000 0.23321  0.88385  0.99238  Biso   1.000  Zr
  Zr24     1.0000 0.23484  0.86388  0.49172  Biso   1.000  Zr
  Zr25     1.0000 0.63341  0.01289  0.24564  Biso   1.000  Zr
  Zr26     1.0000 0.63029  0.23107  0.74820  Biso   1.000  Zr
  Zr27     1.0000 0.84964  0.26463  0.25153  Biso   1.000  Zr
  Zr28     1.0000 0.86846  0.48406  0.75260  Biso   1.000  Zr
  Zr29     1.0000 0.53322  0.17824  0.39238  Biso   1.000  Zr
  Zr30     1.0000 0.53928  0.06324  0.88660  Biso   1.000  Zr
  Zr31     1.0000 0.95782  0.44173  0.39412  Biso   1.000  Zr
  Zr32     1.0000 0.96696  0.31434  0.88651  Biso   1.000  Zr
  Zr33     1.0000 0.76276  0.11294  0.49641  Biso   1.000  Zr
  Zr34     1.0000 0.76903  0.13363  0.99484  Biso   1.000  Zr
  Zr35     1.0000 0.72958  0.38316  0.00052  Biso   1.000  Zr
  Zr36     1.0000 0.72794  0.36553  0.50344  Biso   1.000  Zr
  Zr37     1.0000 0.63463  0.51578  0.25485  Biso   1.000  Zr
  Zr38     1.0000 0.63551  0.73273  0.75157  Biso   1.000  Zr
  Zr39     1.0000 0.86432  0.76601  0.25028  Biso   1.000  Zr
  Zr40     1.0000 0.86671  0.98258  0.74301  Biso   1.000  Zr
  Zr41     1.0000 0.53458  0.68021  0.39772  Biso   1.000  Zr
  Zr42     1.0000 0.53449  0.56806  0.90017  Biso   1.000  Zr
  Zr43     1.0000 0.96824  0.92727  0.39777  Biso   1.000  Zr
  Zr44     1.0000 0.96583  0.81690  0.89717  Biso   1.000  Zr
  Zr45     1.0000 0.76777  0.61608  0.50289  Biso   1.000  Zr
  Zr46     1.0000 0.76876  0.63361  0.00104  Biso   1.000  Zr
  Zr47     1.0000 0.73343  0.88358  0.99539  Biso   1.000  Zr
  Zr48     1.0000 0.73173  0.86465  0.49604  Biso   1.000  Zr
  Rh1      1.0000 0.10404  0.29839  0.20838  Biso   1.000  Rh
