data_image0
_cell_length_a       10.1203
_cell_length_b       10.3032
_cell_length_c       10.1203
_cell_angle_alpha    90.5184
_cell_angle_beta     89.9746
_cell_angle_gamma    89.479

_symmetry_space_group_name_H-M    "P 1"
_symmetry_int_tables_number       1

loop_
  _symmetry_equiv_pos_as_xyz
  'x, y, z'

loop_
  _atom_site_label
  _atom_site_occupancy
  _atom_site_fract_x
  _atom_site_fract_y
  _atom_site_fract_z
  _atom_site_thermal_displace_type
  _atom_site_B_iso_or_equiv
  _atom_site_type_symbol
  Zr1      1.0000 0.11307  0.94045  0.13795  Biso   1.000  Zr
  Zr2      1.0000 0.12714  0.25241  0.37876  Biso   1.000  Zr
  Zr3      1.0000 0.38104  0.26187  0.11770  Biso   1.000  Zr
  Zr4      1.0000 0.38394  0.00589  0.37439  Biso   1.000  Zr
  Zr5      1.0000 0.99075  0.15800  0.97811  Biso   1.000  Zr
  Zr6      1.0000 0.00103  0.09461  0.25005  Biso   1.000  Zr
  Zr7      1.0000 0.98887  0.34748  0.26214  Biso   1.000  Zr
  Zr8      1.0000 0.00097  0.40320  0.00369  Biso   1.000  Zr
  Zr9      1.0000 0.27293  0.15801  0.26027  Biso   1.000  Zr
  Zr10     1.0000 0.26904  0.13320  0.98197  Biso   1.000  Zr
  Zr11     1.0000 0.25546  0.37348  0.99555  Biso   1.000  Zr
  Zr12     1.0000 0.24732  0.40321  0.25004  Biso   1.000  Zr
  Zr13     1.0000 0.12789  0.00135  0.62258  Biso   1.000  Zr
  Zr14     1.0000 0.13331  0.26186  0.86998  Biso   1.000  Zr
  Zr15     1.0000 0.37582  0.25255  0.62490  Biso   1.000  Zr
  Zr16     1.0000 0.37720  0.00338  0.87383  Biso   1.000  Zr
  Zr17     1.0000 0.00066  0.14728  0.49798  Biso   1.000  Zr
  Zr18     1.0000 0.99435  0.10356  0.73999  Biso   1.000  Zr
  Zr19     1.0000 0.99924  0.35804  0.74951  Biso   1.000  Zr
  Zr20     1.0000 0.00205  0.39662  0.50382  Biso   1.000  Zr
  Zr21     1.0000 0.24376  0.15086  0.73644  Biso   1.000  Zr
  Zr22     1.0000 0.25117  0.10056  0.49644  Biso   1.000  Zr
  Zr23     1.0000 0.25327  0.35532  0.49990  Biso   1.000  Zr
  Zr24     1.0000 0.25155  0.40112  0.74904  Biso   1.000  Zr
  Zr25     1.0000 0.12885  0.50842  0.12216  Biso   1.000  Zr
  Zr26     1.0000 0.12763  0.74359  0.38836  Biso   1.000  Zr
  Zr27     1.0000 0.37962  0.75022  0.12799  Biso   1.000  Zr
  Zr28     1.0000 0.37573  0.49944  0.37358  Biso   1.000  Zr
  Zr29     1.0000 0.00308  0.65055  0.00474  Biso   1.000  Zr
  Zr30     1.0000 0.99748  0.59527  0.25341  Biso   1.000  Zr
  Zr31     1.0000 0.99198  0.83674  0.25904  Biso   1.000  Zr
  Zr32     1.0000 0.98368  0.89035  0.99581  Biso   1.000  Zr
  Zr33     1.0000 0.24620  0.65056  0.24792  Biso   1.000  Zr
  Zr34     1.0000 0.25227  0.61307  0.99875  Biso   1.000  Zr
  Zr35     1.0000 0.24483  0.85625  0.00619  Biso   1.000  Zr
  Zr36     1.0000 0.25523  0.89035  0.26735  Biso   1.000  Zr
  Zr37     1.0000 0.12422  0.50114  0.62532  Biso   1.000  Zr
  Zr38     1.0000 0.12304  0.75023  0.87140  Biso   1.000  Zr
  Zr39     1.0000 0.37816  0.75124  0.62733  Biso   1.000  Zr
  Zr40     1.0000 0.37626  0.50630  0.87475  Biso   1.000  Zr
  Zr41     1.0000 0.99900  0.64425  0.50677  Biso   1.000  Zr
  Zr42     1.0000 0.00496  0.60543  0.75631  Biso   1.000  Zr
  Zr43     1.0000 0.00047  0.85456  0.74715  Biso   1.000  Zr
  Zr44     1.0000 0.99978  0.89665  0.49940  Biso   1.000  Zr
  Zr45     1.0000 0.25301  0.64958  0.74945  Biso   1.000  Zr
  Zr46     1.0000 0.24785  0.60209  0.49847  Biso   1.000  Zr
  Zr47     1.0000 0.24538  0.84947  0.51397  Biso   1.000  Zr
  Zr48     1.0000 0.24755  0.90112  0.75948  Biso   1.000  Zr
  Zr49     1.0000 0.62845  0.00133  0.12313  Biso   1.000  Zr
  Zr50     1.0000 0.62637  0.25014  0.37334  Biso   1.000  Zr
  Zr51     1.0000 0.87226  0.25242  0.12387  Biso   1.000  Zr
  Zr52     1.0000 0.87490  0.00036  0.37612  Biso   1.000  Zr
  Zr53     1.0000 0.51457  0.15085  0.00725  Biso   1.000  Zr
  Zr54     1.0000 0.51107  0.10355  0.25667  Biso   1.000  Zr
  Zr55     1.0000 0.50149  0.35803  0.25178  Biso   1.000  Zr
  Zr56     1.0000 0.50196  0.40111  0.99946  Biso   1.000  Zr
  Zr57     1.0000 0.75307  0.14728  0.25037  Biso   1.000  Zr
  Zr58     1.0000 0.75457  0.10055  0.99986  Biso   1.000  Zr
  Zr59     1.0000 0.75111  0.35532  0.99774  Biso   1.000  Zr
  Zr60     1.0000 0.74718  0.39661  0.24897  Biso   1.000  Zr
  Zr61     1.0000 0.62583  0.00358  0.62520  Biso   1.000  Zr
  Zr62     1.0000 0.62612  0.25255  0.87520  Biso   1.000  Zr
  Zr63     1.0000 0.87767  0.25014  0.62466  Biso   1.000  Zr
  Zr64     1.0000 0.87663  0.00588  0.86709  Biso   1.000  Zr
  Zr65     1.0000 0.50265  0.14933  0.50277  Biso   1.000  Zr
  Zr66     1.0000 0.49868  0.10585  0.75233  Biso   1.000  Zr
  Zr67     1.0000 0.50026  0.35450  0.75075  Biso   1.000  Zr
  Zr68     1.0000 0.50148  0.39953  0.50005  Biso   1.000  Zr
  Zr69     1.0000 0.74825  0.14933  0.74837  Biso   1.000  Zr
  Zr70     1.0000 0.75033  0.10295  0.50069  Biso   1.000  Zr
  Zr71     1.0000 0.75177  0.35241  0.49925  Biso   1.000  Zr
  Zr72     1.0000 0.75097  0.39954  0.74953  Biso   1.000  Zr
  Zr73     1.0000 0.62567  0.50115  0.12679  Biso   1.000  Zr
  Zr74     1.0000 0.62478  0.75224  0.37793  Biso   1.000  Zr
  Zr75     1.0000 0.86269  0.74355  0.12342  Biso   1.000  Zr
  Zr76     1.0000 0.87618  0.49551  0.37482  Biso   1.000  Zr
  Zr77     1.0000 0.50157  0.64957  0.99801  Biso   1.000  Zr
  Zr78     1.0000 0.49464  0.60541  0.24604  Biso   1.000  Zr
  Zr79     1.0000 0.50387  0.85455  0.25056  Biso   1.000  Zr
  Zr80     1.0000 0.49155  0.90111  0.00347  Biso   1.000  Zr
  Zr81     1.0000 0.74418  0.64425  0.25201  Biso   1.000  Zr
  Zr82     1.0000 0.75254  0.60208  0.00317  Biso   1.000  Zr
  Zr83     1.0000 0.73705  0.84945  0.00565  Biso   1.000  Zr
  Zr84     1.0000 0.75163  0.89664  0.25125  Biso   1.000  Zr
  Zr85     1.0000 0.62774  0.49961  0.62327  Biso   1.000  Zr
  Zr86     1.0000 0.62370  0.75124  0.87288  Biso   1.000  Zr
  Zr87     1.0000 0.87311  0.75223  0.62625  Biso   1.000  Zr
  Zr88     1.0000 0.87745  0.49946  0.87528  Biso   1.000  Zr
  Zr89     1.0000 0.49758  0.64915  0.49696  Biso   1.000  Zr
  Zr90     1.0000 0.50338  0.60564  0.74764  Biso   1.000  Zr
  Zr91     1.0000 0.49945  0.85617  0.75158  Biso   1.000  Zr
  Zr92     1.0000 0.49998  0.89849  0.50302  Biso   1.000  Zr
  Zr93     1.0000 0.75405  0.64915  0.75344  Biso   1.000  Zr
  Zr94     1.0000 0.74919  0.60448  0.50182  Biso   1.000  Zr
  Zr95     1.0000 0.74938  0.85474  0.50165  Biso   1.000  Zr
  Zr96     1.0000 0.74801  0.89849  0.75104  Biso   1.000  Zr
  Ru1      1.0000 0.13192  0.16501  0.11910  Biso   1.000  Ru
