data_image0
_cell_length_a       10.0959
_cell_length_b       5.27183
_cell_length_c       10.1476
_cell_angle_alpha    90.0675
_cell_angle_beta     90.2005
_cell_angle_gamma    90.3229

_symmetry_space_group_name_H-M    "P 1"
_symmetry_int_tables_number       1

loop_
  _symmetry_equiv_pos_as_xyz
  'x, y, z'

loop_
  _atom_site_label
  _atom_site_occupancy
  _atom_site_fract_x
  _atom_site_fract_y
  _atom_site_fract_z
  _atom_site_thermal_displace_type
  _atom_site_B_iso_or_equiv
  _atom_site_type_symbol
  Zr1      1.0000 0.12705  0.10433  0.11155  Biso   1.000  Zr
  Zr2      1.0000 0.13522  0.45915  0.38846  Biso   1.000  Zr
  Zr3      1.0000 0.36762  0.52293  0.11924  Biso   1.000  Zr
  Zr4      1.0000 0.36639  0.96176  0.37301  Biso   1.000  Zr
  Zr5      1.0000 0.00730  0.36348  0.22735  Biso   1.000  Zr
  Zr6      1.0000 0.03392  0.12858  0.45415  Biso   1.000  Zr
  Zr7      1.0000 0.46395  0.85919  0.19547  Biso   1.000  Zr
  Zr8      1.0000 0.46674  0.63024  0.44653  Biso   1.000  Zr
  Zr9      1.0000 0.26550  0.21607  0.25019  Biso   1.000  Zr
  Zr10     1.0000 0.27275  0.25931  0.49976  Biso   1.000  Zr
  Zr11     1.0000 0.23397  0.76407  0.50068  Biso   1.000  Zr
  Zr12     1.0000 0.23611  0.69655  0.25545  Biso   1.000  Zr
  Zr13     1.0000 0.13487  0.02250  0.62677  Biso   1.000  Zr
  Zr14     1.0000 0.14221  0.46449  0.86574  Biso   1.000  Zr
  Zr15     1.0000 0.37188  0.52650  0.62326  Biso   1.000  Zr
  Zr16     1.0000 0.37250  0.96444  0.87153  Biso   1.000  Zr
  Zr17     1.0000 0.03766  0.36218  0.68924  Biso   1.000  Zr
  Zr18     1.0000 0.03493  0.13611  0.93140  Biso   1.000  Zr
  Zr19     1.0000 0.47249  0.85929  0.69409  Biso   1.000  Zr
  Zr20     1.0000 0.47103  0.63468  0.94352  Biso   1.000  Zr
  Zr21     1.0000 0.27181  0.22520  0.74389  Biso   1.000  Zr
  Zr22     1.0000 0.28640  0.26175  0.98365  Biso   1.000  Zr
  Zr23     1.0000 0.23579  0.79011  0.99908  Biso   1.000  Zr
  Zr24     1.0000 0.23954  0.72797  0.74663  Biso   1.000  Zr
  Zr25     1.0000 0.62864  0.02690  0.12530  Biso   1.000  Zr
  Zr26     1.0000 0.63125  0.46204  0.37617  Biso   1.000  Zr
  Zr27     1.0000 0.84761  0.53016  0.12691  Biso   1.000  Zr
  Zr28     1.0000 0.86786  0.97280  0.37374  Biso   1.000  Zr
  Zr29     1.0000 0.53034  0.35481  0.19811  Biso   1.000  Zr
  Zr30     1.0000 0.53303  0.12858  0.44700  Biso   1.000  Zr
  Zr31     1.0000 0.95701  0.89155  0.19335  Biso   1.000  Zr
  Zr32     1.0000 0.96939  0.64304  0.45113  Biso   1.000  Zr
  Zr33     1.0000 0.75862  0.22751  0.25009  Biso   1.000  Zr
  Zr34     1.0000 0.76914  0.26847  0.49760  Biso   1.000  Zr
  Zr35     1.0000 0.73416  0.76712  0.49848  Biso   1.000  Zr
  Zr36     1.0000 0.72423  0.73222  0.25114  Biso   1.000  Zr
  Zr37     1.0000 0.63730  0.02580  0.62260  Biso   1.000  Zr
  Zr38     1.0000 0.63445  0.46282  0.87230  Biso   1.000  Zr
  Zr39     1.0000 0.86975  0.52969  0.62316  Biso   1.000  Zr
  Zr40     1.0000 0.86420  0.96366  0.87445  Biso   1.000  Zr
  Zr41     1.0000 0.53805  0.35999  0.69455  Biso   1.000  Zr
  Zr42     1.0000 0.53971  0.13141  0.94344  Biso   1.000  Zr
  Zr43     1.0000 0.97110  0.85366  0.70462  Biso   1.000  Zr
  Zr44     1.0000 0.97086  0.62933  0.95529  Biso   1.000  Zr
  Zr45     1.0000 0.77243  0.22495  0.74769  Biso   1.000  Zr
  Zr46     1.0000 0.76950  0.26221  0.99816  Biso   1.000  Zr
  Zr47     1.0000 0.72874  0.76288  0.99813  Biso   1.000  Zr
  Zr48     1.0000 0.73608  0.72549  0.74879  Biso   1.000  Zr
  Ru1      1.0000 0.09979  0.62003  0.11161  Biso   1.000  Ru
