data_image0
_cell_length_a       10.0665
_cell_length_b       5.12936
_cell_length_c       10.4982
_cell_angle_alpha    89.8406
_cell_angle_beta     89.7883
_cell_angle_gamma    90.0235

_symmetry_space_group_name_H-M    "P 1"
_symmetry_int_tables_number       1

loop_
  _symmetry_equiv_pos_as_xyz
  'x, y, z'

loop_
  _atom_site_label
  _atom_site_occupancy
  _atom_site_fract_x
  _atom_site_fract_y
  _atom_site_fract_z
  _atom_site_thermal_displace_type
  _atom_site_B_iso_or_equiv
  _atom_site_type_symbol
  Ru1      1.0000 0.14007  0.04303  0.17753  Biso   1.000  Ru
  Zr1      1.0000 0.13877  0.04202  0.67179  Biso   1.000  Zr
  Zr2      1.0000 0.13909  0.46149  0.41971  Biso   1.000  Zr
  Zr3      1.0000 0.13752  0.45245  0.92443  Biso   1.000  Zr
  Zr4      1.0000 0.35682  0.54637  0.17162  Biso   1.000  Zr
  Zr5      1.0000 0.36130  0.54284  0.67226  Biso   1.000  Zr
  Zr6      1.0000 0.36057  0.95949  0.42124  Biso   1.000  Zr
  Zr7      1.0000 0.35950  0.95404  0.92343  Biso   1.000  Zr
  Zr8      1.0000 0.63835  0.04405  0.07839  Biso   1.000  Zr
  Zr9      1.0000 0.63868  0.04274  0.57896  Biso   1.000  Zr
  Zr10     1.0000 0.63770  0.45858  0.32750  Biso   1.000  Zr
  Zr11     1.0000 0.63900  0.45897  0.83009  Biso   1.000  Zr
  Zr12     1.0000 0.86782  0.53938  0.08003  Biso   1.000  Zr
  Zr13     1.0000 0.86084  0.54267  0.57755  Biso   1.000  Zr
  Zr14     1.0000 0.86207  0.96153  0.32642  Biso   1.000  Zr
  Zr15     1.0000 0.86095  0.95714  0.82899  Biso   1.000  Zr
  O1       1.0000 0.03185  0.31486  0.08181  Biso   1.000  O
  O2       1.0000 0.02910  0.31647  0.57413  Biso   1.000  O
  O3       1.0000 0.03575  0.17938  0.32111  Biso   1.000  O
  O4       1.0000 0.02951  0.17767  0.82751  Biso   1.000  O
  O5       1.0000 0.46879  0.82523  0.08306  Biso   1.000  O
  O6       1.0000 0.46727  0.83065  0.58395  Biso   1.000  O
  O7       1.0000 0.46449  0.66938  0.33365  Biso   1.000  O
  O8       1.0000 0.46726  0.67131  0.83417  Biso   1.000  O
  O9       1.0000 0.27535  0.24553  0.29509  Biso   1.000  O
  O10      1.0000 0.27581  0.24762  0.79875  Biso   1.000  O
  O11      1.0000 0.26930  0.23889  0.05431  Biso   1.000  O
  O12      1.0000 0.27586  0.25376  0.54587  Biso   1.000  O
  O13      1.0000 0.22055  0.75635  0.29239  Biso   1.000  O
  O14      1.0000 0.22409  0.74773  0.79486  Biso   1.000  O
  O15      1.0000 0.22203  0.75083  0.04547  Biso   1.000  O
  O16      1.0000 0.22418  0.75099  0.54417  Biso   1.000  O
  O17      1.0000 0.53108  0.33089  0.16748  Biso   1.000  O
  O18      1.0000 0.53258  0.32987  0.66790  Biso   1.000  O
  O19      1.0000 0.53244  0.17120  0.41727  Biso   1.000  O
  O20      1.0000 0.53006  0.17419  0.91916  Biso   1.000  O
  O21      1.0000 0.97855  0.83599  0.16609  Biso   1.000  O
  O22      1.0000 0.96966  0.82004  0.66911  Biso   1.000  O
  O23      1.0000 0.96894  0.67838  0.41697  Biso   1.000  O
  O24      1.0000 0.96933  0.67124  0.91916  Biso   1.000  O
  O25      1.0000 0.77555  0.25085  0.95506  Biso   1.000  O
  O26      1.0000 0.77670  0.24820  0.45288  Biso   1.000  O
  O27      1.0000 0.77463  0.25199  0.20452  Biso   1.000  O
  O28      1.0000 0.77576  0.25137  0.70453  Biso   1.000  O
  O29      1.0000 0.72511  0.74929  0.95534  Biso   1.000  O
  O30      1.0000 0.72397  0.74818  0.45441  Biso   1.000  O
  O31      1.0000 0.73106  0.75239  0.20494  Biso   1.000  O
  O32      1.0000 0.72431  0.75250  0.70491  Biso   1.000  O
