data_image0
_cell_length_a       5.17782
_cell_length_b       10.5063
_cell_length_c       10.6094
_cell_angle_alpha    88.8679
_cell_angle_beta     78.7856
_cell_angle_gamma    89.1606

_symmetry_space_group_name_H-M    "P 1"
_symmetry_int_tables_number       1

loop_
  _symmetry_equiv_pos_as_xyz
  'x, y, z'

loop_
  _atom_site_label
  _atom_site_occupancy
  _atom_site_fract_x
  _atom_site_fract_y
  _atom_site_fract_z
  _atom_site_thermal_displace_type
  _atom_site_B_iso_or_equiv
  _atom_site_type_symbol
  Zr1      1.0000 0.25983  0.00864  0.14281  Biso   1.000  Zr
  Zr2      1.0000 0.36580  0.24481  0.40801  Biso   1.000  Zr
  Zr3      1.0000 0.68968  0.26504  0.09998  Biso   1.000  Zr
  Zr4      1.0000 0.72297  0.49520  0.35855  Biso   1.000  Zr
  O1       1.0000 0.04267  0.15427  0.07299  Biso   1.000  O
  O2       1.0000 0.03960  0.04664  0.32819  Biso   1.000  O
  O3       1.0000 0.94048  0.42116  0.17740  Biso   1.000  O
  O4       1.0000 0.98846  0.38423  0.44945  Biso   1.000  O
  O5       1.0000 0.51592  0.11435  0.23857  Biso   1.000  O
  O6       1.0000 0.57140  0.10592  0.49602  Biso   1.000  O
  O7       1.0000 0.43122  0.37884  0.01142  Biso   1.000  O
  O8       1.0000 0.46001  0.38708  0.25947  Biso   1.000  O
  Zr5      1.0000 0.27483  0.02196  0.64506  Biso   1.000  Zr
  Zr6      1.0000 0.26487  0.22713  0.89394  Biso   1.000  Zr
  Zr7      1.0000 0.75189  0.27879  0.61300  Biso   1.000  Zr
  Zr8      1.0000 0.71437  0.47805  0.86025  Biso   1.000  Zr
  O9       1.0000 0.09010  0.17141  0.57059  Biso   1.000  O
  O10      1.0000 0.05318  0.08944  0.82254  Biso   1.000  O
  O11      1.0000 0.94908  0.40792  0.69089  Biso   1.000  O
  O12      1.0000 0.92310  0.33635  0.93185  Biso   1.000  O
  O13      1.0000 0.54253  0.13122  0.74037  Biso   1.000  O
  O14      1.0000 0.53155  0.12152  0.98878  Biso   1.000  O
  O15      1.0000 0.48079  0.38477  0.52098  Biso   1.000  O
  O16      1.0000 0.45721  0.37344  0.76525  Biso   1.000  O
  Zr9      1.0000 0.27868  0.52524  0.14746  Biso   1.000  Zr
  Zr10     1.0000 0.25991  0.72736  0.39844  Biso   1.000  Zr
  Zr11     1.0000 0.71437  0.76855  0.10064  Biso   1.000  Zr
  Zr12     1.0000 0.68935  0.96263  0.35229  Biso   1.000  Zr
  O17      1.0000 0.05921  0.66494  0.07223  Biso   1.000  O
  O18      1.0000 0.05634  0.59967  0.31859  Biso   1.000  O
  O19      1.0000 0.91248  0.90640  0.16735  Biso   1.000  O
  O20      1.0000 0.90700  0.82420  0.42512  Biso   1.000  O
  O21      1.0000 0.54572  0.63158  0.24311  Biso   1.000  O
  O22      1.0000 0.53202  0.62572  0.49471  Biso   1.000  O
  O23      1.0000 0.44368  0.87618  0.00582  Biso   1.000  O
  O24      1.0000 0.42707  0.86336  0.25616  Biso   1.000  O
  Zr13     1.0000 0.27237  0.52512  0.65180  Biso   1.000  Zr
  Zr14     1.0000 0.26682  0.72784  0.89505  Biso   1.000  Zr
  Zr15     1.0000 0.71406  0.77371  0.60714  Biso   1.000  Zr
  Zr16     1.0000 0.71647  0.97937  0.85066  Biso   1.000  Zr
  O25      1.0000 0.04711  0.66042  0.58058  Biso   1.000  O
  O26      1.0000 0.05631  0.58706  0.82910  Biso   1.000  O
  O27      1.0000 0.92664  0.91818  0.67008  Biso   1.000  O
  O28      1.0000 0.92849  0.83595  0.91781  Biso   1.000  O
  O29      1.0000 0.53995  0.62852  0.74225  Biso   1.000  O
  O30      1.0000 0.54415  0.62135  0.99111  Biso   1.000  O
  O31      1.0000 0.42504  0.87342  0.51169  Biso   1.000  O
  O32      1.0000 0.44545  0.87410  0.75959  Biso   1.000  O
  Sb1      1.0000 0.95241  0.24103  0.29984  Biso   1.000  Sb
