data_image0
_cell_length_a       10.1568
_cell_length_b       5.2601
_cell_length_c       10.3538
_cell_angle_alpha    93.8995
_cell_angle_beta     95.1281
_cell_angle_gamma    87.4379

_symmetry_space_group_name_H-M    "P 1"
_symmetry_int_tables_number       1

loop_
  _symmetry_equiv_pos_as_xyz
  'x, y, z'

loop_
  _atom_site_label
  _atom_site_occupancy
  _atom_site_fract_x
  _atom_site_fract_y
  _atom_site_fract_z
  _atom_site_thermal_displace_type
  _atom_site_B_iso_or_equiv
  _atom_site_type_symbol
  Zr1      1.0000 0.16653  0.13141  0.09221  Biso   1.000  Zr
  Zr2      1.0000 0.09786  0.43791  0.37765  Biso   1.000  Zr
  Zr3      1.0000 0.37527  0.57535  0.12358  Biso   1.000  Zr
  Zr4      1.0000 0.34960  0.97924  0.37263  Biso   1.000  Zr
  Zr5      1.0000 0.01658  0.24213  0.21039  Biso   1.000  Zr
  Zr6      1.0000 0.01839  0.11423  0.44357  Biso   1.000  Zr
  Zr7      1.0000 0.47317  0.88833  0.21388  Biso   1.000  Zr
  Zr8      1.0000 0.46019  0.65581  0.43706  Biso   1.000  Zr
  Zr9      1.0000 0.27834  0.31909  0.24659  Biso   1.000  Zr
  Zr10     1.0000 0.25065  0.25276  0.49194  Biso   1.000  Zr
  Zr11     1.0000 0.22287  0.75435  0.47334  Biso   1.000  Zr
  Zr12     1.0000 0.23271  0.82236  0.21494  Biso   1.000  Zr
  Zr13     1.0000 0.12805  0.00946  0.61059  Biso   1.000  Zr
  Zr14     1.0000 0.16273  0.47087  0.84075  Biso   1.000  Zr
  Zr15     1.0000 0.38016  0.51703  0.59572  Biso   1.000  Zr
  Zr16     1.0000 0.38278  0.97081  0.85647  Biso   1.000  Zr
  Zr17     1.0000 0.04864  0.36097  0.67168  Biso   1.000  Zr
  Zr18     1.0000 0.05986  0.16245  0.90956  Biso   1.000  Zr
  Zr19     1.0000 0.47231  0.86035  0.68653  Biso   1.000  Zr
  Zr20     1.0000 0.50380  0.69419  0.97708  Biso   1.000  Zr
  Zr21     1.0000 0.27547  0.20651  0.73343  Biso   1.000  Zr
  Zr22     1.0000 0.30502  0.28930  0.98093  Biso   1.000  Zr
  Zr23     1.0000 0.25738  0.79424  0.97006  Biso   1.000  Zr
  Zr24     1.0000 0.24733  0.71260  0.72172  Biso   1.000  Zr
  Zr25     1.0000 0.61836  0.99324  0.11101  Biso   1.000  Zr
  Zr26     1.0000 0.62378  0.44466  0.38728  Biso   1.000  Zr
  Zr27     1.0000 0.83350  0.44795  0.17283  Biso   1.000  Zr
  Zr28     1.0000 0.84938  0.92285  0.41021  Biso   1.000  Zr
  Zr29     1.0000 0.54005  0.36361  0.18959  Biso   1.000  Zr
  Zr30     1.0000 0.50672  0.17983  0.47395  Biso   1.000  Zr
  Zr31     1.0000 0.97194  0.71225  0.26269  Biso   1.000  Zr
  Zr32     1.0000 0.94961  0.59776  0.47646  Biso   1.000  Zr
  Zr33     1.0000 0.75385  0.16248  0.26862  Biso   1.000  Zr
  Zr34     1.0000 0.75773  0.24821  0.51798  Biso   1.000  Zr
  Zr35     1.0000 0.71496  0.74563  0.52271  Biso   1.000  Zr
  Zr36     1.0000 0.72046  0.68963  0.28131  Biso   1.000  Zr
  Zr37     1.0000 0.63292  0.04296  0.64106  Biso   1.000  Zr
  Zr38     1.0000 0.65262  0.47597  0.89142  Biso   1.000  Zr
  Zr39     1.0000 0.86811  0.53869  0.65203  Biso   1.000  Zr
  Zr40     1.0000 0.88600  0.98875  0.87365  Biso   1.000  Zr
  Zr41     1.0000 0.53260  0.37821  0.71563  Biso   1.000  Zr
  Zr42     1.0000 0.54861  0.15249  0.93771  Biso   1.000  Zr
  Zr43     1.0000 0.95042  0.90463  0.67256  Biso   1.000  Zr
  Zr44     1.0000 0.97351  0.63273  0.85910  Biso   1.000  Zr
  Zr45     1.0000 0.77711  0.26028  0.76436  Biso   1.000  Zr
  Zr46     1.0000 0.77925  0.22448  0.01030  Biso   1.000  Zr
  Zr47     1.0000 0.75817  0.72101  0.03353  Biso   1.000  Zr
  Zr48     1.0000 0.72922  0.76680  0.77341  Biso   1.000  Zr
  Sb1      1.0000 0.03939  0.68138  0.07605  Biso   1.000  Sb
