data_image0
_cell_length_a       10.1516
_cell_length_b       10.3733
_cell_length_c       10.5591
_cell_angle_alpha    90.0795
_cell_angle_beta     91.2174
_cell_angle_gamma    89.9169

_symmetry_space_group_name_H-M    "P 1"
_symmetry_int_tables_number       1

loop_
  _symmetry_equiv_pos_as_xyz
  'x, y, z'

loop_
  _atom_site_label
  _atom_site_occupancy
  _atom_site_fract_x
  _atom_site_fract_y
  _atom_site_fract_z
  _atom_site_thermal_displace_type
  _atom_site_B_iso_or_equiv
  _atom_site_type_symbol
  Zr1      1.0000 0.13325  0.01753  0.17529  Biso   1.000  Zr
  Zr2      1.0000 0.13713  0.22703  0.42852  Biso   1.000  Zr
  Zr3      1.0000 0.33842  0.26726  0.19091  Biso   1.000  Zr
  Zr4      1.0000 0.36175  0.47969  0.42505  Biso   1.000  Zr
  Zr5      1.0000 0.64577  0.01023  0.07706  Biso   1.000  Zr
  Zr6      1.0000 0.63779  0.22818  0.32967  Biso   1.000  Zr
  Zr7      1.0000 0.86123  0.27126  0.07617  Biso   1.000  Zr
  Zr8      1.0000 0.86064  0.47821  0.32749  Biso   1.000  Zr
  O1       1.0000 0.03196  0.16925  0.08863  Biso   1.000  O
  O2       1.0000 0.02951  0.08392  0.33648  Biso   1.000  O
  O3       1.0000 0.46912  0.43391  0.09541  Biso   1.000  O
  O4       1.0000 0.46268  0.33313  0.33535  Biso   1.000  O
  O5       1.0000 0.26882  0.12302  0.30426  Biso   1.000  O
  O6       1.0000 0.26332  0.11185  0.05324  Biso   1.000  O
  O7       1.0000 0.21535  0.37741  0.30582  Biso   1.000  O
  O8       1.0000 0.21954  0.37874  0.05415  Biso   1.000  O
  O9       1.0000 0.51930  0.15050  0.18014  Biso   1.000  O
  O10      1.0000 0.53072  0.08641  0.42144  Biso   1.000  O
  O11      1.0000 0.96334  0.41823  0.16590  Biso   1.000  O
  O12      1.0000 0.96737  0.33379  0.41594  Biso   1.000  O
  O13      1.0000 0.77552  0.12517  0.45152  Biso   1.000  O
  O14      1.0000 0.77014  0.12550  0.20083  Biso   1.000  O
  O15      1.0000 0.72421  0.37542  0.45097  Biso   1.000  O
  O16      1.0000 0.72088  0.37416  0.20140  Biso   1.000  O
  Zr9      1.0000 0.14229  0.02176  0.67507  Biso   1.000  Zr
  Zr10     1.0000 0.14170  0.22870  0.92640  Biso   1.000  Zr
  Zr11     1.0000 0.36515  0.27179  0.67289  Biso   1.000  Zr
  Zr12     1.0000 0.35716  0.48974  0.92551  Biso   1.000  Zr
  Zr13     1.0000 0.64119  0.02028  0.57752  Biso   1.000  Zr
  Zr14     1.0000 0.66452  0.23271  0.81166  Biso   1.000  Zr
  Zr15     1.0000 0.86581  0.27293  0.57405  Biso   1.000  Zr
  Zr16     1.0000 0.86969  0.48244  0.82727  Biso   1.000  Zr
  O17      1.0000 0.03557  0.16618  0.58663  Biso   1.000  O
  O18      1.0000 0.03960  0.08174  0.83666  Biso   1.000  O
  O19      1.0000 0.47222  0.41356  0.58112  Biso   1.000  O
  O20      1.0000 0.48364  0.34947  0.82242  Biso   1.000  O
  O21      1.0000 0.28206  0.12580  0.80117  Biso   1.000  O
  O22      1.0000 0.27873  0.12455  0.55159  Biso   1.000  O
  O23      1.0000 0.23279  0.37447  0.80173  Biso   1.000  O
  O24      1.0000 0.22741  0.37480  0.55104  Biso   1.000  O
  O25      1.0000 0.54026  0.16683  0.66722  Biso   1.000  O
  O26      1.0000 0.53382  0.06605  0.90716  Biso   1.000  O
  O27      1.0000 0.97343  0.41605  0.66608  Biso   1.000  O
  O28      1.0000 0.97098  0.33071  0.91393  Biso   1.000  O
  O29      1.0000 0.78339  0.12122  0.94842  Biso   1.000  O
  O30      1.0000 0.78759  0.12256  0.69675  Biso   1.000  O
  O31      1.0000 0.73962  0.38812  0.94932  Biso   1.000  O
  O32      1.0000 0.73411  0.37695  0.69830  Biso   1.000  O
  Zr17     1.0000 0.13551  0.52251  0.17410  Biso   1.000  Zr
  Zr18     1.0000 0.13838  0.72879  0.42317  Biso   1.000  Zr
  Zr19     1.0000 0.36247  0.77120  0.17628  Biso   1.000  Zr
  Zr20     1.0000 0.36189  0.97734  0.42714  Biso   1.000  Zr
  Zr21     1.0000 0.64558  0.52844  0.07761  Biso   1.000  Zr
  Zr22     1.0000 0.63951  0.72941  0.32965  Biso   1.000  Zr
  Zr23     1.0000 0.86328  0.76952  0.07934  Biso   1.000  Zr
  Zr24     1.0000 0.86056  0.97977  0.33015  Biso   1.000  Zr
  O33      1.0000 0.03401  0.66700  0.08517  Biso   1.000  O
  O34      1.0000 0.03151  0.58460  0.33608  Biso   1.000  O
  O35      1.0000 0.46972  0.91255  0.08484  Biso   1.000  O
  O36      1.0000 0.46903  0.83562  0.33708  Biso   1.000  O
  O37      1.0000 0.27427  0.62519  0.29700  Biso   1.000  O
  O38      1.0000 0.27489  0.62562  0.04752  Biso   1.000  O
  O39      1.0000 0.22480  0.87416  0.29941  Biso   1.000  O
  O40      1.0000 0.22432  0.87013  0.05066  Biso   1.000  O
  O41      1.0000 0.53614  0.67048  0.16735  Biso   1.000  O
  O42      1.0000 0.53234  0.58542  0.41566  Biso   1.000  O
  O43      1.0000 0.96278  0.91775  0.16567  Biso   1.000  O
  O44      1.0000 0.96702  0.83383  0.41653  Biso   1.000  O
  O45      1.0000 0.77647  0.62476  0.45346  Biso   1.000  O
  O46      1.0000 0.77860  0.62685  0.20433  Biso   1.000  O
  O47      1.0000 0.72645  0.87557  0.45562  Biso   1.000  O
  O48      1.0000 0.72548  0.87314  0.20558  Biso   1.000  O
  Zr25     1.0000 0.14238  0.52020  0.67242  Biso   1.000  Zr
  Zr26     1.0000 0.13965  0.73045  0.92323  Biso   1.000  Zr
  Zr27     1.0000 0.36343  0.77056  0.67292  Biso   1.000  Zr
  Zr28     1.0000 0.35735  0.97153  0.92496  Biso   1.000  Zr
  Zr29     1.0000 0.64105  0.52263  0.57543  Biso   1.000  Zr
  Zr30     1.0000 0.64046  0.72877  0.82629  Biso   1.000  Zr
  Zr31     1.0000 0.86456  0.77118  0.57940  Biso   1.000  Zr
  Zr32     1.0000 0.86742  0.97746  0.82846  Biso   1.000  Zr
  O49      1.0000 0.03591  0.66614  0.58604  Biso   1.000  O
  O50      1.0000 0.04016  0.58221  0.83689  Biso   1.000  O
  O51      1.0000 0.47060  0.91455  0.58690  Biso   1.000  O
  O52      1.0000 0.46679  0.82949  0.83522  Biso   1.000  O
  O53      1.0000 0.27746  0.62682  0.79699  Biso   1.000  O
  O54      1.0000 0.27649  0.62440  0.54694  Biso   1.000  O
  O55      1.0000 0.22434  0.87311  0.79824  Biso   1.000  O
  O56      1.0000 0.22647  0.87521  0.54911  Biso   1.000  O
  O57      1.0000 0.53391  0.66435  0.66549  Biso   1.000  O
  O58      1.0000 0.53322  0.58742  0.91773  Biso   1.000  O
  O59      1.0000 0.97143  0.91537  0.66648  Biso   1.000  O
  O60      1.0000 0.96893  0.83298  0.91740  Biso   1.000  O
  O61      1.0000 0.77862  0.62984  0.95191  Biso   1.000  O
  O62      1.0000 0.77813  0.62581  0.70316  Biso   1.000  O
  O63      1.0000 0.72805  0.87435  0.95505  Biso   1.000  O
  O64      1.0000 0.72867  0.87478  0.70557  Biso   1.000  O
  Sb1      1.0000 0.50147  0.24998  0.00128  Biso   1.000  Sb
