data_image0
_cell_length_a       10.0915
_cell_length_b       10.0914
_cell_length_c       5.02117
_cell_angle_alpha    89.9975
_cell_angle_beta     89.9999
_cell_angle_gamma    89.9958

_symmetry_space_group_name_H-M    "P 1"
_symmetry_int_tables_number       1

loop_
  _symmetry_equiv_pos_as_xyz
  'x, y, z'

loop_
  _atom_site_label
  _atom_site_occupancy
  _atom_site_fract_x
  _atom_site_fract_y
  _atom_site_fract_z
  _atom_site_thermal_displace_type
  _atom_site_B_iso_or_equiv
  _atom_site_type_symbol
  Si1      1.0000 0.12530  0.00025  0.21389  Biso   1.000  Si
  Zr1      1.0000 0.12530  0.50025  0.21385  Biso   1.000  Zr
  Zr2      1.0000 0.62531  0.00024  0.21385  Biso   1.000  Zr
  Zr3      1.0000 0.62530  0.50024  0.21386  Biso   1.000  Zr
  Zr4      1.0000 0.12530  0.25061  0.71384  Biso   1.000  Zr
  Zr5      1.0000 0.12529  0.74988  0.71384  Biso   1.000  Zr
  Zr6      1.0000 0.62529  0.25128  0.71384  Biso   1.000  Zr
  Zr7      1.0000 0.62528  0.74920  0.71385  Biso   1.000  Zr
  Zr8      1.0000 0.37337  0.24833  0.20184  Biso   1.000  Zr
  Zr9      1.0000 0.37336  0.75219  0.22585  Biso   1.000  Zr
  Zr10     1.0000 0.87722  0.24832  0.22584  Biso   1.000  Zr
  Zr11     1.0000 0.87721  0.75217  0.20183  Biso   1.000  Zr
  Zr12     1.0000 0.37633  0.50026  0.71386  Biso   1.000  Zr
  Zr13     1.0000 0.37566  0.00025  0.71386  Biso   1.000  Zr
  Zr14     1.0000 0.87426  0.50024  0.71385  Biso   1.000  Zr
  Zr15     1.0000 0.87493  0.00025  0.71384  Biso   1.000  Zr
  Zr16     1.0000 0.97269  0.15286  0.53134  Biso   1.000  Zr
  Zr17     1.0000 0.98955  0.64714  0.47184  Biso   1.000  Zr
  Zr18     1.0000 0.47840  0.13599  0.47186  Biso   1.000  Zr
  Zr19     1.0000 0.48915  0.63638  0.46918  Biso   1.000  Zr
  Zr20     1.0000 0.02967  0.09589  0.02327  Biso   1.000  Zr
  Zr21     1.0000 0.01013  0.60658  0.96489  Biso   1.000  Zr
  Zr22     1.0000 0.51897  0.11542  0.96491  Biso   1.000  Zr
  Zr23     1.0000 0.51123  0.61432  0.96295  Biso   1.000  Zr
  Zr24     1.0000 0.51124  0.38619  0.46476  Biso   1.000  Zr
  Zr25     1.0000 0.51897  0.88509  0.46280  Biso   1.000  Zr
  Zr26     1.0000 0.01014  0.39391  0.46277  Biso   1.000  Zr
  Zr27     1.0000 0.02967  0.90462  0.40451  Biso   1.000  Zr
  Zr28     1.0000 0.48917  0.36413  0.95855  Biso   1.000  Zr
  Zr29     1.0000 0.47840  0.86452  0.95588  Biso   1.000  Zr
  Zr30     1.0000 0.98956  0.35336  0.95583  Biso   1.000  Zr
  Zr31     1.0000 0.97269  0.84765  0.89641  Biso   1.000  Zr
  Zr32     1.0000 0.22093  0.09588  0.40449  Biso   1.000  Zr
  Zr33     1.0000 0.24045  0.60659  0.46279  Biso   1.000  Zr
  Zr34     1.0000 0.73162  0.11542  0.46279  Biso   1.000  Zr
  Zr35     1.0000 0.73935  0.61432  0.46474  Biso   1.000  Zr
  Zr36     1.0000 0.27791  0.15285  0.89641  Biso   1.000  Zr
  Zr37     1.0000 0.26104  0.64714  0.95586  Biso   1.000  Zr
  Zr38     1.0000 0.77219  0.13598  0.95586  Biso   1.000  Zr
  Zr39     1.0000 0.76143  0.63637  0.95852  Biso   1.000  Zr
  Zr40     1.0000 0.24045  0.39392  0.96490  Biso   1.000  Zr
  Zr41     1.0000 0.22093  0.90461  0.02330  Biso   1.000  Zr
  Zr42     1.0000 0.73937  0.38617  0.96296  Biso   1.000  Zr
  Zr43     1.0000 0.73162  0.88507  0.96489  Biso   1.000  Zr
  Zr44     1.0000 0.26105  0.35336  0.47186  Biso   1.000  Zr
  Zr45     1.0000 0.27792  0.84764  0.53137  Biso   1.000  Zr
  Zr46     1.0000 0.76144  0.36412  0.46919  Biso   1.000  Zr
  Zr47     1.0000 0.77219  0.86451  0.47184  Biso   1.000  Zr
