data_image0
_cell_length_a       10.1965
_cell_length_b       10.3832
_cell_length_c       10.5642
_cell_angle_alpha    90.353
_cell_angle_beta     80.1382
_cell_angle_gamma    90.1721

_symmetry_space_group_name_H-M    "P 1"
_symmetry_int_tables_number       1

loop_
  _symmetry_equiv_pos_as_xyz
  'x, y, z'

loop_
  _atom_site_label
  _atom_site_occupancy
  _atom_site_fract_x
  _atom_site_fract_y
  _atom_site_fract_z
  _atom_site_thermal_displace_type
  _atom_site_B_iso_or_equiv
  _atom_site_type_symbol
  Zr1      1.0000 0.13621  0.02410  0.14641  Biso   1.000  Zr
  Zr2      1.0000 0.14443  0.23304  0.39741  Biso   1.000  Zr
  Zr3      1.0000 0.36450  0.27561  0.09521  Biso   1.000  Zr
  Zr4      1.0000 0.35115  0.47482  0.34461  Biso   1.000  Zr
  O1       1.0000 0.03254  0.16979  0.08072  Biso   1.000  O
  O2       1.0000 0.03685  0.08166  0.32859  Biso   1.000  O
  O3       1.0000 0.45373  0.44479  0.14831  Biso   1.000  O
  O4       1.0000 0.47672  0.32864  0.42550  Biso   1.000  O
  O5       1.0000 0.28375  0.12116  0.24182  Biso   1.000  O
  O6       1.0000 0.28326  0.11459  0.49501  Biso   1.000  O
  O7       1.0000 0.22161  0.38312  0.00331  Biso   1.000  O
  O8       1.0000 0.20303  0.37653  0.25138  Biso   1.000  O
  Zr5      1.0000 0.13861  0.02055  0.64762  Biso   1.000  Zr
  Zr6      1.0000 0.13735  0.23013  0.89669  Biso   1.000  Zr
  Zr7      1.0000 0.36161  0.27090  0.61291  Biso   1.000  Zr
  Zr8      1.0000 0.36114  0.48004  0.85580  Biso   1.000  Zr
  O9       1.0000 0.04051  0.16965  0.58187  Biso   1.000  O
  O10      1.0000 0.03543  0.08115  0.83008  Biso   1.000  O
  O11      1.0000 0.46723  0.41744  0.67199  Biso   1.000  O
  O12      1.0000 0.46821  0.33193  0.91435  Biso   1.000  O
  O13      1.0000 0.27623  0.12930  0.74289  Biso   1.000  O
  O14      1.0000 0.27248  0.12232  0.99085  Biso   1.000  O
  O15      1.0000 0.22714  0.37822  0.51640  Biso   1.000  O
  O16      1.0000 0.22527  0.37112  0.76085  Biso   1.000  O
  Zr9      1.0000 0.13723  0.52204  0.14175  Biso   1.000  Zr
  Zr10     1.0000 0.13546  0.72403  0.39689  Biso   1.000  Zr
  Zr11     1.0000 0.36033  0.77127  0.10463  Biso   1.000  Zr
  Zr12     1.0000 0.35138  0.96303  0.35954  Biso   1.000  Zr
  O17      1.0000 0.03242  0.67186  0.07910  Biso   1.000  O
  O18      1.0000 0.03134  0.58422  0.32635  Biso   1.000  O
  O19      1.0000 0.46495  0.91538  0.17830  Biso   1.000  O
  O20      1.0000 0.46546  0.83081  0.42380  Biso   1.000  O
  O21      1.0000 0.27274  0.63002  0.24072  Biso   1.000  O
  O22      1.0000 0.27315  0.61865  0.48871  Biso   1.000  O
  O23      1.0000 0.22393  0.88063  0.01166  Biso   1.000  O
  O24      1.0000 0.22003  0.86754  0.26074  Biso   1.000  O
  Zr13     1.0000 0.14052  0.52192  0.64598  Biso   1.000  Zr
  Zr14     1.0000 0.13713  0.73005  0.89701  Biso   1.000  Zr
  Zr15     1.0000 0.36133  0.76884  0.60691  Biso   1.000  Zr
  Zr16     1.0000 0.36051  0.97895  0.85628  Biso   1.000  Zr
  O25      1.0000 0.03174  0.66494  0.57956  Biso   1.000  O
  O26      1.0000 0.03560  0.58219  0.83105  Biso   1.000  O
  O27      1.0000 0.46499  0.91563  0.67264  Biso   1.000  O
  O28      1.0000 0.46507  0.83457  0.92300  Biso   1.000  O
  O29      1.0000 0.27669  0.62849  0.74097  Biso   1.000  O
  O30      1.0000 0.27569  0.62445  0.99015  Biso   1.000  O
  O31      1.0000 0.22071  0.87308  0.51294  Biso   1.000  O
  O32      1.0000 0.22420  0.87112  0.76138  Biso   1.000  O
  Zr17     1.0000 0.63819  0.01937  0.14298  Biso   1.000  Zr
  Zr18     1.0000 0.65705  0.23120  0.40416  Biso   1.000  Zr
  Zr19     1.0000 0.85844  0.27214  0.10563  Biso   1.000  Zr
  Zr20     1.0000 0.86227  0.47894  0.35359  Biso   1.000  Zr
  O33      1.0000 0.53508  0.16142  0.07265  Biso   1.000  O
  O34      1.0000 0.51278  0.10103  0.32931  Biso   1.000  O
  O35      1.0000 0.95918  0.42275  0.16706  Biso   1.000  O
  O36      1.0000 0.96559  0.33644  0.42409  Biso   1.000  O
  O37      1.0000 0.76795  0.12646  0.24450  Biso   1.000  O
  O38      1.0000 0.78337  0.11825  0.49352  Biso   1.000  O
  O39      1.0000 0.72190  0.37857  0.01150  Biso   1.000  O
  O40      1.0000 0.72274  0.37051  0.26142  Biso   1.000  O
  Zr21     1.0000 0.63939  0.01962  0.64715  Biso   1.000  Zr
  Zr22     1.0000 0.64100  0.22756  0.89406  Biso   1.000  Zr
  Zr23     1.0000 0.86747  0.27225  0.60766  Biso   1.000  Zr
  Zr24     1.0000 0.86134  0.47916  0.85692  Biso   1.000  Zr
  O41      1.0000 0.53899  0.16564  0.57901  Biso   1.000  O
  O42      1.0000 0.53461  0.08203  0.82761  Biso   1.000  O
  O43      1.0000 0.96788  0.41772  0.67465  Biso   1.000  O
  O44      1.0000 0.96239  0.33098  0.92170  Biso   1.000  O
  O45      1.0000 0.77705  0.12880  0.74162  Biso   1.000  O
  O46      1.0000 0.77736  0.12144  0.99126  Biso   1.000  O
  O47      1.0000 0.72742  0.37776  0.51321  Biso   1.000  O
  O48      1.0000 0.72666  0.37190  0.76050  Biso   1.000  O
  Zr25     1.0000 0.63396  0.52324  0.14463  Biso   1.000  Zr
  Zr26     1.0000 0.63781  0.72415  0.39537  Biso   1.000  Zr
  Zr27     1.0000 0.85869  0.77133  0.10555  Biso   1.000  Zr
  Zr28     1.0000 0.86429  0.97583  0.35519  Biso   1.000  Zr
  O49      1.0000 0.53927  0.67854  0.08154  Biso   1.000  O
  O50      1.0000 0.53207  0.57567  0.33107  Biso   1.000  O
  O51      1.0000 0.96359  0.91929  0.17044  Biso   1.000  O
  O52      1.0000 0.96431  0.83094  0.42238  Biso   1.000  O
  O53      1.0000 0.77321  0.63077  0.24122  Biso   1.000  O
  O54      1.0000 0.77445  0.61982  0.49077  Biso   1.000  O
  O55      1.0000 0.72408  0.88108  0.00990  Biso   1.000  O
  O56      1.0000 0.72096  0.87263  0.26182  Biso   1.000  O
  Zr29     1.0000 0.63995  0.52214  0.64749  Biso   1.000  Zr
  Zr30     1.0000 0.63846  0.73009  0.89638  Biso   1.000  Zr
  Zr31     1.0000 0.86008  0.77102  0.60551  Biso   1.000  Zr
  Zr32     1.0000 0.86180  0.97879  0.85516  Biso   1.000  Zr
  O57      1.0000 0.53436  0.66592  0.57978  Biso   1.000  O
  O58      1.0000 0.53504  0.58433  0.82984  Biso   1.000  O
  O59      1.0000 0.96450  0.91791  0.67096  Biso   1.000  O
  O60      1.0000 0.96347  0.83232  0.92103  Biso   1.000  O
  O61      1.0000 0.77644  0.62908  0.74115  Biso   1.000  O
  O62      1.0000 0.77455  0.62192  0.99063  Biso   1.000  O
  O63      1.0000 0.72335  0.87720  0.51047  Biso   1.000  O
  O64      1.0000 0.72408  0.87130  0.76095  Biso   1.000  O
  Si1      1.0000 0.40957  0.22881  0.31602  Biso   1.000  Si
