data_image0
_cell_length_a       10.0014
_cell_length_b       10.4376
_cell_length_c       10.0385
_cell_angle_alpha    90.6743
_cell_angle_beta     89.521
_cell_angle_gamma    90.1722

_symmetry_space_group_name_H-M    "P 1"
_symmetry_int_tables_number       1

loop_
  _symmetry_equiv_pos_as_xyz
  'x, y, z'

loop_
  _atom_site_label
  _atom_site_occupancy
  _atom_site_fract_x
  _atom_site_fract_y
  _atom_site_fract_z
  _atom_site_thermal_displace_type
  _atom_site_B_iso_or_equiv
  _atom_site_type_symbol
  Si1      1.0000 0.11836  0.03506  0.10901  Biso   1.000  Si
  Zr1      1.0000 0.13521  0.01752  0.62799  Biso   1.000  Zr
  Zr2      1.0000 0.13314  0.51261  0.12404  Biso   1.000  Zr
  Zr3      1.0000 0.13531  0.51558  0.62488  Biso   1.000  Zr
  Zr4      1.0000 0.63413  0.01668  0.12566  Biso   1.000  Zr
  Zr5      1.0000 0.62855  0.01263  0.62107  Biso   1.000  Zr
  Zr6      1.0000 0.63671  0.51806  0.12743  Biso   1.000  Zr
  Zr7      1.0000 0.63303  0.51721  0.62360  Biso   1.000  Zr
  Zr8      1.0000 0.13326  0.22681  0.36741  Biso   1.000  Zr
  Zr9      1.0000 0.13193  0.23945  0.87580  Biso   1.000  Zr
  Zr10     1.0000 0.13636  0.72979  0.37856  Biso   1.000  Zr
  Zr11     1.0000 0.13081  0.73745  0.87895  Biso   1.000  Zr
  Zr12     1.0000 0.63487  0.23251  0.37763  Biso   1.000  Zr
  Zr13     1.0000 0.63323  0.23515  0.87123  Biso   1.000  Zr
  Zr14     1.0000 0.63714  0.73719  0.37576  Biso   1.000  Zr
  Zr15     1.0000 0.63175  0.73770  0.87631  Biso   1.000  Zr
  Zr16     1.0000 0.37268  0.26458  0.11690  Biso   1.000  Zr
  Zr17     1.0000 0.36557  0.26634  0.62359  Biso   1.000  Zr
  Zr18     1.0000 0.36850  0.76174  0.12750  Biso   1.000  Zr
  Zr19     1.0000 0.36628  0.76977  0.63053  Biso   1.000  Zr
  Zr20     1.0000 0.86491  0.26593  0.12239  Biso   1.000  Zr
  Zr21     1.0000 0.86677  0.26417  0.62264  Biso   1.000  Zr
  Zr22     1.0000 0.87650  0.76834  0.12213  Biso   1.000  Zr
  Zr23     1.0000 0.86805  0.76700  0.62400  Biso   1.000  Zr
  Zr24     1.0000 0.36833  0.48113  0.37471  Biso   1.000  Zr
  Zr25     1.0000 0.36627  0.49022  0.87334  Biso   1.000  Zr
  Zr26     1.0000 0.36212  0.97998  0.37116  Biso   1.000  Zr
  Zr27     1.0000 0.35721  0.98834  0.88728  Biso   1.000  Zr
  Zr28     1.0000 0.86643  0.48333  0.37536  Biso   1.000  Zr
  Zr29     1.0000 0.86400  0.48732  0.87287  Biso   1.000  Zr
  Zr30     1.0000 0.87354  0.98606  0.37119  Biso   1.000  Zr
  Zr31     1.0000 0.86485  0.98744  0.87276  Biso   1.000  Zr
  Zr32     1.0000 0.03738  0.17760  0.17925  Biso   1.000  Zr
  Zr33     1.0000 0.03147  0.18249  0.70186  Biso   1.000  Zr
  Zr34     1.0000 0.03744  0.68211  0.19558  Biso   1.000  Zr
  Zr35     1.0000 0.03537  0.68454  0.69619  Biso   1.000  Zr
  Zr36     1.0000 0.52826  0.18002  0.20322  Biso   1.000  Zr
  Zr37     1.0000 0.53471  0.18482  0.69255  Biso   1.000  Zr
  Zr38     1.0000 0.53705  0.68392  0.19940  Biso   1.000  Zr
  Zr39     1.0000 0.53292  0.68307  0.69860  Biso   1.000  Zr
  Zr40     1.0000 0.03396  0.06778  0.45246  Biso   1.000  Zr
  Zr41     1.0000 0.03335  0.06503  0.95704  Biso   1.000  Zr
  Zr42     1.0000 0.03523  0.56299  0.44680  Biso   1.000  Zr
  Zr43     1.0000 0.03203  0.56849  0.94648  Biso   1.000  Zr
  Zr44     1.0000 0.53452  0.06617  0.44404  Biso   1.000  Zr
  Zr45     1.0000 0.52502  0.07582  0.95460  Biso   1.000  Zr
  Zr46     1.0000 0.53791  0.56746  0.44288  Biso   1.000  Zr
  Zr47     1.0000 0.53270  0.57170  0.94925  Biso   1.000  Zr
  Zr48     1.0000 0.46802  0.43191  0.19234  Biso   1.000  Zr
  Zr49     1.0000 0.46336  0.43534  0.69366  Biso   1.000  Zr
  Zr50     1.0000 0.47328  0.92918  0.19874  Biso   1.000  Zr
  Zr51     1.0000 0.46312  0.93616  0.70472  Biso   1.000  Zr
  Zr52     1.0000 0.96758  0.42859  0.19685  Biso   1.000  Zr
  Zr53     1.0000 0.96438  0.43350  0.69238  Biso   1.000  Zr
  Zr54     1.0000 0.99453  0.94129  0.18552  Biso   1.000  Zr
  Zr55     1.0000 0.96633  0.93443  0.69561  Biso   1.000  Zr
  Zr56     1.0000 0.46781  0.31799  0.44736  Biso   1.000  Zr
  Zr57     1.0000 0.46341  0.32025  0.94031  Biso   1.000  Zr
  Zr58     1.0000 0.47254  0.82069  0.45693  Biso   1.000  Zr
  Zr59     1.0000 0.45676  0.82134  0.94530  Biso   1.000  Zr
  Zr60     1.0000 0.96460  0.31148  0.43925  Biso   1.000  Zr
  Zr61     1.0000 0.96240  0.31937  0.94283  Biso   1.000  Zr
  Zr62     1.0000 0.96693  0.81735  0.44223  Biso   1.000  Zr
  Zr63     1.0000 0.95900  0.81764  0.93876  Biso   1.000  Zr
  Zr64     1.0000 0.23775  0.08045  0.23865  Biso   1.000  Zr
  Zr65     1.0000 0.26973  0.11985  0.75136  Biso   1.000  Zr
  Zr66     1.0000 0.26790  0.60162  0.24754  Biso   1.000  Zr
  Zr67     1.0000 0.26767  0.61998  0.75048  Biso   1.000  Zr
  Zr68     1.0000 0.77150  0.11697  0.24585  Biso   1.000  Zr
  Zr69     1.0000 0.76586  0.11521  0.74585  Biso   1.000  Zr
  Zr70     1.0000 0.77406  0.61649  0.24890  Biso   1.000  Zr
  Zr71     1.0000 0.76741  0.61815  0.74896  Biso   1.000  Zr
  Zr72     1.0000 0.27127  0.13344  0.49268  Biso   1.000  Zr
  Zr73     1.0000 0.25422  0.13743  0.00528  Biso   1.000  Zr
  Zr74     1.0000 0.27347  0.63203  0.50048  Biso   1.000  Zr
  Zr75     1.0000 0.26531  0.63865  0.99905  Biso   1.000  Zr
  Zr76     1.0000 0.77043  0.13201  0.49628  Biso   1.000  Zr
  Zr77     1.0000 0.76589  0.13578  0.99525  Biso   1.000  Zr
  Zr78     1.0000 0.76958  0.63463  0.49913  Biso   1.000  Zr
  Zr79     1.0000 0.76881  0.63773  0.99946  Biso   1.000  Zr
  Zr80     1.0000 0.22924  0.38094  0.49588  Biso   1.000  Zr
  Zr81     1.0000 0.23202  0.38781  0.99535  Biso   1.000  Zr
  Zr82     1.0000 0.23058  0.88282  0.50750  Biso   1.000  Zr
  Zr83     1.0000 0.21594  0.90403  0.02612  Biso   1.000  Zr
  Zr84     1.0000 0.73234  0.38304  0.49884  Biso   1.000  Zr
  Zr85     1.0000 0.72934  0.38532  0.99729  Biso   1.000  Zr
  Zr86     1.0000 0.73634  0.88555  0.49559  Biso   1.000  Zr
  Zr87     1.0000 0.72784  0.88753  0.99568  Biso   1.000  Zr
  Zr88     1.0000 0.23738  0.35265  0.24477  Biso   1.000  Zr
  Zr89     1.0000 0.22902  0.36878  0.74742  Biso   1.000  Zr
  Zr90     1.0000 0.25582  0.83917  0.26866  Biso   1.000  Zr
  Zr91     1.0000 0.22810  0.87078  0.76038  Biso   1.000  Zr
  Zr92     1.0000 0.72977  0.36591  0.24800  Biso   1.000  Zr
  Zr93     1.0000 0.73005  0.36715  0.74682  Biso   1.000  Zr
  Zr94     1.0000 0.74399  0.86746  0.24504  Biso   1.000  Zr
  Zr95     1.0000 0.72976  0.86633  0.74624  Biso   1.000  Zr
