data_image0
_cell_length_a       10.0009
_cell_length_b       5.2095
_cell_length_c       9.98953
_cell_angle_alpha    92.3881
_cell_angle_beta     89.2143
_cell_angle_gamma    90.1433

_symmetry_space_group_name_H-M    "P 1"
_symmetry_int_tables_number       1

loop_
  _symmetry_equiv_pos_as_xyz
  'x, y, z'

loop_
  _atom_site_label
  _atom_site_occupancy
  _atom_site_fract_x
  _atom_site_fract_y
  _atom_site_fract_z
  _atom_site_thermal_displace_type
  _atom_site_B_iso_or_equiv
  _atom_site_type_symbol
  Si1      1.0000 0.11430  0.06228  0.11127  Biso   1.000  Si
  Zr1      1.0000 0.13802  0.03813  0.63140  Biso   1.000  Zr
  Zr2      1.0000 0.63957  0.04588  0.12662  Biso   1.000  Zr
  Zr3      1.0000 0.62050  0.02073  0.61093  Biso   1.000  Zr
  Zr4      1.0000 0.13827  0.43631  0.36893  Biso   1.000  Zr
  Zr5      1.0000 0.13035  0.48720  0.88938  Biso   1.000  Zr
  Zr6      1.0000 0.63965  0.47639  0.37959  Biso   1.000  Zr
  Zr7      1.0000 0.63600  0.47478  0.86437  Biso   1.000  Zr
  Zr8      1.0000 0.39319  0.52187  0.10565  Biso   1.000  Zr
  Zr9      1.0000 0.36352  0.54435  0.63153  Biso   1.000  Zr
  Zr10     1.0000 0.87265  0.53978  0.11976  Biso   1.000  Zr
  Zr11     1.0000 0.87622  0.52281  0.61568  Biso   1.000  Zr
  Zr12     1.0000 0.36132  0.94245  0.36792  Biso   1.000  Zr
  Zr13     1.0000 0.35298  0.99072  0.88997  Biso   1.000  Zr
  Zr14     1.0000 0.87434  0.97387  0.37050  Biso   1.000  Zr
  Zr15     1.0000 0.86347  0.97645  0.86647  Biso   1.000  Zr
  Zr16     1.0000 0.04108  0.35810  0.18053  Biso   1.000  Zr
  Zr17     1.0000 0.03051  0.36309  0.71199  Biso   1.000  Zr
  Zr18     1.0000 0.54311  0.37935  0.20463  Biso   1.000  Zr
  Zr19     1.0000 0.53134  0.36962  0.69116  Biso   1.000  Zr
  Zr20     1.0000 0.02685  0.14701  0.46541  Biso   1.000  Zr
  Zr21     1.0000 0.03150  0.12839  0.95864  Biso   1.000  Zr
  Zr22     1.0000 0.53391  0.14011  0.43426  Biso   1.000  Zr
  Zr23     1.0000 0.51271  0.19223  0.96647  Biso   1.000  Zr
  Zr24     1.0000 0.46907  0.87773  0.18649  Biso   1.000  Zr
  Zr25     1.0000 0.45770  0.88587  0.70540  Biso   1.000  Zr
  Zr26     1.0000 0.98686  0.87792  0.18205  Biso   1.000  Zr
  Zr27     1.0000 0.96874  0.86266  0.69164  Biso   1.000  Zr
  Zr28     1.0000 0.48092  0.66239  0.46712  Biso   1.000  Zr
  Zr29     1.0000 0.45970  0.66506  0.93016  Biso   1.000  Zr
  Zr30     1.0000 0.96913  0.63033  0.43077  Biso   1.000  Zr
  Zr31     1.0000 0.95360  0.63539  0.93687  Biso   1.000  Zr
  Zr32     1.0000 0.21541  0.09335  0.25137  Biso   1.000  Zr
  Zr33     1.0000 0.26830  0.25364  0.76077  Biso   1.000  Zr
  Zr34     1.0000 0.78055  0.24189  0.24538  Biso   1.000  Zr
  Zr35     1.0000 0.76009  0.21797  0.74222  Biso   1.000  Zr
  Zr36     1.0000 0.27436  0.25590  0.49920  Biso   1.000  Zr
  Zr37     1.0000 0.24986  0.27711  0.02021  Biso   1.000  Zr
  Zr38     1.0000 0.76630  0.26729  0.49514  Biso   1.000  Zr
  Zr39     1.0000 0.76388  0.27823  0.99367  Biso   1.000  Zr
  Zr40     1.0000 0.22691  0.75514  0.50384  Biso   1.000  Zr
  Zr41     1.0000 0.21294  0.80457  0.02447  Biso   1.000  Zr
  Zr42     1.0000 0.74320  0.77373  0.49345  Biso   1.000  Zr
  Zr43     1.0000 0.72379  0.78167  0.98999  Biso   1.000  Zr
  Zr44     1.0000 0.28632  0.60213  0.27007  Biso   1.000  Zr
  Zr45     1.0000 0.22419  0.74808  0.76227  Biso   1.000  Zr
  Zr46     1.0000 0.73811  0.74322  0.24307  Biso   1.000  Zr
  Zr47     1.0000 0.73367  0.72090  0.73855  Biso   1.000  Zr
