data_image0
_cell_length_a       10.1763
_cell_length_b       10.3414
_cell_length_c       5.25365
_cell_angle_alpha    90.0591
_cell_angle_beta     80.7115
_cell_angle_gamma    89.7876

_symmetry_space_group_name_H-M    "P 1"
_symmetry_int_tables_number       1

loop_
  _symmetry_equiv_pos_as_xyz
  'x, y, z'

loop_
  _atom_site_label
  _atom_site_occupancy
  _atom_site_fract_x
  _atom_site_fract_y
  _atom_site_fract_z
  _atom_site_thermal_displace_type
  _atom_site_B_iso_or_equiv
  _atom_site_type_symbol
  Sn1      1.0000 0.13386  0.01649  0.29900  Biso   1.000  Sn
  Zr1      1.0000 0.13948  0.52180  0.29022  Biso   1.000  Zr
  Zr2      1.0000 0.63869  0.02197  0.29140  Biso   1.000  Zr
  Zr3      1.0000 0.63872  0.52018  0.29104  Biso   1.000  Zr
  Zr4      1.0000 0.14002  0.22783  0.78616  Biso   1.000  Zr
  Zr5      1.0000 0.13767  0.72929  0.79175  Biso   1.000  Zr
  Zr6      1.0000 0.63963  0.22980  0.79191  Biso   1.000  Zr
  Zr7      1.0000 0.63795  0.72820  0.79073  Biso   1.000  Zr
  Zr8      1.0000 0.36048  0.27104  0.20470  Biso   1.000  Zr
  Zr9      1.0000 0.36177  0.77196  0.21027  Biso   1.000  Zr
  Zr10     1.0000 0.86396  0.26975  0.21188  Biso   1.000  Zr
  Zr11     1.0000 0.85987  0.77009  0.21047  Biso   1.000  Zr
  Zr12     1.0000 0.36128  0.47939  0.70814  Biso   1.000  Zr
  Zr13     1.0000 0.36223  0.98093  0.70817  Biso   1.000  Zr
  Zr14     1.0000 0.86220  0.47810  0.71126  Biso   1.000  Zr
  Zr15     1.0000 0.85835  0.97835  0.71438  Biso   1.000  Zr
  O1       1.0000 0.03963  0.16710  0.15659  Biso   1.000  O
  O2       1.0000 0.03528  0.66895  0.16081  Biso   1.000  O
  O3       1.0000 0.53604  0.16982  0.15974  Biso   1.000  O
  O4       1.0000 0.53596  0.66952  0.16069  Biso   1.000  O
  O5       1.0000 0.03363  0.08012  0.66049  Biso   1.000  O
  O6       1.0000 0.03631  0.58094  0.66126  Biso   1.000  O
  O7       1.0000 0.53656  0.08136  0.65995  Biso   1.000  O
  O8       1.0000 0.53568  0.58059  0.66005  Biso   1.000  O
  O9       1.0000 0.46447  0.41936  0.33875  Biso   1.000  O
  O10      1.0000 0.46484  0.91959  0.33943  Biso   1.000  O
  O11      1.0000 0.96604  0.41811  0.34316  Biso   1.000  O
  O12      1.0000 0.96032  0.91813  0.34207  Biso   1.000  O
  O13      1.0000 0.46602  0.33249  0.83911  Biso   1.000  O
  O14      1.0000 0.46156  0.82953  0.83883  Biso   1.000  O
  O15      1.0000 0.96536  0.33051  0.84476  Biso   1.000  O
  O16      1.0000 0.96306  0.83039  0.84223  Biso   1.000  O
  O17      1.0000 0.27305  0.12534  0.46717  Biso   1.000  O
  O18      1.0000 0.27597  0.62938  0.48086  Biso   1.000  O
  O19      1.0000 0.77602  0.12904  0.48294  Biso   1.000  O
  O20      1.0000 0.77575  0.62828  0.48207  Biso   1.000  O
  O21      1.0000 0.28162  0.12656  0.96335  Biso   1.000  O
  O22      1.0000 0.27580  0.62341  0.98080  Biso   1.000  O
  O23      1.0000 0.77630  0.12093  0.98358  Biso   1.000  O
  O24      1.0000 0.77548  0.62032  0.98120  Biso   1.000  O
  O25      1.0000 0.22448  0.38131  0.01621  Biso   1.000  O
  O26      1.0000 0.22319  0.88487  0.02276  Biso   1.000  O
  O27      1.0000 0.72566  0.37801  0.02133  Biso   1.000  O
  O28      1.0000 0.72217  0.87849  0.02075  Biso   1.000  O
  O29      1.0000 0.22573  0.36995  0.51691  Biso   1.000  O
  O30      1.0000 0.22263  0.87067  0.51919  Biso   1.000  O
  O31      1.0000 0.72566  0.37105  0.52040  Biso   1.000  O
  O32      1.0000 0.72356  0.87073  0.52110  Biso   1.000  O
