data_image0
_cell_length_a       10.1426
_cell_length_b       5.27207
_cell_length_c       10.2938
_cell_angle_alpha    93.1781
_cell_angle_beta     95.8962
_cell_angle_gamma    87.474

_symmetry_space_group_name_H-M    "P 1"
_symmetry_int_tables_number       1

loop_
  _symmetry_equiv_pos_as_xyz
  'x, y, z'

loop_
  _atom_site_label
  _atom_site_occupancy
  _atom_site_fract_x
  _atom_site_fract_y
  _atom_site_fract_z
  _atom_site_thermal_displace_type
  _atom_site_B_iso_or_equiv
  _atom_site_type_symbol
  Zr1      1.0000 0.16834  0.14450  0.08797  Biso   1.000  Zr
  Zr2      1.0000 0.09631  0.43672  0.37756  Biso   1.000  Zr
  Zr3      1.0000 0.37639  0.57415  0.12395  Biso   1.000  Zr
  Zr4      1.0000 0.34992  0.97964  0.37208  Biso   1.000  Zr
  Zr5      1.0000 0.01486  0.26311  0.20019  Biso   1.000  Zr
  Zr6      1.0000 0.02760  0.10255  0.43079  Biso   1.000  Zr
  Zr7      1.0000 0.46794  0.89310  0.21228  Biso   1.000  Zr
  Zr8      1.0000 0.45596  0.65094  0.43740  Biso   1.000  Zr
  Zr9      1.0000 0.28093  0.31772  0.24882  Biso   1.000  Zr
  Zr10     1.0000 0.25291  0.24817  0.49235  Biso   1.000  Zr
  Zr11     1.0000 0.21916  0.74547  0.47310  Biso   1.000  Zr
  Zr12     1.0000 0.22799  0.82421  0.21281  Biso   1.000  Zr
  Zr13     1.0000 0.13352  0.01296  0.60697  Biso   1.000  Zr
  Zr14     1.0000 0.15737  0.47276  0.83911  Biso   1.000  Zr
  Zr15     1.0000 0.37804  0.51623  0.60015  Biso   1.000  Zr
  Zr16     1.0000 0.38477  0.97263  0.85866  Biso   1.000  Zr
  Zr17     1.0000 0.04898  0.35987  0.66165  Biso   1.000  Zr
  Zr18     1.0000 0.05019  0.16993  0.90754  Biso   1.000  Zr
  Zr19     1.0000 0.47040  0.85879  0.68812  Biso   1.000  Zr
  Zr20     1.0000 0.50884  0.68901  0.98109  Biso   1.000  Zr
  Zr21     1.0000 0.27824  0.21641  0.73449  Biso   1.000  Zr
  Zr22     1.0000 0.30836  0.29081  0.97826  Biso   1.000  Zr
  Zr23     1.0000 0.25704  0.79998  0.97143  Biso   1.000  Zr
  Zr24     1.0000 0.24567  0.71861  0.72291  Biso   1.000  Zr
  Zr25     1.0000 0.62291  0.99695  0.12177  Biso   1.000  Zr
  Zr26     1.0000 0.62341  0.44537  0.39377  Biso   1.000  Zr
  Zr27     1.0000 0.83196  0.46308  0.18613  Biso   1.000  Zr
  Zr28     1.0000 0.85542  0.91952  0.41865  Biso   1.000  Zr
  Zr29     1.0000 0.54138  0.36132  0.19216  Biso   1.000  Zr
  Zr30     1.0000 0.50734  0.17476  0.47359  Biso   1.000  Zr
  Zr31     1.0000 0.97265  0.72255  0.25923  Biso   1.000  Zr
  Zr32     1.0000 0.92124  0.54471  0.44883  Biso   1.000  Zr
  Zr33     1.0000 0.75501  0.17640  0.27931  Biso   1.000  Zr
  Zr34     1.0000 0.75477  0.23922  0.52672  Biso   1.000  Zr
  Zr35     1.0000 0.70785  0.73811  0.52566  Biso   1.000  Zr
  Zr36     1.0000 0.71171  0.71183  0.27941  Biso   1.000  Zr
  Zr37     1.0000 0.63503  0.03855  0.64615  Biso   1.000  Zr
  Zr38     1.0000 0.65439  0.47504  0.89432  Biso   1.000  Zr
  Zr39     1.0000 0.86617  0.53215  0.64921  Biso   1.000  Zr
  Zr40     1.0000 0.87771  0.97452  0.89606  Biso   1.000  Zr
  Zr41     1.0000 0.53658  0.37645  0.71692  Biso   1.000  Zr
  Zr42     1.0000 0.55368  0.14490  0.93946  Biso   1.000  Zr
  Zr43     1.0000 0.94794  0.88500  0.62372  Biso   1.000  Zr
  Zr44     1.0000 0.97393  0.65201  0.83848  Biso   1.000  Zr
  Zr45     1.0000 0.78256  0.24857  0.77449  Biso   1.000  Zr
  Zr46     1.0000 0.77841  0.23803  0.02477  Biso   1.000  Zr
  Zr47     1.0000 0.77155  0.73314  0.03313  Biso   1.000  Zr
  Zr48     1.0000 0.73011  0.76245  0.77631  Biso   1.000  Zr
  Sn1      1.0000 0.06352  0.68319  0.08673  Biso   1.000  Sn
