data_image0
_cell_length_a       5.15783
_cell_length_b       10.392
_cell_length_c       10.2171
_cell_angle_alpha    89.9999
_cell_angle_beta     95.8231
_cell_angle_gamma    90.001

_symmetry_space_group_name_H-M    "P 1"
_symmetry_int_tables_number       1

loop_
  _symmetry_equiv_pos_as_xyz
  'x, y, z'

loop_
  _atom_site_label
  _atom_site_occupancy
  _atom_site_fract_x
  _atom_site_fract_y
  _atom_site_fract_z
  _atom_site_thermal_displace_type
  _atom_site_B_iso_or_equiv
  _atom_site_type_symbol
  Zr1      1.0000 0.25082  0.98138  0.12550  Biso   1.000  Zr
  Zr2      1.0000 0.17295  0.25006  0.38305  Biso   1.000  Zr
  Zr3      1.0000 0.75081  0.19852  0.12550  Biso   1.000  Zr
  Zr4      1.0000 0.70625  0.01005  0.39068  Biso   1.000  Zr
  Zr5      1.0000 0.03773  0.13269  0.99351  Biso   1.000  Zr
  Zr6      1.0000 0.98151  0.08166  0.26366  Biso   1.000  Zr
  Zr7      1.0000 0.81487  0.33305  0.28261  Biso   1.000  Zr
  Zr8      1.0000 0.15386  0.43608  0.98257  Biso   1.000  Zr
  Zr9      1.0000 0.46388  0.13268  0.25749  Biso   1.000  Zr
  Zr10     1.0000 0.52010  0.08164  0.98735  Biso   1.000  Zr
  Zr11     1.0000 0.68672  0.33304  0.96839  Biso   1.000  Zr
  Zr12     1.0000 0.34772  0.43608  0.26844  Biso   1.000  Zr
  Zr13     1.0000 0.25081  0.99855  0.62550  Biso   1.000  Zr
  Zr14     1.0000 0.32864  0.25005  0.86795  Biso   1.000  Zr
  Zr15     1.0000 0.75079  0.26032  0.62549  Biso   1.000  Zr
  Zr16     1.0000 0.79537  0.01005  0.86032  Biso   1.000  Zr
  Zr17     1.0000 0.95234  0.14351  0.50527  Biso   1.000  Zr
  Zr18     1.0000 0.05529  0.10578  0.75001  Biso   1.000  Zr
  Zr19     1.0000 0.02294  0.35377  0.75180  Biso   1.000  Zr
  Zr20     1.0000 0.98240  0.39292  0.50545  Biso   1.000  Zr
  Zr21     1.0000 0.54930  0.14351  0.74574  Biso   1.000  Zr
  Zr22     1.0000 0.44636  0.10580  0.50100  Biso   1.000  Zr
  Zr23     1.0000 0.47867  0.35378  0.49919  Biso   1.000  Zr
  Zr24     1.0000 0.51921  0.39291  0.74555  Biso   1.000  Zr
  Zr25     1.0000 0.25080  0.57925  0.12550  Biso   1.000  Zr
  Zr26     1.0000 0.21856  0.73976  0.39642  Biso   1.000  Zr
  Zr27     1.0000 0.75081  0.76163  0.12550  Biso   1.000  Zr
  Zr28     1.0000 0.70503  0.49721  0.37046  Biso   1.000  Zr
  Zr29     1.0000 0.00345  0.66674  0.98522  Biso   1.000  Zr
  Zr30     1.0000 0.95397  0.60477  0.24636  Biso   1.000  Zr
  Zr31     1.0000 0.09594  0.83312  0.23258  Biso   1.000  Zr
  Zr32     1.0000 0.91195  0.90541  0.01688  Biso   1.000  Zr
  Zr33     1.0000 0.49816  0.66674  0.26578  Biso   1.000  Zr
  Zr34     1.0000 0.54764  0.60476  0.00464  Biso   1.000  Zr
  Zr35     1.0000 0.40569  0.83311  0.01842  Biso   1.000  Zr
  Zr36     1.0000 0.58968  0.90541  0.23412  Biso   1.000  Zr
  Zr37     1.0000 0.25080  0.49188  0.62550  Biso   1.000  Zr
  Zr38     1.0000 0.28305  0.73976  0.85458  Biso   1.000  Zr
  Zr39     1.0000 0.75080  0.74248  0.62550  Biso   1.000  Zr
  Zr40     1.0000 0.79657  0.49720  0.88054  Biso   1.000  Zr
  Zr41     1.0000 0.96042  0.63914  0.49823  Biso   1.000  Zr
  Zr42     1.0000 0.03325  0.60313  0.74466  Biso   1.000  Zr
  Zr43     1.0000 0.99752  0.85644  0.75251  Biso   1.000  Zr
  Zr44     1.0000 0.00382  0.88793  0.49644  Biso   1.000  Zr
  Zr45     1.0000 0.54117  0.63914  0.75277  Biso   1.000  Zr
  Zr46     1.0000 0.46835  0.60313  0.50634  Biso   1.000  Zr
  Zr47     1.0000 0.50408  0.85645  0.49849  Biso   1.000  Zr
  Zr48     1.0000 0.49779  0.88793  0.75456  Biso   1.000  Zr
  Sn1      1.0000 0.25082  0.29355  0.12550  Biso   1.000  Sn
