data_image0
_cell_length_a       10.2474
_cell_length_b       5.23003
_cell_length_c       10.7033
_cell_angle_alpha    89.7432
_cell_angle_beta     78.9757
_cell_angle_gamma    90.225

_symmetry_space_group_name_H-M    "P 1"
_symmetry_int_tables_number       1

loop_
  _symmetry_equiv_pos_as_xyz
  'x, y, z'

loop_
  _atom_site_label
  _atom_site_occupancy
  _atom_site_fract_x
  _atom_site_fract_y
  _atom_site_fract_z
  _atom_site_thermal_displace_type
  _atom_site_B_iso_or_equiv
  _atom_site_type_symbol
  Zr1      1.0000 0.13369  0.04127  0.14741  Biso   1.000  Zr
  Zr2      1.0000 0.13019  0.45446  0.39463  Biso   1.000  Zr
  Zr3      1.0000 0.34125  0.55059  0.07659  Biso   1.000  Zr
  Zr4      1.0000 0.35612  0.96113  0.35928  Biso   1.000  Zr
  O1       1.0000 0.03203  0.32970  0.07656  Biso   1.000  O
  O2       1.0000 0.02746  0.16442  0.32906  Biso   1.000  O
  O3       1.0000 0.46141  0.85818  0.16827  Biso   1.000  O
  O4       1.0000 0.47532  0.70438  0.44621  Biso   1.000  O
  O5       1.0000 0.26710  0.24637  0.23700  Biso   1.000  O
  O6       1.0000 0.28160  0.26471  0.48390  Biso   1.000  O
  O7       1.0000 0.20740  0.77232  0.99973  Biso   1.000  O
  O8       1.0000 0.22700  0.72632  0.25635  Biso   1.000  O
  Zr5      1.0000 0.13812  0.04719  0.64396  Biso   1.000  Zr
  Zr6      1.0000 0.13123  0.45573  0.89134  Biso   1.000  Zr
  Zr7      1.0000 0.36107  0.55525  0.60786  Biso   1.000  Zr
  Zr8      1.0000 0.35637  0.96540  0.85006  Biso   1.000  Zr
  O9       1.0000 0.03536  0.33544  0.57888  Biso   1.000  O
  O10      1.0000 0.02979  0.16820  0.82584  Biso   1.000  O
  O11      1.0000 0.46857  0.82970  0.68129  Biso   1.000  O
  O12      1.0000 0.46448  0.68136  0.91904  Biso   1.000  O
  O13      1.0000 0.27279  0.25671  0.73744  Biso   1.000  O
  O14      1.0000 0.26976  0.24567  0.98521  Biso   1.000  O
  O15      1.0000 0.22052  0.76500  0.50977  Biso   1.000  O
  O16      1.0000 0.22245  0.74432  0.75657  Biso   1.000  O
  Zr9      1.0000 0.63967  0.03404  0.14796  Biso   1.000  Zr
  Zr10     1.0000 0.65316  0.44905  0.41740  Biso   1.000  Zr
  Zr11     1.0000 0.85859  0.53737  0.10855  Biso   1.000  Zr
  Zr12     1.0000 0.85545  0.95213  0.35667  Biso   1.000  Zr
  O17      1.0000 0.52840  0.33439  0.07318  Biso   1.000  O
  O18      1.0000 0.54977  0.13367  0.33943  Biso   1.000  O
  O19      1.0000 0.96244  0.82281  0.17786  Biso   1.000  O
  O20      1.0000 0.96214  0.66545  0.42560  Biso   1.000  O
  O21      1.0000 0.77946  0.25119  0.24437  Biso   1.000  O
  O22      1.0000 0.78460  0.23260  0.50184  Biso   1.000  O
  O23      1.0000 0.72229  0.75196  0.01464  Biso   1.000  O
  O24      1.0000 0.71763  0.72669  0.26353  Biso   1.000  O
  Zr13     1.0000 0.63900  0.04385  0.65336  Biso   1.000  Zr
  Zr14     1.0000 0.63646  0.45483  0.89981  Biso   1.000  Zr
  Zr15     1.0000 0.86284  0.54679  0.61232  Biso   1.000  Zr
  Zr16     1.0000 0.85833  0.95566  0.85889  Biso   1.000  Zr
  O25      1.0000 0.53371  0.33023  0.58496  Biso   1.000  O
  O26      1.0000 0.52837  0.17920  0.82821  Biso   1.000  O
  O27      1.0000 0.96688  0.83268  0.67642  Biso   1.000  O
  O28      1.0000 0.96109  0.66463  0.92383  Biso   1.000  O
  O29      1.0000 0.77419  0.25980  0.74739  Biso   1.000  O
  O30      1.0000 0.77373  0.24075  0.99457  Biso   1.000  O
  O31      1.0000 0.72712  0.75390  0.51917  Biso   1.000  O
  O32      1.0000 0.72410  0.74668  0.76617  Biso   1.000  O
  Sr1      1.0000 0.45083  0.47599  0.27660  Biso   1.000  Sr
