data_image0
_cell_length_a       10.1355
_cell_length_b       10.332
_cell_length_c       10.1355
_cell_angle_alpha    89.9982
_cell_angle_beta     89.9973
_cell_angle_gamma    89.9964

_symmetry_space_group_name_H-M    "P 1"
_symmetry_int_tables_number       1

loop_
  _symmetry_equiv_pos_as_xyz
  'x, y, z'

loop_
  _atom_site_label
  _atom_site_occupancy
  _atom_site_fract_x
  _atom_site_fract_y
  _atom_site_fract_z
  _atom_site_thermal_displace_type
  _atom_site_B_iso_or_equiv
  _atom_site_type_symbol
  Zr1      1.0000 0.12561  0.96397  0.12558  Biso   1.000  Zr
  Zr2      1.0000 0.12580  0.24960  0.39742  Biso   1.000  Zr
  Zr3      1.0000 0.39733  0.24959  0.12579  Biso   1.000  Zr
  Zr4      1.0000 0.37652  0.00873  0.37654  Biso   1.000  Zr
  Zr5      1.0000 0.97678  0.16051  0.97680  Biso   1.000  Zr
  Zr6      1.0000 0.00909  0.08771  0.24292  Biso   1.000  Zr
  Zr7      1.0000 0.97651  0.33824  0.27522  Biso   1.000  Zr
  Zr8      1.0000 0.00881  0.41123  0.00900  Biso   1.000  Zr
  Zr9      1.0000 0.27530  0.16117  0.27536  Biso   1.000  Zr
  Zr10     1.0000 0.24294  0.08784  0.00914  Biso   1.000  Zr
  Zr11     1.0000 0.27502  0.33848  0.97668  Biso   1.000  Zr
  Zr12     1.0000 0.24267  0.41160  0.24280  Biso   1.000  Zr
  Zr13     1.0000 0.12569  0.99328  0.62576  Biso   1.000  Zr
  Zr14     1.0000 0.12579  0.24961  0.85450  Biso   1.000  Zr
  Zr15     1.0000 0.37733  0.24957  0.62587  Biso   1.000  Zr
  Zr16     1.0000 0.37309  0.00217  0.87848  Biso   1.000  Zr
  Zr17     1.0000 0.99235  0.14111  0.49815  Biso   1.000  Zr
  Zr18     1.0000 0.00264  0.10326  0.74167  Biso   1.000  Zr
  Zr19     1.0000 0.99230  0.35794  0.75373  Biso   1.000  Zr
  Zr20     1.0000 0.00259  0.39590  0.51015  Biso   1.000  Zr
  Zr21     1.0000 0.25929  0.14124  0.75377  Biso   1.000  Zr
  Zr22     1.0000 0.24898  0.10330  0.51019  Biso   1.000  Zr
  Zr23     1.0000 0.25922  0.35811  0.49815  Biso   1.000  Zr
  Zr24     1.0000 0.24895  0.39595  0.74165  Biso   1.000  Zr
  Zr25     1.0000 0.12585  0.53521  0.12570  Biso   1.000  Zr
  Zr26     1.0000 0.12578  0.74966  0.38544  Biso   1.000  Zr
  Zr27     1.0000 0.38550  0.74972  0.12575  Biso   1.000  Zr
  Zr28     1.0000 0.37319  0.49702  0.37317  Biso   1.000  Zr
  Zr29     1.0000 0.00478  0.65789  0.00471  Biso   1.000  Zr
  Zr30     1.0000 0.99443  0.60153  0.25683  Biso   1.000  Zr
  Zr31     1.0000 0.00488  0.84105  0.24653  Biso   1.000  Zr
  Zr32     1.0000 0.99452  0.89735  0.99438  Biso   1.000  Zr
  Zr33     1.0000 0.24652  0.65827  0.24644  Biso   1.000  Zr
  Zr34     1.0000 0.25690  0.60169  0.99434  Biso   1.000  Zr
  Zr35     1.0000 0.24667  0.84118  0.00475  Biso   1.000  Zr
  Zr36     1.0000 0.25698  0.89782  0.25687  Biso   1.000  Zr
  Zr37     1.0000 0.12592  0.50591  0.62572  Biso   1.000  Zr
  Zr38     1.0000 0.12578  0.74954  0.86596  Biso   1.000  Zr
  Zr39     1.0000 0.37915  0.74969  0.62573  Biso   1.000  Zr
  Zr40     1.0000 0.37661  0.49055  0.87503  Biso   1.000  Zr
  Zr41     1.0000 0.99914  0.64539  0.50563  Biso   1.000  Zr
  Zr42     1.0000 0.00496  0.60477  0.75605  Biso   1.000  Zr
  Zr43     1.0000 0.99917  0.85372  0.74565  Biso   1.000  Zr
  Zr44     1.0000 0.00499  0.89434  0.49532  Biso   1.000  Zr
  Zr45     1.0000 0.25240  0.64546  0.74560  Biso   1.000  Zr
  Zr46     1.0000 0.24659  0.60490  0.49525  Biso   1.000  Zr
  Zr47     1.0000 0.25244  0.85383  0.50565  Biso   1.000  Zr
  Zr48     1.0000 0.24662  0.89440  0.75608  Biso   1.000  Zr
  Zr49     1.0000 0.62582  0.99330  0.12575  Biso   1.000  Zr
  Zr50     1.0000 0.62583  0.24959  0.37732  Biso   1.000  Zr
  Zr51     1.0000 0.85443  0.24962  0.12578  Biso   1.000  Zr
  Zr52     1.0000 0.87844  0.00217  0.37311  Biso   1.000  Zr
  Zr53     1.0000 0.49810  0.14116  0.99232  Biso   1.000  Zr
  Zr54     1.0000 0.51013  0.10329  0.24896  Biso   1.000  Zr
  Zr55     1.0000 0.49807  0.35808  0.25922  Biso   1.000  Zr
  Zr56     1.0000 0.51007  0.39591  0.00259  Biso   1.000  Zr
  Zr57     1.0000 0.75368  0.14119  0.25925  Biso   1.000  Zr
  Zr58     1.0000 0.74164  0.10327  0.00261  Biso   1.000  Zr
  Zr59     1.0000 0.75363  0.35797  0.99230  Biso   1.000  Zr
  Zr60     1.0000 0.74159  0.39594  0.24894  Biso   1.000  Zr
  Zr61     1.0000 0.62578  0.99925  0.62578  Biso   1.000  Zr
  Zr62     1.0000 0.62583  0.24961  0.87425  Biso   1.000  Zr
  Zr63     1.0000 0.87426  0.24963  0.62586  Biso   1.000  Zr
  Zr64     1.0000 0.87498  0.00861  0.87499  Biso   1.000  Zr
  Zr65     1.0000 0.49813  0.14864  0.49812  Biso   1.000  Zr
  Zr66     1.0000 0.50294  0.10112  0.74862  Biso   1.000  Zr
  Zr67     1.0000 0.49813  0.35060  0.75347  Biso   1.000  Zr
  Zr68     1.0000 0.50295  0.39808  0.50293  Biso   1.000  Zr
  Zr69     1.0000 0.75348  0.14858  0.75348  Biso   1.000  Zr
  Zr70     1.0000 0.74864  0.10112  0.50293  Biso   1.000  Zr
  Zr71     1.0000 0.75347  0.35057  0.49813  Biso   1.000  Zr
  Zr72     1.0000 0.74865  0.39808  0.74863  Biso   1.000  Zr
  Zr73     1.0000 0.62573  0.50590  0.12586  Biso   1.000  Zr
  Zr74     1.0000 0.62577  0.74965  0.37913  Biso   1.000  Zr
  Zr75     1.0000 0.86602  0.74948  0.12575  Biso   1.000  Zr
  Zr76     1.0000 0.87507  0.49050  0.37658  Biso   1.000  Zr
  Zr77     1.0000 0.50570  0.64542  0.99913  Biso   1.000  Zr
  Zr78     1.0000 0.49530  0.60489  0.24658  Biso   1.000  Zr
  Zr79     1.0000 0.50576  0.85381  0.25242  Biso   1.000  Zr
  Zr80     1.0000 0.49542  0.89438  0.00497  Biso   1.000  Zr
  Zr81     1.0000 0.74568  0.64543  0.25239  Biso   1.000  Zr
  Zr82     1.0000 0.75608  0.60478  0.00495  Biso   1.000  Zr
  Zr83     1.0000 0.74576  0.85374  0.99914  Biso   1.000  Zr
  Zr84     1.0000 0.75617  0.89435  0.24659  Biso   1.000  Zr
  Zr85     1.0000 0.62582  0.49995  0.62580  Biso   1.000  Zr
  Zr86     1.0000 0.62577  0.74956  0.87242  Biso   1.000  Zr
  Zr87     1.0000 0.87243  0.74951  0.62573  Biso   1.000  Zr
  Zr88     1.0000 0.87853  0.49702  0.87852  Biso   1.000  Zr
  Zr89     1.0000 0.49760  0.64749  0.49758  Biso   1.000  Zr
  Zr90     1.0000 0.50267  0.60141  0.74888  Biso   1.000  Zr
  Zr91     1.0000 0.49760  0.85172  0.75397  Biso   1.000  Zr
  Zr92     1.0000 0.50268  0.89783  0.50267  Biso   1.000  Zr
  Zr93     1.0000 0.75397  0.64746  0.75395  Biso   1.000  Zr
  Zr94     1.0000 0.74890  0.60138  0.50266  Biso   1.000  Zr
  Zr95     1.0000 0.75398  0.85171  0.49758  Biso   1.000  Zr
  Zr96     1.0000 0.74890  0.89777  0.74888  Biso   1.000  Zr
  Sr1      1.0000 0.12590  0.24960  0.12601  Biso   1.000  Sr
