data_image0
_cell_length_a       10.0833
_cell_length_b       10.4331
_cell_length_c       10.1194
_cell_angle_alpha    90.0958
_cell_angle_beta     90.2028
_cell_angle_gamma    89.9824

_symmetry_space_group_name_H-M    "P 1"
_symmetry_int_tables_number       1

loop_
  _symmetry_equiv_pos_as_xyz
  'x, y, z'

loop_
  _atom_site_label
  _atom_site_occupancy
  _atom_site_fract_x
  _atom_site_fract_y
  _atom_site_fract_z
  _atom_site_thermal_displace_type
  _atom_site_B_iso_or_equiv
  _atom_site_type_symbol
  Sr1      1.0000 0.12674  0.00938  0.12111  Biso   1.000  Sr
  Zr1      1.0000 0.13315  0.01634  0.62615  Biso   1.000  Zr
  Zr2      1.0000 0.13462  0.51510  0.12471  Biso   1.000  Zr
  Zr3      1.0000 0.13417  0.51600  0.62563  Biso   1.000  Zr
  Zr4      1.0000 0.63432  0.01460  0.12406  Biso   1.000  Zr
  Zr5      1.0000 0.63297  0.01596  0.62476  Biso   1.000  Zr
  Zr6      1.0000 0.63310  0.51452  0.12553  Biso   1.000  Zr
  Zr7      1.0000 0.63367  0.51471  0.62609  Biso   1.000  Zr
  Zr8      1.0000 0.13501  0.23460  0.37660  Biso   1.000  Zr
  Zr9      1.0000 0.13568  0.23542  0.87154  Biso   1.000  Zr
  Zr10     1.0000 0.13542  0.73447  0.37629  Biso   1.000  Zr
  Zr11     1.0000 0.13711  0.73426  0.87617  Biso   1.000  Zr
  Zr12     1.0000 0.63250  0.23399  0.37388  Biso   1.000  Zr
  Zr13     1.0000 0.63533  0.23363  0.87516  Biso   1.000  Zr
  Zr14     1.0000 0.63151  0.73324  0.37807  Biso   1.000  Zr
  Zr15     1.0000 0.63626  0.73337  0.87439  Biso   1.000  Zr
  Zr16     1.0000 0.36358  0.26416  0.12642  Biso   1.000  Zr
  Zr17     1.0000 0.36624  0.26468  0.62458  Biso   1.000  Zr
  Zr18     1.0000 0.36754  0.76313  0.12435  Biso   1.000  Zr
  Zr19     1.0000 0.36591  0.76673  0.62519  Biso   1.000  Zr
  Zr20     1.0000 0.86293  0.26644  0.12624  Biso   1.000  Zr
  Zr21     1.0000 0.86610  0.26679  0.62372  Biso   1.000  Zr
  Zr22     1.0000 0.86208  0.76394  0.12692  Biso   1.000  Zr
  Zr23     1.0000 0.86693  0.76421  0.62476  Biso   1.000  Zr
  Zr24     1.0000 0.36486  0.48373  0.37519  Biso   1.000  Zr
  Zr25     1.0000 0.36650  0.48308  0.87572  Biso   1.000  Zr
  Zr26     1.0000 0.36367  0.98535  0.37367  Biso   1.000  Zr
  Zr27     1.0000 0.36674  0.98455  0.87485  Biso   1.000  Zr
  Zr28     1.0000 0.86533  0.48501  0.37687  Biso   1.000  Zr
  Zr29     1.0000 0.86675  0.48345  0.87635  Biso   1.000  Zr
  Zr30     1.0000 0.86271  0.98340  0.37924  Biso   1.000  Zr
  Zr31     1.0000 0.86505  0.98274  0.87190  Biso   1.000  Zr
  Zr32     1.0000 0.02629  0.19916  0.20647  Biso   1.000  Zr
  Zr33     1.0000 0.03988  0.18978  0.68270  Biso   1.000  Zr
  Zr34     1.0000 0.03598  0.68580  0.19489  Biso   1.000  Zr
  Zr35     1.0000 0.03594  0.68380  0.69526  Biso   1.000  Zr
  Zr36     1.0000 0.53836  0.18479  0.19047  Biso   1.000  Zr
  Zr37     1.0000 0.53525  0.18333  0.69508  Biso   1.000  Zr
  Zr38     1.0000 0.53437  0.68005  0.19797  Biso   1.000  Zr
  Zr39     1.0000 0.53476  0.68236  0.69556  Biso   1.000  Zr
  Zr40     1.0000 0.03394  0.06581  0.44265  Biso   1.000  Zr
  Zr41     1.0000 0.03326  0.07262  0.91145  Biso   1.000  Zr
  Zr42     1.0000 0.03456  0.56695  0.44653  Biso   1.000  Zr
  Zr43     1.0000 0.03452  0.56892  0.94526  Biso   1.000  Zr
  Zr44     1.0000 0.53413  0.06683  0.44511  Biso   1.000  Zr
  Zr45     1.0000 0.53854  0.06619  0.94207  Biso   1.000  Zr
  Zr46     1.0000 0.53347  0.56566  0.44681  Biso   1.000  Zr
  Zr47     1.0000 0.53357  0.56792  0.94688  Biso   1.000  Zr
  Zr48     1.0000 0.46553  0.43184  0.19656  Biso   1.000  Zr
  Zr49     1.0000 0.46639  0.43242  0.69569  Biso   1.000  Zr
  Zr50     1.0000 0.46495  0.93517  0.19376  Biso   1.000  Zr
  Zr51     1.0000 0.46625  0.93269  0.69599  Biso   1.000  Zr
  Zr52     1.0000 0.96190  0.43988  0.19482  Biso   1.000  Zr
  Zr53     1.0000 0.96635  0.43430  0.69744  Biso   1.000  Zr
  Zr54     1.0000 0.93748  0.92709  0.20351  Biso   1.000  Zr
  Zr55     1.0000 0.96173  0.93340  0.68910  Biso   1.000  Zr
  Zr56     1.0000 0.46454  0.31601  0.44506  Biso   1.000  Zr
  Zr57     1.0000 0.46852  0.31867  0.94477  Biso   1.000  Zr
  Zr58     1.0000 0.46656  0.81794  0.44901  Biso   1.000  Zr
  Zr59     1.0000 0.47497  0.81946  0.94801  Biso   1.000  Zr
  Zr60     1.0000 0.96505  0.32062  0.44715  Biso   1.000  Zr
  Zr61     1.0000 0.96719  0.31888  0.94796  Biso   1.000  Zr
  Zr62     1.0000 0.96501  0.81501  0.44636  Biso   1.000  Zr
  Zr63     1.0000 0.97071  0.82087  0.95001  Biso   1.000  Zr
  Zr64     1.0000 0.28146  0.12886  0.25678  Biso   1.000  Zr
  Zr65     1.0000 0.27151  0.11717  0.74600  Biso   1.000  Zr
  Zr66     1.0000 0.26852  0.61266  0.24833  Biso   1.000  Zr
  Zr67     1.0000 0.27029  0.61714  0.74888  Biso   1.000  Zr
  Zr68     1.0000 0.76628  0.11625  0.25016  Biso   1.000  Zr
  Zr69     1.0000 0.76982  0.11715  0.74702  Biso   1.000  Zr
  Zr70     1.0000 0.76845  0.61669  0.24909  Biso   1.000  Zr
  Zr71     1.0000 0.77048  0.61556  0.74806  Biso   1.000  Zr
  Zr72     1.0000 0.26810  0.13164  0.50118  Biso   1.000  Zr
  Zr73     1.0000 0.27761  0.13859  0.98973  Biso   1.000  Zr
  Zr74     1.0000 0.26971  0.63337  0.49890  Biso   1.000  Zr
  Zr75     1.0000 0.27079  0.62846  0.99929  Biso   1.000  Zr
  Zr76     1.0000 0.76697  0.13477  0.49896  Biso   1.000  Zr
  Zr77     1.0000 0.77254  0.13200  0.99830  Biso   1.000  Zr
  Zr78     1.0000 0.76851  0.63226  0.49893  Biso   1.000  Zr
  Zr79     1.0000 0.76858  0.63075  0.99765  Biso   1.000  Zr
  Zr80     1.0000 0.23158  0.38383  0.49897  Biso   1.000  Zr
  Zr81     1.0000 0.23153  0.38312  0.99859  Biso   1.000  Zr
  Zr82     1.0000 0.22962  0.88404  0.49934  Biso   1.000  Zr
  Zr83     1.0000 0.24451  0.87003  0.98925  Biso   1.000  Zr
  Zr84     1.0000 0.72972  0.38344  0.49879  Biso   1.000  Zr
  Zr85     1.0000 0.72998  0.38317  0.99829  Biso   1.000  Zr
  Zr86     1.0000 0.72971  0.88183  0.50049  Biso   1.000  Zr
  Zr87     1.0000 0.73255  0.88063  0.99893  Biso   1.000  Zr
  Zr88     1.0000 0.22781  0.36940  0.24866  Biso   1.000  Zr
  Zr89     1.0000 0.23270  0.36806  0.74730  Biso   1.000  Zr
  Zr90     1.0000 0.24413  0.85466  0.25614  Biso   1.000  Zr
  Zr91     1.0000 0.23012  0.86782  0.74590  Biso   1.000  Zr
  Zr92     1.0000 0.73001  0.36785  0.24977  Biso   1.000  Zr
  Zr93     1.0000 0.73190  0.36666  0.74893  Biso   1.000  Zr
  Zr94     1.0000 0.71675  0.86494  0.24971  Biso   1.000  Zr
  Zr95     1.0000 0.73111  0.86565  0.74827  Biso   1.000  Zr
