data_image0
_cell_length_a       10.1185
_cell_length_b       5.1318
_cell_length_c       10.1385
_cell_angle_alpha    90.0006
_cell_angle_beta     90.0004
_cell_angle_gamma    89.9993

_symmetry_space_group_name_H-M    "P 1"
_symmetry_int_tables_number       1

loop_
  _symmetry_equiv_pos_as_xyz
  'x, y, z'

loop_
  _atom_site_label
  _atom_site_occupancy
  _atom_site_fract_x
  _atom_site_fract_y
  _atom_site_fract_z
  _atom_site_thermal_displace_type
  _atom_site_B_iso_or_equiv
  _atom_site_type_symbol
  Zr1      1.0000 0.12513  0.99994  0.10671  Biso   1.000  Zr
  Zr2      1.0000 0.12515  0.49995  0.37416  Biso   1.000  Zr
  Zr3      1.0000 0.39805  0.49993  0.10670  Biso   1.000  Zr
  Zr4      1.0000 0.37258  0.99991  0.35586  Biso   1.000  Zr
  Zr5      1.0000 0.99943  0.27105  0.23376  Biso   1.000  Zr
  Zr6      1.0000 0.00579  0.22094  0.48554  Biso   1.000  Zr
  Zr7      1.0000 0.50098  0.78269  0.22655  Biso   1.000  Zr
  Zr8      1.0000 0.49138  0.71394  0.47087  Biso   1.000  Zr
  Zr9      1.0000 0.24608  0.24296  0.22753  Biso   1.000  Zr
  Zr10     1.0000 0.25931  0.27553  0.48006  Biso   1.000  Zr
  Zr11     1.0000 0.24452  0.77894  0.48555  Biso   1.000  Zr
  Zr12     1.0000 0.25086  0.72882  0.23376  Biso   1.000  Zr
  Zr13     1.0000 0.12515  0.99996  0.60671  Biso   1.000  Zr
  Zr14     1.0000 0.12515  0.49996  0.83926  Biso   1.000  Zr
  Zr15     1.0000 0.38040  0.49995  0.60670  Biso   1.000  Zr
  Zr16     1.0000 0.37258  0.99998  0.85754  Biso   1.000  Zr
  Zr17     1.0000 0.99098  0.27554  0.73335  Biso   1.000  Zr
  Zr18     1.0000 0.00422  0.24296  0.98588  Biso   1.000  Zr
  Zr19     1.0000 0.50396  0.78452  0.72360  Biso   1.000  Zr
  Zr20     1.0000 0.49612  0.73127  0.96762  Biso   1.000  Zr
  Zr21     1.0000 0.24451  0.22095  0.72786  Biso   1.000  Zr
  Zr22     1.0000 0.25087  0.27106  0.97965  Biso   1.000  Zr
  Zr23     1.0000 0.24607  0.75691  0.98588  Biso   1.000  Zr
  Zr24     1.0000 0.25932  0.72437  0.73336  Biso   1.000  Zr
  Zr25     1.0000 0.62515  0.99991  0.10671  Biso   1.000  Zr
  Zr26     1.0000 0.62514  0.49994  0.35504  Biso   1.000  Zr
  Zr27     1.0000 0.85224  0.49992  0.10671  Biso   1.000  Zr
  Zr28     1.0000 0.87769  0.99998  0.35588  Biso   1.000  Zr
  Zr29     1.0000 0.49613  0.26858  0.24578  Biso   1.000  Zr
  Zr30     1.0000 0.50396  0.21533  0.48980  Biso   1.000  Zr
  Zr31     1.0000 0.00422  0.75692  0.22754  Biso   1.000  Zr
  Zr32     1.0000 0.99098  0.72436  0.48007  Biso   1.000  Zr
  Zr33     1.0000 0.74931  0.21715  0.22655  Biso   1.000  Zr
  Zr34     1.0000 0.75893  0.28596  0.47087  Biso   1.000  Zr
  Zr35     1.0000 0.74634  0.78457  0.48981  Biso   1.000  Zr
  Zr36     1.0000 0.75417  0.73127  0.24579  Biso   1.000  Zr
  Zr37     1.0000 0.62514  0.99994  0.60671  Biso   1.000  Zr
  Zr38     1.0000 0.62515  0.49993  0.85837  Biso   1.000  Zr
  Zr39     1.0000 0.86990  0.49996  0.60671  Biso   1.000  Zr
  Zr40     1.0000 0.87771  0.99992  0.85754  Biso   1.000  Zr
  Zr41     1.0000 0.49137  0.28592  0.74254  Biso   1.000  Zr
  Zr42     1.0000 0.50099  0.21716  0.98686  Biso   1.000  Zr
  Zr43     1.0000 0.00578  0.77896  0.72787  Biso   1.000  Zr
  Zr44     1.0000 0.99943  0.72882  0.97966  Biso   1.000  Zr
  Zr45     1.0000 0.74633  0.21532  0.72360  Biso   1.000  Zr
  Zr46     1.0000 0.75417  0.26858  0.96762  Biso   1.000  Zr
  Zr47     1.0000 0.74931  0.78269  0.98685  Biso   1.000  Zr
  Zr48     1.0000 0.75892  0.71394  0.74254  Biso   1.000  Zr
  Ta1      1.0000 0.12515  0.49994  0.10670  Biso   1.000  Ta
