data_image0
_cell_length_a       10.0206
_cell_length_b       10.4189
_cell_length_c       10.0586
_cell_angle_alpha    89.9543
_cell_angle_beta     89.9006
_cell_angle_gamma    89.9591

_symmetry_space_group_name_H-M    "P 1"
_symmetry_int_tables_number       1

loop_
  _symmetry_equiv_pos_as_xyz
  'x, y, z'

loop_
  _atom_site_label
  _atom_site_occupancy
  _atom_site_fract_x
  _atom_site_fract_y
  _atom_site_fract_z
  _atom_site_thermal_displace_type
  _atom_site_B_iso_or_equiv
  _atom_site_type_symbol
  Ta1      1.0000 0.13526  0.01846  0.12672  Biso   1.000  Ta
  Zr1      1.0000 0.13394  0.01591  0.62646  Biso   1.000  Zr
  Zr2      1.0000 0.13446  0.51609  0.12623  Biso   1.000  Zr
  Zr3      1.0000 0.13360  0.51541  0.62548  Biso   1.000  Zr
  Zr4      1.0000 0.63509  0.01587  0.12534  Biso   1.000  Zr
  Zr5      1.0000 0.63363  0.01527  0.62576  Biso   1.000  Zr
  Zr6      1.0000 0.63437  0.51619  0.12587  Biso   1.000  Zr
  Zr7      1.0000 0.63381  0.51575  0.62535  Biso   1.000  Zr
  Zr8      1.0000 0.13380  0.23355  0.37492  Biso   1.000  Zr
  Zr9      1.0000 0.13343  0.23439  0.87687  Biso   1.000  Zr
  Zr10     1.0000 0.13391  0.73448  0.37561  Biso   1.000  Zr
  Zr11     1.0000 0.13294  0.73409  0.87541  Biso   1.000  Zr
  Zr12     1.0000 0.63444  0.23411  0.37584  Biso   1.000  Zr
  Zr13     1.0000 0.63370  0.23382  0.87529  Biso   1.000  Zr
  Zr14     1.0000 0.63490  0.73461  0.37447  Biso   1.000  Zr
  Zr15     1.0000 0.63310  0.73425  0.87574  Biso   1.000  Zr
  Zr16     1.0000 0.36765  0.26668  0.12527  Biso   1.000  Zr
  Zr17     1.0000 0.36605  0.26586  0.62569  Biso   1.000  Zr
  Zr18     1.0000 0.36539  0.76724  0.12594  Biso   1.000  Zr
  Zr19     1.0000 0.36596  0.76550  0.62564  Biso   1.000  Zr
  Zr20     1.0000 0.86612  0.26539  0.12513  Biso   1.000  Zr
  Zr21     1.0000 0.86621  0.26502  0.62609  Biso   1.000  Zr
  Zr22     1.0000 0.86742  0.76591  0.12331  Biso   1.000  Zr
  Zr23     1.0000 0.86573  0.76567  0.62567  Biso   1.000  Zr
  Zr24     1.0000 0.36631  0.48443  0.37591  Biso   1.000  Zr
  Zr25     1.0000 0.36562  0.48479  0.87543  Biso   1.000  Zr
  Zr26     1.0000 0.36676  0.98382  0.37579  Biso   1.000  Zr
  Zr27     1.0000 0.36535  0.98425  0.87586  Biso   1.000  Zr
  Zr28     1.0000 0.86620  0.48392  0.37545  Biso   1.000  Zr
  Zr29     1.0000 0.86585  0.48426  0.87546  Biso   1.000  Zr
  Zr30     1.0000 0.86718  0.98440  0.37612  Biso   1.000  Zr
  Zr31     1.0000 0.86734  0.98423  0.87512  Biso   1.000  Zr
  Zr32     1.0000 0.04034  0.18069  0.19116  Biso   1.000  Zr
  Zr33     1.0000 0.03357  0.18129  0.70034  Biso   1.000  Zr
  Zr34     1.0000 0.03618  0.68380  0.19370  Biso   1.000  Zr
  Zr35     1.0000 0.03538  0.68332  0.69408  Biso   1.000  Zr
  Zr36     1.0000 0.53654  0.18371  0.19486  Biso   1.000  Zr
  Zr37     1.0000 0.53572  0.18385  0.69406  Biso   1.000  Zr
  Zr38     1.0000 0.53597  0.68490  0.19316  Biso   1.000  Zr
  Zr39     1.0000 0.53532  0.68386  0.69444  Biso   1.000  Zr
  Zr40     1.0000 0.03391  0.06781  0.44818  Biso   1.000  Zr
  Zr41     1.0000 0.03529  0.06447  0.95643  Biso   1.000  Zr
  Zr42     1.0000 0.03576  0.56639  0.44383  Biso   1.000  Zr
  Zr43     1.0000 0.03542  0.56539  0.94499  Biso   1.000  Zr
  Zr44     1.0000 0.53545  0.06624  0.44444  Biso   1.000  Zr
  Zr45     1.0000 0.53396  0.06643  0.94514  Biso   1.000  Zr
  Zr46     1.0000 0.53629  0.56655  0.44354  Biso   1.000  Zr
  Zr47     1.0000 0.53562  0.56568  0.94393  Biso   1.000  Zr
  Zr48     1.0000 0.46423  0.43429  0.19381  Biso   1.000  Zr
  Zr49     1.0000 0.46362  0.43408  0.69378  Biso   1.000  Zr
  Zr50     1.0000 0.46520  0.93335  0.19511  Biso   1.000  Zr
  Zr51     1.0000 0.46344  0.93400  0.69443  Biso   1.000  Zr
  Zr52     1.0000 0.96580  0.43152  0.19498  Biso   1.000  Zr
  Zr53     1.0000 0.96399  0.43321  0.69426  Biso   1.000  Zr
  Zr54     1.0000 0.97292  0.93538  0.19033  Biso   1.000  Zr
  Zr55     1.0000 0.96403  0.93326  0.69419  Biso   1.000  Zr
  Zr56     1.0000 0.46487  0.31644  0.44419  Biso   1.000  Zr
  Zr57     1.0000 0.46315  0.31543  0.94358  Biso   1.000  Zr
  Zr58     1.0000 0.46408  0.81593  0.44351  Biso   1.000  Zr
  Zr59     1.0000 0.46115  0.81614  0.94405  Biso   1.000  Zr
  Zr60     1.0000 0.96521  0.31580  0.44525  Biso   1.000  Zr
  Zr61     1.0000 0.96379  0.31560  0.94419  Biso   1.000  Zr
  Zr62     1.0000 0.96467  0.81695  0.44414  Biso   1.000  Zr
  Zr63     1.0000 0.96176  0.81476  0.94176  Biso   1.000  Zr
  Zr64     1.0000 0.26955  0.11516  0.24542  Biso   1.000  Zr
  Zr65     1.0000 0.27022  0.11777  0.74951  Biso   1.000  Zr
  Zr66     1.0000 0.27058  0.61885  0.24963  Biso   1.000  Zr
  Zr67     1.0000 0.26923  0.61687  0.74905  Biso   1.000  Zr
  Zr68     1.0000 0.77237  0.11730  0.24870  Biso   1.000  Zr
  Zr69     1.0000 0.76868  0.11641  0.74911  Biso   1.000  Zr
  Zr70     1.0000 0.77019  0.61713  0.24913  Biso   1.000  Zr
  Zr71     1.0000 0.76898  0.61698  0.74923  Biso   1.000  Zr
  Zr72     1.0000 0.26975  0.13273  0.49798  Biso   1.000  Zr
  Zr73     1.0000 0.26647  0.13073  0.00184  Biso   1.000  Zr
  Zr74     1.0000 0.26969  0.63265  0.49929  Biso   1.000  Zr
  Zr75     1.0000 0.26918  0.63371  0.99929  Biso   1.000  Zr
  Zr76     1.0000 0.76974  0.13223  0.49907  Biso   1.000  Zr
  Zr77     1.0000 0.76934  0.13264  0.99861  Biso   1.000  Zr
  Zr78     1.0000 0.76979  0.63295  0.49896  Biso   1.000  Zr
  Zr79     1.0000 0.76926  0.63248  0.99920  Biso   1.000  Zr
  Zr80     1.0000 0.23025  0.38249  0.49912  Biso   1.000  Zr
  Zr81     1.0000 0.23026  0.38272  0.99940  Biso   1.000  Zr
  Zr82     1.0000 0.23036  0.88278  0.49888  Biso   1.000  Zr
  Zr83     1.0000 0.22397  0.88634  0.00198  Biso   1.000  Zr
  Zr84     1.0000 0.73074  0.38250  0.49935  Biso   1.000  Zr
  Zr85     1.0000 0.73029  0.38222  0.99954  Biso   1.000  Zr
  Zr86     1.0000 0.73001  0.88283  0.49804  Biso   1.000  Zr
  Zr87     1.0000 0.72907  0.88302  0.99751  Biso   1.000  Zr
  Zr88     1.0000 0.23153  0.36708  0.24939  Biso   1.000  Zr
  Zr89     1.0000 0.22964  0.36676  0.74948  Biso   1.000  Zr
  Zr90     1.0000 0.22580  0.87141  0.24730  Biso   1.000  Zr
  Zr91     1.0000 0.23037  0.86675  0.74967  Biso   1.000  Zr
  Zr92     1.0000 0.73032  0.36743  0.24919  Biso   1.000  Zr
  Zr93     1.0000 0.72993  0.36680  0.74911  Biso   1.000  Zr
  Zr94     1.0000 0.73399  0.86815  0.24796  Biso   1.000  Zr
  Zr95     1.0000 0.72945  0.86686  0.74847  Biso   1.000  Zr
