data_image0
_cell_length_a       10.2915
_cell_length_b       10.3852
_cell_length_c       5.32995
_cell_angle_alpha    90.4574
_cell_angle_beta     78.4954
_cell_angle_gamma    90.6617

_symmetry_space_group_name_H-M    "P 1"
_symmetry_int_tables_number       1

loop_
  _symmetry_equiv_pos_as_xyz
  'x, y, z'

loop_
  _atom_site_label
  _atom_site_occupancy
  _atom_site_fract_x
  _atom_site_fract_y
  _atom_site_fract_z
  _atom_site_thermal_displace_type
  _atom_site_B_iso_or_equiv
  _atom_site_type_symbol
  Zr1      1.0000 0.13138  0.02149  0.30048  Biso   1.000  Zr
  Zr2      1.0000 0.14242  0.23632  0.76702  Biso   1.000  Zr
  Zr3      1.0000 0.34277  0.28040  0.16869  Biso   1.000  Zr
  Zr4      1.0000 0.34692  0.48473  0.69726  Biso   1.000  Zr
  O1       1.0000 0.04593  0.16895  0.14701  Biso   1.000  O
  O2       1.0000 0.03374  0.08426  0.65604  Biso   1.000  O
  O3       1.0000 0.46695  0.39673  0.37017  Biso   1.000  O
  O4       1.0000 0.47940  0.35106  0.85204  Biso   1.000  O
  O5       1.0000 0.28149  0.12556  0.44774  Biso   1.000  O
  O6       1.0000 0.29966  0.13825  0.90947  Biso   1.000  O
  O7       1.0000 0.20925  0.39098  0.99749  Biso   1.000  O
  O8       1.0000 0.20722  0.38065  0.48265  Biso   1.000  O
  Zr5      1.0000 0.13328  0.52968  0.28667  Biso   1.000  Zr
  Zr6      1.0000 0.13148  0.73138  0.79654  Biso   1.000  Zr
  Zr7      1.0000 0.35835  0.77051  0.20904  Biso   1.000  Zr
  Zr8      1.0000 0.36129  0.96416  0.70525  Biso   1.000  Zr
  O9       1.0000 0.02338  0.66829  0.15382  Biso   1.000  O
  O10      1.0000 0.02757  0.59239  0.65273  Biso   1.000  O
  O11      1.0000 0.46936  0.90987  0.35071  Biso   1.000  O
  O12      1.0000 0.46421  0.82671  0.85339  Biso   1.000  O
  O13      1.0000 0.27144  0.62995  0.48230  Biso   1.000  O
  O14      1.0000 0.26709  0.63051  0.98269  Biso   1.000  O
  O15      1.0000 0.22298  0.88529  0.02402  Biso   1.000  O
  O16      1.0000 0.21959  0.86765  0.51769  Biso   1.000  O
  Zr9      1.0000 0.64103  0.02063  0.31121  Biso   1.000  Zr
  Zr10     1.0000 0.65050  0.22949  0.82393  Biso   1.000  Zr
  Zr11     1.0000 0.86663  0.27123  0.22310  Biso   1.000  Zr
  Zr12     1.0000 0.86144  0.47775  0.72053  Biso   1.000  Zr
  O17      1.0000 0.52303  0.16814  0.18739  Biso   1.000  O
  O18      1.0000 0.53959  0.06561  0.69537  Biso   1.000  O
  O19      1.0000 0.96326  0.42026  0.34918  Biso   1.000  O
  O20      1.0000 0.96431  0.33554  0.84941  Biso   1.000  O
  O21      1.0000 0.78266  0.12756  0.50020  Biso   1.000  O
  O22      1.0000 0.78005  0.11790  0.00934  Biso   1.000  O
  O23      1.0000 0.72748  0.37658  0.04620  Biso   1.000  O
  O24      1.0000 0.72890  0.37239  0.54077  Biso   1.000  O
  Zr13     1.0000 0.63826  0.52146  0.30488  Biso   1.000  Zr
  Zr14     1.0000 0.63456  0.72285  0.80073  Biso   1.000  Zr
  Zr15     1.0000 0.85492  0.77331  0.21595  Biso   1.000  Zr
  Zr16     1.0000 0.85669  0.97823  0.72185  Biso   1.000  Zr
  O25      1.0000 0.52557  0.65406  0.15682  Biso   1.000  O
  O26      1.0000 0.52585  0.58681  0.65027  Biso   1.000  O
  O27      1.0000 0.96319  0.91435  0.35690  Biso   1.000  O
  O28      1.0000 0.96345  0.83998  0.85750  Biso   1.000  O
  O29      1.0000 0.77038  0.62816  0.48762  Biso   1.000  O
  O30      1.0000 0.77030  0.62119  0.98910  Biso   1.000  O
  O31      1.0000 0.71953  0.87681  0.03191  Biso   1.000  O
  O32      1.0000 0.72170  0.87081  0.53108  Biso   1.000  O
  Ta1      1.0000 0.44133  0.22579  0.57630  Biso   1.000  Ta
