data_image0
_cell_length_a       5.00406
_cell_length_b       10.3904
_cell_length_c       10.0383
_cell_angle_alpha    89.8409
_cell_angle_beta     89.8745
_cell_angle_gamma    90.0415

_symmetry_space_group_name_H-M    "P 1"
_symmetry_int_tables_number       1

loop_
  _symmetry_equiv_pos_as_xyz
  'x, y, z'

loop_
  _atom_site_label
  _atom_site_occupancy
  _atom_site_fract_x
  _atom_site_fract_y
  _atom_site_fract_z
  _atom_site_thermal_displace_type
  _atom_site_B_iso_or_equiv
  _atom_site_type_symbol
  Tc1      1.0000 0.27201  0.02104  0.12045  Biso   1.000  Tc
  Zr1      1.0000 0.26465  0.23285  0.37455  Biso   1.000  Zr
  Zr2      1.0000 0.73374  0.26443  0.12512  Biso   1.000  Zr
  Zr3      1.0000 0.73294  0.48496  0.37571  Biso   1.000  Zr
  Zr4      1.0000 0.06516  0.17580  0.19777  Biso   1.000  Zr
  Zr5      1.0000 0.06608  0.06837  0.45035  Biso   1.000  Zr
  Zr6      1.0000 0.93302  0.43044  0.19512  Biso   1.000  Zr
  Zr7      1.0000 0.93025  0.31715  0.44562  Biso   1.000  Zr
  Zr8      1.0000 0.52705  0.11414  0.24338  Biso   1.000  Zr
  Zr9      1.0000 0.54033  0.13390  0.49592  Biso   1.000  Zr
  Zr10     1.0000 0.46080  0.38330  0.49901  Biso   1.000  Zr
  Zr11     1.0000 0.46331  0.36648  0.24910  Biso   1.000  Zr
  Zr12     1.0000 0.26826  0.01533  0.62530  Biso   1.000  Zr
  Zr13     1.0000 0.26862  0.23369  0.87721  Biso   1.000  Zr
  Zr14     1.0000 0.73227  0.26516  0.62573  Biso   1.000  Zr
  Zr15     1.0000 0.73123  0.48457  0.87521  Biso   1.000  Zr
  Zr16     1.0000 0.06727  0.18156  0.70087  Biso   1.000  Zr
  Zr17     1.0000 0.07117  0.06530  0.95904  Biso   1.000  Zr
  Zr18     1.0000 0.92749  0.43356  0.69377  Biso   1.000  Zr
  Zr19     1.0000 0.92610  0.31416  0.94415  Biso   1.000  Zr
  Zr20     1.0000 0.53845  0.11667  0.74912  Biso   1.000  Zr
  Zr21     1.0000 0.54038  0.12885  0.99951  Biso   1.000  Zr
  Zr22     1.0000 0.45971  0.38141  0.99942  Biso   1.000  Zr
  Zr23     1.0000 0.45943  0.36629  0.74942  Biso   1.000  Zr
  Zr24     1.0000 0.27026  0.51640  0.12642  Biso   1.000  Zr
  Zr25     1.0000 0.26927  0.73733  0.37288  Biso   1.000  Zr
  Zr26     1.0000 0.73473  0.76940  0.12466  Biso   1.000  Zr
  Zr27     1.0000 0.73765  0.98622  0.37056  Biso   1.000  Zr
  Zr28     1.0000 0.07236  0.68271  0.19298  Biso   1.000  Zr
  Zr29     1.0000 0.07197  0.56794  0.44318  Biso   1.000  Zr
  Zr30     1.0000 0.94952  0.93276  0.19180  Biso   1.000  Zr
  Zr31     1.0000 0.93011  0.81788  0.44333  Biso   1.000  Zr
  Zr32     1.0000 0.54262  0.61923  0.24878  Biso   1.000  Zr
  Zr33     1.0000 0.53892  0.63436  0.49821  Biso   1.000  Zr
  Zr34     1.0000 0.46361  0.88469  0.49692  Biso   1.000  Zr
  Zr35     1.0000 0.46234  0.87330  0.24510  Biso   1.000  Zr
  Zr36     1.0000 0.26734  0.51622  0.62455  Biso   1.000  Zr
  Zr37     1.0000 0.26582  0.73395  0.87607  Biso   1.000  Zr
  Zr38     1.0000 0.73279  0.76649  0.62491  Biso   1.000  Zr
  Zr39     1.0000 0.73012  0.98313  0.87736  Biso   1.000  Zr
  Zr40     1.0000 0.07067  0.68392  0.69405  Biso   1.000  Zr
  Zr41     1.0000 0.07237  0.56450  0.94408  Biso   1.000  Zr
  Zr42     1.0000 0.93115  0.93349  0.69717  Biso   1.000  Zr
  Zr43     1.0000 0.91900  0.81440  0.94114  Biso   1.000  Zr
  Zr44     1.0000 0.53826  0.61713  0.74865  Biso   1.000  Zr
  Zr45     1.0000 0.54047  0.63294  0.99890  Biso   1.000  Zr
  Zr46     1.0000 0.44775  0.88431  0.00044  Biso   1.000  Zr
  Zr47     1.0000 0.46170  0.86698  0.74935  Biso   1.000  Zr
