data_image0
_cell_length_a       10.1715
_cell_length_b       10.3596
_cell_length_c       5.31182
_cell_angle_alpha    89.7063
_cell_angle_beta     91.1367
_cell_angle_gamma    89.8588

_symmetry_space_group_name_H-M    "P 1"
_symmetry_int_tables_number       1

loop_
  _symmetry_equiv_pos_as_xyz
  'x, y, z'

loop_
  _atom_site_label
  _atom_site_occupancy
  _atom_site_fract_x
  _atom_site_fract_y
  _atom_site_fract_z
  _atom_site_thermal_displace_type
  _atom_site_B_iso_or_equiv
  _atom_site_type_symbol
  Zr1      1.0000 0.14155  0.02032  0.34057  Biso   1.000  Zr
  Zr2      1.0000 0.14326  0.22763  0.83684  Biso   1.000  Zr
  Zr3      1.0000 0.36125  0.26787  0.35288  Biso   1.000  Zr
  Zr4      1.0000 0.36036  0.47969  0.84353  Biso   1.000  Zr
  Zr5      1.0000 0.63873  0.01260  0.14648  Biso   1.000  Zr
  Zr6      1.0000 0.63278  0.22442  0.69220  Biso   1.000  Zr
  Zr7      1.0000 0.87629  0.27003  0.14901  Biso   1.000  Zr
  Zr8      1.0000 0.86462  0.48194  0.66022  Biso   1.000  Zr
  O1       1.0000 0.03608  0.15650  0.14269  Biso   1.000  O
  O2       1.0000 0.02985  0.09393  0.64111  Biso   1.000  O
  O3       1.0000 0.47243  0.41552  0.16655  Biso   1.000  O
  O4       1.0000 0.46363  0.33545  0.67921  Biso   1.000  O
  O5       1.0000 0.27188  0.12307  0.59295  Biso   1.000  O
  O6       1.0000 0.27603  0.12269  0.08965  Biso   1.000  O
  O7       1.0000 0.22384  0.37477  0.59003  Biso   1.000  O
  O8       1.0000 0.22618  0.37528  0.08935  Biso   1.000  O
  O9       1.0000 0.51290  0.13259  0.37939  Biso   1.000  O
  O10      1.0000 0.52586  0.07680  0.84795  Biso   1.000  O
  O11      1.0000 0.96948  0.41295  0.34073  Biso   1.000  O
  O12      1.0000 0.97291  0.34018  0.83394  Biso   1.000  O
  O13      1.0000 0.78854  0.11604  0.88718  Biso   1.000  O
  O14      1.0000 0.75768  0.14256  0.38106  Biso   1.000  O
  O15      1.0000 0.72704  0.37559  0.94132  Biso   1.000  O
  O16      1.0000 0.72059  0.39159  0.44065  Biso   1.000  O
  Zr9      1.0000 0.13994  0.52028  0.34046  Biso   1.000  Zr
  Zr10     1.0000 0.13892  0.72750  0.84170  Biso   1.000  Zr
  Zr11     1.0000 0.36063  0.77025  0.34648  Biso   1.000  Zr
  Zr12     1.0000 0.35905  0.97342  0.84795  Biso   1.000  Zr
  Zr13     1.0000 0.64314  0.53551  0.15776  Biso   1.000  Zr
  Zr14     1.0000 0.63969  0.73108  0.65503  Biso   1.000  Zr
  Zr15     1.0000 0.86577  0.77391  0.15690  Biso   1.000  Zr
  Zr16     1.0000 0.86601  0.97812  0.65352  Biso   1.000  Zr
  O17      1.0000 0.03188  0.66072  0.15343  Biso   1.000  O
  O18      1.0000 0.03194  0.59041  0.65248  Biso   1.000  O
  O19      1.0000 0.46854  0.90050  0.15368  Biso   1.000  O
  O20      1.0000 0.46949  0.83798  0.65619  Biso   1.000  O
  O21      1.0000 0.27434  0.62306  0.59133  Biso   1.000  O
  O22      1.0000 0.27491  0.62368  0.09145  Biso   1.000  O
  O23      1.0000 0.22410  0.87220  0.59205  Biso   1.000  O
  O24      1.0000 0.22285  0.87299  0.09357  Biso   1.000  O
  O25      1.0000 0.53059  0.66218  0.34680  Biso   1.000  O
  O26      1.0000 0.53114  0.59186  0.84315  Biso   1.000  O
  O27      1.0000 0.97105  0.91412  0.33236  Biso   1.000  O
  O28      1.0000 0.97134  0.84043  0.83621  Biso   1.000  O
  O29      1.0000 0.77816  0.62588  0.90410  Biso   1.000  O
  O30      1.0000 0.77972  0.63421  0.40660  Biso   1.000  O
  O31      1.0000 0.72773  0.87099  0.90955  Biso   1.000  O
  O32      1.0000 0.72985  0.87808  0.41288  Biso   1.000  O
  Tc1      1.0000 0.61418  0.27084  0.20944  Biso   1.000  Tc
