data_image0
_cell_length_a       10.0468
_cell_length_b       10.1375
_cell_length_c       5.02394
_cell_angle_alpha    90
_cell_angle_beta     90.0001
_cell_angle_gamma    90

_symmetry_space_group_name_H-M    "P 1"
_symmetry_int_tables_number       1

loop_
  _symmetry_equiv_pos_as_xyz
  'x, y, z'

loop_
  _atom_site_label
  _atom_site_occupancy
  _atom_site_fract_x
  _atom_site_fract_y
  _atom_site_fract_z
  _atom_site_thermal_displace_type
  _atom_site_B_iso_or_equiv
  _atom_site_type_symbol
  Tc1      1.0000 0.12540  0.00008  0.25079  Biso   1.000  Tc
  Zr1      1.0000 0.12540  0.24850  0.75079  Biso   1.000  Zr
  Zr2      1.0000 0.37405  0.24904  0.25259  Biso   1.000  Zr
  Zr3      1.0000 0.37385  0.00007  0.75079  Biso   1.000  Zr
  Zr4      1.0000 0.99365  0.14015  0.98476  Biso   1.000  Zr
  Zr5      1.0000 0.00985  0.10526  0.48267  Biso   1.000  Zr
  Zr6      1.0000 0.99386  0.35567  0.51358  Biso   1.000  Zr
  Zr7      1.0000 0.00446  0.39216  0.00841  Biso   1.000  Zr
  Zr8      1.0000 0.25714  0.14016  0.51683  Biso   1.000  Zr
  Zr9      1.0000 0.24095  0.10527  0.01892  Biso   1.000  Zr
  Zr10     1.0000 0.25693  0.35567  0.98801  Biso   1.000  Zr
  Zr11     1.0000 0.24634  0.39216  0.49318  Biso   1.000  Zr
  Zr12     1.0000 0.12540  0.50008  0.25079  Biso   1.000  Zr
  Zr13     1.0000 0.12540  0.75165  0.75079  Biso   1.000  Zr
  Zr14     1.0000 0.37405  0.75111  0.24900  Biso   1.000  Zr
  Zr15     1.0000 0.37614  0.50008  0.75079  Biso   1.000  Zr
  Zr16     1.0000 0.99386  0.64449  0.98801  Biso   1.000  Zr
  Zr17     1.0000 0.00446  0.60799  0.49318  Biso   1.000  Zr
  Zr18     1.0000 0.99365  0.86000  0.51683  Biso   1.000  Zr
  Zr19     1.0000 0.00985  0.89489  0.01892  Biso   1.000  Zr
  Zr20     1.0000 0.25693  0.64449  0.51358  Biso   1.000  Zr
  Zr21     1.0000 0.24634  0.60799  0.00840  Biso   1.000  Zr
  Zr22     1.0000 0.25714  0.86000  0.98476  Biso   1.000  Zr
  Zr23     1.0000 0.24094  0.89489  0.48267  Biso   1.000  Zr
  Zr24     1.0000 0.62540  0.00008  0.25079  Biso   1.000  Zr
  Zr25     1.0000 0.62540  0.25033  0.75079  Biso   1.000  Zr
  Zr26     1.0000 0.87674  0.24904  0.24900  Biso   1.000  Zr
  Zr27     1.0000 0.87694  0.00008  0.75079  Biso   1.000  Zr
  Zr28     1.0000 0.48964  0.14312  0.98413  Biso   1.000  Zr
  Zr29     1.0000 0.50651  0.10853  0.49193  Biso   1.000  Zr
  Zr30     1.0000 0.49408  0.35719  0.51128  Biso   1.000  Zr
  Zr31     1.0000 0.50488  0.39223  0.00664  Biso   1.000  Zr
  Zr32     1.0000 0.76116  0.14312  0.51746  Biso   1.000  Zr
  Zr33     1.0000 0.74428  0.10853  0.00966  Biso   1.000  Zr
  Zr34     1.0000 0.75671  0.35719  0.99031  Biso   1.000  Zr
  Zr35     1.0000 0.74592  0.39223  0.49494  Biso   1.000  Zr
  Zr36     1.0000 0.62540  0.50008  0.25079  Biso   1.000  Zr
  Zr37     1.0000 0.62540  0.74983  0.75079  Biso   1.000  Zr
  Zr38     1.0000 0.87674  0.75111  0.25259  Biso   1.000  Zr
  Zr39     1.0000 0.87465  0.50008  0.75079  Biso   1.000  Zr
  Zr40     1.0000 0.49408  0.64296  0.99031  Biso   1.000  Zr
  Zr41     1.0000 0.50488  0.60792  0.49494  Biso   1.000  Zr
  Zr42     1.0000 0.48964  0.85703  0.51746  Biso   1.000  Zr
  Zr43     1.0000 0.50652  0.89163  0.00966  Biso   1.000  Zr
  Zr44     1.0000 0.75671  0.64296  0.51128  Biso   1.000  Zr
  Zr45     1.0000 0.74592  0.60792  0.00664  Biso   1.000  Zr
  Zr46     1.0000 0.76116  0.85703  0.98413  Biso   1.000  Zr
  Zr47     1.0000 0.74428  0.89163  0.49192  Biso   1.000  Zr
