data_image0
_cell_length_a       5.10521
_cell_length_b       10.41
_cell_length_c       10.1846
_cell_angle_alpha    88.5189
_cell_angle_beta     87.3012
_cell_angle_gamma    91.3475

_symmetry_space_group_name_H-M    "P 1"
_symmetry_int_tables_number       1

loop_
  _symmetry_equiv_pos_as_xyz
  'x, y, z'

loop_
  _atom_site_label
  _atom_site_occupancy
  _atom_site_fract_x
  _atom_site_fract_y
  _atom_site_fract_z
  _atom_site_thermal_displace_type
  _atom_site_B_iso_or_equiv
  _atom_site_type_symbol
  Zr1      1.0000 0.27071  0.95273  0.12627  Biso   1.000  Zr
  Zr2      1.0000 0.31195  0.23878  0.36721  Biso   1.000  Zr
  Zr3      1.0000 0.75609  0.28431  0.11821  Biso   1.000  Zr
  Zr4      1.0000 0.78460  0.99718  0.37296  Biso   1.000  Zr
  Zr5      1.0000 0.91429  0.15563  0.98270  Biso   1.000  Zr
  Zr6      1.0000 0.10486  0.07744  0.26251  Biso   1.000  Zr
  Zr7      1.0000 0.07324  0.33045  0.23083  Biso   1.000  Zr
  Zr8      1.0000 0.98347  0.41749  0.98709  Biso   1.000  Zr
  Zr9      1.0000 0.61830  0.14771  0.26090  Biso   1.000  Zr
  Zr10     1.0000 0.42316  0.07792  0.97648  Biso   1.000  Zr
  Zr11     1.0000 0.45555  0.33990  0.99548  Biso   1.000  Zr
  Zr12     1.0000 0.53596  0.40256  0.25459  Biso   1.000  Zr
  Zr13     1.0000 0.24211  0.01832  0.63328  Biso   1.000  Zr
  Zr14     1.0000 0.19527  0.26502  0.85842  Biso   1.000  Zr
  Zr15     1.0000 0.74948  0.24461  0.60611  Biso   1.000  Zr
  Zr16     1.0000 0.74065  0.99698  0.88702  Biso   1.000  Zr
  Zr17     1.0000 0.02214  0.14877  0.49647  Biso   1.000  Zr
  Zr18     1.0000 0.95425  0.11235  0.74132  Biso   1.000  Zr
  Zr19     1.0000 0.92996  0.36417  0.74017  Biso   1.000  Zr
  Zr20     1.0000 0.97291  0.39818  0.48992  Biso   1.000  Zr
  Zr21     1.0000 0.44316  0.17398  0.72850  Biso   1.000  Zr
  Zr22     1.0000 0.52402  0.10367  0.49727  Biso   1.000  Zr
  Zr23     1.0000 0.47738  0.36193  0.50682  Biso   1.000  Zr
  Zr24     1.0000 0.42019  0.42570  0.76049  Biso   1.000  Zr
  Zr25     1.0000 0.24898  0.50193  0.12746  Biso   1.000  Zr
  Zr26     1.0000 0.27754  0.76037  0.39461  Biso   1.000  Zr
  Zr27     1.0000 0.76670  0.73192  0.13162  Biso   1.000  Zr
  Zr28     1.0000 0.71086  0.51194  0.39153  Biso   1.000  Zr
  Zr29     1.0000 0.08210  0.65788  0.01946  Biso   1.000  Zr
  Zr30     1.0000 0.95804  0.57817  0.24423  Biso   1.000  Zr
  Zr31     1.0000 0.02086  0.82952  0.25980  Biso   1.000  Zr
  Zr32     1.0000 0.98425  0.89187  0.00514  Biso   1.000  Zr
  Zr33     1.0000 0.46987  0.64371  0.26432  Biso   1.000  Zr
  Zr34     1.0000 0.57758  0.58213  0.02810  Biso   1.000  Zr
  Zr35     1.0000 0.51091  0.83270  0.99992  Biso   1.000  Zr
  Zr36     1.0000 0.54332  0.88723  0.25272  Biso   1.000  Zr
  Zr37     1.0000 0.19801  0.49671  0.61586  Biso   1.000  Zr
  Zr38     1.0000 0.24171  0.76334  0.86729  Biso   1.000  Zr
  Zr39     1.0000 0.76170  0.76316  0.63103  Biso   1.000  Zr
  Zr40     1.0000 0.71858  0.50436  0.86104  Biso   1.000  Zr
  Zr41     1.0000 0.98068  0.64895  0.50062  Biso   1.000  Zr
  Zr42     1.0000 0.01358  0.61624  0.75357  Biso   1.000  Zr
  Zr43     1.0000 0.99259  0.86787  0.75454  Biso   1.000  Zr
  Zr44     1.0000 0.03665  0.90025  0.50540  Biso   1.000  Zr
  Zr45     1.0000 0.53660  0.66860  0.77556  Biso   1.000  Zr
  Zr46     1.0000 0.47815  0.61675  0.52013  Biso   1.000  Zr
  Zr47     1.0000 0.54015  0.85958  0.50067  Biso   1.000  Zr
  Zr48     1.0000 0.49083  0.91410  0.74967  Biso   1.000  Zr
  Tc1      1.0000 0.25251  0.19626  0.11101  Biso   1.000  Tc
