data_image0
_cell_length_a       9.98959
_cell_length_b       10.4004
_cell_length_c       5.01451
_cell_angle_alpha    90.0978
_cell_angle_beta     89.7752
_cell_angle_gamma    90.0204

_symmetry_space_group_name_H-M    "P 1"
_symmetry_int_tables_number       1

loop_
  _symmetry_equiv_pos_as_xyz
  'x, y, z'

loop_
  _atom_site_label
  _atom_site_occupancy
  _atom_site_fract_x
  _atom_site_fract_y
  _atom_site_fract_z
  _atom_site_thermal_displace_type
  _atom_site_B_iso_or_equiv
  _atom_site_type_symbol
  Ti1      1.0000 0.13011  0.01905  0.25082  Biso   1.000  Ti
  Zr1      1.0000 0.13380  0.23132  0.75050  Biso   1.000  Zr
  Zr2      1.0000 0.36478  0.26397  0.24970  Biso   1.000  Zr
  Zr3      1.0000 0.36636  0.48445  0.75172  Biso   1.000  Zr
  Zr4      1.0000 0.03661  0.17785  0.38808  Biso   1.000  Zr
  Zr5      1.0000 0.03696  0.06392  0.91165  Biso   1.000  Zr
  Zr6      1.0000 0.46312  0.43418  0.38602  Biso   1.000  Zr
  Zr7      1.0000 0.46388  0.31626  0.88834  Biso   1.000  Zr
  Zr8      1.0000 0.26305  0.11067  0.48805  Biso   1.000  Zr
  Zr9      1.0000 0.26842  0.13275  0.99634  Biso   1.000  Zr
  Zr10     1.0000 0.22949  0.38244  0.99792  Biso   1.000  Zr
  Zr11     1.0000 0.23046  0.36513  0.49918  Biso   1.000  Zr
  Zr12     1.0000 0.13499  0.51559  0.25197  Biso   1.000  Zr
  Zr13     1.0000 0.13466  0.73591  0.75438  Biso   1.000  Zr
  Zr14     1.0000 0.36382  0.76850  0.25671  Biso   1.000  Zr
  Zr15     1.0000 0.36119  0.98473  0.75580  Biso   1.000  Zr
  Zr16     1.0000 0.03623  0.68397  0.38855  Biso   1.000  Zr
  Zr17     1.0000 0.03540  0.56575  0.88987  Biso   1.000  Zr
  Zr18     1.0000 0.46665  0.93296  0.39662  Biso   1.000  Zr
  Zr19     1.0000 0.46110  0.81704  0.89103  Biso   1.000  Zr
  Zr20     1.0000 0.26958  0.61726  0.50068  Biso   1.000  Zr
  Zr21     1.0000 0.26999  0.63405  0.00056  Biso   1.000  Zr
  Zr22     1.0000 0.22389  0.88830  0.01571  Biso   1.000  Zr
  Zr23     1.0000 0.22991  0.86795  0.50650  Biso   1.000  Zr
  Zr24     1.0000 0.63310  0.01522  0.24944  Biso   1.000  Zr
  Zr25     1.0000 0.63352  0.23384  0.75081  Biso   1.000  Zr
  Zr26     1.0000 0.86722  0.26452  0.24959  Biso   1.000  Zr
  Zr27     1.0000 0.86598  0.48445  0.74959  Biso   1.000  Zr
  Zr28     1.0000 0.53456  0.18364  0.39008  Biso   1.000  Zr
  Zr29     1.0000 0.53419  0.06664  0.89036  Biso   1.000  Zr
  Zr30     1.0000 0.96536  0.43174  0.38698  Biso   1.000  Zr
  Zr31     1.0000 0.96363  0.31390  0.88381  Biso   1.000  Zr
  Zr32     1.0000 0.77080  0.11616  0.49475  Biso   1.000  Zr
  Zr33     1.0000 0.77019  0.13277  0.99489  Biso   1.000  Zr
  Zr34     1.0000 0.73067  0.38296  0.99758  Biso   1.000  Zr
  Zr35     1.0000 0.73021  0.36648  0.49636  Biso   1.000  Zr
  Zr36     1.0000 0.63340  0.51630  0.25074  Biso   1.000  Zr
  Zr37     1.0000 0.63309  0.73642  0.74826  Biso   1.000  Zr
  Zr38     1.0000 0.86906  0.76531  0.24544  Biso   1.000  Zr
  Zr39     1.0000 0.86957  0.98652  0.75013  Biso   1.000  Zr
  Zr40     1.0000 0.53580  0.68520  0.38776  Biso   1.000  Zr
  Zr41     1.0000 0.53689  0.56678  0.88491  Biso   1.000  Zr
  Zr42     1.0000 0.97887  0.93678  0.37921  Biso   1.000  Zr
  Zr43     1.0000 0.96176  0.81540  0.87788  Biso   1.000  Zr
  Zr44     1.0000 0.77022  0.61703  0.49635  Biso   1.000  Zr
  Zr45     1.0000 0.76935  0.63455  0.99677  Biso   1.000  Zr
  Zr46     1.0000 0.73101  0.88486  0.99310  Biso   1.000  Zr
  Zr47     1.0000 0.73737  0.86763  0.49320  Biso   1.000  Zr
