data_image0
_cell_length_a       10.3226
_cell_length_b       5.15882
_cell_length_c       10.6302
_cell_angle_alpha    89.5589
_cell_angle_beta     79.5019
_cell_angle_gamma    89.6039

_symmetry_space_group_name_H-M    "P 1"
_symmetry_int_tables_number       1

loop_
  _symmetry_equiv_pos_as_xyz
  'x, y, z'

loop_
  _atom_site_label
  _atom_site_occupancy
  _atom_site_fract_x
  _atom_site_fract_y
  _atom_site_fract_z
  _atom_site_thermal_displace_type
  _atom_site_B_iso_or_equiv
  _atom_site_type_symbol
  Zr1      1.0000 0.13783  0.03745  0.14609  Biso   1.000  Zr
  Zr2      1.0000 0.12017  0.44830  0.39789  Biso   1.000  Zr
  Zr3      1.0000 0.35864  0.53944  0.09475  Biso   1.000  Zr
  Zr4      1.0000 0.36089  0.97799  0.35496  Biso   1.000  Zr
  O1       1.0000 0.02851  0.30584  0.06781  Biso   1.000  O
  O2       1.0000 0.02228  0.18090  0.31480  Biso   1.000  O
  O3       1.0000 0.47866  0.77505  0.19668  Biso   1.000  O
  O4       1.0000 0.48540  0.72275  0.44122  Biso   1.000  O
  O5       1.0000 0.27159  0.25144  0.23942  Biso   1.000  O
  O6       1.0000 0.27032  0.25519  0.48997  Biso   1.000  O
  O7       1.0000 0.22281  0.75636  0.00598  Biso   1.000  O
  O8       1.0000 0.23577  0.73081  0.25979  Biso   1.000  O
  Zr5      1.0000 0.13932  0.03992  0.64359  Biso   1.000  Zr
  Zr6      1.0000 0.13657  0.45286  0.89300  Biso   1.000  Zr
  Zr7      1.0000 0.36572  0.54712  0.60894  Biso   1.000  Zr
  Zr8      1.0000 0.36124  0.95960  0.85380  Biso   1.000  Zr
  O9       1.0000 0.02271  0.30984  0.57424  Biso   1.000  O
  O10      1.0000 0.02997  0.18025  0.81863  Biso   1.000  O
  O11      1.0000 0.47410  0.81338  0.68708  Biso   1.000  O
  O12      1.0000 0.47599  0.70307  0.93426  Biso   1.000  O
  O13      1.0000 0.27243  0.25202  0.74006  Biso   1.000  O
  O14      1.0000 0.27199  0.24500  0.98816  Biso   1.000  O
  O15      1.0000 0.23788  0.74177  0.50087  Biso   1.000  O
  O16      1.0000 0.22536  0.74705  0.75869  Biso   1.000  O
  Zr9      1.0000 0.63619  0.03678  0.14579  Biso   1.000  Zr
  Zr10     1.0000 0.64468  0.46872  0.39917  Biso   1.000  Zr
  Zr11     1.0000 0.86313  0.53927  0.10543  Biso   1.000  Zr
  Zr12     1.0000 0.85859  0.95883  0.35484  Biso   1.000  Zr
  O17      1.0000 0.52458  0.29347  0.06590  Biso   1.000  O
  O18      1.0000 0.52413  0.22131  0.31662  Biso   1.000  O
  O19      1.0000 0.97305  0.80370  0.17991  Biso   1.000  O
  O20      1.0000 0.96581  0.69722  0.43433  Biso   1.000  O
  O21      1.0000 0.77037  0.25220  0.23837  Biso   1.000  O
  O22      1.0000 0.77547  0.24771  0.49122  Biso   1.000  O
  O23      1.0000 0.72639  0.75270  0.01363  Biso   1.000  O
  O24      1.0000 0.72916  0.74760  0.26175  Biso   1.000  O
  Zr13     1.0000 0.63699  0.04738  0.64750  Biso   1.000  Zr
  Zr14     1.0000 0.63743  0.45469  0.89723  Biso   1.000  Zr
  Zr15     1.0000 0.85950  0.54776  0.60976  Biso   1.000  Zr
  Zr16     1.0000 0.86240  0.95617  0.85567  Biso   1.000  Zr
  O25      1.0000 0.52873  0.30969  0.56703  Biso   1.000  O
  O26      1.0000 0.52540  0.20040  0.81805  Biso   1.000  O
  O27      1.0000 0.97251  0.81365  0.67972  Biso   1.000  O
  O28      1.0000 0.96868  0.67812  0.92831  Biso   1.000  O
  O29      1.0000 0.77145  0.25577  0.74182  Biso   1.000  O
  O30      1.0000 0.77237  0.24182  0.99013  Biso   1.000  O
  O31      1.0000 0.72519  0.75721  0.51486  Biso   1.000  O
  O32      1.0000 0.72750  0.74746  0.76400  Biso   1.000  O
  Ti1      1.0000 0.37549  0.49716  0.34328  Biso   1.000  Ti
