data_image0
_cell_length_a       5.17949
_cell_length_b       10.2571
_cell_length_c       10.6419
_cell_angle_alpha    89.7016
_cell_angle_beta     79.4662
_cell_angle_gamma    89.699

_symmetry_space_group_name_H-M    "P 1"
_symmetry_int_tables_number       1

loop_
  _symmetry_equiv_pos_as_xyz
  'x, y, z'

loop_
  _atom_site_label
  _atom_site_occupancy
  _atom_site_fract_x
  _atom_site_fract_y
  _atom_site_fract_z
  _atom_site_thermal_displace_type
  _atom_site_B_iso_or_equiv
  _atom_site_type_symbol
  Zr1      1.0000 0.27273  0.02150  0.14569  Biso   1.000  Zr
  Zr2      1.0000 0.25503  0.23091  0.39979  Biso   1.000  Zr
  Zr3      1.0000 0.72185  0.26917  0.09581  Biso   1.000  Zr
  Zr4      1.0000 0.72906  0.49802  0.35520  Biso   1.000  Zr
  O1       1.0000 0.05282  0.15025  0.06446  Biso   1.000  O
  O2       1.0000 0.03236  0.09786  0.31742  Biso   1.000  O
  O3       1.0000 0.96661  0.38518  0.19857  Biso   1.000  O
  O4       1.0000 0.96310  0.36785  0.44470  Biso   1.000  O
  O5       1.0000 0.54119  0.12517  0.24062  Biso   1.000  O
  O6       1.0000 0.55225  0.12233  0.48634  Biso   1.000  O
  O7       1.0000 0.45044  0.37764  0.00681  Biso   1.000  O
  O8       1.0000 0.48723  0.36956  0.26067  Biso   1.000  O
  Zr5      1.0000 0.27528  0.02248  0.64587  Biso   1.000  Zr
  Zr6      1.0000 0.27337  0.22808  0.89427  Biso   1.000  Zr
  Zr7      1.0000 0.72793  0.27325  0.60981  Biso   1.000  Zr
  Zr8      1.0000 0.72428  0.48009  0.85455  Biso   1.000  Zr
  O9       1.0000 0.05126  0.15372  0.57171  Biso   1.000  O
  O10      1.0000 0.05182  0.09547  0.81857  Biso   1.000  O
  O11      1.0000 0.95053  0.40354  0.68802  Biso   1.000  O
  O12      1.0000 0.95122  0.35152  0.93357  Biso   1.000  O
  O13      1.0000 0.54148  0.12615  0.74150  Biso   1.000  O
  O14      1.0000 0.54245  0.12220  0.98813  Biso   1.000  O
  O15      1.0000 0.47916  0.37105  0.50180  Biso   1.000  O
  O16      1.0000 0.45341  0.37473  0.75964  Biso   1.000  O
  Zr9      1.0000 0.27688  0.51656  0.14741  Biso   1.000  Zr
  Zr10     1.0000 0.26848  0.73088  0.39801  Biso   1.000  Zr
  Zr11     1.0000 0.72363  0.77023  0.10336  Biso   1.000  Zr
  Zr12     1.0000 0.70954  0.97115  0.35372  Biso   1.000  Zr
  O17      1.0000 0.05262  0.64723  0.06708  Biso   1.000  O
  O18      1.0000 0.06339  0.60389  0.31200  Biso   1.000  O
  O19      1.0000 0.93940  0.90305  0.18059  Biso   1.000  O
  O20      1.0000 0.93928  0.84559  0.43392  Biso   1.000  O
  O21      1.0000 0.54638  0.62823  0.23862  Biso   1.000  O
  O22      1.0000 0.53423  0.62696  0.49475  Biso   1.000  O
  O23      1.0000 0.45122  0.87733  0.01166  Biso   1.000  O
  O24      1.0000 0.44273  0.87093  0.25987  Biso   1.000  O
  Zr13     1.0000 0.27410  0.52003  0.64581  Biso   1.000  Zr
  Zr14     1.0000 0.27428  0.72627  0.89631  Biso   1.000  Zr
  Zr15     1.0000 0.72196  0.77244  0.60777  Biso   1.000  Zr
  Zr16     1.0000 0.72303  0.97771  0.85480  Biso   1.000  Zr
  O25      1.0000 0.04633  0.65195  0.56812  Biso   1.000  O
  O26      1.0000 0.05640  0.59747  0.81558  Biso   1.000  O
  O27      1.0000 0.94355  0.90542  0.68196  Biso   1.000  O
  O28      1.0000 0.94231  0.84268  0.93110  Biso   1.000  O
  O29      1.0000 0.54450  0.62650  0.74033  Biso   1.000  O
  O30      1.0000 0.54632  0.62288  0.99027  Biso   1.000  O
  O31      1.0000 0.44773  0.87655  0.51273  Biso   1.000  O
  O32      1.0000 0.45283  0.87246  0.76225  Biso   1.000  O
  Ti1      1.0000 0.75466  0.24795  0.34344  Biso   1.000  Ti
