data_image0
_cell_length_a       10.1314
_cell_length_b       10.3603
_cell_length_c       10.5821
_cell_angle_alpha    89.9613
_cell_angle_beta     90.9067
_cell_angle_gamma    89.994

_symmetry_space_group_name_H-M    "P 1"
_symmetry_int_tables_number       1

loop_
  _symmetry_equiv_pos_as_xyz
  'x, y, z'

loop_
  _atom_site_label
  _atom_site_occupancy
  _atom_site_fract_x
  _atom_site_fract_y
  _atom_site_fract_z
  _atom_site_thermal_displace_type
  _atom_site_B_iso_or_equiv
  _atom_site_type_symbol
  Zr1      1.0000 0.13558  0.01871  0.17194  Biso   1.000  Zr
  Zr2      1.0000 0.13484  0.22703  0.42804  Biso   1.000  Zr
  Zr3      1.0000 0.33919  0.26591  0.19068  Biso   1.000  Zr
  Zr4      1.0000 0.36199  0.47915  0.42296  Biso   1.000  Zr
  Zr5      1.0000 0.64182  0.01391  0.07488  Biso   1.000  Zr
  Zr6      1.0000 0.63522  0.22223  0.33222  Biso   1.000  Zr
  Zr7      1.0000 0.86185  0.27146  0.07516  Biso   1.000  Zr
  Zr8      1.0000 0.85996  0.47795  0.32748  Biso   1.000  Zr
  O1       1.0000 0.03378  0.16626  0.08478  Biso   1.000  O
  O2       1.0000 0.02829  0.08632  0.33319  Biso   1.000  O
  O3       1.0000 0.45726  0.45012  0.10147  Biso   1.000  O
  O4       1.0000 0.46432  0.33378  0.33294  Biso   1.000  O
  O5       1.0000 0.26518  0.12306  0.30351  Biso   1.000  O
  O6       1.0000 0.27352  0.12056  0.04951  Biso   1.000  O
  O7       1.0000 0.21567  0.37712  0.30432  Biso   1.000  O
  O8       1.0000 0.22216  0.37580  0.05147  Biso   1.000  O
  O9       1.0000 0.51275  0.12798  0.20316  Biso   1.000  O
  O10      1.0000 0.52786  0.09042  0.43397  Biso   1.000  O
  O11      1.0000 0.96502  0.41478  0.16826  Biso   1.000  O
  O12      1.0000 0.96727  0.33647  0.41886  Biso   1.000  O
  O13      1.0000 0.77423  0.12340  0.45296  Biso   1.000  O
  O14      1.0000 0.77140  0.12726  0.20270  Biso   1.000  O
  O15      1.0000 0.72490  0.37444  0.45348  Biso   1.000  O
  O16      1.0000 0.71896  0.37714  0.20376  Biso   1.000  O
  Zr9      1.0000 0.14157  0.02059  0.67393  Biso   1.000  Zr
  Zr10     1.0000 0.14209  0.22855  0.92371  Biso   1.000  Zr
  Zr11     1.0000 0.36390  0.27237  0.67428  Biso   1.000  Zr
  Zr12     1.0000 0.36093  0.48458  0.92466  Biso   1.000  Zr
  Zr13     1.0000 0.64072  0.01843  0.58006  Biso   1.000  Zr
  Zr14     1.0000 0.65246  0.22593  0.81316  Biso   1.000  Zr
  Zr15     1.0000 0.86328  0.27255  0.57614  Biso   1.000  Zr
  Zr16     1.0000 0.86798  0.48185  0.82712  Biso   1.000  Zr
  O17      1.0000 0.03168  0.16292  0.58412  Biso   1.000  O
  O18      1.0000 0.03834  0.08345  0.83341  Biso   1.000  O
  O19      1.0000 0.47112  0.41284  0.57948  Biso   1.000  O
  O20      1.0000 0.47628  0.34330  0.82628  Biso   1.000  O
  O21      1.0000 0.28010  0.12563  0.79753  Biso   1.000  O
  O22      1.0000 0.27509  0.12437  0.54954  Biso   1.000  O
  O23      1.0000 0.22880  0.37451  0.79907  Biso   1.000  O
  O24      1.0000 0.22686  0.37464  0.54967  Biso   1.000  O
  O25      1.0000 0.53533  0.16430  0.66750  Biso   1.000  O
  O26      1.0000 0.54135  0.06302  0.89891  Biso   1.000  O
  O27      1.0000 0.97184  0.41385  0.66725  Biso   1.000  O
  O28      1.0000 0.97300  0.33426  0.91589  Biso   1.000  O
  O29      1.0000 0.78810  0.12119  0.94639  Biso   1.000  O
  O30      1.0000 0.78315  0.12231  0.69803  Biso   1.000  O
  O31      1.0000 0.74018  0.38908  0.95018  Biso   1.000  O
  O32      1.0000 0.73061  0.37434  0.70058  Biso   1.000  O
  Zr17     1.0000 0.13708  0.52228  0.17187  Biso   1.000  Zr
  Zr18     1.0000 0.13836  0.72826  0.42103  Biso   1.000  Zr
  Zr19     1.0000 0.36094  0.77353  0.17317  Biso   1.000  Zr
  Zr20     1.0000 0.36199  0.97788  0.42631  Biso   1.000  Zr
  Zr21     1.0000 0.64219  0.53443  0.08003  Biso   1.000  Zr
  Zr22     1.0000 0.63937  0.73187  0.33015  Biso   1.000  Zr
  Zr23     1.0000 0.86383  0.77130  0.07898  Biso   1.000  Zr
  Zr24     1.0000 0.86107  0.97978  0.32892  Biso   1.000  Zr
  O33      1.0000 0.03298  0.66437  0.08226  Biso   1.000  O
  O34      1.0000 0.03089  0.58604  0.33235  Biso   1.000  O
  O35      1.0000 0.46964  0.91080  0.07899  Biso   1.000  O
  O36      1.0000 0.46885  0.83878  0.33457  Biso   1.000  O
  O37      1.0000 0.27480  0.62519  0.29469  Biso   1.000  O
  O38      1.0000 0.27401  0.62808  0.04472  Biso   1.000  O
  O39      1.0000 0.22479  0.87464  0.29690  Biso   1.000  O
  O40      1.0000 0.22438  0.87485  0.04757  Biso   1.000  O
  O41      1.0000 0.53785  0.67746  0.16641  Biso   1.000  O
  O42      1.0000 0.53198  0.58667  0.41541  Biso   1.000  O
  O43      1.0000 0.96629  0.91600  0.16743  Biso   1.000  O
  O44      1.0000 0.96755  0.83494  0.41704  Biso   1.000  O
  O45      1.0000 0.77601  0.62435  0.45404  Biso   1.000  O
  O46      1.0000 0.77793  0.62848  0.20567  Biso   1.000  O
  O47      1.0000 0.72599  0.87527  0.45613  Biso   1.000  O
  O48      1.0000 0.72645  0.87572  0.20540  Biso   1.000  O
  Zr25     1.0000 0.14148  0.52009  0.67183  Biso   1.000  Zr
  Zr26     1.0000 0.14110  0.73066  0.92187  Biso   1.000  Zr
  Zr27     1.0000 0.36303  0.76864  0.67191  Biso   1.000  Zr
  Zr28     1.0000 0.36454  0.97638  0.92034  Biso   1.000  Zr
  Zr29     1.0000 0.64046  0.52119  0.57585  Biso   1.000  Zr
  Zr30     1.0000 0.64082  0.72846  0.82625  Biso   1.000  Zr
  Zr31     1.0000 0.86457  0.77036  0.57887  Biso   1.000  Zr
  Zr32     1.0000 0.86649  0.97699  0.82892  Biso   1.000  Zr
  O49      1.0000 0.03465  0.66371  0.58241  Biso   1.000  O
  O50      1.0000 0.03726  0.58635  0.83285  Biso   1.000  O
  O51      1.0000 0.47048  0.91065  0.58509  Biso   1.000  O
  O52      1.0000 0.46677  0.82708  0.83324  Biso   1.000  O
  O53      1.0000 0.27752  0.62412  0.79565  Biso   1.000  O
  O54      1.0000 0.27588  0.62383  0.54491  Biso   1.000  O
  O55      1.0000 0.22693  0.87382  0.79583  Biso   1.000  O
  O56      1.0000 0.22647  0.87459  0.54617  Biso   1.000  O
  O57      1.0000 0.53386  0.66221  0.66570  Biso   1.000  O
  O58      1.0000 0.53500  0.58571  0.91660  Biso   1.000  O
  O59      1.0000 0.97187  0.91266  0.66726  Biso   1.000  O
  O60      1.0000 0.97107  0.83598  0.91940  Biso   1.000  O
  O61      1.0000 0.77825  0.63066  0.95316  Biso   1.000  O
  O62      1.0000 0.77767  0.62432  0.70294  Biso   1.000  O
  O63      1.0000 0.72861  0.87370  0.95590  Biso   1.000  O
  O64      1.0000 0.72894  0.87306  0.70602  Biso   1.000  O
  Tl1      1.0000 0.54658  0.26424  0.03610  Biso   1.000  Tl
