data_image0
_cell_length_a       10.0782
_cell_length_b       10.4768
_cell_length_c       10.1638
_cell_angle_alpha    89.5262
_cell_angle_beta     90.7571
_cell_angle_gamma    90.7934

_symmetry_space_group_name_H-M    "P 1"
_symmetry_int_tables_number       1

loop_
  _symmetry_equiv_pos_as_xyz
  'x, y, z'

loop_
  _atom_site_label
  _atom_site_occupancy
  _atom_site_fract_x
  _atom_site_fract_y
  _atom_site_fract_z
  _atom_site_thermal_displace_type
  _atom_site_B_iso_or_equiv
  _atom_site_type_symbol
  Zr1      1.0000 0.14787  0.99683  0.10920  Biso   1.000  Zr
  Zr2      1.0000 0.12800  0.23245  0.39729  Biso   1.000  Zr
  Zr3      1.0000 0.36605  0.26480  0.12046  Biso   1.000  Zr
  Zr4      1.0000 0.36838  0.48580  0.37240  Biso   1.000  Zr
  Zr5      1.0000 0.96063  0.18391  0.27631  Biso   1.000  Zr
  Zr6      1.0000 0.04749  0.05502  0.45244  Biso   1.000  Zr
  Zr7      1.0000 0.45614  0.43669  0.19057  Biso   1.000  Zr
  Zr8      1.0000 0.46449  0.31923  0.44523  Biso   1.000  Zr
  Zr9      1.0000 0.25178  0.11145  0.24707  Biso   1.000  Zr
  Zr10     1.0000 0.27800  0.13227  0.49768  Biso   1.000  Zr
  Zr11     1.0000 0.23748  0.38594  0.49709  Biso   1.000  Zr
  Zr12     1.0000 0.21721  0.36125  0.24734  Biso   1.000  Zr
  Zr13     1.0000 0.14161  0.00604  0.62466  Biso   1.000  Zr
  Zr14     1.0000 0.14279  0.22547  0.84754  Biso   1.000  Zr
  Zr15     1.0000 0.37426  0.26678  0.62359  Biso   1.000  Zr
  Zr16     1.0000 0.36925  0.48484  0.87206  Biso   1.000  Zr
  Zr17     1.0000 0.05387  0.18034  0.66777  Biso   1.000  Zr
  Zr18     1.0000 0.04972  0.05315  0.92429  Biso   1.000  Zr
  Zr19     1.0000 0.46758  0.43434  0.69460  Biso   1.000  Zr
  Zr20     1.0000 0.46969  0.31536  0.94237  Biso   1.000  Zr
  Zr21     1.0000 0.27997  0.11300  0.74280  Biso   1.000  Zr
  Zr22     1.0000 0.28815  0.12099  0.99042  Biso   1.000  Zr
  Zr23     1.0000 0.23682  0.38818  0.99281  Biso   1.000  Zr
  Zr24     1.0000 0.23448  0.36655  0.74069  Biso   1.000  Zr
  Zr25     1.0000 0.13028  0.52295  0.12593  Biso   1.000  Zr
  Zr26     1.0000 0.13408  0.73718  0.37468  Biso   1.000  Zr
  Zr27     1.0000 0.36887  0.75979  0.12424  Biso   1.000  Zr
  Zr28     1.0000 0.36515  0.98661  0.37262  Biso   1.000  Zr
  Zr29     1.0000 0.03714  0.68631  0.19187  Biso   1.000  Zr
  Zr30     1.0000 0.03670  0.57359  0.43888  Biso   1.000  Zr
  Zr31     1.0000 0.46108  0.93343  0.19510  Biso   1.000  Zr
  Zr32     1.0000 0.46883  0.81817  0.44304  Biso   1.000  Zr
  Zr33     1.0000 0.26914  0.61606  0.24787  Biso   1.000  Zr
  Zr34     1.0000 0.27057  0.63454  0.49590  Biso   1.000  Zr
  Zr35     1.0000 0.23703  0.88188  0.49534  Biso   1.000  Zr
  Zr36     1.0000 0.23439  0.86101  0.24379  Biso   1.000  Zr
  Zr37     1.0000 0.13299  0.51553  0.61649  Biso   1.000  Zr
  Zr38     1.0000 0.13411  0.73046  0.86872  Biso   1.000  Zr
  Zr39     1.0000 0.37292  0.76290  0.62133  Biso   1.000  Zr
  Zr40     1.0000 0.37597  0.97888  0.87030  Biso   1.000  Zr
  Zr41     1.0000 0.04195  0.68959  0.68773  Biso   1.000  Zr
  Zr42     1.0000 0.03453  0.56130  0.94542  Biso   1.000  Zr
  Zr43     1.0000 0.47475  0.92960  0.69499  Biso   1.000  Zr
  Zr44     1.0000 0.47591  0.81772  0.95255  Biso   1.000  Zr
  Zr45     1.0000 0.26933  0.61306  0.74604  Biso   1.000  Zr
  Zr46     1.0000 0.26845  0.63264  0.99713  Biso   1.000  Zr
  Zr47     1.0000 0.24007  0.87339  0.99144  Biso   1.000  Zr
  Zr48     1.0000 0.24083  0.86112  0.74609  Biso   1.000  Zr
  Zr49     1.0000 0.62701  0.00684  0.12037  Biso   1.000  Zr
  Zr50     1.0000 0.62861  0.22996  0.39342  Biso   1.000  Zr
  Zr51     1.0000 0.81234  0.26325  0.15460  Biso   1.000  Zr
  Zr52     1.0000 0.86543  0.48569  0.38373  Biso   1.000  Zr
  Zr53     1.0000 0.52774  0.18329  0.19350  Biso   1.000  Zr
  Zr54     1.0000 0.53233  0.06607  0.45288  Biso   1.000  Zr
  Zr55     1.0000 0.94874  0.43784  0.20305  Biso   1.000  Zr
  Zr56     1.0000 0.97782  0.33404  0.47119  Biso   1.000  Zr
  Zr57     1.0000 0.73567  0.10688  0.26101  Biso   1.000  Zr
  Zr58     1.0000 0.77809  0.13818  0.50602  Biso   1.000  Zr
  Zr59     1.0000 0.73330  0.38124  0.50836  Biso   1.000  Zr
  Zr60     1.0000 0.70496  0.37813  0.26738  Biso   1.000  Zr
  Zr61     1.0000 0.64414  0.01506  0.62666  Biso   1.000  Zr
  Zr62     1.0000 0.63765  0.23393  0.87554  Biso   1.000  Zr
  Zr63     1.0000 0.87607  0.27539  0.64269  Biso   1.000  Zr
  Zr64     1.0000 0.86555  0.48305  0.87191  Biso   1.000  Zr
  Zr65     1.0000 0.54338  0.18447  0.69118  Biso   1.000  Zr
  Zr66     1.0000 0.54450  0.06382  0.93809  Biso   1.000  Zr
  Zr67     1.0000 0.95435  0.45941  0.68063  Biso   1.000  Zr
  Zr68     1.0000 0.95539  0.30387  0.85476  Biso   1.000  Zr
  Zr69     1.0000 0.77481  0.11705  0.75559  Biso   1.000  Zr
  Zr70     1.0000 0.77208  0.13334  0.00872  Biso   1.000  Zr
  Zr71     1.0000 0.73453  0.38279  0.00679  Biso   1.000  Zr
  Zr72     1.0000 0.72331  0.37347  0.75373  Biso   1.000  Zr
  Zr73     1.0000 0.63092  0.52197  0.12882  Biso   1.000  Zr
  Zr74     1.0000 0.63896  0.73938  0.37701  Biso   1.000  Zr
  Zr75     1.0000 0.86635  0.76654  0.12627  Biso   1.000  Zr
  Zr76     1.0000 0.87719  0.99844  0.36636  Biso   1.000  Zr
  Zr77     1.0000 0.53644  0.68436  0.19873  Biso   1.000  Zr
  Zr78     1.0000 0.53466  0.56903  0.44664  Biso   1.000  Zr
  Zr79     1.0000 0.96912  0.94317  0.18418  Biso   1.000  Zr
  Zr80     1.0000 0.96670  0.82035  0.43911  Biso   1.000  Zr
  Zr81     1.0000 0.76986  0.62097  0.25285  Biso   1.000  Zr
  Zr82     1.0000 0.76958  0.63584  0.50120  Biso   1.000  Zr
  Zr83     1.0000 0.73696  0.88909  0.49664  Biso   1.000  Zr
  Zr84     1.0000 0.73522  0.86681  0.24619  Biso   1.000  Zr
  Zr85     1.0000 0.63685  0.51695  0.62661  Biso   1.000  Zr
  Zr86     1.0000 0.63895  0.73444  0.87532  Biso   1.000  Zr
  Zr87     1.0000 0.87096  0.76993  0.62186  Biso   1.000  Zr
  Zr88     1.0000 0.87099  0.98216  0.87565  Biso   1.000  Zr
  Zr89     1.0000 0.53718  0.68164  0.69841  Biso   1.000  Zr
  Zr90     1.0000 0.53472  0.56933  0.94886  Biso   1.000  Zr
  Zr91     1.0000 0.96981  0.93294  0.69677  Biso   1.000  Zr
  Zr92     1.0000 0.97014  0.81185  0.94584  Biso   1.000  Zr
  Zr93     1.0000 0.77218  0.62028  0.75206  Biso   1.000  Zr
  Zr94     1.0000 0.76875  0.63381  0.00249  Biso   1.000  Zr
  Zr95     1.0000 0.73613  0.88199  0.99808  Biso   1.000  Zr
  Zr96     1.0000 0.73734  0.86652  0.74814  Biso   1.000  Zr
  Tl1      1.0000 0.06430  0.25304  0.09417  Biso   1.000  Tl
