data_image0
_cell_length_a       5.02851
_cell_length_b       10.4538
_cell_length_c       10.1152
_cell_angle_alpha    90.0579
_cell_angle_beta     89.909
_cell_angle_gamma    89.9825

_symmetry_space_group_name_H-M    "P 1"
_symmetry_int_tables_number       1

loop_
  _symmetry_equiv_pos_as_xyz
  'x, y, z'

loop_
  _atom_site_label
  _atom_site_occupancy
  _atom_site_fract_x
  _atom_site_fract_y
  _atom_site_fract_z
  _atom_site_thermal_displace_type
  _atom_site_B_iso_or_equiv
  _atom_site_type_symbol
  Tl1      1.0000 0.25605  0.01514  0.11977  Biso   1.000  Tl
  Zr1      1.0000 0.26545  0.01663  0.62705  Biso   1.000  Zr
  Zr2      1.0000 0.26862  0.51493  0.12657  Biso   1.000  Zr
  Zr3      1.0000 0.26739  0.51611  0.62611  Biso   1.000  Zr
  Zr4      1.0000 0.26969  0.23334  0.37667  Biso   1.000  Zr
  Zr5      1.0000 0.26873  0.23541  0.87278  Biso   1.000  Zr
  Zr6      1.0000 0.26826  0.73454  0.37710  Biso   1.000  Zr
  Zr7      1.0000 0.26819  0.73316  0.87638  Biso   1.000  Zr
  Zr8      1.0000 0.72505  0.26656  0.12742  Biso   1.000  Zr
  Zr9      1.0000 0.73241  0.26639  0.62436  Biso   1.000  Zr
  Zr10     1.0000 0.73291  0.76212  0.12595  Biso   1.000  Zr
  Zr11     1.0000 0.73145  0.76569  0.62557  Biso   1.000  Zr
  Zr12     1.0000 0.73067  0.48452  0.37654  Biso   1.000  Zr
  Zr13     1.0000 0.73178  0.48385  0.87613  Biso   1.000  Zr
  Zr14     1.0000 0.72755  0.98439  0.37689  Biso   1.000  Zr
  Zr15     1.0000 0.72938  0.98303  0.87279  Biso   1.000  Zr
  Zr16     1.0000 0.06975  0.19370  0.19664  Biso   1.000  Zr
  Zr17     1.0000 0.07784  0.18867  0.68720  Biso   1.000  Zr
  Zr18     1.0000 0.07391  0.68280  0.19620  Biso   1.000  Zr
  Zr19     1.0000 0.06897  0.68315  0.69583  Biso   1.000  Zr
  Zr20     1.0000 0.06947  0.06603  0.44449  Biso   1.000  Zr
  Zr21     1.0000 0.07601  0.06649  0.91746  Biso   1.000  Zr
  Zr22     1.0000 0.06959  0.56579  0.44626  Biso   1.000  Zr
  Zr23     1.0000 0.06778  0.56680  0.94672  Biso   1.000  Zr
  Zr24     1.0000 0.92755  0.43456  0.19553  Biso   1.000  Zr
  Zr25     1.0000 0.93041  0.43406  0.69597  Biso   1.000  Zr
  Zr26     1.0000 0.91001  0.93105  0.19727  Biso   1.000  Zr
  Zr27     1.0000 0.92418  0.93360  0.69035  Biso   1.000  Zr
  Zr28     1.0000 0.92841  0.31745  0.44421  Biso   1.000  Zr
  Zr29     1.0000 0.93038  0.31701  0.94508  Biso   1.000  Zr
  Zr30     1.0000 0.93055  0.81591  0.44725  Biso   1.000  Zr
  Zr31     1.0000 0.93070  0.81675  0.94464  Biso   1.000  Zr
  Zr32     1.0000 0.55101  0.12393  0.25430  Biso   1.000  Zr
  Zr33     1.0000 0.54420  0.11840  0.74674  Biso   1.000  Zr
  Zr34     1.0000 0.54000  0.61412  0.24904  Biso   1.000  Zr
  Zr35     1.0000 0.53805  0.61669  0.74946  Biso   1.000  Zr
  Zr36     1.0000 0.53747  0.13276  0.50076  Biso   1.000  Zr
  Zr37     1.0000 0.55221  0.13499  0.99378  Biso   1.000  Zr
  Zr38     1.0000 0.53807  0.63322  0.49950  Biso   1.000  Zr
  Zr39     1.0000 0.53829  0.63018  0.99899  Biso   1.000  Zr
  Zr40     1.0000 0.46092  0.38337  0.49975  Biso   1.000  Zr
  Zr41     1.0000 0.45999  0.38282  0.99928  Biso   1.000  Zr
  Zr42     1.0000 0.45804  0.88354  0.50120  Biso   1.000  Zr
  Zr43     1.0000 0.46739  0.87582  0.99788  Biso   1.000  Zr
  Zr44     1.0000 0.45768  0.36939  0.25059  Biso   1.000  Zr
  Zr45     1.0000 0.46270  0.36808  0.74872  Biso   1.000  Zr
  Zr46     1.0000 0.47529  0.85814  0.25492  Biso   1.000  Zr
  Zr47     1.0000 0.45855  0.86677  0.74907  Biso   1.000  Zr
