data_image0
_cell_length_a       10.1672
_cell_length_b       10.4799
_cell_length_c       5.31273
_cell_angle_alpha    90.3697
_cell_angle_beta     91.9589
_cell_angle_gamma    89.6854

_symmetry_space_group_name_H-M    "P 1"
_symmetry_int_tables_number       1

loop_
  _symmetry_equiv_pos_as_xyz
  'x, y, z'

loop_
  _atom_site_label
  _atom_site_occupancy
  _atom_site_fract_x
  _atom_site_fract_y
  _atom_site_fract_z
  _atom_site_thermal_displace_type
  _atom_site_B_iso_or_equiv
  _atom_site_type_symbol
  Zr1      1.0000 0.13693  0.01726  0.35188  Biso   1.000  Zr
  Zr2      1.0000 0.13816  0.22681  0.86394  Biso   1.000  Zr
  Zr3      1.0000 0.33981  0.26282  0.39125  Biso   1.000  Zr
  Zr4      1.0000 0.36333  0.48861  0.84868  Biso   1.000  Zr
  Zr5      1.0000 0.64170  0.01080  0.15480  Biso   1.000  Zr
  Zr6      1.0000 0.65134  0.22154  0.62519  Biso   1.000  Zr
  Zr7      1.0000 0.86268  0.27261  0.14634  Biso   1.000  Zr
  Zr8      1.0000 0.86737  0.48102  0.65362  Biso   1.000  Zr
  O1       1.0000 0.03334  0.16505  0.17433  Biso   1.000  O
  O2       1.0000 0.03499  0.08276  0.67142  Biso   1.000  O
  O3       1.0000 0.46152  0.46114  0.19065  Biso   1.000  O
  O4       1.0000 0.47348  0.33940  0.64491  Biso   1.000  O
  O5       1.0000 0.27049  0.12243  0.61546  Biso   1.000  O
  O6       1.0000 0.27251  0.11744  0.11166  Biso   1.000  O
  O7       1.0000 0.22069  0.37665  0.61826  Biso   1.000  O
  O8       1.0000 0.22555  0.37269  0.11555  Biso   1.000  O
  O9       1.0000 0.52050  0.12789  0.39780  Biso   1.000  O
  O10      1.0000 0.53448  0.06287  0.83718  Biso   1.000  O
  O11      1.0000 0.96916  0.41428  0.33592  Biso   1.000  O
  O12      1.0000 0.97211  0.33412  0.83568  Biso   1.000  O
  O13      1.0000 0.78546  0.12335  0.88526  Biso   1.000  O
  O14      1.0000 0.78188  0.12191  0.38923  Biso   1.000  O
  O15      1.0000 0.74095  0.39174  0.90104  Biso   1.000  O
  O16      1.0000 0.72706  0.37434  0.40249  Biso   1.000  O
  Zr9      1.0000 0.13930  0.52006  0.34295  Biso   1.000  Zr
  Zr10     1.0000 0.13931  0.72970  0.84298  Biso   1.000  Zr
  Zr11     1.0000 0.36245  0.76998  0.34907  Biso   1.000  Zr
  Zr12     1.0000 0.36215  0.97210  0.85818  Biso   1.000  Zr
  Zr13     1.0000 0.64494  0.53591  0.15023  Biso   1.000  Zr
  Zr14     1.0000 0.64226  0.73303  0.65381  Biso   1.000  Zr
  Zr15     1.0000 0.86660  0.77035  0.15891  Biso   1.000  Zr
  Zr16     1.0000 0.86608  0.97817  0.66015  Biso   1.000  Zr
  O17      1.0000 0.03481  0.66311  0.16510  Biso   1.000  O
  O18      1.0000 0.03642  0.58541  0.66600  Biso   1.000  O
  O19      1.0000 0.46940  0.90777  0.17221  Biso   1.000  O
  O20      1.0000 0.46668  0.82830  0.67461  Biso   1.000  O
  O21      1.0000 0.27649  0.62465  0.58781  Biso   1.000  O
  O22      1.0000 0.27272  0.62616  0.08574  Biso   1.000  O
  O23      1.0000 0.22558  0.87303  0.59827  Biso   1.000  O
  O24      1.0000 0.22463  0.87188  0.10103  Biso   1.000  O
  O25      1.0000 0.54206  0.68033  0.32316  Biso   1.000  O
  O26      1.0000 0.53712  0.58581  0.81715  Biso   1.000  O
  O27      1.0000 0.97012  0.91386  0.33623  Biso   1.000  O
  O28      1.0000 0.97021  0.83504  0.83927  Biso   1.000  O
  O29      1.0000 0.77913  0.63256  0.90362  Biso   1.000  O
  O30      1.0000 0.78114  0.62655  0.40676  Biso   1.000  O
  O31      1.0000 0.73040  0.87531  0.91416  Biso   1.000  O
  O32      1.0000 0.73108  0.87312  0.41382  Biso   1.000  O
  Tl1      1.0000 0.54214  0.26846  0.06678  Biso   1.000  Tl
