data_image0
_cell_length_a       10.1039
_cell_length_b       10.2653
_cell_length_c       5.07299
_cell_angle_alpha    90.0026
_cell_angle_beta     89.5137
_cell_angle_gamma    89.9998

_symmetry_space_group_name_H-M    "P 1"
_symmetry_int_tables_number       1

loop_
  _symmetry_equiv_pos_as_xyz
  'x, y, z'

loop_
  _atom_site_label
  _atom_site_occupancy
  _atom_site_fract_x
  _atom_site_fract_y
  _atom_site_fract_z
  _atom_site_thermal_displace_type
  _atom_site_B_iso_or_equiv
  _atom_site_type_symbol
  Zr1      1.0000 0.12533  0.97678  0.25095  Biso   1.000  Zr
  Zr2      1.0000 0.12531  0.25903  0.75083  Biso   1.000  Zr
  Zr3      1.0000 0.38680  0.25191  0.26310  Biso   1.000  Zr
  Zr4      1.0000 0.36951  0.00604  0.76017  Biso   1.000  Zr
  Zr5      1.0000 0.99794  0.14515  0.99349  Biso   1.000  Zr
  Zr6      1.0000 0.00490  0.10794  0.48285  Biso   1.000  Zr
  Zr7      1.0000 0.00671  0.35166  0.46605  Biso   1.000  Zr
  Zr8      1.0000 0.99835  0.39935  0.98165  Biso   1.000  Zr
  Zr9      1.0000 0.25257  0.14508  0.50806  Biso   1.000  Zr
  Zr10     1.0000 0.24562  0.10793  0.01873  Biso   1.000  Zr
  Zr11     1.0000 0.24389  0.35164  0.03569  Biso   1.000  Zr
  Zr12     1.0000 0.25228  0.39933  0.52009  Biso   1.000  Zr
  Zr13     1.0000 0.12530  0.50474  0.25089  Biso   1.000  Zr
  Zr14     1.0000 0.12530  0.74487  0.75092  Biso   1.000  Zr
  Zr15     1.0000 0.37794  0.75069  0.25255  Biso   1.000  Zr
  Zr16     1.0000 0.37942  0.50065  0.75253  Biso   1.000  Zr
  Zr17     1.0000 0.00502  0.64578  0.01813  Biso   1.000  Zr
  Zr18     1.0000 0.99840  0.60448  0.51447  Biso   1.000  Zr
  Zr19     1.0000 0.00044  0.85168  0.50001  Biso   1.000  Zr
  Zr20     1.0000 0.99541  0.89033  0.99154  Biso   1.000  Zr
  Zr21     1.0000 0.24560  0.64575  0.48373  Biso   1.000  Zr
  Zr22     1.0000 0.25221  0.60446  0.98736  Biso   1.000  Zr
  Zr23     1.0000 0.25017  0.85165  0.00187  Biso   1.000  Zr
  Zr24     1.0000 0.25519  0.89029  0.51035  Biso   1.000  Zr
  Zr25     1.0000 0.62530  0.99812  0.25093  Biso   1.000  Zr
  Zr26     1.0000 0.62528  0.24690  0.75093  Biso   1.000  Zr
  Zr27     1.0000 0.86377  0.25190  0.23871  Biso   1.000  Zr
  Zr28     1.0000 0.88111  0.00607  0.74166  Biso   1.000  Zr
  Zr29     1.0000 0.50104  0.14528  0.99979  Biso   1.000  Zr
  Zr30     1.0000 0.50115  0.10446  0.50454  Biso   1.000  Zr
  Zr31     1.0000 0.50642  0.35913  0.51295  Biso   1.000  Zr
  Zr32     1.0000 0.49592  0.39780  0.01326  Biso   1.000  Zr
  Zr33     1.0000 0.74952  0.14529  0.50204  Biso   1.000  Zr
  Zr34     1.0000 0.74940  0.10445  0.99729  Biso   1.000  Zr
  Zr35     1.0000 0.74418  0.35914  0.98881  Biso   1.000  Zr
  Zr36     1.0000 0.75468  0.39781  0.48851  Biso   1.000  Zr
  Zr37     1.0000 0.62531  0.50386  0.25089  Biso   1.000  Zr
  Zr38     1.0000 0.62531  0.75582  0.75091  Biso   1.000  Zr
  Zr39     1.0000 0.87267  0.75071  0.24929  Biso   1.000  Zr
  Zr40     1.0000 0.87119  0.50064  0.74926  Biso   1.000  Zr
  Zr41     1.0000 0.50536  0.64784  0.00383  Biso   1.000  Zr
  Zr42     1.0000 0.49635  0.60678  0.50063  Biso   1.000  Zr
  Zr43     1.0000 0.50497  0.85501  0.49260  Biso   1.000  Zr
  Zr44     1.0000 0.49753  0.89874  0.99662  Biso   1.000  Zr
  Zr45     1.0000 0.74525  0.64785  0.49797  Biso   1.000  Zr
  Zr46     1.0000 0.75426  0.60679  0.00117  Biso   1.000  Zr
  Zr47     1.0000 0.74562  0.85501  0.00927  Biso   1.000  Zr
  Zr48     1.0000 0.75306  0.89875  0.50524  Biso   1.000  Zr
  V1       1.0000 0.12527  0.22240  0.25080  Biso   1.000  V 
