data_image0
_cell_length_a       10.0562
_cell_length_b       10.1958
_cell_length_c       10.0562
_cell_angle_alpha    90.0068
_cell_angle_beta     89.9948
_cell_angle_gamma    90.0034

_symmetry_space_group_name_H-M    "P 1"
_symmetry_int_tables_number       1

loop_
  _symmetry_equiv_pos_as_xyz
  'x, y, z'

loop_
  _atom_site_label
  _atom_site_occupancy
  _atom_site_fract_x
  _atom_site_fract_y
  _atom_site_fract_z
  _atom_site_thermal_displace_type
  _atom_site_B_iso_or_equiv
  _atom_site_type_symbol
  V1       1.0000 0.12503  0.99964  0.12502  Biso   1.000  V 
  Zr1      1.0000 0.12500  0.99975  0.62499  Biso   1.000  Zr
  Zr2      1.0000 0.12500  0.49980  0.12500  Biso   1.000  Zr
  Zr3      1.0000 0.12499  0.49977  0.62499  Biso   1.000  Zr
  Zr4      1.0000 0.62501  0.99975  0.12500  Biso   1.000  Zr
  Zr5      1.0000 0.62500  0.99979  0.62500  Biso   1.000  Zr
  Zr6      1.0000 0.62499  0.49977  0.12498  Biso   1.000  Zr
  Zr7      1.0000 0.62500  0.49977  0.62499  Biso   1.000  Zr
  Zr8      1.0000 0.12793  0.25082  0.37499  Biso   1.000  Zr
  Zr9      1.0000 0.12202  0.25084  0.87495  Biso   1.000  Zr
  Zr10     1.0000 0.12205  0.74873  0.37504  Biso   1.000  Zr
  Zr11     1.0000 0.12792  0.74876  0.87495  Biso   1.000  Zr
  Zr12     1.0000 0.62672  0.24844  0.37467  Biso   1.000  Zr
  Zr13     1.0000 0.62324  0.24844  0.87529  Biso   1.000  Zr
  Zr14     1.0000 0.62327  0.75110  0.37470  Biso   1.000  Zr
  Zr15     1.0000 0.62670  0.75111  0.87528  Biso   1.000  Zr
  Zr16     1.0000 0.37499  0.25082  0.12793  Biso   1.000  Zr
  Zr17     1.0000 0.37467  0.24845  0.62672  Biso   1.000  Zr
  Zr18     1.0000 0.37503  0.74874  0.12206  Biso   1.000  Zr
  Zr19     1.0000 0.37469  0.75110  0.62328  Biso   1.000  Zr
  Zr20     1.0000 0.87494  0.25083  0.12203  Biso   1.000  Zr
  Zr21     1.0000 0.87528  0.24845  0.62324  Biso   1.000  Zr
  Zr22     1.0000 0.87494  0.74875  0.12793  Biso   1.000  Zr
  Zr23     1.0000 0.87527  0.75111  0.62670  Biso   1.000  Zr
  Zr24     1.0000 0.37343  0.00214  0.37342  Biso   1.000  Zr
  Zr25     1.0000 0.37337  0.99743  0.87663  Biso   1.000  Zr
  Zr26     1.0000 0.37633  0.50088  0.37632  Biso   1.000  Zr
  Zr27     1.0000 0.37631  0.49865  0.87368  Biso   1.000  Zr
  Zr28     1.0000 0.87663  0.99743  0.37336  Biso   1.000  Zr
  Zr29     1.0000 0.87657  0.00215  0.87657  Biso   1.000  Zr
  Zr30     1.0000 0.87368  0.49864  0.37630  Biso   1.000  Zr
  Zr31     1.0000 0.87367  0.50090  0.87367  Biso   1.000  Zr
  Zr32     1.0000 0.98313  0.15176  0.98313  Biso   1.000  Zr
  Zr33     1.0000 0.99281  0.14392  0.48574  Biso   1.000  Zr
  Zr34     1.0000 0.99798  0.64989  0.99798  Biso   1.000  Zr
  Zr35     1.0000 0.99665  0.64387  0.49814  Biso   1.000  Zr
  Zr36     1.0000 0.48574  0.14393  0.99281  Biso   1.000  Zr
  Zr37     1.0000 0.49390  0.14475  0.49390  Biso   1.000  Zr
  Zr38     1.0000 0.49813  0.64388  0.99665  Biso   1.000  Zr
  Zr39     1.0000 0.49689  0.64441  0.49689  Biso   1.000  Zr
  Zr40     1.0000 0.01594  0.09447  0.23401  Biso   1.000  Zr
  Zr41     1.0000 0.00243  0.10651  0.74040  Biso   1.000  Zr
  Zr42     1.0000 0.00121  0.60102  0.24877  Biso   1.000  Zr
  Zr43     1.0000 0.00205  0.60567  0.74839  Biso   1.000  Zr
  Zr44     1.0000 0.50954  0.10650  0.24754  Biso   1.000  Zr
  Zr45     1.0000 0.50337  0.10515  0.74659  Biso   1.000  Zr
  Zr46     1.0000 0.50160  0.60565  0.24794  Biso   1.000  Zr
  Zr47     1.0000 0.50208  0.60560  0.74791  Biso   1.000  Zr
  Zr48     1.0000 0.99796  0.34969  0.25201  Biso   1.000  Zr
  Zr49     1.0000 0.99663  0.35569  0.75184  Biso   1.000  Zr
  Zr50     1.0000 0.98333  0.84790  0.26667  Biso   1.000  Zr
  Zr51     1.0000 0.99280  0.85564  0.76417  Biso   1.000  Zr
  Zr52     1.0000 0.49812  0.35567  0.25334  Biso   1.000  Zr
  Zr53     1.0000 0.49687  0.35513  0.75310  Biso   1.000  Zr
  Zr54     1.0000 0.48584  0.85562  0.25718  Biso   1.000  Zr
  Zr55     1.0000 0.49387  0.85480  0.75611  Biso   1.000  Zr
  Zr56     1.0000 0.00121  0.39858  0.00122  Biso   1.000  Zr
  Zr57     1.0000 0.00205  0.39390  0.50159  Biso   1.000  Zr
  Zr58     1.0000 0.01586  0.90513  0.01586  Biso   1.000  Zr
  Zr59     1.0000 0.00246  0.89305  0.50949  Biso   1.000  Zr
  Zr60     1.0000 0.50159  0.39390  0.00205  Biso   1.000  Zr
  Zr61     1.0000 0.50208  0.39395  0.50208  Biso   1.000  Zr
  Zr62     1.0000 0.50949  0.89305  0.00247  Biso   1.000  Zr
  Zr63     1.0000 0.50340  0.89440  0.50341  Biso   1.000  Zr
  Zr64     1.0000 0.26678  0.15168  0.26678  Biso   1.000  Zr
  Zr65     1.0000 0.25716  0.14392  0.76421  Biso   1.000  Zr
  Zr66     1.0000 0.25201  0.64986  0.25201  Biso   1.000  Zr
  Zr67     1.0000 0.25335  0.64387  0.75186  Biso   1.000  Zr
  Zr68     1.0000 0.76421  0.14391  0.25716  Biso   1.000  Zr
  Zr69     1.0000 0.75606  0.14475  0.75606  Biso   1.000  Zr
  Zr70     1.0000 0.75186  0.64387  0.25335  Biso   1.000  Zr
  Zr71     1.0000 0.75311  0.64441  0.75311  Biso   1.000  Zr
  Zr72     1.0000 0.23401  0.09447  0.01593  Biso   1.000  Zr
  Zr73     1.0000 0.24753  0.10651  0.50954  Biso   1.000  Zr
  Zr74     1.0000 0.24877  0.60103  0.00122  Biso   1.000  Zr
  Zr75     1.0000 0.24794  0.60566  0.50160  Biso   1.000  Zr
  Zr76     1.0000 0.74040  0.10652  0.00243  Biso   1.000  Zr
  Zr77     1.0000 0.74659  0.10515  0.50337  Biso   1.000  Zr
  Zr78     1.0000 0.74838  0.60567  0.00205  Biso   1.000  Zr
  Zr79     1.0000 0.74791  0.60560  0.50209  Biso   1.000  Zr
  Zr80     1.0000 0.25200  0.34969  0.99796  Biso   1.000  Zr
  Zr81     1.0000 0.25334  0.35567  0.49813  Biso   1.000  Zr
  Zr82     1.0000 0.26667  0.84790  0.98333  Biso   1.000  Zr
  Zr83     1.0000 0.25718  0.85563  0.48583  Biso   1.000  Zr
  Zr84     1.0000 0.75183  0.35569  0.99663  Biso   1.000  Zr
  Zr85     1.0000 0.75311  0.35513  0.49686  Biso   1.000  Zr
  Zr86     1.0000 0.76417  0.85564  0.99280  Biso   1.000  Zr
  Zr87     1.0000 0.75611  0.85480  0.49387  Biso   1.000  Zr
  Zr88     1.0000 0.24875  0.39854  0.24876  Biso   1.000  Zr
  Zr89     1.0000 0.24792  0.39390  0.74837  Biso   1.000  Zr
  Zr90     1.0000 0.23415  0.90507  0.23415  Biso   1.000  Zr
  Zr91     1.0000 0.24751  0.89304  0.74051  Biso   1.000  Zr
  Zr92     1.0000 0.74837  0.39389  0.24792  Biso   1.000  Zr
  Zr93     1.0000 0.74790  0.39395  0.74789  Biso   1.000  Zr
  Zr94     1.0000 0.74051  0.89303  0.24751  Biso   1.000  Zr
  Zr95     1.0000 0.74657  0.89440  0.74657  Biso   1.000  Zr
