data_image0
_cell_length_a       5.07482
_cell_length_b       10.4252
_cell_length_c       10.1584
_cell_angle_alpha    90.4635
_cell_angle_beta     89.6756
_cell_angle_gamma    89.3437

_symmetry_space_group_name_H-M    "P 1"
_symmetry_int_tables_number       1

loop_
  _symmetry_equiv_pos_as_xyz
  'x, y, z'

loop_
  _atom_site_label
  _atom_site_occupancy
  _atom_site_fract_x
  _atom_site_fract_y
  _atom_site_fract_z
  _atom_site_thermal_displace_type
  _atom_site_B_iso_or_equiv
  _atom_site_type_symbol
  Zr1      1.0000 0.25205  0.00304  0.12672  Biso   1.000  Zr
  Zr2      1.0000 0.26253  0.23278  0.38411  Biso   1.000  Zr
  Zr3      1.0000 0.79104  0.25115  0.09341  Biso   1.000  Zr
  Zr4      1.0000 0.73698  0.47922  0.37690  Biso   1.000  Zr
  Zr5      1.0000 0.03209  0.15615  0.22482  Biso   1.000  Zr
  Zr6      1.0000 0.06250  0.06613  0.45683  Biso   1.000  Zr
  Zr7      1.0000 0.02579  0.39651  0.18926  Biso   1.000  Zr
  Zr8      1.0000 0.93372  0.32190  0.45574  Biso   1.000  Zr
  Zr9      1.0000 0.50947  0.11832  0.24190  Biso   1.000  Zr
  Zr10     1.0000 0.54326  0.13399  0.50027  Biso   1.000  Zr
  Zr11     1.0000 0.46412  0.38669  0.49848  Biso   1.000  Zr
  Zr12     1.0000 0.52443  0.36856  0.24316  Biso   1.000  Zr
  Zr13     1.0000 0.26021  0.01446  0.62510  Biso   1.000  Zr
  Zr14     1.0000 0.25951  0.23954  0.86436  Biso   1.000  Zr
  Zr15     1.0000 0.72858  0.26872  0.62683  Biso   1.000  Zr
  Zr16     1.0000 0.73180  0.49195  0.86720  Biso   1.000  Zr
  Zr17     1.0000 0.05823  0.18003  0.69484  Biso   1.000  Zr
  Zr18     1.0000 0.00692  0.08487  0.97005  Biso   1.000  Zr
  Zr19     1.0000 0.92107  0.44087  0.68741  Biso   1.000  Zr
  Zr20     1.0000 0.90278  0.32054  0.90971  Biso   1.000  Zr
  Zr21     1.0000 0.52869  0.11790  0.74964  Biso   1.000  Zr
  Zr22     1.0000 0.48672  0.13478  0.00082  Biso   1.000  Zr
  Zr23     1.0000 0.45448  0.37937  0.99882  Biso   1.000  Zr
  Zr24     1.0000 0.45168  0.37341  0.74535  Biso   1.000  Zr
  Zr25     1.0000 0.29679  0.52444  0.12426  Biso   1.000  Zr
  Zr26     1.0000 0.26726  0.73641  0.37553  Biso   1.000  Zr
  Zr27     1.0000 0.73783  0.76427  0.12556  Biso   1.000  Zr
  Zr28     1.0000 0.73322  0.99049  0.37313  Biso   1.000  Zr
  Zr29     1.0000 0.07310  0.67695  0.19804  Biso   1.000  Zr
  Zr30     1.0000 0.07082  0.56938  0.44141  Biso   1.000  Zr
  Zr31     1.0000 0.92706  0.92008  0.20516  Biso   1.000  Zr
  Zr32     1.0000 0.93903  0.82240  0.45222  Biso   1.000  Zr
  Zr33     1.0000 0.56196  0.61859  0.24728  Biso   1.000  Zr
  Zr34     1.0000 0.53724  0.63466  0.49576  Biso   1.000  Zr
  Zr35     1.0000 0.46848  0.88649  0.49647  Biso   1.000  Zr
  Zr36     1.0000 0.46120  0.86369  0.24801  Biso   1.000  Zr
  Zr37     1.0000 0.26094  0.51848  0.62098  Biso   1.000  Zr
  Zr38     1.0000 0.26151  0.73537  0.87261  Biso   1.000  Zr
  Zr39     1.0000 0.72972  0.76858  0.62281  Biso   1.000  Zr
  Zr40     1.0000 0.71922  0.98556  0.87638  Biso   1.000  Zr
  Zr41     1.0000 0.05906  0.68447  0.69808  Biso   1.000  Zr
  Zr42     1.0000 0.06739  0.56943  0.94678  Biso   1.000  Zr
  Zr43     1.0000 0.93230  0.93230  0.70671  Biso   1.000  Zr
  Zr44     1.0000 0.94163  0.82578  0.95332  Biso   1.000  Zr
  Zr45     1.0000 0.52878  0.62041  0.74358  Biso   1.000  Zr
  Zr46     1.0000 0.54092  0.63583  0.99337  Biso   1.000  Zr
  Zr47     1.0000 0.46270  0.88026  0.99618  Biso   1.000  Zr
  Zr48     1.0000 0.45814  0.86728  0.74714  Biso   1.000  Zr
  V1       1.0000 0.30297  0.25663  0.13526  Biso   1.000  V 
