data_image0
_cell_length_a       10.0207
_cell_length_b       10.4116
_cell_length_c       10.0558
_cell_angle_alpha    89.9065
_cell_angle_beta     89.9171
_cell_angle_gamma    89.9823

_symmetry_space_group_name_H-M    "P 1"
_symmetry_int_tables_number       1

loop_
  _symmetry_equiv_pos_as_xyz
  'x, y, z'

loop_
  _atom_site_label
  _atom_site_occupancy
  _atom_site_fract_x
  _atom_site_fract_y
  _atom_site_fract_z
  _atom_site_thermal_displace_type
  _atom_site_B_iso_or_equiv
  _atom_site_type_symbol
  W1       1.0000 0.13673  0.02027  0.12426  Biso   1.000  W 
  Zr1      1.0000 0.13321  0.23327  0.37483  Biso   1.000  Zr
  Zr2      1.0000 0.36733  0.26701  0.12525  Biso   1.000  Zr
  Zr3      1.0000 0.36637  0.48484  0.37593  Biso   1.000  Zr
  Zr4      1.0000 0.03799  0.17855  0.19432  Biso   1.000  Zr
  Zr5      1.0000 0.03350  0.06836  0.45031  Biso   1.000  Zr
  Zr6      1.0000 0.46440  0.43434  0.19378  Biso   1.000  Zr
  Zr7      1.0000 0.46452  0.31685  0.44405  Biso   1.000  Zr
  Zr8      1.0000 0.26805  0.11642  0.24468  Biso   1.000  Zr
  Zr9      1.0000 0.26975  0.13294  0.49761  Biso   1.000  Zr
  Zr10     1.0000 0.23028  0.38278  0.49909  Biso   1.000  Zr
  Zr11     1.0000 0.23143  0.36756  0.24948  Biso   1.000  Zr
  Zr12     1.0000 0.13430  0.01575  0.62664  Biso   1.000  Zr
  Zr13     1.0000 0.13419  0.23417  0.87754  Biso   1.000  Zr
  Zr14     1.0000 0.36604  0.26589  0.62550  Biso   1.000  Zr
  Zr15     1.0000 0.36581  0.48477  0.87523  Biso   1.000  Zr
  Zr16     1.0000 0.03282  0.18053  0.70228  Biso   1.000  Zr
  Zr17     1.0000 0.03599  0.06425  0.95979  Biso   1.000  Zr
  Zr18     1.0000 0.46365  0.43418  0.69359  Biso   1.000  Zr
  Zr19     1.0000 0.46290  0.31517  0.94331  Biso   1.000  Zr
  Zr20     1.0000 0.26994  0.11756  0.74944  Biso   1.000  Zr
  Zr21     1.0000 0.26910  0.12907  0.00071  Biso   1.000  Zr
  Zr22     1.0000 0.23016  0.38225  0.99944  Biso   1.000  Zr
  Zr23     1.0000 0.22959  0.36651  0.74964  Biso   1.000  Zr
  Zr24     1.0000 0.13457  0.51590  0.12642  Biso   1.000  Zr
  Zr25     1.0000 0.13394  0.73540  0.37513  Biso   1.000  Zr
  Zr26     1.0000 0.36425  0.76798  0.12612  Biso   1.000  Zr
  Zr27     1.0000 0.36590  0.98445  0.37460  Biso   1.000  Zr
  Zr28     1.0000 0.03612  0.68255  0.19402  Biso   1.000  Zr
  Zr29     1.0000 0.03572  0.56665  0.44361  Biso   1.000  Zr
  Zr30     1.0000 0.46512  0.93339  0.19512  Biso   1.000  Zr
  Zr31     1.0000 0.46420  0.81658  0.44324  Biso   1.000  Zr
  Zr32     1.0000 0.27052  0.61942  0.24935  Biso   1.000  Zr
  Zr33     1.0000 0.26963  0.63313  0.49886  Biso   1.000  Zr
  Zr34     1.0000 0.23058  0.88332  0.49865  Biso   1.000  Zr
  Zr35     1.0000 0.22497  0.87281  0.24655  Biso   1.000  Zr
  Zr36     1.0000 0.13343  0.51545  0.62512  Biso   1.000  Zr
  Zr37     1.0000 0.13301  0.73353  0.87529  Biso   1.000  Zr
  Zr38     1.0000 0.36634  0.76576  0.62515  Biso   1.000  Zr
  Zr39     1.0000 0.36478  0.98324  0.87672  Biso   1.000  Zr
  Zr40     1.0000 0.03508  0.68300  0.69383  Biso   1.000  Zr
  Zr41     1.0000 0.03535  0.56512  0.94523  Biso   1.000  Zr
  Zr42     1.0000 0.46381  0.93398  0.69468  Biso   1.000  Zr
  Zr43     1.0000 0.46166  0.81597  0.94477  Biso   1.000  Zr
  Zr44     1.0000 0.26919  0.61676  0.74870  Biso   1.000  Zr
  Zr45     1.0000 0.26974  0.63306  0.99914  Biso   1.000  Zr
  Zr46     1.0000 0.22199  0.88397  0.00096  Biso   1.000  Zr
  Zr47     1.0000 0.23070  0.86646  0.74934  Biso   1.000  Zr
  Zr48     1.0000 0.63440  0.01586  0.12486  Biso   1.000  Zr
  Zr49     1.0000 0.63413  0.23435  0.37575  Biso   1.000  Zr
  Zr50     1.0000 0.86630  0.26470  0.12544  Biso   1.000  Zr
  Zr51     1.0000 0.86622  0.48426  0.37548  Biso   1.000  Zr
  Zr52     1.0000 0.53566  0.18371  0.19458  Biso   1.000  Zr
  Zr53     1.0000 0.53496  0.06656  0.44392  Biso   1.000  Zr
  Zr54     1.0000 0.96638  0.43054  0.19557  Biso   1.000  Zr
  Zr55     1.0000 0.96498  0.31635  0.44573  Biso   1.000  Zr
  Zr56     1.0000 0.77018  0.11738  0.24843  Biso   1.000  Zr
  Zr57     1.0000 0.76964  0.13286  0.49837  Biso   1.000  Zr
  Zr58     1.0000 0.73053  0.38297  0.49917  Biso   1.000  Zr
  Zr59     1.0000 0.73066  0.36735  0.24897  Biso   1.000  Zr
  Zr60     1.0000 0.63354  0.01518  0.62471  Biso   1.000  Zr
  Zr61     1.0000 0.63348  0.23358  0.87501  Biso   1.000  Zr
  Zr62     1.0000 0.86616  0.26465  0.62588  Biso   1.000  Zr
  Zr63     1.0000 0.86581  0.48398  0.87550  Biso   1.000  Zr
  Zr64     1.0000 0.53592  0.18411  0.69336  Biso   1.000  Zr
  Zr65     1.0000 0.53480  0.06586  0.94438  Biso   1.000  Zr
  Zr66     1.0000 0.96426  0.43276  0.69450  Biso   1.000  Zr
  Zr67     1.0000 0.96426  0.31522  0.94493  Biso   1.000  Zr
  Zr68     1.0000 0.76863  0.11612  0.74869  Biso   1.000  Zr
  Zr69     1.0000 0.76968  0.13273  0.99821  Biso   1.000  Zr
  Zr70     1.0000 0.73018  0.38218  0.99930  Biso   1.000  Zr
  Zr71     1.0000 0.73025  0.36657  0.74887  Biso   1.000  Zr
  Zr72     1.0000 0.63453  0.51663  0.12562  Biso   1.000  Zr
  Zr73     1.0000 0.63486  0.73524  0.37377  Biso   1.000  Zr
  Zr74     1.0000 0.86905  0.76696  0.12323  Biso   1.000  Zr
  Zr75     1.0000 0.86917  0.98498  0.37363  Biso   1.000  Zr
  Zr76     1.0000 0.53557  0.68490  0.19301  Biso   1.000  Zr
  Zr77     1.0000 0.53624  0.56713  0.44360  Biso   1.000  Zr
  Zr78     1.0000 0.97402  0.93407  0.19095  Biso   1.000  Zr
  Zr79     1.0000 0.96531  0.81710  0.44482  Biso   1.000  Zr
  Zr80     1.0000 0.77039  0.61734  0.24859  Biso   1.000  Zr
  Zr81     1.0000 0.76970  0.63342  0.49861  Biso   1.000  Zr
  Zr82     1.0000 0.73079  0.88360  0.49688  Biso   1.000  Zr
  Zr83     1.0000 0.73467  0.86812  0.24681  Biso   1.000  Zr
  Zr84     1.0000 0.63385  0.51596  0.62519  Biso   1.000  Zr
  Zr85     1.0000 0.63337  0.73433  0.87559  Biso   1.000  Zr
  Zr86     1.0000 0.86589  0.76597  0.62535  Biso   1.000  Zr
  Zr87     1.0000 0.86731  0.98427  0.87521  Biso   1.000  Zr
  Zr88     1.0000 0.53552  0.68404  0.69440  Biso   1.000  Zr
  Zr89     1.0000 0.53602  0.56550  0.94330  Biso   1.000  Zr
  Zr90     1.0000 0.96510  0.93301  0.69563  Biso   1.000  Zr
  Zr91     1.0000 0.96138  0.81438  0.94057  Biso   1.000  Zr
  Zr92     1.0000 0.76920  0.61692  0.74897  Biso   1.000  Zr
  Zr93     1.0000 0.76953  0.63280  0.99886  Biso   1.000  Zr
  Zr94     1.0000 0.72948  0.88347  0.99713  Biso   1.000  Zr
  Zr95     1.0000 0.72995  0.86709  0.74811  Biso   1.000  Zr
