data_image0
_cell_length_a       10.0528
_cell_length_b       5.07534
_cell_length_c       10.0529
_cell_angle_alpha    90
_cell_angle_beta     90
_cell_angle_gamma    90

_symmetry_space_group_name_H-M    "P 1"
_symmetry_int_tables_number       1

loop_
  _symmetry_equiv_pos_as_xyz
  'x, y, z'

loop_
  _atom_site_label
  _atom_site_occupancy
  _atom_site_fract_x
  _atom_site_fract_y
  _atom_site_fract_z
  _atom_site_thermal_displace_type
  _atom_site_B_iso_or_equiv
  _atom_site_type_symbol
  W1       1.0000 0.12540  0.00015  0.12540  Biso   1.000  W 
  Zr1      1.0000 0.12540  0.50015  0.37435  Biso   1.000  Zr
  Zr2      1.0000 0.37435  0.50015  0.12540  Biso   1.000  Zr
  Zr3      1.0000 0.37516  0.00014  0.37516  Biso   1.000  Zr
  Zr4      1.0000 0.99645  0.28347  0.99644  Biso   1.000  Zr
  Zr5      1.0000 0.00734  0.20860  0.24342  Biso   1.000  Zr
  Zr6      1.0000 0.99645  0.71684  0.25436  Biso   1.000  Zr
  Zr7      1.0000 0.00734  0.79170  0.00737  Biso   1.000  Zr
  Zr8      1.0000 0.25434  0.28347  0.25436  Biso   1.000  Zr
  Zr9      1.0000 0.24345  0.20860  0.00737  Biso   1.000  Zr
  Zr10     1.0000 0.25434  0.71684  0.99644  Biso   1.000  Zr
  Zr11     1.0000 0.24345  0.79170  0.24342  Biso   1.000  Zr
  Zr12     1.0000 0.12540  0.00015  0.62540  Biso   1.000  Zr
  Zr13     1.0000 0.12540  0.50015  0.87644  Biso   1.000  Zr
  Zr14     1.0000 0.37572  0.50015  0.62540  Biso   1.000  Zr
  Zr15     1.0000 0.37516  0.00017  0.87563  Biso   1.000  Zr
  Zr16     1.0000 0.99439  0.28838  0.49272  Biso   1.000  Zr
  Zr17     1.0000 0.00361  0.21400  0.74629  Biso   1.000  Zr
  Zr18     1.0000 0.99439  0.71192  0.75808  Biso   1.000  Zr
  Zr19     1.0000 0.00361  0.78630  0.50451  Biso   1.000  Zr
  Zr20     1.0000 0.25640  0.28838  0.75808  Biso   1.000  Zr
  Zr21     1.0000 0.24719  0.21400  0.50451  Biso   1.000  Zr
  Zr22     1.0000 0.25640  0.71192  0.49272  Biso   1.000  Zr
  Zr23     1.0000 0.24719  0.78630  0.74629  Biso   1.000  Zr
  Zr24     1.0000 0.62540  0.00015  0.12540  Biso   1.000  Zr
  Zr25     1.0000 0.62540  0.50015  0.37572  Biso   1.000  Zr
  Zr26     1.0000 0.87644  0.50015  0.12540  Biso   1.000  Zr
  Zr27     1.0000 0.87563  0.00017  0.37516  Biso   1.000  Zr
  Zr28     1.0000 0.49273  0.28838  0.99438  Biso   1.000  Zr
  Zr29     1.0000 0.50448  0.21400  0.24716  Biso   1.000  Zr
  Zr30     1.0000 0.49273  0.71192  0.25642  Biso   1.000  Zr
  Zr31     1.0000 0.50448  0.78630  0.00363  Biso   1.000  Zr
  Zr32     1.0000 0.75806  0.28838  0.25641  Biso   1.000  Zr
  Zr33     1.0000 0.74631  0.21400  0.00363  Biso   1.000  Zr
  Zr34     1.0000 0.75806  0.71192  0.99438  Biso   1.000  Zr
  Zr35     1.0000 0.74631  0.78630  0.24716  Biso   1.000  Zr
  Zr36     1.0000 0.62540  0.00015  0.62540  Biso   1.000  Zr
  Zr37     1.0000 0.62540  0.50015  0.87507  Biso   1.000  Zr
  Zr38     1.0000 0.87507  0.50015  0.62540  Biso   1.000  Zr
  Zr39     1.0000 0.87563  0.00014  0.87563  Biso   1.000  Zr
  Zr40     1.0000 0.49506  0.28677  0.49504  Biso   1.000  Zr
  Zr41     1.0000 0.50374  0.21435  0.74703  Biso   1.000  Zr
  Zr42     1.0000 0.49506  0.71353  0.75575  Biso   1.000  Zr
  Zr43     1.0000 0.50374  0.78596  0.50376  Biso   1.000  Zr
  Zr44     1.0000 0.75574  0.28677  0.75575  Biso   1.000  Zr
  Zr45     1.0000 0.74706  0.21435  0.50376  Biso   1.000  Zr
  Zr46     1.0000 0.75574  0.71353  0.49504  Biso   1.000  Zr
  Zr47     1.0000 0.74706  0.78596  0.74703  Biso   1.000  Zr
