data_image0
_cell_length_a       10.1088
_cell_length_b       10.2386
_cell_length_c       5.03066
_cell_angle_alpha    89.9976
_cell_angle_beta     90.0005
_cell_angle_gamma    89.9984

_symmetry_space_group_name_H-M    "P 1"
_symmetry_int_tables_number       1

loop_
  _symmetry_equiv_pos_as_xyz
  'x, y, z'

loop_
  _atom_site_label
  _atom_site_occupancy
  _atom_site_fract_x
  _atom_site_fract_y
  _atom_site_fract_z
  _atom_site_thermal_displace_type
  _atom_site_B_iso_or_equiv
  _atom_site_type_symbol
  Y1       1.0000 0.12528  0.00026  0.25148  Biso   1.000  Y 
  Zr1      1.0000 0.12528  0.50027  0.25148  Biso   1.000  Zr
  Zr2      1.0000 0.62528  0.00027  0.25149  Biso   1.000  Zr
  Zr3      1.0000 0.62528  0.50027  0.25148  Biso   1.000  Zr
  Zr4      1.0000 0.12529  0.25235  0.75150  Biso   1.000  Zr
  Zr5      1.0000 0.12529  0.74818  0.75149  Biso   1.000  Zr
  Zr6      1.0000 0.62529  0.24990  0.75150  Biso   1.000  Zr
  Zr7      1.0000 0.62529  0.75063  0.75150  Biso   1.000  Zr
  Zr8      1.0000 0.37562  0.25122  0.24915  Biso   1.000  Zr
  Zr9      1.0000 0.37562  0.74931  0.25384  Biso   1.000  Zr
  Zr10     1.0000 0.87495  0.25123  0.25385  Biso   1.000  Zr
  Zr11     1.0000 0.87495  0.74931  0.24914  Biso   1.000  Zr
  Zr12     1.0000 0.37605  0.00026  0.75148  Biso   1.000  Zr
  Zr13     1.0000 0.37485  0.50026  0.75148  Biso   1.000  Zr
  Zr14     1.0000 0.87451  0.00027  0.75148  Biso   1.000  Zr
  Zr15     1.0000 0.87571  0.50026  0.75148  Biso   1.000  Zr
  Zr16     1.0000 0.00044  0.14587  0.00517  Biso   1.000  Zr
  Zr17     1.0000 0.00421  0.64081  0.01178  Biso   1.000  Zr
  Zr18     1.0000 0.50690  0.14596  0.01207  Biso   1.000  Zr
  Zr19     1.0000 0.50390  0.64504  0.00553  Biso   1.000  Zr
  Zr20     1.0000 0.99191  0.11563  0.51721  Biso   1.000  Zr
  Zr21     1.0000 0.99841  0.60700  0.50828  Biso   1.000  Zr
  Zr22     1.0000 0.49837  0.10507  0.50646  Biso   1.000  Zr
  Zr23     1.0000 0.49750  0.60501  0.50299  Biso   1.000  Zr
  Zr24     1.0000 0.00420  0.35972  0.49122  Biso   1.000  Zr
  Zr25     1.0000 0.00044  0.85466  0.49780  Biso   1.000  Zr
  Zr26     1.0000 0.50389  0.35549  0.49746  Biso   1.000  Zr
  Zr27     1.0000 0.50690  0.85458  0.49091  Biso   1.000  Zr
  Zr28     1.0000 0.99842  0.39353  0.99472  Biso   1.000  Zr
  Zr29     1.0000 0.99191  0.88490  0.98577  Biso   1.000  Zr
  Zr30     1.0000 0.49750  0.39553  0.99999  Biso   1.000  Zr
  Zr31     1.0000 0.49837  0.89546  0.99653  Biso   1.000  Zr
  Zr32     1.0000 0.25012  0.14587  0.49780  Biso   1.000  Zr
  Zr33     1.0000 0.24635  0.64081  0.49120  Biso   1.000  Zr
  Zr34     1.0000 0.74366  0.14596  0.49092  Biso   1.000  Zr
  Zr35     1.0000 0.74667  0.64504  0.49744  Biso   1.000  Zr
  Zr36     1.0000 0.25865  0.11563  0.98577  Biso   1.000  Zr
  Zr37     1.0000 0.25215  0.60700  0.99470  Biso   1.000  Zr
  Zr38     1.0000 0.75219  0.10507  0.99653  Biso   1.000  Zr
  Zr39     1.0000 0.75307  0.60501  0.99997  Biso   1.000  Zr
  Zr40     1.0000 0.24636  0.35972  0.01177  Biso   1.000  Zr
  Zr41     1.0000 0.25012  0.85466  0.00517  Biso   1.000  Zr
  Zr42     1.0000 0.74667  0.35549  0.00552  Biso   1.000  Zr
  Zr43     1.0000 0.74366  0.85458  0.01207  Biso   1.000  Zr
  Zr44     1.0000 0.25215  0.39353  0.50828  Biso   1.000  Zr
  Zr45     1.0000 0.25866  0.88490  0.51721  Biso   1.000  Zr
  Zr46     1.0000 0.75307  0.39552  0.50299  Biso   1.000  Zr
  Zr47     1.0000 0.75220  0.89546  0.50646  Biso   1.000  Zr
