data_image0
_cell_length_a       10.0643
_cell_length_b       10.4258
_cell_length_c       10.0898
_cell_angle_alpha    90.0585
_cell_angle_beta     90.1337
_cell_angle_gamma    90.0085

_symmetry_space_group_name_H-M    "P 1"
_symmetry_int_tables_number       1

loop_
  _symmetry_equiv_pos_as_xyz
  'x, y, z'

loop_
  _atom_site_label
  _atom_site_occupancy
  _atom_site_fract_x
  _atom_site_fract_y
  _atom_site_fract_z
  _atom_site_thermal_displace_type
  _atom_site_B_iso_or_equiv
  _atom_site_type_symbol
  Y1       1.0000 0.13192  0.01261  0.12283  Biso   1.000  Y 
  Zr1      1.0000 0.13371  0.01587  0.62541  Biso   1.000  Zr
  Zr2      1.0000 0.13376  0.51522  0.12515  Biso   1.000  Zr
  Zr3      1.0000 0.13418  0.51588  0.62545  Biso   1.000  Zr
  Zr4      1.0000 0.63347  0.01511  0.12503  Biso   1.000  Zr
  Zr5      1.0000 0.63384  0.01595  0.62487  Biso   1.000  Zr
  Zr6      1.0000 0.63357  0.51510  0.12544  Biso   1.000  Zr
  Zr7      1.0000 0.63389  0.51522  0.62568  Biso   1.000  Zr
  Zr8      1.0000 0.13429  0.23411  0.37553  Biso   1.000  Zr
  Zr9      1.0000 0.13486  0.23468  0.87362  Biso   1.000  Zr
  Zr10     1.0000 0.13454  0.73471  0.37526  Biso   1.000  Zr
  Zr11     1.0000 0.13587  0.73460  0.87590  Biso   1.000  Zr
  Zr12     1.0000 0.63322  0.23430  0.37450  Biso   1.000  Zr
  Zr13     1.0000 0.63437  0.23439  0.87544  Biso   1.000  Zr
  Zr14     1.0000 0.63273  0.73396  0.37665  Biso   1.000  Zr
  Zr15     1.0000 0.63525  0.73402  0.87527  Biso   1.000  Zr
  Zr16     1.0000 0.36454  0.26464  0.12589  Biso   1.000  Zr
  Zr17     1.0000 0.36611  0.26515  0.62485  Biso   1.000  Zr
  Zr18     1.0000 0.36687  0.76449  0.12464  Biso   1.000  Zr
  Zr19     1.0000 0.36634  0.76607  0.62491  Biso   1.000  Zr
  Zr20     1.0000 0.86528  0.26577  0.12615  Biso   1.000  Zr
  Zr21     1.0000 0.86615  0.26615  0.62449  Biso   1.000  Zr
  Zr22     1.0000 0.86385  0.76628  0.12768  Biso   1.000  Zr
  Zr23     1.0000 0.86631  0.76524  0.62543  Biso   1.000  Zr
  Zr24     1.0000 0.36539  0.48421  0.37495  Biso   1.000  Zr
  Zr25     1.0000 0.36650  0.48367  0.87562  Biso   1.000  Zr
  Zr26     1.0000 0.36480  0.98507  0.37419  Biso   1.000  Zr
  Zr27     1.0000 0.36674  0.98419  0.87491  Biso   1.000  Zr
  Zr28     1.0000 0.86574  0.48478  0.37577  Biso   1.000  Zr
  Zr29     1.0000 0.86615  0.48426  0.87617  Biso   1.000  Zr
  Zr30     1.0000 0.86464  0.98342  0.37575  Biso   1.000  Zr
  Zr31     1.0000 0.86521  0.98398  0.87449  Biso   1.000  Zr
  Zr32     1.0000 0.03017  0.18922  0.20086  Biso   1.000  Zr
  Zr33     1.0000 0.03733  0.18639  0.68927  Biso   1.000  Zr
  Zr34     1.0000 0.03511  0.68359  0.19508  Biso   1.000  Zr
  Zr35     1.0000 0.03543  0.68362  0.69524  Biso   1.000  Zr
  Zr36     1.0000 0.53642  0.18410  0.19259  Biso   1.000  Zr
  Zr37     1.0000 0.53529  0.18346  0.69459  Biso   1.000  Zr
  Zr38     1.0000 0.53439  0.68152  0.19625  Biso   1.000  Zr
  Zr39     1.0000 0.53529  0.68299  0.69489  Biso   1.000  Zr
  Zr40     1.0000 0.03438  0.06632  0.44451  Biso   1.000  Zr
  Zr41     1.0000 0.03294  0.07108  0.93075  Biso   1.000  Zr
  Zr42     1.0000 0.03480  0.56671  0.44569  Biso   1.000  Zr
  Zr43     1.0000 0.03513  0.56795  0.94459  Biso   1.000  Zr
  Zr44     1.0000 0.53473  0.06666  0.44457  Biso   1.000  Zr
  Zr45     1.0000 0.53701  0.06637  0.94300  Biso   1.000  Zr
  Zr46     1.0000 0.53413  0.56610  0.44589  Biso   1.000  Zr
  Zr47     1.0000 0.53495  0.56715  0.94549  Biso   1.000  Zr
  Zr48     1.0000 0.46516  0.43250  0.19557  Biso   1.000  Zr
  Zr49     1.0000 0.46570  0.43292  0.69515  Biso   1.000  Zr
  Zr50     1.0000 0.46403  0.93442  0.19321  Biso   1.000  Zr
  Zr51     1.0000 0.46567  0.93317  0.69467  Biso   1.000  Zr
  Zr52     1.0000 0.96307  0.43647  0.19454  Biso   1.000  Zr
  Zr53     1.0000 0.96562  0.43400  0.69598  Biso   1.000  Zr
  Zr54     1.0000 0.95396  0.92914  0.20124  Biso   1.000  Zr
  Zr55     1.0000 0.96402  0.93334  0.69362  Biso   1.000  Zr
  Zr56     1.0000 0.46442  0.31618  0.44465  Biso   1.000  Zr
  Zr57     1.0000 0.46664  0.31769  0.94469  Biso   1.000  Zr
  Zr58     1.0000 0.46542  0.81717  0.44616  Biso   1.000  Zr
  Zr59     1.0000 0.46984  0.81748  0.94567  Biso   1.000  Zr
  Zr60     1.0000 0.96487  0.31852  0.44568  Biso   1.000  Zr
  Zr61     1.0000 0.96627  0.31849  0.94644  Biso   1.000  Zr
  Zr62     1.0000 0.96516  0.81562  0.44671  Biso   1.000  Zr
  Zr63     1.0000 0.96850  0.81942  0.94869  Biso   1.000  Zr
  Zr64     1.0000 0.27518  0.12305  0.25262  Biso   1.000  Zr
  Zr65     1.0000 0.27021  0.11682  0.74732  Biso   1.000  Zr
  Zr66     1.0000 0.26878  0.61497  0.24837  Biso   1.000  Zr
  Zr67     1.0000 0.27010  0.61705  0.74860  Biso   1.000  Zr
  Zr68     1.0000 0.76729  0.11649  0.24936  Biso   1.000  Zr
  Zr69     1.0000 0.76988  0.11722  0.74795  Biso   1.000  Zr
  Zr70     1.0000 0.76860  0.61711  0.24920  Biso   1.000  Zr
  Zr71     1.0000 0.77006  0.61643  0.74847  Biso   1.000  Zr
  Zr72     1.0000 0.26873  0.13248  0.49995  Biso   1.000  Zr
  Zr73     1.0000 0.27353  0.13551  0.99409  Biso   1.000  Zr
  Zr74     1.0000 0.26931  0.63344  0.49853  Biso   1.000  Zr
  Zr75     1.0000 0.27037  0.63075  0.99875  Biso   1.000  Zr
  Zr76     1.0000 0.76816  0.13418  0.49873  Biso   1.000  Zr
  Zr77     1.0000 0.77034  0.13301  0.99869  Biso   1.000  Zr
  Zr78     1.0000 0.76899  0.63280  0.49896  Biso   1.000  Zr
  Zr79     1.0000 0.76954  0.63232  0.99853  Biso   1.000  Zr
  Zr80     1.0000 0.23106  0.38361  0.49866  Biso   1.000  Zr
  Zr81     1.0000 0.23104  0.38304  0.99842  Biso   1.000  Zr
  Zr82     1.0000 0.23030  0.88374  0.49868  Biso   1.000  Zr
  Zr83     1.0000 0.23755  0.87661  0.99345  Biso   1.000  Zr
  Zr84     1.0000 0.73012  0.38346  0.49857  Biso   1.000  Zr
  Zr85     1.0000 0.73033  0.38335  0.99842  Biso   1.000  Zr
  Zr86     1.0000 0.73045  0.88260  0.49972  Biso   1.000  Zr
  Zr87     1.0000 0.73174  0.88216  0.99943  Biso   1.000  Zr
  Zr88     1.0000 0.22899  0.36822  0.24844  Biso   1.000  Zr
  Zr89     1.0000 0.23170  0.36751  0.74783  Biso   1.000  Zr
  Zr90     1.0000 0.23681  0.86101  0.25193  Biso   1.000  Zr
  Zr91     1.0000 0.23072  0.86706  0.74683  Biso   1.000  Zr
  Zr92     1.0000 0.73036  0.36727  0.24909  Biso   1.000  Zr
  Zr93     1.0000 0.73132  0.36694  0.74875  Biso   1.000  Zr
  Zr94     1.0000 0.72356  0.86606  0.24988  Biso   1.000  Zr
  Zr95     1.0000 0.73075  0.86658  0.74877  Biso   1.000  Zr
