data_image0
_cell_length_a       5.11562
_cell_length_b       10.2755
_cell_length_c       10.1593
_cell_angle_alpha    89.999
_cell_angle_beta     90
_cell_angle_gamma    89.9999

_symmetry_space_group_name_H-M    "P 1"
_symmetry_int_tables_number       1

loop_
  _symmetry_equiv_pos_as_xyz
  'x, y, z'

loop_
  _atom_site_label
  _atom_site_occupancy
  _atom_site_fract_x
  _atom_site_fract_y
  _atom_site_fract_z
  _atom_site_thermal_displace_type
  _atom_site_B_iso_or_equiv
  _atom_site_type_symbol
  Zr1      1.0000 0.25074  0.97531  0.12537  Biso   1.000  Zr
  Zr2      1.0000 0.25078  0.25007  0.39791  Biso   1.000  Zr
  Zr3      1.0000 0.75086  0.25007  0.12540  Biso   1.000  Zr
  Zr4      1.0000 0.75237  0.00560  0.37139  Biso   1.000  Zr
  Zr5      1.0000 0.98145  0.14390  0.98584  Biso   1.000  Zr
  Zr6      1.0000 0.01425  0.10285  0.24529  Biso   1.000  Zr
  Zr7      1.0000 0.98145  0.35625  0.26495  Biso   1.000  Zr
  Zr8      1.0000 0.01425  0.39730  0.00550  Biso   1.000  Zr
  Zr9      1.0000 0.52029  0.14396  0.26499  Biso   1.000  Zr
  Zr10     1.0000 0.48747  0.10282  0.00555  Biso   1.000  Zr
  Zr11     1.0000 0.52029  0.35619  0.98580  Biso   1.000  Zr
  Zr12     1.0000 0.48747  0.39733  0.24525  Biso   1.000  Zr
  Zr13     1.0000 0.25079  0.99338  0.62541  Biso   1.000  Zr
  Zr14     1.0000 0.25078  0.25008  0.85288  Biso   1.000  Zr
  Zr15     1.0000 0.75076  0.25008  0.62539  Biso   1.000  Zr
  Zr16     1.0000 0.74920  0.00559  0.87940  Biso   1.000  Zr
  Zr17     1.0000 0.97814  0.14229  0.49774  Biso   1.000  Zr
  Zr18     1.0000 0.01418  0.10489  0.74462  Biso   1.000  Zr
  Zr19     1.0000 0.97814  0.35786  0.75305  Biso   1.000  Zr
  Zr20     1.0000 0.01419  0.39526  0.50617  Biso   1.000  Zr
  Zr21     1.0000 0.52342  0.14228  0.75307  Biso   1.000  Zr
  Zr22     1.0000 0.48736  0.10489  0.50619  Biso   1.000  Zr
  Zr23     1.0000 0.52341  0.35787  0.49772  Biso   1.000  Zr
  Zr24     1.0000 0.48736  0.39525  0.74460  Biso   1.000  Zr
  Zr25     1.0000 0.25074  0.52484  0.12542  Biso   1.000  Zr
  Zr26     1.0000 0.25077  0.75009  0.38141  Biso   1.000  Zr
  Zr27     1.0000 0.75075  0.75008  0.12540  Biso   1.000  Zr
  Zr28     1.0000 0.74920  0.49456  0.37139  Biso   1.000  Zr
  Zr29     1.0000 0.99869  0.64623  0.99936  Biso   1.000  Zr
  Zr30     1.0000 0.99731  0.61072  0.25295  Biso   1.000  Zr
  Zr31     1.0000 0.99869  0.85392  0.25143  Biso   1.000  Zr
  Zr32     1.0000 0.99732  0.88942  0.99784  Biso   1.000  Zr
  Zr33     1.0000 0.50280  0.64625  0.25144  Biso   1.000  Zr
  Zr34     1.0000 0.50418  0.61068  0.99784  Biso   1.000  Zr
  Zr35     1.0000 0.50279  0.85390  0.99935  Biso   1.000  Zr
  Zr36     1.0000 0.50418  0.88947  0.25295  Biso   1.000  Zr
  Zr37     1.0000 0.25079  0.50677  0.62539  Biso   1.000  Zr
  Zr38     1.0000 0.25077  0.75005  0.86938  Biso   1.000  Zr
  Zr39     1.0000 0.75079  0.75008  0.62539  Biso   1.000  Zr
  Zr40     1.0000 0.75237  0.49455  0.87940  Biso   1.000  Zr
  Zr41     1.0000 0.99249  0.64517  0.50134  Biso   1.000  Zr
  Zr42     1.0000 0.01140  0.60581  0.75309  Biso   1.000  Zr
  Zr43     1.0000 0.99249  0.85498  0.74945  Biso   1.000  Zr
  Zr44     1.0000 0.01140  0.89434  0.49770  Biso   1.000  Zr
  Zr45     1.0000 0.50911  0.64516  0.74946  Biso   1.000  Zr
  Zr46     1.0000 0.49019  0.60583  0.49769  Biso   1.000  Zr
  Zr47     1.0000 0.50910  0.85499  0.50134  Biso   1.000  Zr
  Zr48     1.0000 0.49019  0.89432  0.75310  Biso   1.000  Zr
  Y1       1.0000 0.25086  0.25008  0.12540  Biso   1.000  Y 
