data_image0
_cell_length_a       5.03066
_cell_length_b       10.2386
_cell_length_c       10.1088
_cell_angle_alpha    89.9982
_cell_angle_beta     90.0005
_cell_angle_gamma    89.9976

_symmetry_space_group_name_H-M    "P 1"
_symmetry_int_tables_number       1

loop_
  _symmetry_equiv_pos_as_xyz
  'x, y, z'

loop_
  _atom_site_label
  _atom_site_occupancy
  _atom_site_fract_x
  _atom_site_fract_y
  _atom_site_fract_z
  _atom_site_thermal_displace_type
  _atom_site_B_iso_or_equiv
  _atom_site_type_symbol
  Y1       1.0000 0.25148  0.00026  0.12528  Biso   1.000  Y 
  Zr1      1.0000 0.25149  0.00027  0.62528  Biso   1.000  Zr
  Zr2      1.0000 0.25148  0.50027  0.12528  Biso   1.000  Zr
  Zr3      1.0000 0.25148  0.50027  0.62527  Biso   1.000  Zr
  Zr4      1.0000 0.24915  0.25122  0.37562  Biso   1.000  Zr
  Zr5      1.0000 0.25385  0.25123  0.87495  Biso   1.000  Zr
  Zr6      1.0000 0.25385  0.74931  0.37562  Biso   1.000  Zr
  Zr7      1.0000 0.24914  0.74931  0.87495  Biso   1.000  Zr
  Zr8      1.0000 0.75150  0.25234  0.12529  Biso   1.000  Zr
  Zr9      1.0000 0.75150  0.24990  0.62529  Biso   1.000  Zr
  Zr10     1.0000 0.75150  0.74818  0.12529  Biso   1.000  Zr
  Zr11     1.0000 0.75150  0.75063  0.62529  Biso   1.000  Zr
  Zr12     1.0000 0.75148  0.00026  0.37605  Biso   1.000  Zr
  Zr13     1.0000 0.75148  0.00027  0.87450  Biso   1.000  Zr
  Zr14     1.0000 0.75148  0.50026  0.37485  Biso   1.000  Zr
  Zr15     1.0000 0.75148  0.50026  0.87571  Biso   1.000  Zr
  Zr16     1.0000 0.00517  0.14587  0.00044  Biso   1.000  Zr
  Zr17     1.0000 0.01207  0.14596  0.50690  Biso   1.000  Zr
  Zr18     1.0000 0.01178  0.64081  0.00421  Biso   1.000  Zr
  Zr19     1.0000 0.00553  0.64504  0.50390  Biso   1.000  Zr
  Zr20     1.0000 0.98578  0.11563  0.25865  Biso   1.000  Zr
  Zr21     1.0000 0.99653  0.10507  0.75219  Biso   1.000  Zr
  Zr22     1.0000 0.99470  0.60700  0.25215  Biso   1.000  Zr
  Zr23     1.0000 0.99997  0.60501  0.75307  Biso   1.000  Zr
  Zr24     1.0000 0.01177  0.35972  0.24636  Biso   1.000  Zr
  Zr25     1.0000 0.00552  0.35549  0.74667  Biso   1.000  Zr
  Zr26     1.0000 0.00518  0.85466  0.25012  Biso   1.000  Zr
  Zr27     1.0000 0.01207  0.85458  0.74366  Biso   1.000  Zr
  Zr28     1.0000 0.99472  0.39353  0.99842  Biso   1.000  Zr
  Zr29     1.0000 0.99999  0.39553  0.49750  Biso   1.000  Zr
  Zr30     1.0000 0.98577  0.88490  0.99191  Biso   1.000  Zr
  Zr31     1.0000 0.99653  0.89546  0.49837  Biso   1.000  Zr
  Zr32     1.0000 0.49780  0.14587  0.25012  Biso   1.000  Zr
  Zr33     1.0000 0.49092  0.14596  0.74366  Biso   1.000  Zr
  Zr34     1.0000 0.49120  0.64081  0.24635  Biso   1.000  Zr
  Zr35     1.0000 0.49744  0.64504  0.74667  Biso   1.000  Zr
  Zr36     1.0000 0.51721  0.11563  0.99191  Biso   1.000  Zr
  Zr37     1.0000 0.50646  0.10507  0.49837  Biso   1.000  Zr
  Zr38     1.0000 0.50828  0.60700  0.99841  Biso   1.000  Zr
  Zr39     1.0000 0.50300  0.60501  0.49749  Biso   1.000  Zr
  Zr40     1.0000 0.49122  0.35972  0.00420  Biso   1.000  Zr
  Zr41     1.0000 0.49746  0.35549  0.50389  Biso   1.000  Zr
  Zr42     1.0000 0.49780  0.85466  0.00044  Biso   1.000  Zr
  Zr43     1.0000 0.49091  0.85458  0.50690  Biso   1.000  Zr
  Zr44     1.0000 0.50827  0.39353  0.25215  Biso   1.000  Zr
  Zr45     1.0000 0.50299  0.39552  0.75307  Biso   1.000  Zr
  Zr46     1.0000 0.51721  0.88490  0.25866  Biso   1.000  Zr
  Zr47     1.0000 0.50646  0.89546  0.75220  Biso   1.000  Zr
