data_image0
_cell_length_a       10.0706
_cell_length_b       10.2048
_cell_length_c       10.0706
_cell_angle_alpha    90.0016
_cell_angle_beta     89.9993
_cell_angle_gamma    89.9993

_symmetry_space_group_name_H-M    "P 1"
_symmetry_int_tables_number       1

loop_
  _symmetry_equiv_pos_as_xyz
  'x, y, z'

loop_
  _atom_site_label
  _atom_site_occupancy
  _atom_site_fract_x
  _atom_site_fract_y
  _atom_site_fract_z
  _atom_site_thermal_displace_type
  _atom_site_B_iso_or_equiv
  _atom_site_type_symbol
  Yb1      1.0000 0.12503  0.00004  0.12503  Biso   1.000  Yb
  Zr1      1.0000 0.12504  0.00004  0.62503  Biso   1.000  Zr
  Zr2      1.0000 0.12503  0.50005  0.12503  Biso   1.000  Zr
  Zr3      1.0000 0.12504  0.50004  0.62503  Biso   1.000  Zr
  Zr4      1.0000 0.62504  0.00004  0.12503  Biso   1.000  Zr
  Zr5      1.0000 0.62503  0.00004  0.62503  Biso   1.000  Zr
  Zr6      1.0000 0.62504  0.50004  0.12503  Biso   1.000  Zr
  Zr7      1.0000 0.62503  0.50004  0.62503  Biso   1.000  Zr
  Zr8      1.0000 0.12406  0.25040  0.37484  Biso   1.000  Zr
  Zr9      1.0000 0.12600  0.25040  0.87523  Biso   1.000  Zr
  Zr10     1.0000 0.12600  0.74967  0.37484  Biso   1.000  Zr
  Zr11     1.0000 0.12406  0.74967  0.87523  Biso   1.000  Zr
  Zr12     1.0000 0.62484  0.25014  0.37509  Biso   1.000  Zr
  Zr13     1.0000 0.62522  0.25014  0.87497  Biso   1.000  Zr
  Zr14     1.0000 0.62522  0.74993  0.37510  Biso   1.000  Zr
  Zr15     1.0000 0.62483  0.74994  0.87497  Biso   1.000  Zr
  Zr16     1.0000 0.37483  0.25041  0.12407  Biso   1.000  Zr
  Zr17     1.0000 0.37510  0.25014  0.62484  Biso   1.000  Zr
  Zr18     1.0000 0.37484  0.74967  0.12600  Biso   1.000  Zr
  Zr19     1.0000 0.37509  0.74994  0.62523  Biso   1.000  Zr
  Zr20     1.0000 0.87523  0.25041  0.12600  Biso   1.000  Zr
  Zr21     1.0000 0.87497  0.25014  0.62523  Biso   1.000  Zr
  Zr22     1.0000 0.87522  0.74967  0.12406  Biso   1.000  Zr
  Zr23     1.0000 0.87497  0.74994  0.62484  Biso   1.000  Zr
  Zr24     1.0000 0.37496  0.99988  0.37496  Biso   1.000  Zr
  Zr25     1.0000 0.37496  0.00020  0.87510  Biso   1.000  Zr
  Zr26     1.0000 0.37486  0.49920  0.37485  Biso   1.000  Zr
  Zr27     1.0000 0.37486  0.50087  0.87522  Biso   1.000  Zr
  Zr28     1.0000 0.87511  0.00019  0.37496  Biso   1.000  Zr
  Zr29     1.0000 0.87511  0.99988  0.87510  Biso   1.000  Zr
  Zr30     1.0000 0.87521  0.50087  0.37486  Biso   1.000  Zr
  Zr31     1.0000 0.87521  0.49920  0.87521  Biso   1.000  Zr
  Zr32     1.0000 0.99934  0.14378  0.99933  Biso   1.000  Zr
  Zr33     1.0000 0.00222  0.14549  0.50360  Biso   1.000  Zr
  Zr34     1.0000 0.00235  0.64116  0.00234  Biso   1.000  Zr
  Zr35     1.0000 0.00116  0.64525  0.50198  Biso   1.000  Zr
  Zr36     1.0000 0.50360  0.14549  0.00221  Biso   1.000  Zr
  Zr37     1.0000 0.50142  0.14579  0.50141  Biso   1.000  Zr
  Zr38     1.0000 0.50198  0.64525  0.00115  Biso   1.000  Zr
  Zr39     1.0000 0.50086  0.64566  0.50086  Biso   1.000  Zr
  Zr40     1.0000 0.99459  0.11395  0.25548  Biso   1.000  Zr
  Zr41     1.0000 0.99930  0.10468  0.75137  Biso   1.000  Zr
  Zr42     1.0000 0.99881  0.60736  0.25126  Biso   1.000  Zr
  Zr43     1.0000 0.99972  0.60462  0.75173  Biso   1.000  Zr
  Zr44     1.0000 0.49869  0.10468  0.25076  Biso   1.000  Zr
  Zr45     1.0000 0.49931  0.10450  0.75076  Biso   1.000  Zr
  Zr46     1.0000 0.49833  0.60462  0.25034  Biso   1.000  Zr
  Zr47     1.0000 0.49953  0.60438  0.75053  Biso   1.000  Zr
  Zr48     1.0000 0.00235  0.35892  0.24772  Biso   1.000  Zr
  Zr49     1.0000 0.00116  0.35483  0.74809  Biso   1.000  Zr
  Zr50     1.0000 0.99934  0.85630  0.25073  Biso   1.000  Zr
  Zr51     1.0000 0.00222  0.85458  0.74646  Biso   1.000  Zr
  Zr52     1.0000 0.50198  0.35482  0.24891  Biso   1.000  Zr
  Zr53     1.0000 0.50087  0.35442  0.74920  Biso   1.000  Zr
  Zr54     1.0000 0.50360  0.85458  0.24785  Biso   1.000  Zr
  Zr55     1.0000 0.50142  0.85429  0.74865  Biso   1.000  Zr
  Zr56     1.0000 0.99881  0.39271  0.99881  Biso   1.000  Zr
  Zr57     1.0000 0.99973  0.39546  0.49833  Biso   1.000  Zr
  Zr58     1.0000 0.99459  0.88613  0.99459  Biso   1.000  Zr
  Zr59     1.0000 0.99930  0.89539  0.49869  Biso   1.000  Zr
  Zr60     1.0000 0.49833  0.39545  0.99973  Biso   1.000  Zr
  Zr61     1.0000 0.49953  0.39570  0.49953  Biso   1.000  Zr
  Zr62     1.0000 0.49869  0.89539  0.99930  Biso   1.000  Zr
  Zr63     1.0000 0.49930  0.89557  0.49931  Biso   1.000  Zr
  Zr64     1.0000 0.25073  0.14377  0.25073  Biso   1.000  Zr
  Zr65     1.0000 0.24785  0.14549  0.74647  Biso   1.000  Zr
  Zr66     1.0000 0.24772  0.64116  0.24772  Biso   1.000  Zr
  Zr67     1.0000 0.24891  0.64525  0.74809  Biso   1.000  Zr
  Zr68     1.0000 0.74647  0.14549  0.24785  Biso   1.000  Zr
  Zr69     1.0000 0.74865  0.14579  0.74865  Biso   1.000  Zr
  Zr70     1.0000 0.74808  0.64525  0.24890  Biso   1.000  Zr
  Zr71     1.0000 0.74920  0.64566  0.74920  Biso   1.000  Zr
  Zr72     1.0000 0.25548  0.11395  0.99459  Biso   1.000  Zr
  Zr73     1.0000 0.25077  0.10468  0.49869  Biso   1.000  Zr
  Zr74     1.0000 0.25126  0.60736  0.99881  Biso   1.000  Zr
  Zr75     1.0000 0.25034  0.60462  0.49833  Biso   1.000  Zr
  Zr76     1.0000 0.75138  0.10468  0.99930  Biso   1.000  Zr
  Zr77     1.0000 0.75076  0.10450  0.49931  Biso   1.000  Zr
  Zr78     1.0000 0.75174  0.60461  0.99972  Biso   1.000  Zr
  Zr79     1.0000 0.75053  0.60437  0.49953  Biso   1.000  Zr
  Zr80     1.0000 0.24773  0.35892  0.00234  Biso   1.000  Zr
  Zr81     1.0000 0.24891  0.35483  0.50197  Biso   1.000  Zr
  Zr82     1.0000 0.25073  0.85630  0.99933  Biso   1.000  Zr
  Zr83     1.0000 0.24785  0.85458  0.50360  Biso   1.000  Zr
  Zr84     1.0000 0.74809  0.35482  0.00115  Biso   1.000  Zr
  Zr85     1.0000 0.74920  0.35442  0.50086  Biso   1.000  Zr
  Zr86     1.0000 0.74646  0.85458  0.00221  Biso   1.000  Zr
  Zr87     1.0000 0.74865  0.85429  0.50141  Biso   1.000  Zr
  Zr88     1.0000 0.25126  0.39271  0.25125  Biso   1.000  Zr
  Zr89     1.0000 0.25034  0.39546  0.75173  Biso   1.000  Zr
  Zr90     1.0000 0.25548  0.88613  0.25547  Biso   1.000  Zr
  Zr91     1.0000 0.25076  0.89540  0.75137  Biso   1.000  Zr
  Zr92     1.0000 0.75174  0.39545  0.25033  Biso   1.000  Zr
  Zr93     1.0000 0.75053  0.39570  0.75053  Biso   1.000  Zr
  Zr94     1.0000 0.75138  0.89539  0.25076  Biso   1.000  Zr
  Zr95     1.0000 0.75076  0.89558  0.75075  Biso   1.000  Zr
