data_image0
_cell_length_a       10.1463
_cell_length_b       5.15301
_cell_length_c       10.5337
_cell_angle_alpha    89.9692
_cell_angle_beta     89.8903
_cell_angle_gamma    89.9884

_symmetry_space_group_name_H-M    "P 1"
_symmetry_int_tables_number       1

loop_
  _symmetry_equiv_pos_as_xyz
  'x, y, z'

loop_
  _atom_site_label
  _atom_site_occupancy
  _atom_site_fract_x
  _atom_site_fract_y
  _atom_site_fract_z
  _atom_site_thermal_displace_type
  _atom_site_B_iso_or_equiv
  _atom_site_type_symbol
  Yb1      1.0000 0.13795  0.03485  0.17262  Biso   1.000  Yb
  Zr1      1.0000 0.13962  0.04148  0.67198  Biso   1.000  Zr
  Zr2      1.0000 0.14018  0.45693  0.42197  Biso   1.000  Zr
  Zr3      1.0000 0.14056  0.45860  0.92202  Biso   1.000  Zr
  Zr4      1.0000 0.36085  0.53839  0.17041  Biso   1.000  Zr
  Zr5      1.0000 0.36110  0.54237  0.67159  Biso   1.000  Zr
  Zr6      1.0000 0.36149  0.95809  0.42117  Biso   1.000  Zr
  Zr7      1.0000 0.36116  0.95841  0.92191  Biso   1.000  Zr
  Zr8      1.0000 0.63803  0.04013  0.07835  Biso   1.000  Zr
  Zr9      1.0000 0.63833  0.04233  0.57862  Biso   1.000  Zr
  Zr10     1.0000 0.63798  0.45828  0.32831  Biso   1.000  Zr
  Zr11     1.0000 0.63811  0.45752  0.82797  Biso   1.000  Zr
  Zr12     1.0000 0.85869  0.53987  0.07726  Biso   1.000  Zr
  Zr13     1.0000 0.86085  0.54264  0.57799  Biso   1.000  Zr
  Zr14     1.0000 0.85919  0.95836  0.32907  Biso   1.000  Zr
  Zr15     1.0000 0.86082  0.95831  0.82810  Biso   1.000  Zr
  O1       1.0000 0.03054  0.33823  0.07951  Biso   1.000  O
  O2       1.0000 0.03129  0.32790  0.58326  Biso   1.000  O
  O3       1.0000 0.02694  0.17932  0.33791  Biso   1.000  O
  O4       1.0000 0.03107  0.17431  0.83151  Biso   1.000  O
  O5       1.0000 0.46922  0.82637  0.08215  Biso   1.000  O
  O6       1.0000 0.46859  0.82721  0.58243  Biso   1.000  O
  O7       1.0000 0.47023  0.67539  0.33182  Biso   1.000  O
  O8       1.0000 0.46849  0.67198  0.83156  Biso   1.000  O
  O9       1.0000 0.27925  0.25197  0.30057  Biso   1.000  O
  O10      1.0000 0.27469  0.24836  0.79456  Biso   1.000  O
  O11      1.0000 0.28035  0.25698  0.04149  Biso   1.000  O
  O12      1.0000 0.27480  0.25077  0.54697  Biso   1.000  O
  O13      1.0000 0.22881  0.74098  0.29737  Biso   1.000  O
  O14      1.0000 0.22533  0.74965  0.79430  Biso   1.000  O
  O15      1.0000 0.23024  0.74415  0.04162  Biso   1.000  O
  O16      1.0000 0.22528  0.75157  0.54580  Biso   1.000  O
  O17      1.0000 0.53238  0.32614  0.16765  Biso   1.000  O
  O18      1.0000 0.53171  0.32753  0.66733  Biso   1.000  O
  O19      1.0000 0.53226  0.17211  0.41799  Biso   1.000  O
  O20      1.0000 0.53286  0.17078  0.91680  Biso   1.000  O
  O21      1.0000 0.96038  0.82164  0.16913  Biso   1.000  O
  O22      1.0000 0.96869  0.82658  0.66786  Biso   1.000  O
  O23      1.0000 0.96915  0.67682  0.41871  Biso   1.000  O
  O24      1.0000 0.96899  0.67761  0.91762  Biso   1.000  O
  O25      1.0000 0.77459  0.24677  0.95374  Biso   1.000  O
  O26      1.0000 0.77407  0.25044  0.45526  Biso   1.000  O
  O27      1.0000 0.77462  0.25077  0.20463  Biso   1.000  O
  O28      1.0000 0.77487  0.25172  0.70423  Biso   1.000  O
  O29      1.0000 0.72438  0.74734  0.95349  Biso   1.000  O
  O30      1.0000 0.72498  0.74925  0.45467  Biso   1.000  O
  O31      1.0000 0.72075  0.75122  0.20467  Biso   1.000  O
  O32      1.0000 0.72532  0.75157  0.70404  Biso   1.000  O
