data_image0
_cell_length_a       10.1195
_cell_length_b       10.2849
_cell_length_c       10.1201
_cell_angle_alpha    89.6075
_cell_angle_beta     90.0002
_cell_angle_gamma    89.9983

_symmetry_space_group_name_H-M    "P 1"
_symmetry_int_tables_number       1

loop_
  _symmetry_equiv_pos_as_xyz
  'x, y, z'

loop_
  _atom_site_label
  _atom_site_occupancy
  _atom_site_fract_x
  _atom_site_fract_y
  _atom_site_fract_z
  _atom_site_thermal_displace_type
  _atom_site_B_iso_or_equiv
  _atom_site_type_symbol
  Zr1      1.0000 0.11628  0.97101  0.11793  Biso   1.000  Zr
  Zr2      1.0000 0.12472  0.24868  0.39575  Biso   1.000  Zr
  Zr3      1.0000 0.40266  0.24994  0.12572  Biso   1.000  Zr
  Zr4      1.0000 0.37426  0.00958  0.37393  Biso   1.000  Zr
  Zr5      1.0000 0.99892  0.14376  0.99117  Biso   1.000  Zr
  Zr6      1.0000 0.01716  0.10221  0.24639  Biso   1.000  Zr
  Zr7      1.0000 0.99892  0.35610  0.26028  Biso   1.000  Zr
  Zr8      1.0000 0.01714  0.39765  0.00505  Biso   1.000  Zr
  Zr9      1.0000 0.27763  0.16842  0.27609  Biso   1.000  Zr
  Zr10     1.0000 0.25453  0.08939  0.02176  Biso   1.000  Zr
  Zr11     1.0000 0.27762  0.33145  0.97534  Biso   1.000  Zr
  Zr12     1.0000 0.25454  0.41047  0.22965  Biso   1.000  Zr
  Zr13     1.0000 0.12603  0.99383  0.62864  Biso   1.000  Zr
  Zr14     1.0000 0.12472  0.25116  0.85569  Biso   1.000  Zr
  Zr15     1.0000 0.37707  0.24993  0.62571  Biso   1.000  Zr
  Zr16     1.0000 0.37228  0.00274  0.87894  Biso   1.000  Zr
  Zr17     1.0000 0.99060  0.14210  0.49883  Biso   1.000  Zr
  Zr18     1.0000 0.00031  0.10457  0.74432  Biso   1.000  Zr
  Zr19     1.0000 0.99059  0.35775  0.75261  Biso   1.000  Zr
  Zr20     1.0000 0.00032  0.39529  0.50712  Biso   1.000  Zr
  Zr21     1.0000 0.25693  0.13986  0.75605  Biso   1.000  Zr
  Zr22     1.0000 0.24830  0.10478  0.51151  Biso   1.000  Zr
  Zr23     1.0000 0.25693  0.35999  0.49537  Biso   1.000  Zr
  Zr24     1.0000 0.24829  0.39507  0.73992  Biso   1.000  Zr
  Zr25     1.0000 0.11628  0.52885  0.13348  Biso   1.000  Zr
  Zr26     1.0000 0.12445  0.75652  0.38318  Biso   1.000  Zr
  Zr27     1.0000 0.37908  0.74993  0.12572  Biso   1.000  Zr
  Zr28     1.0000 0.37229  0.49711  0.37248  Biso   1.000  Zr
  Zr29     1.0000 0.99543  0.64762  0.00222  Biso   1.000  Zr
  Zr30     1.0000 0.98727  0.61267  0.25606  Biso   1.000  Zr
  Zr31     1.0000 0.99543  0.85224  0.24919  Biso   1.000  Zr
  Zr32     1.0000 0.98728  0.88718  0.99535  Biso   1.000  Zr
  Zr33     1.0000 0.24030  0.65848  0.24652  Biso   1.000  Zr
  Zr34     1.0000 0.24658  0.59590  0.99438  Biso   1.000  Zr
  Zr35     1.0000 0.24030  0.84138  0.00490  Biso   1.000  Zr
  Zr36     1.0000 0.24659  0.90397  0.25704  Biso   1.000  Zr
  Zr37     1.0000 0.12603  0.50603  0.62277  Biso   1.000  Zr
  Zr38     1.0000 0.12444  0.74334  0.86825  Biso   1.000  Zr
  Zr39     1.0000 0.37849  0.74993  0.62572  Biso   1.000  Zr
  Zr40     1.0000 0.37426  0.49027  0.87749  Biso   1.000  Zr
  Zr41     1.0000 0.99948  0.64658  0.50394  Biso   1.000  Zr
  Zr42     1.0000 0.00442  0.60351  0.75345  Biso   1.000  Zr
  Zr43     1.0000 0.99948  0.85327  0.74748  Biso   1.000  Zr
  Zr44     1.0000 0.00442  0.89634  0.49796  Biso   1.000  Zr
  Zr45     1.0000 0.25226  0.64358  0.74588  Biso   1.000  Zr
  Zr46     1.0000 0.24720  0.60755  0.49427  Biso   1.000  Zr
  Zr47     1.0000 0.25225  0.85627  0.50554  Biso   1.000  Zr
  Zr48     1.0000 0.24720  0.89230  0.75715  Biso   1.000  Zr
  Zr49     1.0000 0.62339  0.99403  0.11998  Biso   1.000  Zr
  Zr50     1.0000 0.62891  0.24788  0.37730  Biso   1.000  Zr
  Zr51     1.0000 0.86800  0.24993  0.12572  Biso   1.000  Zr
  Zr52     1.0000 0.87923  0.00379  0.37103  Biso   1.000  Zr
  Zr53     1.0000 0.50636  0.13817  0.99253  Biso   1.000  Zr
  Zr54     1.0000 0.51436  0.10462  0.24962  Biso   1.000  Zr
  Zr55     1.0000 0.50637  0.36170  0.25890  Biso   1.000  Zr
  Zr56     1.0000 0.51435  0.39525  0.00181  Biso   1.000  Zr
  Zr57     1.0000 0.76191  0.14596  0.26179  Biso   1.000  Zr
  Zr58     1.0000 0.75169  0.10275  0.00498  Biso   1.000  Zr
  Zr59     1.0000 0.76189  0.35391  0.98965  Biso   1.000  Zr
  Zr60     1.0000 0.75169  0.39712  0.24645  Biso   1.000  Zr
  Zr61     1.0000 0.62393  0.99941  0.62583  Biso   1.000  Zr
  Zr62     1.0000 0.62891  0.25199  0.87413  Biso   1.000  Zr
  Zr63     1.0000 0.87203  0.24993  0.62572  Biso   1.000  Zr
  Zr64     1.0000 0.87393  0.00453  0.87306  Biso   1.000  Zr
  Zr65     1.0000 0.49763  0.14904  0.49734  Biso   1.000  Zr
  Zr66     1.0000 0.50018  0.10181  0.74737  Biso   1.000  Zr
  Zr67     1.0000 0.49762  0.35083  0.75409  Biso   1.000  Zr
  Zr68     1.0000 0.50018  0.39805  0.50406  Biso   1.000  Zr
  Zr69     1.0000 0.75235  0.14633  0.75409  Biso   1.000  Zr
  Zr70     1.0000 0.74758  0.10256  0.50397  Biso   1.000  Zr
  Zr71     1.0000 0.75236  0.35353  0.49734  Biso   1.000  Zr
  Zr72     1.0000 0.74758  0.39730  0.74746  Biso   1.000  Zr
  Zr73     1.0000 0.62340  0.50584  0.13143  Biso   1.000  Zr
  Zr74     1.0000 0.62303  0.75472  0.37849  Biso   1.000  Zr
  Zr75     1.0000 0.86333  0.74993  0.12571  Biso   1.000  Zr
  Zr76     1.0000 0.87395  0.49533  0.37837  Biso   1.000  Zr
  Zr77     1.0000 0.49693  0.64345  0.99861  Biso   1.000  Zr
  Zr78     1.0000 0.49182  0.60794  0.24666  Biso   1.000  Zr
  Zr79     1.0000 0.49693  0.85642  0.25281  Biso   1.000  Zr
  Zr80     1.0000 0.49182  0.89192  0.00477  Biso   1.000  Zr
  Zr81     1.0000 0.73990  0.64704  0.25212  Biso   1.000  Zr
  Zr82     1.0000 0.74978  0.60306  0.00386  Biso   1.000  Zr
  Zr83     1.0000 0.73990  0.85284  0.99929  Biso   1.000  Zr
  Zr84     1.0000 0.74978  0.89681  0.24756  Biso   1.000  Zr
  Zr85     1.0000 0.62394  0.50045  0.62559  Biso   1.000  Zr
  Zr86     1.0000 0.62303  0.74514  0.87294  Biso   1.000  Zr
  Zr87     1.0000 0.87270  0.74993  0.62571  Biso   1.000  Zr
  Zr88     1.0000 0.87923  0.49607  0.88040  Biso   1.000  Zr
  Zr89     1.0000 0.49829  0.64773  0.49852  Biso   1.000  Zr
  Zr90     1.0000 0.50177  0.60123  0.74996  Biso   1.000  Zr
  Zr91     1.0000 0.49829  0.85213  0.75291  Biso   1.000  Zr
  Zr92     1.0000 0.50176  0.89863  0.50147  Biso   1.000  Zr
  Zr93     1.0000 0.75367  0.64620  0.75424  Biso   1.000  Zr
  Zr94     1.0000 0.74966  0.60350  0.50268  Biso   1.000  Zr
  Zr95     1.0000 0.75367  0.85366  0.49718  Biso   1.000  Zr
  Zr96     1.0000 0.74966  0.89636  0.74874  Biso   1.000  Zr
  Yb1      1.0000 0.13821  0.24993  0.12572  Biso   1.000  Yb
