data_image0
_cell_length_a       10.163
_cell_length_b       5.14206
_cell_length_c       10.1632
_cell_angle_alpha    90
_cell_angle_beta     90
_cell_angle_gamma    90.0001

_symmetry_space_group_name_H-M    "P 1"
_symmetry_int_tables_number       1

loop_
  _symmetry_equiv_pos_as_xyz
  'x, y, z'

loop_
  _atom_site_label
  _atom_site_occupancy
  _atom_site_fract_x
  _atom_site_fract_y
  _atom_site_fract_z
  _atom_site_thermal_displace_type
  _atom_site_B_iso_or_equiv
  _atom_site_type_symbol
  Zr1      1.0000 0.12540  0.00015  0.12539  Biso   1.000  Zr
  Zr2      1.0000 0.12540  0.50015  0.39685  Biso   1.000  Zr
  Zr3      1.0000 0.39684  0.50015  0.12540  Biso   1.000  Zr
  Zr4      1.0000 0.37183  0.00282  0.37183  Biso   1.000  Zr
  Zr5      1.0000 0.98993  0.29076  0.98988  Biso   1.000  Zr
  Zr6      1.0000 0.00328  0.21491  0.24745  Biso   1.000  Zr
  Zr7      1.0000 0.98993  0.70953  0.26091  Biso   1.000  Zr
  Zr8      1.0000 0.00327  0.78539  0.00334  Biso   1.000  Zr
  Zr9      1.0000 0.26086  0.29077  0.26091  Biso   1.000  Zr
  Zr10     1.0000 0.24752  0.21491  0.00334  Biso   1.000  Zr
  Zr11     1.0000 0.26086  0.70953  0.98988  Biso   1.000  Zr
  Zr12     1.0000 0.24752  0.78539  0.24746  Biso   1.000  Zr
  Zr13     1.0000 0.12540  0.00015  0.62540  Biso   1.000  Zr
  Zr14     1.0000 0.12539  0.50015  0.85394  Biso   1.000  Zr
  Zr15     1.0000 0.38010  0.50015  0.62540  Biso   1.000  Zr
  Zr16     1.0000 0.37183  0.99748  0.87896  Biso   1.000  Zr
  Zr17     1.0000 0.98975  0.27922  0.49757  Biso   1.000  Zr
  Zr18     1.0000 0.00585  0.21709  0.74450  Biso   1.000  Zr
  Zr19     1.0000 0.98975  0.72108  0.75322  Biso   1.000  Zr
  Zr20     1.0000 0.00585  0.78321  0.50629  Biso   1.000  Zr
  Zr21     1.0000 0.26104  0.27922  0.75322  Biso   1.000  Zr
  Zr22     1.0000 0.24494  0.21709  0.50629  Biso   1.000  Zr
  Zr23     1.0000 0.26104  0.72108  0.49757  Biso   1.000  Zr
  Zr24     1.0000 0.24494  0.78321  0.74450  Biso   1.000  Zr
  Zr25     1.0000 0.62540  0.00015  0.12539  Biso   1.000  Zr
  Zr26     1.0000 0.62540  0.50015  0.38009  Biso   1.000  Zr
  Zr27     1.0000 0.85395  0.50015  0.12540  Biso   1.000  Zr
  Zr28     1.0000 0.87896  0.99748  0.37183  Biso   1.000  Zr
  Zr29     1.0000 0.49760  0.27922  0.98973  Biso   1.000  Zr
  Zr30     1.0000 0.50625  0.21707  0.24491  Biso   1.000  Zr
  Zr31     1.0000 0.49760  0.72108  0.26106  Biso   1.000  Zr
  Zr32     1.0000 0.50625  0.78323  0.00588  Biso   1.000  Zr
  Zr33     1.0000 0.75319  0.27922  0.26106  Biso   1.000  Zr
  Zr34     1.0000 0.74454  0.21707  0.00589  Biso   1.000  Zr
  Zr35     1.0000 0.75319  0.72108  0.98973  Biso   1.000  Zr
  Zr36     1.0000 0.74454  0.78323  0.24491  Biso   1.000  Zr
  Zr37     1.0000 0.62539  0.00015  0.62539  Biso   1.000  Zr
  Zr38     1.0000 0.62540  0.50015  0.87070  Biso   1.000  Zr
  Zr39     1.0000 0.87070  0.50015  0.62540  Biso   1.000  Zr
  Zr40     1.0000 0.87896  0.00282  0.87896  Biso   1.000  Zr
  Zr41     1.0000 0.49223  0.29026  0.49221  Biso   1.000  Zr
  Zr42     1.0000 0.50602  0.21290  0.74474  Biso   1.000  Zr
  Zr43     1.0000 0.49223  0.71004  0.75858  Biso   1.000  Zr
  Zr44     1.0000 0.50602  0.78740  0.50605  Biso   1.000  Zr
  Zr45     1.0000 0.75856  0.29026  0.75858  Biso   1.000  Zr
  Zr46     1.0000 0.74477  0.21290  0.50605  Biso   1.000  Zr
  Zr47     1.0000 0.75856  0.71004  0.49221  Biso   1.000  Zr
  Zr48     1.0000 0.74477  0.78740  0.74474  Biso   1.000  Zr
  Yb1      1.0000 0.12540  0.50015  0.12540  Biso   1.000  Yb
