data_image0
_cell_length_a       10.1424
_cell_length_b       5.1826
_cell_length_c       10.5704
_cell_angle_alpha    89.9131
_cell_angle_beta     91.4155
_cell_angle_gamma    89.9863

_symmetry_space_group_name_H-M    "P 1"
_symmetry_int_tables_number       1

loop_
  _symmetry_equiv_pos_as_xyz
  'x, y, z'

loop_
  _atom_site_label
  _atom_site_occupancy
  _atom_site_fract_x
  _atom_site_fract_y
  _atom_site_fract_z
  _atom_site_thermal_displace_type
  _atom_site_B_iso_or_equiv
  _atom_site_type_symbol
  Zr1      1.0000 0.13224  0.04164  0.17221  Biso   1.000  Zr
  Zr2      1.0000 0.13454  0.45368  0.42574  Biso   1.000  Zr
  Zr3      1.0000 0.34617  0.54014  0.18495  Biso   1.000  Zr
  Zr4      1.0000 0.36064  0.95562  0.42785  Biso   1.000  Zr
  Zr5      1.0000 0.64814  0.07352  0.06842  Biso   1.000  Zr
  Zr6      1.0000 0.63691  0.45493  0.33513  Biso   1.000  Zr
  Zr7      1.0000 0.85895  0.54247  0.07450  Biso   1.000  Zr
  Zr8      1.0000 0.85831  0.95517  0.32787  Biso   1.000  Zr
  O1       1.0000 0.03468  0.33476  0.08548  Biso   1.000  O
  O2       1.0000 0.02935  0.16423  0.33534  Biso   1.000  O
  O3       1.0000 0.46841  0.83044  0.08827  Biso   1.000  O
  O4       1.0000 0.46476  0.67187  0.33765  Biso   1.000  O
  O5       1.0000 0.26801  0.24891  0.30000  Biso   1.000  O
  O6       1.0000 0.27641  0.24822  0.04836  Biso   1.000  O
  O7       1.0000 0.21899  0.74938  0.30162  Biso   1.000  O
  O8       1.0000 0.22421  0.75202  0.05123  Biso   1.000  O
  O9       1.0000 0.51618  0.31041  0.18331  Biso   1.000  O
  O10      1.0000 0.52946  0.17343  0.42355  Biso   1.000  O
  O11      1.0000 0.96177  0.83434  0.16653  Biso   1.000  O
  O12      1.0000 0.96468  0.66410  0.41614  Biso   1.000  O
  O13      1.0000 0.77429  0.24518  0.45469  Biso   1.000  O
  O14      1.0000 0.77505  0.25854  0.20734  Biso   1.000  O
  O15      1.0000 0.72380  0.74773  0.45504  Biso   1.000  O
  O16      1.0000 0.71805  0.75242  0.20341  Biso   1.000  O
  Zr9      1.0000 0.14348  0.03871  0.67242  Biso   1.000  Zr
  Zr10     1.0000 0.14122  0.45775  0.92324  Biso   1.000  Zr
  Zr11     1.0000 0.36586  0.53735  0.67628  Biso   1.000  Zr
  Zr12     1.0000 0.36149  0.95825  0.92317  Biso   1.000  Zr
  Zr13     1.0000 0.64074  0.04020  0.58050  Biso   1.000  Zr
  Zr14     1.0000 0.64804  0.45634  0.82635  Biso   1.000  Zr
  Zr15     1.0000 0.86323  0.54023  0.57873  Biso   1.000  Zr
  Zr16     1.0000 0.87113  0.95878  0.82448  Biso   1.000  Zr
  O17      1.0000 0.03402  0.32696  0.58489  Biso   1.000  O
  O18      1.0000 0.04312  0.16432  0.83374  Biso   1.000  O
  O19      1.0000 0.46990  0.82709  0.58748  Biso   1.000  O
  O20      1.0000 0.47115  0.65982  0.84012  Biso   1.000  O
  O21      1.0000 0.28067  0.24740  0.79704  Biso   1.000  O
  O22      1.0000 0.27588  0.24711  0.54843  Biso   1.000  O
  O23      1.0000 0.22936  0.74650  0.79866  Biso   1.000  O
  O24      1.0000 0.22712  0.74600  0.54909  Biso   1.000  O
  O25      1.0000 0.53560  0.32743  0.66815  Biso   1.000  O
  O26      1.0000 0.53566  0.14743  0.90810  Biso   1.000  O
  O27      1.0000 0.97368  0.82618  0.66358  Biso   1.000  O
  O28      1.0000 0.97399  0.66706  0.91590  Biso   1.000  O
  O29      1.0000 0.79630  0.24761  0.94373  Biso   1.000  O
  O30      1.0000 0.78101  0.24687  0.70013  Biso   1.000  O
  O31      1.0000 0.74013  0.78061  0.94814  Biso   1.000  O
  O32      1.0000 0.73004  0.74645  0.70278  Biso   1.000  O
  Zn1      1.0000 0.58193  0.55477  0.05552  Biso   1.000  Zn
