data_image0
_cell_length_a       10.121
_cell_length_b       10.3316
_cell_length_c       10.5458
_cell_angle_alpha    89.8935
_cell_angle_beta     90.7343
_cell_angle_gamma    90.0064

_symmetry_space_group_name_H-M    "P 1"
_symmetry_int_tables_number       1

loop_
  _symmetry_equiv_pos_as_xyz
  'x, y, z'

loop_
  _atom_site_label
  _atom_site_occupancy
  _atom_site_fract_x
  _atom_site_fract_y
  _atom_site_fract_z
  _atom_site_thermal_displace_type
  _atom_site_B_iso_or_equiv
  _atom_site_type_symbol
  Zr1      1.0000 0.13636  0.02110  0.17195  Biso   1.000  Zr
  Zr2      1.0000 0.13529  0.22776  0.42636  Biso   1.000  Zr
  Zr3      1.0000 0.34531  0.27005  0.18388  Biso   1.000  Zr
  Zr4      1.0000 0.36106  0.48012  0.42448  Biso   1.000  Zr
  Zr5      1.0000 0.64183  0.02347  0.07067  Biso   1.000  Zr
  Zr6      1.0000 0.63591  0.22662  0.33493  Biso   1.000  Zr
  Zr7      1.0000 0.85714  0.26884  0.07379  Biso   1.000  Zr
  Zr8      1.0000 0.86027  0.47735  0.32767  Biso   1.000  Zr
  O1       1.0000 0.03370  0.16669  0.08468  Biso   1.000  O
  O2       1.0000 0.03035  0.08451  0.33472  Biso   1.000  O
  O3       1.0000 0.46898  0.41287  0.08738  Biso   1.000  O
  O4       1.0000 0.46401  0.33607  0.33604  Biso   1.000  O
  O5       1.0000 0.26894  0.12509  0.30047  Biso   1.000  O
  O6       1.0000 0.27623  0.12555  0.04768  Biso   1.000  O
  O7       1.0000 0.21815  0.37524  0.30040  Biso   1.000  O
  O8       1.0000 0.22439  0.37713  0.04898  Biso   1.000  O
  O9       1.0000 0.51355  0.15221  0.18481  Biso   1.000  O
  O10      1.0000 0.52989  0.08670  0.42371  Biso   1.000  O
  O11      1.0000 0.96234  0.41524  0.16651  Biso   1.000  O
  O12      1.0000 0.96557  0.33452  0.41802  Biso   1.000  O
  O13      1.0000 0.77425  0.12392  0.45572  Biso   1.000  O
  O14      1.0000 0.77145  0.12740  0.20744  Biso   1.000  O
  O15      1.0000 0.72338  0.37393  0.45396  Biso   1.000  O
  O16      1.0000 0.71590  0.37687  0.20253  Biso   1.000  O
  Zr9      1.0000 0.14138  0.02032  0.67263  Biso   1.000  Zr
  Zr10     1.0000 0.13873  0.22792  0.92220  Biso   1.000  Zr
  Zr11     1.0000 0.36466  0.27010  0.67508  Biso   1.000  Zr
  Zr12     1.0000 0.36047  0.47961  0.92218  Biso   1.000  Zr
  Zr13     1.0000 0.63967  0.02042  0.58099  Biso   1.000  Zr
  Zr14     1.0000 0.64744  0.22731  0.82685  Biso   1.000  Zr
  Zr15     1.0000 0.86143  0.27100  0.57949  Biso   1.000  Zr
  Zr16     1.0000 0.86706  0.48215  0.82569  Biso   1.000  Zr
  O17      1.0000 0.03263  0.16468  0.58549  Biso   1.000  O
  O18      1.0000 0.03868  0.08159  0.83329  Biso   1.000  O
  O19      1.0000 0.46900  0.41539  0.58553  Biso   1.000  O
  O20      1.0000 0.47142  0.33380  0.83920  Biso   1.000  O
  O21      1.0000 0.27858  0.12454  0.79664  Biso   1.000  O
  O22      1.0000 0.27593  0.12463  0.54798  Biso   1.000  O
  O23      1.0000 0.22768  0.37425  0.79772  Biso   1.000  O
  O24      1.0000 0.22623  0.37470  0.54838  Biso   1.000  O
  O25      1.0000 0.53489  0.16522  0.66764  Biso   1.000  O
  O26      1.0000 0.53723  0.07060  0.90450  Biso   1.000  O
  O27      1.0000 0.97058  0.41486  0.66598  Biso   1.000  O
  O28      1.0000 0.97092  0.33386  0.91459  Biso   1.000  O
  O29      1.0000 0.79488  0.11724  0.94601  Biso   1.000  O
  O30      1.0000 0.78025  0.12324  0.70141  Biso   1.000  O
  O31      1.0000 0.73764  0.39099  0.94860  Biso   1.000  O
  O32      1.0000 0.72773  0.37515  0.70263  Biso   1.000  O
  Zr17     1.0000 0.13455  0.52192  0.17140  Biso   1.000  Zr
  Zr18     1.0000 0.13772  0.72847  0.42094  Biso   1.000  Zr
  Zr19     1.0000 0.36107  0.77333  0.17266  Biso   1.000  Zr
  Zr20     1.0000 0.36080  0.97753  0.42463  Biso   1.000  Zr
  Zr21     1.0000 0.64452  0.53312  0.07726  Biso   1.000  Zr
  Zr22     1.0000 0.63946  0.73077  0.32906  Biso   1.000  Zr
  Zr23     1.0000 0.86292  0.77435  0.07877  Biso   1.000  Zr
  Zr24     1.0000 0.85941  0.97986  0.32871  Biso   1.000  Zr
  O33      1.0000 0.03354  0.66636  0.08381  Biso   1.000  O
  O34      1.0000 0.03068  0.58372  0.33344  Biso   1.000  O
  O35      1.0000 0.46924  0.91373  0.08244  Biso   1.000  O
  O36      1.0000 0.46848  0.83686  0.33382  Biso   1.000  O
  O37      1.0000 0.27348  0.62439  0.29528  Biso   1.000  O
  O38      1.0000 0.27650  0.62491  0.04594  Biso   1.000  O
  O39      1.0000 0.22476  0.87472  0.29647  Biso   1.000  O
  O40      1.0000 0.22413  0.87560  0.04735  Biso   1.000  O
  O41      1.0000 0.53213  0.66541  0.16838  Biso   1.000  O
  O42      1.0000 0.53144  0.58687  0.41784  Biso   1.000  O
  O43      1.0000 0.96658  0.91791  0.16675  Biso   1.000  O
  O44      1.0000 0.96646  0.83319  0.41474  Biso   1.000  O
  O45      1.0000 0.77548  0.62366  0.45354  Biso   1.000  O
  O46      1.0000 0.77735  0.62830  0.20430  Biso   1.000  O
  O47      1.0000 0.72476  0.87502  0.45542  Biso   1.000  O
  O48      1.0000 0.72580  0.87580  0.20485  Biso   1.000  O
  Zr25     1.0000 0.14126  0.52031  0.67125  Biso   1.000  Zr
  Zr26     1.0000 0.14160  0.72970  0.92219  Biso   1.000  Zr
  Zr27     1.0000 0.36244  0.76975  0.67239  Biso   1.000  Zr
  Zr28     1.0000 0.36329  0.97777  0.92224  Biso   1.000  Zr
  Zr29     1.0000 0.63976  0.52126  0.57820  Biso   1.000  Zr
  Zr30     1.0000 0.63959  0.72994  0.82720  Biso   1.000  Zr
  Zr31     1.0000 0.86313  0.77051  0.57756  Biso   1.000  Zr
  Zr32     1.0000 0.86579  0.97591  0.82665  Biso   1.000  Zr
  O49      1.0000 0.03376  0.66387  0.58242  Biso   1.000  O
  O50      1.0000 0.03760  0.58568  0.83343  Biso   1.000  O
  O51      1.0000 0.46866  0.91296  0.58455  Biso   1.000  O
  O52      1.0000 0.46708  0.83052  0.83382  Biso   1.000  O
  O53      1.0000 0.27812  0.62331  0.79555  Biso   1.000  O
  O54      1.0000 0.27539  0.62506  0.54569  Biso   1.000  O
  O55      1.0000 0.22633  0.87313  0.79590  Biso   1.000  O
  O56      1.0000 0.22529  0.87450  0.54558  Biso   1.000  O
  O57      1.0000 0.53321  0.66339  0.66727  Biso   1.000  O
  O58      1.0000 0.53230  0.58639  0.91923  Biso   1.000  O
  O59      1.0000 0.97102  0.91314  0.66424  Biso   1.000  O
  O60      1.0000 0.97083  0.83430  0.91788  Biso   1.000  O
  O61      1.0000 0.77720  0.63114  0.95366  Biso   1.000  O
  O62      1.0000 0.77701  0.62590  0.70337  Biso   1.000  O
  O63      1.0000 0.72695  0.87476  0.95437  Biso   1.000  O
  O64      1.0000 0.72660  0.87376  0.70431  Biso   1.000  O
  Zn1      1.0000 0.58005  0.26939  0.05507  Biso   1.000  Zn
