data_image0
_cell_length_a       10.1078
_cell_length_b       10.1756
_cell_length_c       5.03725
_cell_angle_alpha    90.0002
_cell_angle_beta     90.0002
_cell_angle_gamma    90.0057

_symmetry_space_group_name_H-M    "P 1"
_symmetry_int_tables_number       1

loop_
  _symmetry_equiv_pos_as_xyz
  'x, y, z'

loop_
  _atom_site_label
  _atom_site_occupancy
  _atom_site_fract_x
  _atom_site_fract_y
  _atom_site_fract_z
  _atom_site_thermal_displace_type
  _atom_site_B_iso_or_equiv
  _atom_site_type_symbol
  Zn1      1.0000 0.12491  0.00039  0.25159  Biso   1.000  Zn
  Zr1      1.0000 0.12492  0.50032  0.25150  Biso   1.000  Zr
  Zr2      1.0000 0.62491  0.00033  0.25148  Biso   1.000  Zr
  Zr3      1.0000 0.62493  0.50035  0.25147  Biso   1.000  Zr
  Zr4      1.0000 0.12490  0.25016  0.75139  Biso   1.000  Zr
  Zr5      1.0000 0.12493  0.75050  0.75138  Biso   1.000  Zr
  Zr6      1.0000 0.62491  0.24725  0.75150  Biso   1.000  Zr
  Zr7      1.0000 0.62492  0.75345  0.75147  Biso   1.000  Zr
  Zr8      1.0000 0.37668  0.24801  0.25885  Biso   1.000  Zr
  Zr9      1.0000 0.37666  0.75262  0.24411  Biso   1.000  Zr
  Zr10     1.0000 0.87314  0.24806  0.24413  Biso   1.000  Zr
  Zr11     1.0000 0.87318  0.75268  0.25883  Biso   1.000  Zr
  Zr12     1.0000 0.37189  0.00031  0.75145  Biso   1.000  Zr
  Zr13     1.0000 0.37956  0.50032  0.75146  Biso   1.000  Zr
  Zr14     1.0000 0.87793  0.00036  0.75154  Biso   1.000  Zr
  Zr15     1.0000 0.87029  0.50037  0.75147  Biso   1.000  Zr
  Zr16     1.0000 0.98021  0.15607  0.95381  Biso   1.000  Zr
  Zr17     1.0000 0.00022  0.65317  0.00908  Biso   1.000  Zr
  Zr18     1.0000 0.49129  0.14567  0.99132  Biso   1.000  Zr
  Zr19     1.0000 0.49957  0.64460  0.99599  Biso   1.000  Zr
  Zr20     1.0000 0.00702  0.09556  0.47444  Biso   1.000  Zr
  Zr21     1.0000 0.00119  0.59862  0.50646  Biso   1.000  Zr
  Zr22     1.0000 0.50790  0.10575  0.49775  Biso   1.000  Zr
  Zr23     1.0000 0.50027  0.60597  0.49671  Biso   1.000  Zr
  Zr24     1.0000 0.00021  0.34757  0.49381  Biso   1.000  Zr
  Zr25     1.0000 0.98019  0.84465  0.54931  Biso   1.000  Zr
  Zr26     1.0000 0.49957  0.35607  0.50698  Biso   1.000  Zr
  Zr27     1.0000 0.49129  0.85499  0.51161  Biso   1.000  Zr
  Zr28     1.0000 0.00118  0.40212  0.99640  Biso   1.000  Zr
  Zr29     1.0000 0.00700  0.90518  0.02870  Biso   1.000  Zr
  Zr30     1.0000 0.50025  0.39470  0.00627  Biso   1.000  Zr
  Zr31     1.0000 0.50789  0.89492  0.00517  Biso   1.000  Zr
  Zr32     1.0000 0.26962  0.15601  0.54920  Biso   1.000  Zr
  Zr33     1.0000 0.24963  0.65309  0.49384  Biso   1.000  Zr
  Zr34     1.0000 0.75854  0.14570  0.51170  Biso   1.000  Zr
  Zr35     1.0000 0.75027  0.64463  0.50696  Biso   1.000  Zr
  Zr36     1.0000 0.24282  0.09545  0.02858  Biso   1.000  Zr
  Zr37     1.0000 0.24866  0.59855  0.99644  Biso   1.000  Zr
  Zr38     1.0000 0.74193  0.10578  0.00526  Biso   1.000  Zr
  Zr39     1.0000 0.74958  0.60600  0.00624  Biso   1.000  Zr
  Zr40     1.0000 0.24960  0.34748  0.00916  Biso   1.000  Zr
  Zr41     1.0000 0.26963  0.84459  0.95371  Biso   1.000  Zr
  Zr42     1.0000 0.75026  0.35610  0.99599  Biso   1.000  Zr
  Zr43     1.0000 0.75852  0.85502  0.99138  Biso   1.000  Zr
  Zr44     1.0000 0.24865  0.40205  0.50653  Biso   1.000  Zr
  Zr45     1.0000 0.24280  0.90510  0.47433  Biso   1.000  Zr
  Zr46     1.0000 0.74957  0.39472  0.49669  Biso   1.000  Zr
  Zr47     1.0000 0.74193  0.89495  0.49781  Biso   1.000  Zr
