data_image0
_cell_length_a       10.0833
_cell_length_b       10.2
_cell_length_c       10.0833
_cell_angle_alpha    89.9986
_cell_angle_beta     89.9997
_cell_angle_gamma    89.9958

_symmetry_space_group_name_H-M    "P 1"
_symmetry_int_tables_number       1

loop_
  _symmetry_equiv_pos_as_xyz
  'x, y, z'

loop_
  _atom_site_label
  _atom_site_occupancy
  _atom_site_fract_x
  _atom_site_fract_y
  _atom_site_fract_z
  _atom_site_thermal_displace_type
  _atom_site_B_iso_or_equiv
  _atom_site_type_symbol
  Zn1      1.0000 0.12485  0.00004  0.12485  Biso   1.000  Zn
  Zr1      1.0000 0.12485  0.00005  0.62485  Biso   1.000  Zr
  Zr2      1.0000 0.12484  0.50005  0.12484  Biso   1.000  Zr
  Zr3      1.0000 0.12485  0.50004  0.62486  Biso   1.000  Zr
  Zr4      1.0000 0.62485  0.00004  0.12486  Biso   1.000  Zr
  Zr5      1.0000 0.62485  0.00005  0.62486  Biso   1.000  Zr
  Zr6      1.0000 0.62485  0.50004  0.12485  Biso   1.000  Zr
  Zr7      1.0000 0.62484  0.50005  0.62485  Biso   1.000  Zr
  Zr8      1.0000 0.12849  0.24992  0.37738  Biso   1.000  Zr
  Zr9      1.0000 0.12122  0.24990  0.87237  Biso   1.000  Zr
  Zr10     1.0000 0.12121  0.75018  0.37738  Biso   1.000  Zr
  Zr11     1.0000 0.12849  0.75019  0.87237  Biso   1.000  Zr
  Zr12     1.0000 0.62640  0.24803  0.37509  Biso   1.000  Zr
  Zr13     1.0000 0.62329  0.24802  0.87464  Biso   1.000  Zr
  Zr14     1.0000 0.62331  0.75207  0.37509  Biso   1.000  Zr
  Zr15     1.0000 0.62641  0.75207  0.87465  Biso   1.000  Zr
  Zr16     1.0000 0.37736  0.24992  0.12850  Biso   1.000  Zr
  Zr17     1.0000 0.37507  0.24803  0.62642  Biso   1.000  Zr
  Zr18     1.0000 0.37737  0.75019  0.12123  Biso   1.000  Zr
  Zr19     1.0000 0.37508  0.75207  0.62332  Biso   1.000  Zr
  Zr20     1.0000 0.87235  0.24990  0.12123  Biso   1.000  Zr
  Zr21     1.0000 0.87463  0.24803  0.62332  Biso   1.000  Zr
  Zr22     1.0000 0.87235  0.75018  0.12851  Biso   1.000  Zr
  Zr23     1.0000 0.87463  0.75207  0.62643  Biso   1.000  Zr
  Zr24     1.0000 0.37275  0.00156  0.37276  Biso   1.000  Zr
  Zr25     1.0000 0.37275  0.99853  0.87696  Biso   1.000  Zr
  Zr26     1.0000 0.37778  0.50138  0.37778  Biso   1.000  Zr
  Zr27     1.0000 0.37778  0.49874  0.87192  Biso   1.000  Zr
  Zr28     1.0000 0.87696  0.99853  0.37276  Biso   1.000  Zr
  Zr29     1.0000 0.87696  0.00156  0.87696  Biso   1.000  Zr
  Zr30     1.0000 0.87192  0.49873  0.37779  Biso   1.000  Zr
  Zr31     1.0000 0.87191  0.50135  0.87192  Biso   1.000  Zr
  Zr32     1.0000 0.98017  0.15800  0.98018  Biso   1.000  Zr
  Zr33     1.0000 0.99498  0.14525  0.49037  Biso   1.000  Zr
  Zr34     1.0000 0.00204  0.65709  0.00205  Biso   1.000  Zr
  Zr35     1.0000 0.99731  0.64478  0.50129  Biso   1.000  Zr
  Zr36     1.0000 0.49036  0.14525  0.99499  Biso   1.000  Zr
  Zr37     1.0000 0.49698  0.14670  0.49698  Biso   1.000  Zr
  Zr38     1.0000 0.50128  0.64478  0.99732  Biso   1.000  Zr
  Zr39     1.0000 0.49805  0.64559  0.49806  Biso   1.000  Zr
  Zr40     1.0000 0.00836  0.09184  0.24134  Biso   1.000  Zr
  Zr41     1.0000 0.00088  0.10516  0.74132  Biso   1.000  Zr
  Zr42     1.0000 0.99907  0.59551  0.25067  Biso   1.000  Zr
  Zr43     1.0000 0.00198  0.60480  0.75104  Biso   1.000  Zr
  Zr44     1.0000 0.50839  0.10517  0.24883  Biso   1.000  Zr
  Zr45     1.0000 0.50172  0.10388  0.74800  Biso   1.000  Zr
  Zr46     1.0000 0.49870  0.60480  0.24773  Biso   1.000  Zr
  Zr47     1.0000 0.50139  0.60461  0.74832  Biso   1.000  Zr
  Zr48     1.0000 0.00202  0.34299  0.24769  Biso   1.000  Zr
  Zr49     1.0000 0.99732  0.35531  0.74844  Biso   1.000  Zr
  Zr50     1.0000 0.98018  0.84208  0.26954  Biso   1.000  Zr
  Zr51     1.0000 0.99498  0.85484  0.75935  Biso   1.000  Zr
  Zr52     1.0000 0.50127  0.35532  0.25239  Biso   1.000  Zr
  Zr53     1.0000 0.49806  0.35451  0.75165  Biso   1.000  Zr
  Zr54     1.0000 0.49037  0.85485  0.25473  Biso   1.000  Zr
  Zr55     1.0000 0.49698  0.85339  0.75274  Biso   1.000  Zr
  Zr56     1.0000 0.99906  0.40457  0.99908  Biso   1.000  Zr
  Zr57     1.0000 0.00198  0.39530  0.49870  Biso   1.000  Zr
  Zr58     1.0000 0.00837  0.90823  0.00837  Biso   1.000  Zr
  Zr59     1.0000 0.00089  0.89492  0.50840  Biso   1.000  Zr
  Zr60     1.0000 0.49868  0.39530  0.00199  Biso   1.000  Zr
  Zr61     1.0000 0.50139  0.39549  0.50140  Biso   1.000  Zr
  Zr62     1.0000 0.50839  0.89492  0.00090  Biso   1.000  Zr
  Zr63     1.0000 0.50171  0.89622  0.50173  Biso   1.000  Zr
  Zr64     1.0000 0.26953  0.15802  0.26954  Biso   1.000  Zr
  Zr65     1.0000 0.25472  0.14525  0.75934  Biso   1.000  Zr
  Zr66     1.0000 0.24770  0.65711  0.24771  Biso   1.000  Zr
  Zr67     1.0000 0.25239  0.64478  0.74845  Biso   1.000  Zr
  Zr68     1.0000 0.75934  0.14525  0.25474  Biso   1.000  Zr
  Zr69     1.0000 0.75273  0.14670  0.75274  Biso   1.000  Zr
  Zr70     1.0000 0.74844  0.64478  0.25240  Biso   1.000  Zr
  Zr71     1.0000 0.75165  0.64558  0.75166  Biso   1.000  Zr
  Zr72     1.0000 0.24133  0.09186  0.00837  Biso   1.000  Zr
  Zr73     1.0000 0.24882  0.10517  0.50840  Biso   1.000  Zr
  Zr74     1.0000 0.25065  0.59552  0.99909  Biso   1.000  Zr
  Zr75     1.0000 0.24772  0.60480  0.49871  Biso   1.000  Zr
  Zr76     1.0000 0.74131  0.10516  0.00090  Biso   1.000  Zr
  Zr77     1.0000 0.74799  0.10388  0.50173  Biso   1.000  Zr
  Zr78     1.0000 0.75103  0.60480  0.00200  Biso   1.000  Zr
  Zr79     1.0000 0.74831  0.60461  0.50140  Biso   1.000  Zr
  Zr80     1.0000 0.24767  0.34300  0.00204  Biso   1.000  Zr
  Zr81     1.0000 0.25238  0.35532  0.50129  Biso   1.000  Zr
  Zr82     1.0000 0.26953  0.84209  0.98018  Biso   1.000  Zr
  Zr83     1.0000 0.25473  0.85485  0.49037  Biso   1.000  Zr
  Zr84     1.0000 0.74843  0.35531  0.99732  Biso   1.000  Zr
  Zr85     1.0000 0.75165  0.35451  0.49806  Biso   1.000  Zr
  Zr86     1.0000 0.75934  0.85484  0.99500  Biso   1.000  Zr
  Zr87     1.0000 0.75273  0.85339  0.49699  Biso   1.000  Zr
  Zr88     1.0000 0.25064  0.40459  0.25065  Biso   1.000  Zr
  Zr89     1.0000 0.24773  0.39530  0.75103  Biso   1.000  Zr
  Zr90     1.0000 0.24134  0.90826  0.24134  Biso   1.000  Zr
  Zr91     1.0000 0.24882  0.89493  0.74132  Biso   1.000  Zr
  Zr92     1.0000 0.75102  0.39529  0.24773  Biso   1.000  Zr
  Zr93     1.0000 0.74831  0.39548  0.74831  Biso   1.000  Zr
  Zr94     1.0000 0.74132  0.89492  0.24884  Biso   1.000  Zr
  Zr95     1.0000 0.74799  0.89621  0.74800  Biso   1.000  Zr
