data_image0
_cell_length_a       10.0296
_cell_length_b       10.4121
_cell_length_c       10.0702
_cell_angle_alpha    90.1238
_cell_angle_beta     89.668
_cell_angle_gamma    90.0812

_symmetry_space_group_name_H-M    "P 1"
_symmetry_int_tables_number       1

loop_
  _symmetry_equiv_pos_as_xyz
  'x, y, z'

loop_
  _atom_site_label
  _atom_site_occupancy
  _atom_site_fract_x
  _atom_site_fract_y
  _atom_site_fract_z
  _atom_site_thermal_displace_type
  _atom_site_B_iso_or_equiv
  _atom_site_type_symbol
  Zn1      1.0000 0.11868  0.02283  0.10433  Biso   1.000  Zn
  Zr1      1.0000 0.13439  0.01738  0.63041  Biso   1.000  Zr
  Zr2      1.0000 0.13557  0.51496  0.12643  Biso   1.000  Zr
  Zr3      1.0000 0.13443  0.51663  0.62653  Biso   1.000  Zr
  Zr4      1.0000 0.63456  0.01567  0.12464  Biso   1.000  Zr
  Zr5      1.0000 0.63144  0.01440  0.62228  Biso   1.000  Zr
  Zr6      1.0000 0.63419  0.51603  0.12695  Biso   1.000  Zr
  Zr7      1.0000 0.63367  0.51617  0.62557  Biso   1.000  Zr
  Zr8      1.0000 0.13691  0.23013  0.37394  Biso   1.000  Zr
  Zr9      1.0000 0.13223  0.23528  0.87643  Biso   1.000  Zr
  Zr10     1.0000 0.13671  0.73488  0.37701  Biso   1.000  Zr
  Zr11     1.0000 0.13403  0.73538  0.87949  Biso   1.000  Zr
  Zr12     1.0000 0.63350  0.23367  0.37497  Biso   1.000  Zr
  Zr13     1.0000 0.63280  0.23347  0.87417  Biso   1.000  Zr
  Zr14     1.0000 0.63461  0.73602  0.37523  Biso   1.000  Zr
  Zr15     1.0000 0.63260  0.73465  0.87585  Biso   1.000  Zr
  Zr16     1.0000 0.36412  0.26348  0.12830  Biso   1.000  Zr
  Zr17     1.0000 0.36559  0.26638  0.62680  Biso   1.000  Zr
  Zr18     1.0000 0.36399  0.76602  0.12857  Biso   1.000  Zr
  Zr19     1.0000 0.36588  0.76778  0.62851  Biso   1.000  Zr
  Zr20     1.0000 0.86419  0.26432  0.12438  Biso   1.000  Zr
  Zr21     1.0000 0.86546  0.26553  0.62325  Biso   1.000  Zr
  Zr22     1.0000 0.86973  0.76692  0.12275  Biso   1.000  Zr
  Zr23     1.0000 0.86666  0.76561  0.62363  Biso   1.000  Zr
  Zr24     1.0000 0.36599  0.48394  0.37678  Biso   1.000  Zr
  Zr25     1.0000 0.36527  0.48460  0.87645  Biso   1.000  Zr
  Zr26     1.0000 0.36158  0.98380  0.37389  Biso   1.000  Zr
  Zr27     1.0000 0.36144  0.98394  0.88221  Biso   1.000  Zr
  Zr28     1.0000 0.86631  0.48444  0.37565  Biso   1.000  Zr
  Zr29     1.0000 0.86516  0.48494  0.87513  Biso   1.000  Zr
  Zr30     1.0000 0.87109  0.98574  0.37231  Biso   1.000  Zr
  Zr31     1.0000 0.86334  0.98379  0.87148  Biso   1.000  Zr
  Zr32     1.0000 0.03540  0.18151  0.19247  Biso   1.000  Zr
  Zr33     1.0000 0.03732  0.18842  0.69029  Biso   1.000  Zr
  Zr34     1.0000 0.03585  0.68241  0.19510  Biso   1.000  Zr
  Zr35     1.0000 0.03572  0.68503  0.69500  Biso   1.000  Zr
  Zr36     1.0000 0.53847  0.18539  0.19200  Biso   1.000  Zr
  Zr37     1.0000 0.53593  0.18445  0.69251  Biso   1.000  Zr
  Zr38     1.0000 0.53596  0.68351  0.19646  Biso   1.000  Zr
  Zr39     1.0000 0.53421  0.68291  0.69628  Biso   1.000  Zr
  Zr40     1.0000 0.03675  0.06598  0.44726  Biso   1.000  Zr
  Zr41     1.0000 0.03387  0.06673  0.92317  Biso   1.000  Zr
  Zr42     1.0000 0.03547  0.56500  0.44593  Biso   1.000  Zr
  Zr43     1.0000 0.03444  0.56650  0.94596  Biso   1.000  Zr
  Zr44     1.0000 0.53474  0.06651  0.44290  Biso   1.000  Zr
  Zr45     1.0000 0.53363  0.06648  0.94544  Biso   1.000  Zr
  Zr46     1.0000 0.53602  0.56696  0.44444  Biso   1.000  Zr
  Zr47     1.0000 0.53513  0.56560  0.94581  Biso   1.000  Zr
  Zr48     1.0000 0.46471  0.43251  0.19537  Biso   1.000  Zr
  Zr49     1.0000 0.46402  0.43428  0.69509  Biso   1.000  Zr
  Zr50     1.0000 0.46939  0.93203  0.19692  Biso   1.000  Zr
  Zr51     1.0000 0.46366  0.93454  0.69857  Biso   1.000  Zr
  Zr52     1.0000 0.96602  0.42993  0.19493  Biso   1.000  Zr
  Zr53     1.0000 0.96354  0.43468  0.69372  Biso   1.000  Zr
  Zr54     1.0000 0.96946  0.93643  0.18929  Biso   1.000  Zr
  Zr55     1.0000 0.96179  0.93449  0.68892  Biso   1.000  Zr
  Zr56     1.0000 0.46510  0.31687  0.44565  Biso   1.000  Zr
  Zr57     1.0000 0.46124  0.31386  0.94215  Biso   1.000  Zr
  Zr58     1.0000 0.46815  0.81823  0.45084  Biso   1.000  Zr
  Zr59     1.0000 0.46116  0.81621  0.94514  Biso   1.000  Zr
  Zr60     1.0000 0.96464  0.31549  0.44127  Biso   1.000  Zr
  Zr61     1.0000 0.96300  0.31764  0.94439  Biso   1.000  Zr
  Zr62     1.0000 0.96483  0.81567  0.44145  Biso   1.000  Zr
  Zr63     1.0000 0.96080  0.81527  0.93973  Biso   1.000  Zr
  Zr64     1.0000 0.27858  0.12368  0.25460  Biso   1.000  Zr
  Zr65     1.0000 0.27201  0.11974  0.75275  Biso   1.000  Zr
  Zr66     1.0000 0.26962  0.61347  0.24991  Biso   1.000  Zr
  Zr67     1.0000 0.26898  0.61853  0.75119  Biso   1.000  Zr
  Zr68     1.0000 0.76994  0.11678  0.24744  Biso   1.000  Zr
  Zr69     1.0000 0.76792  0.11665  0.74579  Biso   1.000  Zr
  Zr70     1.0000 0.77163  0.61649  0.24802  Biso   1.000  Zr
  Zr71     1.0000 0.76882  0.61721  0.74871  Biso   1.000  Zr
  Zr72     1.0000 0.26953  0.13149  0.50297  Biso   1.000  Zr
  Zr73     1.0000 0.26457  0.13108  0.00308  Biso   1.000  Zr
  Zr74     1.0000 0.27112  0.63295  0.50069  Biso   1.000  Zr
  Zr75     1.0000 0.26949  0.63212  0.00075  Biso   1.000  Zr
  Zr76     1.0000 0.76996  0.13363  0.49637  Biso   1.000  Zr
  Zr77     1.0000 0.76978  0.13251  0.99632  Biso   1.000  Zr
  Zr78     1.0000 0.76881  0.63363  0.49838  Biso   1.000  Zr
  Zr79     1.0000 0.76898  0.63314  0.99877  Biso   1.000  Zr
  Zr80     1.0000 0.23029  0.38190  0.49959  Biso   1.000  Zr
  Zr81     1.0000 0.23027  0.38218  0.00002  Biso   1.000  Zr
  Zr82     1.0000 0.22908  0.88295  0.50482  Biso   1.000  Zr
  Zr83     1.0000 0.22585  0.88276  0.00746  Biso   1.000  Zr
  Zr84     1.0000 0.73070  0.38348  0.49876  Biso   1.000  Zr
  Zr85     1.0000 0.72865  0.38245  0.99871  Biso   1.000  Zr
  Zr86     1.0000 0.73283  0.88448  0.49606  Biso   1.000  Zr
  Zr87     1.0000 0.72783  0.88202  0.99740  Biso   1.000  Zr
  Zr88     1.0000 0.22875  0.36804  0.24965  Biso   1.000  Zr
  Zr89     1.0000 0.22918  0.36900  0.74973  Biso   1.000  Zr
  Zr90     1.0000 0.24189  0.85784  0.25954  Biso   1.000  Zr
  Zr91     1.0000 0.22896  0.86915  0.75405  Biso   1.000  Zr
  Zr92     1.0000 0.73061  0.36735  0.24888  Biso   1.000  Zr
  Zr93     1.0000 0.72988  0.36714  0.74853  Biso   1.000  Zr
  Zr94     1.0000 0.73580  0.86678  0.24665  Biso   1.000  Zr
  Zr95     1.0000 0.72838  0.86577  0.74621  Biso   1.000  Zr
