data_image0
_cell_length_a       5.08793
_cell_length_b       5.17946
_cell_length_c       5.24394
_cell_angle_alpha    90
_cell_angle_beta     80.4522
_cell_angle_gamma    90

_symmetry_space_group_name_H-M    "P 1"
_symmetry_int_tables_number       1

loop_
  _symmetry_equiv_pos_as_xyz
  'x, y, z'

loop_
  _atom_site_label
  _atom_site_occupancy
  _atom_site_fract_x
  _atom_site_fract_y
  _atom_site_fract_z
  _atom_site_thermal_displace_type
  _atom_site_B_iso_or_equiv
  _atom_site_type_symbol
  Zr1      1.0000 0.27770  0.04262  0.29067  Biso   1.000  Zr
  Zr2      1.0000 0.27769  0.45738  0.79067  Biso   1.000  Zr
  Zr3      1.0000 0.72231  0.54262  0.20933  Biso   1.000  Zr
  Zr4      1.0000 0.72230  0.95738  0.70933  Biso   1.000  Zr
  O1       1.0000 0.07210  0.34047  0.16206  Biso   1.000  O
  O2       1.0000 0.07210  0.15953  0.66206  Biso   1.000  O
  O3       1.0000 0.92790  0.84047  0.33794  Biso   1.000  O
  O4       1.0000 0.92790  0.65953  0.83794  Biso   1.000  O
  O5       1.0000 0.55211  0.25803  0.48134  Biso   1.000  O
  O6       1.0000 0.55211  0.24197  0.98134  Biso   1.000  O
  O7       1.0000 0.44789  0.75803  0.01866  Biso   1.000  O
  O8       1.0000 0.44789  0.74197  0.51866  Biso   1.000  O
