data_image0
_cell_length_a       10.0195
_cell_length_b       5.11748
_cell_length_c       5.22335
_cell_angle_alpha    90
_cell_angle_beta     90
_cell_angle_gamma    89.9999

_symmetry_space_group_name_H-M    "P 1"
_symmetry_int_tables_number       1

loop_
  _symmetry_equiv_pos_as_xyz
  'x, y, z'

loop_
  _atom_site_label
  _atom_site_occupancy
  _atom_site_fract_x
  _atom_site_fract_y
  _atom_site_fract_z
  _atom_site_thermal_displace_type
  _atom_site_B_iso_or_equiv
  _atom_site_type_symbol
  Hf1      1.0000 0.13876  0.04214  0.34270  Biso   1.000  Hf
  Hf2      1.0000 0.13876  0.45786  0.84270  Biso   1.000  Hf
  Hf3      1.0000 0.36124  0.54214  0.34270  Biso   1.000  Hf
  Hf4      1.0000 0.36124  0.95786  0.84270  Biso   1.000  Hf
  Hf5      1.0000 0.63876  0.04214  0.15730  Biso   1.000  Hf
  Hf6      1.0000 0.63876  0.45786  0.65730  Biso   1.000  Hf
  Hf7      1.0000 0.86124  0.54214  0.15730  Biso   1.000  Hf
  Hf8      1.0000 0.86124  0.95786  0.65730  Biso   1.000  Hf
  O1       1.0000 0.03355  0.33286  0.16889  Biso   1.000  O
  O2       1.0000 0.03355  0.16714  0.66889  Biso   1.000  O
  O3       1.0000 0.46645  0.83286  0.16889  Biso   1.000  O
  O4       1.0000 0.46645  0.66714  0.66889  Biso   1.000  O
  O5       1.0000 0.27658  0.24761  0.58958  Biso   1.000  O
  O6       1.0000 0.27658  0.25239  0.08958  Biso   1.000  O
  O7       1.0000 0.22342  0.74761  0.58958  Biso   1.000  O
  O8       1.0000 0.22342  0.75239  0.08958  Biso   1.000  O
  O9       1.0000 0.53355  0.33286  0.33111  Biso   1.000  O
  O10      1.0000 0.53355  0.16714  0.83111  Biso   1.000  O
  O11      1.0000 0.96645  0.83286  0.33111  Biso   1.000  O
  O12      1.0000 0.96645  0.66714  0.83111  Biso   1.000  O
  O13      1.0000 0.77658  0.24761  0.91042  Biso   1.000  O
  O14      1.0000 0.77658  0.25239  0.41042  Biso   1.000  O
  O15      1.0000 0.72342  0.74761  0.91042  Biso   1.000  O
  O16      1.0000 0.72342  0.75239  0.41042  Biso   1.000  O
