data_image0
_cell_length_a       5.00351
_cell_length_b       5.10164
_cell_length_c       5.00351
_cell_angle_alpha    89.9999
_cell_angle_beta     89.9999
_cell_angle_gamma    89.9997

_symmetry_space_group_name_H-M    "P 1"
_symmetry_int_tables_number       1

loop_
  _symmetry_equiv_pos_as_xyz
  'x, y, z'

loop_
  _atom_site_label
  _atom_site_occupancy
  _atom_site_fract_x
  _atom_site_fract_y
  _atom_site_fract_z
  _atom_site_thermal_displace_type
  _atom_site_B_iso_or_equiv
  _atom_site_type_symbol
  Hf1      1.0000 0.24995  0.00035  0.25000  Biso   1.000  Hf
  Hf2      1.0000 0.24995  0.50035  0.75000  Biso   1.000  Hf
  Hf3      1.0000 0.74994  0.50035  0.25000  Biso   1.000  Hf
  Hf4      1.0000 0.74995  0.00034  0.75000  Biso   1.000  Hf
  O1       1.0000 0.99995  0.29606  1.00000  Biso   1.000  O
  O2       1.0000 0.99995  0.20463  0.50000  Biso   1.000  O
  O3       1.0000 0.99995  0.70463  0.50000  Biso   1.000  O
  O4       1.0000 0.99995  0.79606  1.00000  Biso   1.000  O
  O5       1.0000 0.49995  0.29606  0.50000  Biso   1.000  O
  O6       1.0000 0.49995  0.20463  0.00000  Biso   1.000  O
  O7       1.0000 0.49995  0.70463  0.99999  Biso   1.000  O
  O8       1.0000 0.49995  0.79606  0.49999  Biso   1.000  O
