data_image0
_cell_length_a       10.0894
_cell_length_b       5.13634
_cell_length_c       10.5699
_cell_angle_alpha    89.7613
_cell_angle_beta     91.1729
_cell_angle_gamma    90.0767

_symmetry_space_group_name_H-M    "P 1"
_symmetry_int_tables_number       1

loop_
  _symmetry_equiv_pos_as_xyz
  'x, y, z'

loop_
  _atom_site_label
  _atom_site_occupancy
  _atom_site_fract_x
  _atom_site_fract_y
  _atom_site_fract_z
  _atom_site_thermal_displace_type
  _atom_site_B_iso_or_equiv
  _atom_site_type_symbol
  Hf1      1.0000 0.13472  0.04156  0.17233  Biso   1.000  Hf
  Hf2      1.0000 0.13699  0.45331  0.42592  Biso   1.000  Hf
  Hf3      1.0000 0.34877  0.54176  0.18648  Biso   1.000  Hf
  Hf4      1.0000 0.36289  0.95643  0.42722  Biso   1.000  Hf
  Hf5      1.0000 0.64246  0.05438  0.07668  Biso   1.000  Hf
  Hf6      1.0000 0.63922  0.45608  0.33267  Biso   1.000  Hf
  Hf7      1.0000 0.86080  0.54098  0.07578  Biso   1.000  Hf
  Hf8      1.0000 0.86155  0.95688  0.32836  Biso   1.000  Hf
  O1       1.0000 0.03282  0.32746  0.08230  Biso   1.000  O
  O2       1.0000 0.03097  0.17196  0.33220  Biso   1.000  O
  O3       1.0000 0.45266  0.86934  0.09923  Biso   1.000  O
  O4       1.0000 0.46731  0.67404  0.33697  Biso   1.000  O
  O5       1.0000 0.27024  0.24875  0.30080  Biso   1.000  O
  O6       1.0000 0.27536  0.25312  0.04798  Biso   1.000  O
  O7       1.0000 0.22030  0.74949  0.30207  Biso   1.000  O
  O8       1.0000 0.22097  0.75050  0.05035  Biso   1.000  O
  O9       1.0000 0.51836  0.29778  0.19219  Biso   1.000  O
  O10      1.0000 0.53094  0.17721  0.42635  Biso   1.000  O
  O11      1.0000 0.96563  0.82776  0.16888  Biso   1.000  O
  O12      1.0000 0.96825  0.67031  0.41884  Biso   1.000  O
  O13      1.0000 0.77665  0.24632  0.45323  Biso   1.000  O
  O14      1.0000 0.77556  0.25620  0.20517  Biso   1.000  O
  O15      1.0000 0.72615  0.74816  0.45651  Biso   1.000  O
  O16      1.0000 0.72410  0.75468  0.20873  Biso   1.000  O
  Hf9      1.0000 0.14326  0.03838  0.67357  Biso   1.000  Hf
  Hf10     1.0000 0.14090  0.45891  0.92385  Biso   1.000  Hf
  Hf11     1.0000 0.36492  0.53896  0.67517  Biso   1.000  Hf
  Hf12     1.0000 0.35982  0.96233  0.92473  Biso   1.000  Hf
  Hf13     1.0000 0.64191  0.03757  0.57732  Biso   1.000  Hf
  Hf14     1.0000 0.64998  0.45146  0.81633  Biso   1.000  Hf
  Hf15     1.0000 0.86617  0.54130  0.57734  Biso   1.000  Hf
  Hf16     1.0000 0.87035  0.95897  0.82655  Biso   1.000  Hf
  O17      1.0000 0.03453  0.32210  0.58262  Biso   1.000  O
  O18      1.0000 0.04073  0.16907  0.83182  Biso   1.000  O
  O19      1.0000 0.47207  0.82037  0.58391  Biso   1.000  O
  O20      1.0000 0.47247  0.66932  0.83198  Biso   1.000  O
  O21      1.0000 0.28066  0.24750  0.79765  Biso   1.000  O
  O22      1.0000 0.27726  0.24749  0.54874  Biso   1.000  O
  O23      1.0000 0.22864  0.74547  0.79851  Biso   1.000  O
  O24      1.0000 0.22749  0.74778  0.54926  Biso   1.000  O
  O25      1.0000 0.53485  0.31968  0.66870  Biso   1.000  O
  O26      1.0000 0.53631  0.14826  0.91251  Biso   1.000  O
  O27      1.0000 0.97426  0.82229  0.66694  Biso   1.000  O
  O28      1.0000 0.97400  0.67087  0.91777  Biso   1.000  O
  O29      1.0000 0.78896  0.24944  0.94513  Biso   1.000  O
  O30      1.0000 0.78253  0.24378  0.69820  Biso   1.000  O
  O31      1.0000 0.74164  0.77161  0.95108  Biso   1.000  O
  O32      1.0000 0.73127  0.74512  0.70310  Biso   1.000  O
  Ag1      1.0000 0.56024  0.54815  0.03523  Biso   1.000  Ag
