data_image0
_cell_length_a       10.1495
_cell_length_b       5.12695
_cell_length_c       10.476
_cell_angle_alpha    90.3272
_cell_angle_beta     80.4015
_cell_angle_gamma    89.5778

_symmetry_space_group_name_H-M    "P 1"
_symmetry_int_tables_number       1

loop_
  _symmetry_equiv_pos_as_xyz
  'x, y, z'

loop_
  _atom_site_label
  _atom_site_occupancy
  _atom_site_fract_x
  _atom_site_fract_y
  _atom_site_fract_z
  _atom_site_thermal_displace_type
  _atom_site_B_iso_or_equiv
  _atom_site_type_symbol
  Ag1      1.0000 0.12602  0.01736  0.16509  Biso   1.000  Ag
  Hf1      1.0000 0.14012  0.45329  0.39606  Biso   1.000  Hf
  Hf2      1.0000 0.35911  0.54155  0.10083  Biso   1.000  Hf
  Hf3      1.0000 0.36316  0.95259  0.35283  Biso   1.000  Hf
  O1       1.0000 0.03973  0.34543  0.07749  Biso   1.000  O
  O2       1.0000 0.02941  0.16778  0.32883  Biso   1.000  O
  O3       1.0000 0.46707  0.83109  0.17221  Biso   1.000  O
  O4       1.0000 0.46543  0.66367  0.42276  Biso   1.000  O
  O5       1.0000 0.27340  0.24301  0.23619  Biso   1.000  O
  O6       1.0000 0.27689  0.24013  0.48745  Biso   1.000  O
  O7       1.0000 0.22544  0.79016  0.01420  Biso   1.000  O
  O8       1.0000 0.22974  0.72068  0.26289  Biso   1.000  O
  Hf4      1.0000 0.13936  0.03968  0.64522  Biso   1.000  Hf
  Hf5      1.0000 0.14001  0.45663  0.89578  Biso   1.000  Hf
  Hf6      1.0000 0.36200  0.54457  0.60582  Biso   1.000  Hf
  Hf7      1.0000 0.36147  0.97183  0.85600  Biso   1.000  Hf
  O9       1.0000 0.03247  0.32254  0.57389  Biso   1.000  O
  O10      1.0000 0.03528  0.16817  0.82660  Biso   1.000  O
  O11      1.0000 0.46583  0.83671  0.67191  Biso   1.000  O
  O12      1.0000 0.46771  0.68124  0.92311  Biso   1.000  O
  O13      1.0000 0.27483  0.25648  0.73440  Biso   1.000  O
  O14      1.0000 0.29125  0.28315  0.97338  Biso   1.000  O
  O15      1.0000 0.22334  0.75297  0.51047  Biso   1.000  O
  O16      1.0000 0.22597  0.74432  0.76231  Biso   1.000  O
  Hf8      1.0000 0.63688  0.04093  0.14444  Biso   1.000  Hf
  Hf9      1.0000 0.63759  0.45382  0.39590  Biso   1.000  Hf
  Hf10     1.0000 0.86159  0.52990  0.10226  Biso   1.000  Hf
  Hf11     1.0000 0.85436  0.95057  0.35668  Biso   1.000  Hf
  O17      1.0000 0.53550  0.33620  0.07768  Biso   1.000  O
  O18      1.0000 0.53410  0.16349  0.32854  Biso   1.000  O
  O19      1.0000 0.95220  0.84105  0.17169  Biso   1.000  O
  O20      1.0000 0.96611  0.66688  0.42149  Biso   1.000  O
  O21      1.0000 0.77397  0.25382  0.24073  Biso   1.000  O
  O22      1.0000 0.77579  0.23982  0.49038  Biso   1.000  O
  O23      1.0000 0.72487  0.75775  0.00963  Biso   1.000  O
  O24      1.0000 0.72331  0.73818  0.26052  Biso   1.000  O
  Hf12     1.0000 0.63831  0.04342  0.64728  Biso   1.000  Hf
  Hf13     1.0000 0.63833  0.46340  0.89602  Biso   1.000  Hf
  Hf14     1.0000 0.86117  0.54112  0.60460  Biso   1.000  Hf
  Hf15     1.0000 0.86332  0.95656  0.85466  Biso   1.000  Hf
  O25      1.0000 0.53529  0.33433  0.57820  Biso   1.000  O
  O26      1.0000 0.53719  0.17206  0.82678  Biso   1.000  O
  O27      1.0000 0.96742  0.82570  0.67338  Biso   1.000  O
  O28      1.0000 0.96544  0.66549  0.92369  Biso   1.000  O
  O29      1.0000 0.77781  0.25913  0.73983  Biso   1.000  O
  O30      1.0000 0.77628  0.24264  0.98951  Biso   1.000  O
  O31      1.0000 0.72293  0.75381  0.51053  Biso   1.000  O
  O32      1.0000 0.72522  0.74492  0.75986  Biso   1.000  O
