data_image0
_cell_length_a       4.96683
_cell_length_b       10.3268
_cell_length_c       9.99427
_cell_angle_alpha    90.7479
_cell_angle_beta     89.2644
_cell_angle_gamma    90.3777

_symmetry_space_group_name_H-M    "P 1"
_symmetry_int_tables_number       1

loop_
  _symmetry_equiv_pos_as_xyz
  'x, y, z'

loop_
  _atom_site_label
  _atom_site_occupancy
  _atom_site_fract_x
  _atom_site_fract_y
  _atom_site_fract_z
  _atom_site_thermal_displace_type
  _atom_site_B_iso_or_equiv
  _atom_site_type_symbol
  Al1      1.0000 0.25042  0.03156  0.10625  Biso   1.000  Al
  Hf1      1.0000 0.27016  0.22563  0.37200  Biso   1.000  Hf
  Hf2      1.0000 0.72629  0.26008  0.12202  Biso   1.000  Hf
  Hf3      1.0000 0.73501  0.48064  0.37616  Biso   1.000  Hf
  Hf4      1.0000 0.05891  0.17647  0.19377  Biso   1.000  Hf
  Hf5      1.0000 0.07086  0.06469  0.44872  Biso   1.000  Hf
  Hf6      1.0000 0.93355  0.42837  0.19503  Biso   1.000  Hf
  Hf7      1.0000 0.93185  0.31347  0.44236  Biso   1.000  Hf
  Hf8      1.0000 0.51842  0.10168  0.23902  Biso   1.000  Hf
  Hf9      1.0000 0.54601  0.13178  0.49415  Biso   1.000  Hf
  Hf10     1.0000 0.45929  0.38080  0.49829  Biso   1.000  Hf
  Hf11     1.0000 0.46066  0.35936  0.24706  Biso   1.000  Hf
  Hf12     1.0000 0.26638  0.01578  0.62519  Biso   1.000  Hf
  Hf13     1.0000 0.25994  0.23670  0.87309  Biso   1.000  Hf
  Hf14     1.0000 0.73055  0.26607  0.62341  Biso   1.000  Hf
  Hf15     1.0000 0.72930  0.48740  0.87504  Biso   1.000  Hf
  Hf16     1.0000 0.07033  0.18618  0.69317  Biso   1.000  Hf
  Hf17     1.0000 0.05556  0.07115  0.94925  Biso   1.000  Hf
  Hf18     1.0000 0.92736  0.43514  0.69400  Biso   1.000  Hf
  Hf19     1.0000 0.92021  0.31868  0.94293  Biso   1.000  Hf
  Hf20     1.0000 0.53873  0.11930  0.74759  Biso   1.000  Hf
  Hf21     1.0000 0.51672  0.13586  0.99741  Biso   1.000  Hf
  Hf22     1.0000 0.45520  0.38507  0.99748  Biso   1.000  Hf
  Hf23     1.0000 0.45673  0.37017  0.74807  Biso   1.000  Hf
  Hf24     1.0000 0.27056  0.51507  0.12657  Biso   1.000  Hf
  Hf25     1.0000 0.27968  0.73347  0.37854  Biso   1.000  Hf
  Hf26     1.0000 0.74444  0.76708  0.12355  Biso   1.000  Hf
  Hf27     1.0000 0.73676  0.98325  0.36769  Biso   1.000  Hf
  Hf28     1.0000 0.07403  0.68383  0.19936  Biso   1.000  Hf
  Hf29     1.0000 0.07512  0.56406  0.44564  Biso   1.000  Hf
  Hf30     1.0000 0.97881  0.93547  0.19156  Biso   1.000  Hf
  Hf31     1.0000 0.94294  0.81828  0.45054  Biso   1.000  Hf
  Hf32     1.0000 0.54436  0.60695  0.24900  Biso   1.000  Hf
  Hf33     1.0000 0.54751  0.63247  0.50095  Biso   1.000  Hf
  Hf34     1.0000 0.46890  0.88370  0.50292  Biso   1.000  Hf
  Hf35     1.0000 0.50899  0.84923  0.26070  Biso   1.000  Hf
  Hf36     1.0000 0.27099  0.51780  0.62621  Biso   1.000  Hf
  Hf37     1.0000 0.26610  0.73927  0.88094  Biso   1.000  Hf
  Hf38     1.0000 0.73641  0.76960  0.62855  Biso   1.000  Hf
  Hf39     1.0000 0.71747  0.98767  0.88069  Biso   1.000  Hf
  Hf40     1.0000 0.07241  0.68508  0.69775  Biso   1.000  Hf
  Hf41     1.0000 0.06551  0.57041  0.94936  Biso   1.000  Hf
  Hf42     1.0000 0.92725  0.93670  0.69918  Biso   1.000  Hf
  Hf43     1.0000 0.91366  0.81921  0.93961  Biso   1.000  Hf
  Hf44     1.0000 0.53942  0.62088  0.75187  Biso   1.000  Hf
  Hf45     1.0000 0.53631  0.63648  0.00105  Biso   1.000  Hf
  Hf46     1.0000 0.44223  0.89313  0.01313  Biso   1.000  Hf
  Hf47     1.0000 0.45433  0.86996  0.75398  Biso   1.000  Hf
