data_image0
_cell_length_a       9.98097
_cell_length_b       10.4116
_cell_length_c       10.037
_cell_angle_alpha    89.7368
_cell_angle_beta     90.3168
_cell_angle_gamma    90.1433

_symmetry_space_group_name_H-M    "P 1"
_symmetry_int_tables_number       1

loop_
  _symmetry_equiv_pos_as_xyz
  'x, y, z'

loop_
  _atom_site_label
  _atom_site_occupancy
  _atom_site_fract_x
  _atom_site_fract_y
  _atom_site_fract_z
  _atom_site_thermal_displace_type
  _atom_site_B_iso_or_equiv
  _atom_site_type_symbol
  Hf1      1.0000 0.13564  0.02705  0.11673  Biso   1.000  Hf
  Hf2      1.0000 0.13436  0.23066  0.39086  Biso   1.000  Hf
  Hf3      1.0000 0.36211  0.26030  0.12065  Biso   1.000  Hf
  Hf4      1.0000 0.36580  0.48301  0.37354  Biso   1.000  Hf
  Hf5      1.0000 0.01150  0.18660  0.21539  Biso   1.000  Hf
  Hf6      1.0000 0.03552  0.06548  0.45092  Biso   1.000  Hf
  Hf7      1.0000 0.45661  0.43268  0.19272  Biso   1.000  Hf
  Hf8      1.0000 0.46192  0.31587  0.44400  Biso   1.000  Hf
  Hf9      1.0000 0.26566  0.11950  0.25341  Biso   1.000  Hf
  Hf10     1.0000 0.27317  0.12997  0.50298  Biso   1.000  Hf
  Hf11     1.0000 0.23082  0.38189  0.50024  Biso   1.000  Hf
  Hf12     1.0000 0.21592  0.36278  0.24699  Biso   1.000  Hf
  Hf13     1.0000 0.13506  0.01388  0.62897  Biso   1.000  Hf
  Hf14     1.0000 0.14765  0.22291  0.87592  Biso   1.000  Hf
  Hf15     1.0000 0.36823  0.26663  0.62712  Biso   1.000  Hf
  Hf16     1.0000 0.36763  0.48393  0.87383  Biso   1.000  Hf
  Hf17     1.0000 0.03796  0.18124  0.69475  Biso   1.000  Hf
  Hf18     1.0000 0.04015  0.06219  0.93727  Biso   1.000  Hf
  Hf19     1.0000 0.46825  0.43236  0.69430  Biso   1.000  Hf
  Hf20     1.0000 0.46310  0.31388  0.94113  Biso   1.000  Hf
  Hf21     1.0000 0.27513  0.11449  0.74679  Biso   1.000  Hf
  Hf22     1.0000 0.29823  0.11772  0.98862  Biso   1.000  Hf
  Hf23     1.0000 0.22679  0.39026  0.00110  Biso   1.000  Hf
  Hf24     1.0000 0.23387  0.36603  0.75047  Biso   1.000  Hf
  Hf25     1.0000 0.13583  0.55200  0.11687  Biso   1.000  Hf
  Hf26     1.0000 0.13465  0.73693  0.38058  Biso   1.000  Hf
  Hf27     1.0000 0.36163  0.77079  0.12596  Biso   1.000  Hf
  Hf28     1.0000 0.36309  0.98271  0.37556  Biso   1.000  Hf
  Hf29     1.0000 0.02410  0.68681  0.20989  Biso   1.000  Hf
  Hf30     1.0000 0.03506  0.56700  0.44852  Biso   1.000  Hf
  Hf31     1.0000 0.46124  0.93538  0.19520  Biso   1.000  Hf
  Hf32     1.0000 0.46347  0.81429  0.44173  Biso   1.000  Hf
  Hf33     1.0000 0.27290  0.62443  0.25160  Biso   1.000  Hf
  Hf34     1.0000 0.27095  0.63056  0.49902  Biso   1.000  Hf
  Hf35     1.0000 0.23043  0.88211  0.50110  Biso   1.000  Hf
  Hf36     1.0000 0.22694  0.87000  0.25111  Biso   1.000  Hf
  Hf37     1.0000 0.13387  0.51540  0.62775  Biso   1.000  Hf
  Hf38     1.0000 0.13551  0.73752  0.87354  Biso   1.000  Hf
  Hf39     1.0000 0.36955  0.76327  0.62308  Biso   1.000  Hf
  Hf40     1.0000 0.37312  0.97560  0.87132  Biso   1.000  Hf
  Hf41     1.0000 0.03778  0.68339  0.69151  Biso   1.000  Hf
  Hf42     1.0000 0.03565  0.57235  0.94123  Biso   1.000  Hf
  Hf43     1.0000 0.46918  0.93005  0.68924  Biso   1.000  Hf
  Hf44     1.0000 0.47118  0.81501  0.94756  Biso   1.000  Hf
  Hf45     1.0000 0.27171  0.61606  0.74699  Biso   1.000  Hf
  Hf46     1.0000 0.28306  0.63440  0.99132  Biso   1.000  Hf
  Hf47     1.0000 0.23139  0.88264  0.99847  Biso   1.000  Hf
  Hf48     1.0000 0.23519  0.86548  0.74732  Biso   1.000  Hf
  Hf49     1.0000 0.62876  0.01212  0.12238  Biso   1.000  Hf
  Hf50     1.0000 0.62892  0.23069  0.37849  Biso   1.000  Hf
  Hf51     1.0000 0.83553  0.26175  0.13033  Biso   1.000  Hf
  Hf52     1.0000 0.86824  0.48535  0.37489  Biso   1.000  Hf
  Hf53     1.0000 0.53441  0.18238  0.19233  Biso   1.000  Hf
  Hf54     1.0000 0.53468  0.06472  0.44465  Biso   1.000  Hf
  Hf55     1.0000 0.97012  0.42964  0.18614  Biso   1.000  Hf
  Hf56     1.0000 0.96662  0.32064  0.45110  Biso   1.000  Hf
  Hf57     1.0000 0.75898  0.11352  0.25095  Biso   1.000  Hf
  Hf58     1.0000 0.77173  0.13344  0.49811  Biso   1.000  Hf
  Hf59     1.0000 0.73198  0.38307  0.50050  Biso   1.000  Hf
  Hf60     1.0000 0.72259  0.37037  0.25411  Biso   1.000  Hf
  Hf61     1.0000 0.63780  0.01445  0.62357  Biso   1.000  Hf
  Hf62     1.0000 0.63093  0.23105  0.87141  Biso   1.000  Hf
  Hf63     1.0000 0.86841  0.26572  0.62728  Biso   1.000  Hf
  Hf64     1.0000 0.86680  0.48103  0.88007  Biso   1.000  Hf
  Hf65     1.0000 0.53935  0.18306  0.69011  Biso   1.000  Hf
  Hf66     1.0000 0.54543  0.06065  0.93605  Biso   1.000  Hf
  Hf67     1.0000 0.96906  0.42969  0.70614  Biso   1.000  Hf
  Hf68     1.0000 0.97407  0.31243  0.96769  Biso   1.000  Hf
  Hf69     1.0000 0.77314  0.11600  0.74833  Biso   1.000  Hf
  Hf70     1.0000 0.77009  0.13062  0.99812  Biso   1.000  Hf
  Hf71     1.0000 0.72634  0.37996  0.00083  Biso   1.000  Hf
  Hf72     1.0000 0.73383  0.36578  0.75178  Biso   1.000  Hf
  Hf73     1.0000 0.62730  0.51912  0.12584  Biso   1.000  Hf
  Hf74     1.0000 0.63295  0.73227  0.37449  Biso   1.000  Hf
  Hf75     1.0000 0.86289  0.76997  0.12579  Biso   1.000  Hf
  Hf76     1.0000 0.86833  0.98427  0.37267  Biso   1.000  Hf
  Hf77     1.0000 0.53381  0.68367  0.19379  Biso   1.000  Hf
  Hf78     1.0000 0.53398  0.56441  0.44451  Biso   1.000  Hf
  Hf79     1.0000 0.96316  0.93943  0.19182  Biso   1.000  Hf
  Hf80     1.0000 0.96474  0.81896  0.44662  Biso   1.000  Hf
  Hf81     1.0000 0.76705  0.61540  0.24971  Biso   1.000  Hf
  Hf82     1.0000 0.77053  0.63198  0.49889  Biso   1.000  Hf
  Hf83     1.0000 0.73093  0.88261  0.49740  Biso   1.000  Hf
  Hf84     1.0000 0.72811  0.86642  0.24870  Biso   1.000  Hf
  Hf85     1.0000 0.63727  0.51478  0.62572  Biso   1.000  Hf
  Hf86     1.0000 0.63710  0.73110  0.87493  Biso   1.000  Hf
  Hf87     1.0000 0.86772  0.76539  0.62481  Biso   1.000  Hf
  Hf88     1.0000 0.86695  0.98087  0.87493  Biso   1.000  Hf
  Hf89     1.0000 0.53932  0.68181  0.69346  Biso   1.000  Hf
  Hf90     1.0000 0.54007  0.56349  0.94196  Biso   1.000  Hf
  Hf91     1.0000 0.96703  0.92992  0.69798  Biso   1.000  Hf
  Hf92     1.0000 0.96485  0.81587  0.94698  Biso   1.000  Hf
  Hf93     1.0000 0.77447  0.61409  0.75081  Biso   1.000  Hf
  Hf94     1.0000 0.77275  0.63031  0.00099  Biso   1.000  Hf
  Hf95     1.0000 0.73051  0.88103  0.99888  Biso   1.000  Hf
  Hf96     1.0000 0.73246  0.86526  0.74855  Biso   1.000  Hf
  Al1      1.0000 0.09365  0.30683  0.11600  Biso   1.000  Al
