data_image0
_cell_length_a       10.0034
_cell_length_b       10.4888
_cell_length_c       5.03794
_cell_angle_alpha    89.8144
_cell_angle_beta     90.3592
_cell_angle_gamma    90.2751

_symmetry_space_group_name_H-M    "P 1"
_symmetry_int_tables_number       1

loop_
  _symmetry_equiv_pos_as_xyz
  'x, y, z'

loop_
  _atom_site_label
  _atom_site_occupancy
  _atom_site_fract_x
  _atom_site_fract_y
  _atom_site_fract_z
  _atom_site_thermal_displace_type
  _atom_site_B_iso_or_equiv
  _atom_site_type_symbol
  Hf1      1.0000 0.13796  0.02279  0.24571  Biso   1.000  Hf
  Hf2      1.0000 0.14842  0.21836  0.78993  Biso   1.000  Hf
  Hf3      1.0000 0.36353  0.25996  0.24660  Biso   1.000  Hf
  Hf4      1.0000 0.36619  0.48327  0.74335  Biso   1.000  Hf
  Hf5      1.0000 0.01100  0.18693  0.44505  Biso   1.000  Hf
  Hf6      1.0000 0.03856  0.06130  0.89634  Biso   1.000  Hf
  Hf7      1.0000 0.46257  0.43010  0.38702  Biso   1.000  Hf
  Hf8      1.0000 0.46006  0.31390  0.88181  Biso   1.000  Hf
  Hf9      1.0000 0.27150  0.11359  0.50418  Biso   1.000  Hf
  Hf10     1.0000 0.29962  0.11481  0.98780  Biso   1.000  Hf
  Hf11     1.0000 0.22972  0.39142  0.01365  Biso   1.000  Hf
  Hf12     1.0000 0.22524  0.35648  0.51060  Biso   1.000  Hf
  Hf13     1.0000 0.13301  0.55559  0.22559  Biso   1.000  Hf
  Hf14     1.0000 0.13494  0.74081  0.75370  Biso   1.000  Hf
  Hf15     1.0000 0.36641  0.76716  0.24533  Biso   1.000  Hf
  Hf16     1.0000 0.36996  0.97456  0.74404  Biso   1.000  Hf
  Hf17     1.0000 0.02598  0.69124  0.40986  Biso   1.000  Hf
  Hf18     1.0000 0.03358  0.57267  0.87723  Biso   1.000  Hf
  Hf19     1.0000 0.46737  0.92991  0.38109  Biso   1.000  Hf
  Hf20     1.0000 0.47121  0.81333  0.88862  Biso   1.000  Hf
  Hf21     1.0000 0.27256  0.62178  0.48995  Biso   1.000  Hf
  Hf22     1.0000 0.28275  0.63391  0.97556  Biso   1.000  Hf
  Hf23     1.0000 0.23272  0.88244  0.00136  Biso   1.000  Hf
  Hf24     1.0000 0.23318  0.86694  0.49707  Biso   1.000  Hf
  Hf25     1.0000 0.63178  0.01000  0.23813  Biso   1.000  Hf
  Hf26     1.0000 0.62456  0.22828  0.74361  Biso   1.000  Hf
  Hf27     1.0000 0.83866  0.25879  0.25551  Biso   1.000  Hf
  Hf28     1.0000 0.86783  0.48220  0.75106  Biso   1.000  Hf
  Hf29     1.0000 0.53668  0.18052  0.37722  Biso   1.000  Hf
  Hf30     1.0000 0.54284  0.06008  0.87342  Biso   1.000  Hf
  Hf31     1.0000 0.97755  0.43016  0.39504  Biso   1.000  Hf
  Hf32     1.0000 0.97936  0.31481  0.95615  Biso   1.000  Hf
  Hf33     1.0000 0.76077  0.11049  0.49395  Biso   1.000  Hf
  Hf34     1.0000 0.76963  0.13197  0.98777  Biso   1.000  Hf
  Hf35     1.0000 0.73019  0.38039  0.99974  Biso   1.000  Hf
  Hf36     1.0000 0.72819  0.36678  0.50679  Biso   1.000  Hf
  Hf37     1.0000 0.63031  0.51643  0.24810  Biso   1.000  Hf
  Hf38     1.0000 0.63640  0.72925  0.74529  Biso   1.000  Hf
  Hf39     1.0000 0.86382  0.77021  0.24455  Biso   1.000  Hf
  Hf40     1.0000 0.86935  0.98272  0.74111  Biso   1.000  Hf
  Hf41     1.0000 0.53714  0.68063  0.38511  Biso   1.000  Hf
  Hf42     1.0000 0.53781  0.56191  0.88396  Biso   1.000  Hf
  Hf43     1.0000 0.96628  0.93723  0.38908  Biso   1.000  Hf
  Hf44     1.0000 0.96454  0.81973  0.89346  Biso   1.000  Hf
  Hf45     1.0000 0.77098  0.61092  0.49879  Biso   1.000  Hf
  Hf46     1.0000 0.77239  0.63051  0.99789  Biso   1.000  Hf
  Hf47     1.0000 0.73193  0.88207  0.99081  Biso   1.000  Hf
  Hf48     1.0000 0.73108  0.86337  0.49338  Biso   1.000  Hf
  Al1      1.0000 0.09718  0.30847  0.26209  Biso   1.000  Al
