data_image0
_cell_length_a       10.0279
_cell_length_b       10.5356
_cell_length_c       5.06399
_cell_angle_alpha    89.4984
_cell_angle_beta     91.9413
_cell_angle_gamma    90.4971

_symmetry_space_group_name_H-M    "P 1"
_symmetry_int_tables_number       1

loop_
  _symmetry_equiv_pos_as_xyz
  'x, y, z'

loop_
  _atom_site_label
  _atom_site_occupancy
  _atom_site_fract_x
  _atom_site_fract_y
  _atom_site_fract_z
  _atom_site_thermal_displace_type
  _atom_site_B_iso_or_equiv
  _atom_site_type_symbol
  Hf1      1.0000 0.11484  0.97843  0.22041  Biso   1.000  Hf
  Hf2      1.0000 0.13886  0.20238  0.66291  Biso   1.000  Hf
  Hf3      1.0000 0.36849  0.26430  0.23034  Biso   1.000  Hf
  Hf4      1.0000 0.37126  0.48503  0.74537  Biso   1.000  Hf
  Hf5      1.0000 0.01367  0.14539  0.33317  Biso   1.000  Hf
  Hf6      1.0000 0.04055  0.05728  0.86457  Biso   1.000  Hf
  Hf7      1.0000 0.46710  0.43077  0.40155  Biso   1.000  Hf
  Hf8      1.0000 0.48119  0.32407  0.91670  Biso   1.000  Hf
  Hf9      1.0000 0.26053  0.09281  0.42342  Biso   1.000  Hf
  Hf10     1.0000 0.30165  0.14335  0.90706  Biso   1.000  Hf
  Hf11     1.0000 0.25501  0.41554  0.03787  Biso   1.000  Hf
  Hf12     1.0000 0.24155  0.35719  0.52887  Biso   1.000  Hf
  Hf13     1.0000 0.12531  0.52717  0.26044  Biso   1.000  Hf
  Hf14     1.0000 0.13522  0.74052  0.75513  Biso   1.000  Hf
  Hf15     1.0000 0.37195  0.76652  0.24846  Biso   1.000  Hf
  Hf16     1.0000 0.37549  0.98648  0.72913  Biso   1.000  Hf
  Hf17     1.0000 0.03267  0.68658  0.41337  Biso   1.000  Hf
  Hf18     1.0000 0.03386  0.57017  0.89577  Biso   1.000  Hf
  Hf19     1.0000 0.47296  0.92943  0.39120  Biso   1.000  Hf
  Hf20     1.0000 0.46966  0.81929  0.89604  Biso   1.000  Hf
  Hf21     1.0000 0.26792  0.61473  0.51348  Biso   1.000  Hf
  Hf22     1.0000 0.26102  0.64861  0.01258  Biso   1.000  Hf
  Hf23     1.0000 0.24305  0.89073  0.97760  Biso   1.000  Hf
  Hf24     1.0000 0.23469  0.85594  0.48435  Biso   1.000  Hf
  Hf25     1.0000 0.63622  0.01860  0.26564  Biso   1.000  Hf
  Hf26     1.0000 0.63658  0.23265  0.77881  Biso   1.000  Hf
  Hf27     1.0000 0.85312  0.27725  0.31984  Biso   1.000  Hf
  Hf28     1.0000 0.86725  0.48692  0.75435  Biso   1.000  Hf
  Hf29     1.0000 0.52923  0.17743  0.41481  Biso   1.000  Hf
  Hf30     1.0000 0.54634  0.06332  0.90233  Biso   1.000  Hf
  Hf31     1.0000 0.93684  0.46744  0.37238  Biso   1.000  Hf
  Hf32     1.0000 0.95948  0.30451  0.69986  Biso   1.000  Hf
  Hf33     1.0000 0.76676  0.11746  0.53321  Biso   1.000  Hf
  Hf34     1.0000 0.77609  0.13826  0.03642  Biso   1.000  Hf
  Hf35     1.0000 0.74605  0.38196  0.02162  Biso   1.000  Hf
  Hf36     1.0000 0.71292  0.37281  0.52565  Biso   1.000  Hf
  Hf37     1.0000 0.63162  0.51545  0.26073  Biso   1.000  Hf
  Hf38     1.0000 0.63214  0.73408  0.76610  Biso   1.000  Hf
  Hf39     1.0000 0.85922  0.76272  0.27994  Biso   1.000  Hf
  Hf40     1.0000 0.86053  0.98286  0.77490  Biso   1.000  Hf
  Hf41     1.0000 0.53425  0.67898  0.40543  Biso   1.000  Hf
  Hf42     1.0000 0.53354  0.57131  0.90938  Biso   1.000  Hf
  Hf43     1.0000 0.96498  0.91893  0.44712  Biso   1.000  Hf
  Hf44     1.0000 0.98411  0.82826  0.96647  Biso   1.000  Hf
  Hf45     1.0000 0.76334  0.62040  0.52408  Biso   1.000  Hf
  Hf46     1.0000 0.76873  0.63665  0.01551  Biso   1.000  Hf
  Hf47     1.0000 0.73566  0.88303  0.02523  Biso   1.000  Hf
  Hf48     1.0000 0.73015  0.86767  0.52372  Biso   1.000  Hf
  As1      1.0000 0.09164  0.27949  0.12015  Biso   1.000  As
