data_image0
_cell_length_a       10.0309
_cell_length_b       10.382
_cell_length_c       10.0676
_cell_angle_alpha    89.6411
_cell_angle_beta     90.0067
_cell_angle_gamma    90.4462

_symmetry_space_group_name_H-M    "P 1"
_symmetry_int_tables_number       1

loop_
  _symmetry_equiv_pos_as_xyz
  'x, y, z'

loop_
  _atom_site_label
  _atom_site_occupancy
  _atom_site_fract_x
  _atom_site_fract_y
  _atom_site_fract_z
  _atom_site_thermal_displace_type
  _atom_site_B_iso_or_equiv
  _atom_site_type_symbol
  Hf1      1.0000 0.14727  0.99776  0.11162  Biso   1.000  Hf
  Hf2      1.0000 0.13168  0.23386  0.39435  Biso   1.000  Hf
  Hf3      1.0000 0.36609  0.26703  0.12255  Biso   1.000  Hf
  Hf4      1.0000 0.36927  0.48604  0.37508  Biso   1.000  Hf
  Hf5      1.0000 0.95315  0.18966  0.28738  Biso   1.000  Hf
  Hf6      1.0000 0.04259  0.06233  0.46133  Biso   1.000  Hf
  Hf7      1.0000 0.46169  0.43572  0.19228  Biso   1.000  Hf
  Hf8      1.0000 0.46557  0.31879  0.44540  Biso   1.000  Hf
  Hf9      1.0000 0.25816  0.11143  0.25088  Biso   1.000  Hf
  Hf10     1.0000 0.27554  0.13288  0.50203  Biso   1.000  Hf
  Hf11     1.0000 0.23745  0.38487  0.50166  Biso   1.000  Hf
  Hf12     1.0000 0.23063  0.36746  0.25525  Biso   1.000  Hf
  Hf13     1.0000 0.13917  0.01326  0.63101  Biso   1.000  Hf
  Hf14     1.0000 0.13823  0.23056  0.86820  Biso   1.000  Hf
  Hf15     1.0000 0.37079  0.26760  0.62648  Biso   1.000  Hf
  Hf16     1.0000 0.36951  0.48574  0.87187  Biso   1.000  Hf
  Hf17     1.0000 0.03965  0.18275  0.69306  Biso   1.000  Hf
  Hf18     1.0000 0.04828  0.05388  0.92877  Biso   1.000  Hf
  Hf19     1.0000 0.46915  0.43378  0.69502  Biso   1.000  Hf
  Hf20     1.0000 0.46436  0.31488  0.94099  Biso   1.000  Hf
  Hf21     1.0000 0.27610  0.11722  0.74868  Biso   1.000  Hf
  Hf22     1.0000 0.28553  0.12302  0.99475  Biso   1.000  Hf
  Hf23     1.0000 0.23584  0.39007  0.99640  Biso   1.000  Hf
  Hf24     1.0000 0.23328  0.36622  0.74728  Biso   1.000  Hf
  Hf25     1.0000 0.13351  0.52100  0.12486  Biso   1.000  Hf
  Hf26     1.0000 0.13413  0.73602  0.37589  Biso   1.000  Hf
  Hf27     1.0000 0.36961  0.76078  0.12399  Biso   1.000  Hf
  Hf28     1.0000 0.36558  0.98440  0.37503  Biso   1.000  Hf
  Hf29     1.0000 0.03799  0.68664  0.19327  Biso   1.000  Hf
  Hf30     1.0000 0.03498  0.57220  0.44204  Biso   1.000  Hf
  Hf31     1.0000 0.46036  0.93275  0.19455  Biso   1.000  Hf
  Hf32     1.0000 0.46746  0.81692  0.44287  Biso   1.000  Hf
  Hf33     1.0000 0.27110  0.61653  0.24731  Biso   1.000  Hf
  Hf34     1.0000 0.27099  0.63323  0.49626  Biso   1.000  Hf
  Hf35     1.0000 0.23310  0.88279  0.49817  Biso   1.000  Hf
  Hf36     1.0000 0.23348  0.86174  0.24562  Biso   1.000  Hf
  Hf37     1.0000 0.13053  0.51254  0.62110  Biso   1.000  Hf
  Hf38     1.0000 0.13335  0.72978  0.86942  Biso   1.000  Hf
  Hf39     1.0000 0.37007  0.76351  0.62128  Biso   1.000  Hf
  Hf40     1.0000 0.37334  0.97963  0.86960  Biso   1.000  Hf
  Hf41     1.0000 0.03791  0.68435  0.68902  Biso   1.000  Hf
  Hf42     1.0000 0.03530  0.56613  0.94669  Biso   1.000  Hf
  Hf43     1.0000 0.47017  0.93160  0.69165  Biso   1.000  Hf
  Hf44     1.0000 0.47373  0.81744  0.94873  Biso   1.000  Hf
  Hf45     1.0000 0.26858  0.61327  0.74524  Biso   1.000  Hf
  Hf46     1.0000 0.27013  0.63314  0.99619  Biso   1.000  Hf
  Hf47     1.0000 0.23847  0.87370  0.99195  Biso   1.000  Hf
  Hf48     1.0000 0.23693  0.86297  0.74662  Biso   1.000  Hf
  Hf49     1.0000 0.62664  0.00789  0.11857  Biso   1.000  Hf
  Hf50     1.0000 0.62867  0.23102  0.37961  Biso   1.000  Hf
  Hf51     1.0000 0.82985  0.26478  0.13083  Biso   1.000  Hf
  Hf52     1.0000 0.86700  0.48453  0.37678  Biso   1.000  Hf
  Hf53     1.0000 0.52693  0.18248  0.19293  Biso   1.000  Hf
  Hf54     1.0000 0.53350  0.06610  0.44770  Biso   1.000  Hf
  Hf55     1.0000 0.95666  0.43586  0.19176  Biso   1.000  Hf
  Hf56     1.0000 0.98183  0.33797  0.47421  Biso   1.000  Hf
  Hf57     1.0000 0.74126  0.11020  0.24723  Biso   1.000  Hf
  Hf58     1.0000 0.77358  0.13929  0.49782  Biso   1.000  Hf
  Hf59     1.0000 0.73435  0.38346  0.50146  Biso   1.000  Hf
  Hf60     1.0000 0.71716  0.37269  0.25604  Biso   1.000  Hf
  Hf61     1.0000 0.64001  0.01564  0.62278  Biso   1.000  Hf
  Hf62     1.0000 0.63226  0.23302  0.87128  Biso   1.000  Hf
  Hf63     1.0000 0.86876  0.27056  0.63192  Biso   1.000  Hf
  Hf64     1.0000 0.86561  0.48304  0.87900  Biso   1.000  Hf
  Hf65     1.0000 0.54081  0.18406  0.69093  Biso   1.000  Hf
  Hf66     1.0000 0.54081  0.06372  0.93688  Biso   1.000  Hf
  Hf67     1.0000 0.96499  0.43862  0.70450  Biso   1.000  Hf
  Hf68     1.0000 0.95567  0.31083  0.92960  Biso   1.000  Hf
  Hf69     1.0000 0.77344  0.11677  0.74884  Biso   1.000  Hf
  Hf70     1.0000 0.76834  0.13046  0.99827  Biso   1.000  Hf
  Hf71     1.0000 0.72139  0.38324  0.00221  Biso   1.000  Hf
  Hf72     1.0000 0.72964  0.36962  0.75101  Biso   1.000  Hf
  Hf73     1.0000 0.63143  0.52141  0.12819  Biso   1.000  Hf
  Hf74     1.0000 0.63952  0.73859  0.37595  Biso   1.000  Hf
  Hf75     1.0000 0.86802  0.76756  0.12505  Biso   1.000  Hf
  Hf76     1.0000 0.87656  0.00092  0.36460  Biso   1.000  Hf
  Hf77     1.0000 0.53785  0.68572  0.19791  Biso   1.000  Hf
  Hf78     1.0000 0.53849  0.56859  0.44542  Biso   1.000  Hf
  Hf79     1.0000 0.96899  0.94370  0.18637  Biso   1.000  Hf
  Hf80     1.0000 0.96623  0.82271  0.43799  Biso   1.000  Hf
  Hf81     1.0000 0.77197  0.61930  0.25072  Biso   1.000  Hf
  Hf82     1.0000 0.77264  0.63466  0.49860  Biso   1.000  Hf
  Hf83     1.0000 0.73517  0.88869  0.49487  Biso   1.000  Hf
  Hf84     1.0000 0.73431  0.86732  0.24506  Biso   1.000  Hf
  Hf85     1.0000 0.63764  0.51768  0.62490  Biso   1.000  Hf
  Hf86     1.0000 0.63892  0.73333  0.87364  Biso   1.000  Hf
  Hf87     1.0000 0.87025  0.77018  0.61961  Biso   1.000  Hf
  Hf88     1.0000 0.87019  0.98268  0.87273  Biso   1.000  Hf
  Hf89     1.0000 0.53677  0.68244  0.69632  Biso   1.000  Hf
  Hf90     1.0000 0.53552  0.56914  0.94768  Biso   1.000  Hf
  Hf91     1.0000 0.96884  0.93063  0.69671  Biso   1.000  Hf
  Hf92     1.0000 0.96872  0.81432  0.94556  Biso   1.000  Hf
  Hf93     1.0000 0.77248  0.61817  0.74944  Biso   1.000  Hf
  Hf94     1.0000 0.77063  0.63338  0.00143  Biso   1.000  Hf
  Hf95     1.0000 0.73479  0.88135  0.99628  Biso   1.000  Hf
  Hf96     1.0000 0.73431  0.86708  0.74604  Biso   1.000  Hf
  Au1      1.0000 0.07791  0.23958  0.12374  Biso   1.000  Au
