data_image0
_cell_length_a       10.0465
_cell_length_b       10.2444
_cell_length_c       5.03381
_cell_angle_alpha    89.3346
_cell_angle_beta     91.0682
_cell_angle_gamma    89.2267

_symmetry_space_group_name_H-M    "P 1"
_symmetry_int_tables_number       1

loop_
  _symmetry_equiv_pos_as_xyz
  'x, y, z'

loop_
  _atom_site_label
  _atom_site_occupancy
  _atom_site_fract_x
  _atom_site_fract_y
  _atom_site_fract_z
  _atom_site_thermal_displace_type
  _atom_site_B_iso_or_equiv
  _atom_site_type_symbol
  Au1      1.0000 0.12451  0.02389  0.24788  Biso   1.000  Au
  Hf1      1.0000 0.13057  0.25784  0.75180  Biso   1.000  Hf
  Hf2      1.0000 0.38726  0.24758  0.22904  Biso   1.000  Hf
  Hf3      1.0000 0.36511  0.98731  0.70290  Biso   1.000  Hf
  Hf4      1.0000 0.02714  0.16667  0.06215  Biso   1.000  Hf
  Hf5      1.0000 0.00018  0.10778  0.57770  Biso   1.000  Hf
  Hf6      1.0000 0.99964  0.35241  0.47064  Biso   1.000  Hf
  Hf7      1.0000 0.01729  0.40461  0.95302  Biso   1.000  Hf
  Hf8      1.0000 0.24446  0.14388  0.45054  Biso   1.000  Hf
  Hf9      1.0000 0.28361  0.12316  0.93899  Biso   1.000  Hf
  Hf10     1.0000 0.25627  0.36256  0.02288  Biso   1.000  Hf
  Hf11     1.0000 0.24404  0.39482  0.52636  Biso   1.000  Hf
  Hf12     1.0000 0.11697  0.49233  0.25487  Biso   1.000  Hf
  Hf13     1.0000 0.11754  0.74458  0.76820  Biso   1.000  Hf
  Hf14     1.0000 0.35759  0.74416  0.25048  Biso   1.000  Hf
  Hf15     1.0000 0.36543  0.50618  0.75775  Biso   1.000  Hf
  Hf16     1.0000 0.98589  0.64585  0.00817  Biso   1.000  Hf
  Hf17     1.0000 0.99755  0.60168  0.50619  Biso   1.000  Hf
  Hf18     1.0000 0.97706  0.84581  0.56571  Biso   1.000  Hf
  Hf19     1.0000 0.01250  0.89760  0.04650  Biso   1.000  Hf
  Hf20     1.0000 0.24431  0.64425  0.51345  Biso   1.000  Hf
  Hf21     1.0000 0.23954  0.60443  0.01402  Biso   1.000  Hf
  Hf22     1.0000 0.27162  0.84530  0.93748  Biso   1.000  Hf
  Hf23     1.0000 0.23077  0.89010  0.45098  Biso   1.000  Hf
  Hf24     1.0000 0.61824  0.99768  0.24719  Biso   1.000  Hf
  Hf25     1.0000 0.61968  0.26366  0.73500  Biso   1.000  Hf
  Hf26     1.0000 0.86408  0.23668  0.28110  Biso   1.000  Hf
  Hf27     1.0000 0.86546  0.98702  0.76536  Biso   1.000  Hf
  Hf28     1.0000 0.54162  0.16302  0.04070  Biso   1.000  Hf
  Hf29     1.0000 0.49800  0.10962  0.51178  Biso   1.000  Hf
  Hf30     1.0000 0.49558  0.36481  0.47990  Biso   1.000  Hf
  Hf31     1.0000 0.50599  0.40230  0.97843  Biso   1.000  Hf
  Hf32     1.0000 0.75139  0.14097  0.55967  Biso   1.000  Hf
  Hf33     1.0000 0.78685  0.07459  0.08612  Biso   1.000  Hf
  Hf34     1.0000 0.77132  0.33409  0.97159  Biso   1.000  Hf
  Hf35     1.0000 0.74540  0.39244  0.47597  Biso   1.000  Hf
  Hf36     1.0000 0.61382  0.51123  0.25162  Biso   1.000  Hf
  Hf37     1.0000 0.62114  0.74945  0.74337  Biso   1.000  Hf
  Hf38     1.0000 0.88048  0.75281  0.27630  Biso   1.000  Hf
  Hf39     1.0000 0.86880  0.49427  0.74219  Biso   1.000  Hf
  Hf40     1.0000 0.48987  0.65560  0.00469  Biso   1.000  Hf
  Hf41     1.0000 0.49291  0.60874  0.50747  Biso   1.000  Hf
  Hf42     1.0000 0.48920  0.85593  0.45738  Biso   1.000  Hf
  Hf43     1.0000 0.51922  0.91424  0.94062  Biso   1.000  Hf
  Hf44     1.0000 0.74156  0.64498  0.46662  Biso   1.000  Hf
  Hf45     1.0000 0.72618  0.58563  0.95068  Biso   1.000  Hf
  Hf46     1.0000 0.75685  0.83551  0.99820  Biso   1.000  Hf
  Hf47     1.0000 0.73693  0.89240  0.51294  Biso   1.000  Hf
