data_image0
_cell_length_a       10.0822
_cell_length_b       5.07367
_cell_length_c       10.4741
_cell_angle_alpha    89.908
_cell_angle_beta     90.4148
_cell_angle_gamma    90.1302

_symmetry_space_group_name_H-M    "P 1"
_symmetry_int_tables_number       1

loop_
  _symmetry_equiv_pos_as_xyz
  'x, y, z'

loop_
  _atom_site_label
  _atom_site_occupancy
  _atom_site_fract_x
  _atom_site_fract_y
  _atom_site_fract_z
  _atom_site_thermal_displace_type
  _atom_site_B_iso_or_equiv
  _atom_site_type_symbol
  B1       1.0000 0.02273  0.12081  0.17918  Biso   1.000  B
  Hf1      1.0000 0.14432  0.45673  0.41736  Biso   1.000  Hf
  Hf2      1.0000 0.35464  0.53869  0.17294  Biso   1.000  Hf
  Hf3      1.0000 0.35901  0.95714  0.41854  Biso   1.000  Hf
  Hf4      1.0000 0.63929  0.04640  0.07859  Biso   1.000  Hf
  Hf5      1.0000 0.63623  0.45537  0.32782  Biso   1.000  Hf
  Hf6      1.0000 0.86143  0.55249  0.07642  Biso   1.000  Hf
  Hf7      1.0000 0.85415  0.95420  0.33558  Biso   1.000  Hf
  O1       1.0000 0.03221  0.31434  0.08871  Biso   1.000  O
  O2       1.0000 0.02760  0.18810  0.30733  Biso   1.000  O
  O3       1.0000 0.47577  0.81846  0.08297  Biso   1.000  O
  O4       1.0000 0.47534  0.68477  0.32956  Biso   1.000  O
  O5       1.0000 0.28506  0.25688  0.30611  Biso   1.000  O
  O6       1.0000 0.28873  0.25924  0.03820  Biso   1.000  O
  O7       1.0000 0.23097  0.73599  0.30147  Biso   1.000  O
  O8       1.0000 0.23605  0.73274  0.03915  Biso   1.000  O
  O9       1.0000 0.53268  0.32545  0.16857  Biso   1.000  O
  O10      1.0000 0.53493  0.17056  0.41926  Biso   1.000  O
  O11      1.0000 0.96587  0.87792  0.16003  Biso   1.000  O
  O12      1.0000 0.96905  0.67648  0.41523  Biso   1.000  O
  O13      1.0000 0.77701  0.24060  0.45553  Biso   1.000  O
  O14      1.0000 0.77745  0.25751  0.20551  Biso   1.000  O
  O15      1.0000 0.72469  0.73953  0.45795  Biso   1.000  O
  O16      1.0000 0.73099  0.75417  0.20665  Biso   1.000  O
  Hf8      1.0000 0.14116  0.03733  0.67155  Biso   1.000  Hf
  Hf9      1.0000 0.14780  0.45081  0.92449  Biso   1.000  Hf
  Hf10     1.0000 0.36233  0.53887  0.67262  Biso   1.000  Hf
  Hf11     1.0000 0.36087  0.95301  0.92726  Biso   1.000  Hf
  Hf12     1.0000 0.63813  0.03625  0.58059  Biso   1.000  Hf
  Hf13     1.0000 0.64078  0.45695  0.82813  Biso   1.000  Hf
  Hf14     1.0000 0.86520  0.53405  0.57828  Biso   1.000  Hf
  Hf15     1.0000 0.86691  0.95496  0.82863  Biso   1.000  Hf
  O17      1.0000 0.02963  0.30201  0.56929  Biso   1.000  O
  O18      1.0000 0.03346  0.17613  0.82842  Biso   1.000  O
  O19      1.0000 0.46864  0.82239  0.58223  Biso   1.000  O
  O20      1.0000 0.47224  0.67318  0.83123  Biso   1.000  O
  O21      1.0000 0.27759  0.23998  0.79418  Biso   1.000  O
  O22      1.0000 0.27640  0.24942  0.54777  Biso   1.000  O
  O23      1.0000 0.22575  0.73901  0.79467  Biso   1.000  O
  O24      1.0000 0.22366  0.74741  0.54589  Biso   1.000  O
  O25      1.0000 0.53406  0.32310  0.66893  Biso   1.000  O
  O26      1.0000 0.53705  0.16972  0.91807  Biso   1.000  O
  O27      1.0000 0.97230  0.81021  0.67197  Biso   1.000  O
  O28      1.0000 0.97362  0.66999  0.92426  Biso   1.000  O
  O29      1.0000 0.78108  0.25382  0.95661  Biso   1.000  O
  O30      1.0000 0.77851  0.24756  0.70518  Biso   1.000  O
  O31      1.0000 0.72846  0.75097  0.95554  Biso   1.000  O
  O32      1.0000 0.72817  0.74828  0.70554  Biso   1.000  O
