data_image0
_cell_length_a       10.2229
_cell_length_b       5.13712
_cell_length_c       10.4842
_cell_angle_alpha    89.9128
_cell_angle_beta     79.9622
_cell_angle_gamma    90.168

_symmetry_space_group_name_H-M    "P 1"
_symmetry_int_tables_number       1

loop_
  _symmetry_equiv_pos_as_xyz
  'x, y, z'

loop_
  _atom_site_label
  _atom_site_occupancy
  _atom_site_fract_x
  _atom_site_fract_y
  _atom_site_fract_z
  _atom_site_thermal_displace_type
  _atom_site_B_iso_or_equiv
  _atom_site_type_symbol
  Hf1      1.0000 0.12992  0.03590  0.13659  Biso   1.000  Hf
  Hf2      1.0000 0.13711  0.46748  0.38594  Biso   1.000  Hf
  Hf3      1.0000 0.36086  0.53054  0.11883  Biso   1.000  Hf
  Hf4      1.0000 0.35420  0.95208  0.33809  Biso   1.000  Hf
  O1       1.0000 0.03076  0.34274  0.07763  Biso   1.000  O
  O2       1.0000 0.02655  0.17481  0.32725  Biso   1.000  O
  O3       1.0000 0.46108  0.85662  0.16289  Biso   1.000  O
  O4       1.0000 0.46983  0.64929  0.41891  Biso   1.000  O
  O5       1.0000 0.25653  0.23641  0.23207  Biso   1.000  O
  O6       1.0000 0.30910  0.31047  0.45561  Biso   1.000  O
  O7       1.0000 0.22312  0.75139  0.00791  Biso   1.000  O
  O8       1.0000 0.19870  0.75611  0.25159  Biso   1.000  O
  Hf5      1.0000 0.13049  0.03809  0.65490  Biso   1.000  Hf
  Hf6      1.0000 0.13774  0.45973  0.89834  Biso   1.000  Hf
  Hf7      1.0000 0.36237  0.55185  0.61301  Biso   1.000  Hf
  Hf8      1.0000 0.36214  0.95187  0.85980  Biso   1.000  Hf
  O9       1.0000 0.04802  0.33827  0.57575  Biso   1.000  O
  O10      1.0000 0.03237  0.16057  0.83435  Biso   1.000  O
  O11      1.0000 0.46683  0.83716  0.67387  Biso   1.000  O
  O12      1.0000 0.46384  0.65963  0.92492  Biso   1.000  O
  O13      1.0000 0.27450  0.25687  0.73394  Biso   1.000  O
  O14      1.0000 0.27373  0.24005  0.98647  Biso   1.000  O
  O15      1.0000 0.23262  0.79679  0.51324  Biso   1.000  O
  O16      1.0000 0.22499  0.74335  0.76267  Biso   1.000  O
  Hf9      1.0000 0.63911  0.03944  0.14939  Biso   1.000  Hf
  Hf10     1.0000 0.64975  0.44298  0.39920  Biso   1.000  Hf
  Hf11     1.0000 0.85773  0.53900  0.10434  Biso   1.000  Hf
  Hf12     1.0000 0.86182  0.95451  0.35425  Biso   1.000  Hf
  O17      1.0000 0.53777  0.33900  0.08478  Biso   1.000  O
  O18      1.0000 0.54380  0.14447  0.33643  Biso   1.000  O
  O19      1.0000 0.95455  0.83851  0.16981  Biso   1.000  O
  O20      1.0000 0.96398  0.67005  0.42569  Biso   1.000  O
  O21      1.0000 0.77799  0.25325  0.24243  Biso   1.000  O
  O22      1.0000 0.77971  0.23731  0.49463  Biso   1.000  O
  O23      1.0000 0.72200  0.75622  0.01168  Biso   1.000  O
  O24      1.0000 0.72092  0.73174  0.26256  Biso   1.000  O
  Hf13     1.0000 0.63971  0.04208  0.64934  Biso   1.000  Hf
  Hf14     1.0000 0.63490  0.45704  0.89980  Biso   1.000  Hf
  Hf15     1.0000 0.86392  0.53925  0.60641  Biso   1.000  Hf
  Hf16     1.0000 0.85690  0.95501  0.85910  Biso   1.000  Hf
  O25      1.0000 0.53697  0.33996  0.58413  Biso   1.000  O
  O26      1.0000 0.53646  0.15929  0.83270  Biso   1.000  O
  O27      1.0000 0.96399  0.82997  0.67623  Biso   1.000  O
  O28      1.0000 0.96300  0.66414  0.92105  Biso   1.000  O
  O29      1.0000 0.77795  0.25502  0.74213  Biso   1.000  O
  O30      1.0000 0.77390  0.24014  0.99287  Biso   1.000  O
  O31      1.0000 0.72518  0.75132  0.51389  Biso   1.000  O
  O32      1.0000 0.72429  0.73919  0.76173  Biso   1.000  O
  B1       1.0000 0.38759  0.48294  0.35586  Biso   1.000  B
