data_image0
_cell_length_a       10.0177
_cell_length_b       4.98798
_cell_length_c       10.018
_cell_angle_alpha    90.0002
_cell_angle_beta     90.0001
_cell_angle_gamma    90

_symmetry_space_group_name_H-M    "P 1"
_symmetry_int_tables_number       1

loop_
  _symmetry_equiv_pos_as_xyz
  'x, y, z'

loop_
  _atom_site_label
  _atom_site_occupancy
  _atom_site_fract_x
  _atom_site_fract_y
  _atom_site_fract_z
  _atom_site_thermal_displace_type
  _atom_site_B_iso_or_equiv
  _atom_site_type_symbol
  B1       1.0000 0.12491  0.00011  0.12491  Biso   1.000  B 
  Hf1      1.0000 0.12491  0.50011  0.37514  Biso   1.000  Hf
  Hf2      1.0000 0.37512  0.50010  0.12491  Biso   1.000  Hf
  Hf3      1.0000 0.36867  0.01327  0.36867  Biso   1.000  Hf
  Hf4      1.0000 0.97217  0.32709  0.97216  Biso   1.000  Hf
  Hf5      1.0000 0.03558  0.17111  0.21422  Biso   1.000  Hf
  Hf6      1.0000 0.97217  0.67313  0.27766  Biso   1.000  Hf
  Hf7      1.0000 0.03558  0.82911  0.03560  Biso   1.000  Hf
  Hf8      1.0000 0.27765  0.32709  0.27766  Biso   1.000  Hf
  Hf9      1.0000 0.21424  0.17111  0.03560  Biso   1.000  Hf
  Hf10     1.0000 0.27765  0.67313  0.97215  Biso   1.000  Hf
  Hf11     1.0000 0.21423  0.82911  0.21422  Biso   1.000  Hf
  Hf12     1.0000 0.12491  0.00011  0.62491  Biso   1.000  Hf
  Hf13     1.0000 0.12491  0.50011  0.87468  Biso   1.000  Hf
  Hf14     1.0000 0.37756  0.50011  0.62491  Biso   1.000  Hf
  Hf15     1.0000 0.36867  0.98695  0.88115  Biso   1.000  Hf
  Hf16     1.0000 0.98881  0.25614  0.47603  Biso   1.000  Hf
  Hf17     1.0000 0.01096  0.25214  0.73038  Biso   1.000  Hf
  Hf18     1.0000 0.98881  0.74408  0.77379  Biso   1.000  Hf
  Hf19     1.0000 0.01096  0.74807  0.51944  Biso   1.000  Hf
  Hf20     1.0000 0.26101  0.25614  0.77379  Biso   1.000  Hf
  Hf21     1.0000 0.23886  0.25214  0.51944  Biso   1.000  Hf
  Hf22     1.0000 0.26101  0.74408  0.47603  Biso   1.000  Hf
  Hf23     1.0000 0.23886  0.74807  0.73038  Biso   1.000  Hf
  Hf24     1.0000 0.62491  0.00011  0.12491  Biso   1.000  Hf
  Hf25     1.0000 0.62491  0.50011  0.37755  Biso   1.000  Hf
  Hf26     1.0000 0.87470  0.50011  0.12491  Biso   1.000  Hf
  Hf27     1.0000 0.88114  0.98694  0.36867  Biso   1.000  Hf
  Hf28     1.0000 0.47603  0.25617  0.98879  Biso   1.000  Hf
  Hf29     1.0000 0.51942  0.25212  0.23884  Biso   1.000  Hf
  Hf30     1.0000 0.47603  0.74404  0.26103  Biso   1.000  Hf
  Hf31     1.0000 0.51942  0.74809  0.01098  Biso   1.000  Hf
  Hf32     1.0000 0.77378  0.25617  0.26103  Biso   1.000  Hf
  Hf33     1.0000 0.73040  0.25213  0.01098  Biso   1.000  Hf
  Hf34     1.0000 0.77378  0.74404  0.98879  Biso   1.000  Hf
  Hf35     1.0000 0.73039  0.74809  0.23884  Biso   1.000  Hf
  Hf36     1.0000 0.62491  0.00011  0.62491  Biso   1.000  Hf
  Hf37     1.0000 0.62491  0.50011  0.87227  Biso   1.000  Hf
  Hf38     1.0000 0.87226  0.50011  0.62491  Biso   1.000  Hf
  Hf39     1.0000 0.88115  0.01327  0.88115  Biso   1.000  Hf
  Hf40     1.0000 0.48707  0.24772  0.48705  Biso   1.000  Hf
  Hf41     1.0000 0.51280  0.25958  0.73700  Biso   1.000  Hf
  Hf42     1.0000 0.48707  0.75250  0.76277  Biso   1.000  Hf
  Hf43     1.0000 0.51279  0.74064  0.51281  Biso   1.000  Hf
  Hf44     1.0000 0.76275  0.24772  0.76277  Biso   1.000  Hf
  Hf45     1.0000 0.73702  0.25958  0.51281  Biso   1.000  Hf
  Hf46     1.0000 0.76275  0.75249  0.48705  Biso   1.000  Hf
  Hf47     1.0000 0.73702  0.74064  0.73701  Biso   1.000  Hf
