data_image0
_cell_length_a       10.1121
_cell_length_b       10.2195
_cell_length_c       5.07514
_cell_angle_alpha    88.8256
_cell_angle_beta     92.6957
_cell_angle_gamma    89.4083

_symmetry_space_group_name_H-M    "P 1"
_symmetry_int_tables_number       1

loop_
  _symmetry_equiv_pos_as_xyz
  'x, y, z'

loop_
  _atom_site_label
  _atom_site_occupancy
  _atom_site_fract_x
  _atom_site_fract_y
  _atom_site_fract_z
  _atom_site_thermal_displace_type
  _atom_site_B_iso_or_equiv
  _atom_site_type_symbol
  Hf1      1.0000 0.12922  0.99105  0.22626  Biso   1.000  Hf
  Hf2      1.0000 0.12142  0.22753  0.71389  Biso   1.000  Hf
  Hf3      1.0000 0.34520  0.25411  0.20040  Biso   1.000  Hf
  Hf4      1.0000 0.38449  0.00001  0.76125  Biso   1.000  Hf
  Hf5      1.0000 0.98905  0.13328  0.97828  Biso   1.000  Hf
  Hf6      1.0000 0.00195  0.07472  0.48806  Biso   1.000  Hf
  Hf7      1.0000 0.95036  0.33618  0.61113  Biso   1.000  Hf
  Hf8      1.0000 0.00920  0.39930  0.09320  Biso   1.000  Hf
  Hf9      1.0000 0.26195  0.13138  0.47941  Biso   1.000  Hf
  Hf10     1.0000 0.24710  0.09280  0.96885  Biso   1.000  Hf
  Hf11     1.0000 0.27391  0.34453  0.85863  Biso   1.000  Hf
  Hf12     1.0000 0.19877  0.38666  0.38028  Biso   1.000  Hf
  Hf13     1.0000 0.11715  0.56048  0.23407  Biso   1.000  Hf
  Hf14     1.0000 0.13242  0.75647  0.73025  Biso   1.000  Hf
  Hf15     1.0000 0.39972  0.76621  0.27906  Biso   1.000  Hf
  Hf16     1.0000 0.37874  0.50461  0.73349  Biso   1.000  Hf
  Hf17     1.0000 0.98047  0.65386  0.98953  Biso   1.000  Hf
  Hf18     1.0000 0.99577  0.59571  0.52389  Biso   1.000  Hf
  Hf19     1.0000 0.04026  0.82144  0.37801  Biso   1.000  Hf
  Hf20     1.0000 0.03227  0.90294  0.89463  Biso   1.000  Hf
  Hf21     1.0000 0.26573  0.64163  0.45527  Biso   1.000  Hf
  Hf22     1.0000 0.22571  0.59505  0.91977  Biso   1.000  Hf
  Hf23     1.0000 0.26867  0.84451  0.00327  Biso   1.000  Hf
  Hf24     1.0000 0.26743  0.88937  0.50689  Biso   1.000  Hf
  Hf25     1.0000 0.62207  0.01932  0.29852  Biso   1.000  Hf
  Hf26     1.0000 0.63102  0.24753  0.79659  Biso   1.000  Hf
  Hf27     1.0000 0.89272  0.23187  0.27224  Biso   1.000  Hf
  Hf28     1.0000 0.86607  0.00315  0.76629  Biso   1.000  Hf
  Hf29     1.0000 0.49545  0.14288  0.05237  Biso   1.000  Hf
  Hf30     1.0000 0.51647  0.11459  0.56851  Biso   1.000  Hf
  Hf31     1.0000 0.45318  0.37866  0.44491  Biso   1.000  Hf
  Hf32     1.0000 0.51181  0.39122  0.96198  Biso   1.000  Hf
  Hf33     1.0000 0.75467  0.15167  0.52542  Biso   1.000  Hf
  Hf34     1.0000 0.74347  0.10438  0.02019  Biso   1.000  Hf
  Hf35     1.0000 0.75512  0.35496  0.07590  Biso   1.000  Hf
  Hf36     1.0000 0.70396  0.40833  0.58981  Biso   1.000  Hf
  Hf37     1.0000 0.60855  0.48439  0.26462  Biso   1.000  Hf
  Hf38     1.0000 0.62433  0.73733  0.79531  Biso   1.000  Hf
  Hf39     1.0000 0.86099  0.74205  0.27481  Biso   1.000  Hf
  Hf40     1.0000 0.86479  0.49730  0.78136  Biso   1.000  Hf
  Hf41     1.0000 0.48070  0.63665  0.00579  Biso   1.000  Hf
  Hf42     1.0000 0.51549  0.62028  0.51227  Biso   1.000  Hf
  Hf43     1.0000 0.51984  0.86990  0.53453  Biso   1.000  Hf
  Hf44     1.0000 0.52098  0.88962  0.03601  Biso   1.000  Hf
  Hf45     1.0000 0.76242  0.65170  0.56640  Biso   1.000  Hf
  Hf46     1.0000 0.73509  0.60456  0.05761  Biso   1.000  Hf
  Hf47     1.0000 0.77595  0.84721  0.95314  Biso   1.000  Hf
  Hf48     1.0000 0.77923  0.90495  0.44523  Biso   1.000  Hf
  B1       1.0000 0.10692  0.31320  0.22674  Biso   1.000  B 
