data_image0
_cell_length_a       10.097
_cell_length_b       10.485
_cell_length_c       5.15731
_cell_angle_alpha    89.2576
_cell_angle_beta     94.1435
_cell_angle_gamma    89.8659

_symmetry_space_group_name_H-M    "P 1"
_symmetry_int_tables_number       1

loop_
  _symmetry_equiv_pos_as_xyz
  'x, y, z'

loop_
  _atom_site_label
  _atom_site_occupancy
  _atom_site_fract_x
  _atom_site_fract_y
  _atom_site_fract_z
  _atom_site_thermal_displace_type
  _atom_site_B_iso_or_equiv
  _atom_site_type_symbol
  Hf1      1.0000 0.10575  0.96425  0.23710  Biso   1.000  Hf
  Hf2      1.0000 0.13224  0.20665  0.61032  Biso   1.000  Hf
  Hf3      1.0000 0.38208  0.26889  0.20805  Biso   1.000  Hf
  Hf4      1.0000 0.37713  0.48389  0.72449  Biso   1.000  Hf
  Hf5      1.0000 0.99036  0.10528  0.39041  Biso   1.000  Hf
  Hf6      1.0000 0.04115  0.06276  0.88379  Biso   1.000  Hf
  Hf7      1.0000 0.46911  0.43298  0.38691  Biso   1.000  Hf
  Hf8      1.0000 0.47868  0.32392  0.89191  Biso   1.000  Hf
  Hf9      1.0000 0.26192  0.09859  0.40615  Biso   1.000  Hf
  Hf10     1.0000 0.29020  0.15773  0.89541  Biso   1.000  Hf
  Hf11     1.0000 0.25896  0.41601  0.98763  Biso   1.000  Hf
  Hf12     1.0000 0.23360  0.36310  0.46131  Biso   1.000  Hf
  Hf13     1.0000 0.14547  0.53845  0.22249  Biso   1.000  Hf
  Hf14     1.0000 0.12657  0.74402  0.73089  Biso   1.000  Hf
  Hf15     1.0000 0.37602  0.77631  0.24528  Biso   1.000  Hf
  Hf16     1.0000 0.36759  0.99513  0.73352  Biso   1.000  Hf
  Hf17     1.0000 0.03151  0.66383  0.39718  Biso   1.000  Hf
  Hf18     1.0000 0.03249  0.58581  0.87082  Biso   1.000  Hf
  Hf19     1.0000 0.47723  0.93389  0.41360  Biso   1.000  Hf
  Hf20     1.0000 0.47460  0.82718  0.91032  Biso   1.000  Hf
  Hf21     1.0000 0.27389  0.62205  0.50910  Biso   1.000  Hf
  Hf22     1.0000 0.25926  0.65991  0.01321  Biso   1.000  Hf
  Hf23     1.0000 0.24345  0.90076  0.97972  Biso   1.000  Hf
  Hf24     1.0000 0.24134  0.85816  0.48420  Biso   1.000  Hf
  Hf25     1.0000 0.63609  0.01776  0.27128  Biso   1.000  Hf
  Hf26     1.0000 0.63808  0.23071  0.78764  Biso   1.000  Hf
  Hf27     1.0000 0.84704  0.27275  0.34354  Biso   1.000  Hf
  Hf28     1.0000 0.86143  0.48271  0.82826  Biso   1.000  Hf
  Hf29     1.0000 0.53423  0.18244  0.41109  Biso   1.000  Hf
  Hf30     1.0000 0.53675  0.07164  0.91941  Biso   1.000  Hf
  Hf31     1.0000 0.94674  0.44135  0.20736  Biso   1.000  Hf
  Hf32     1.0000 0.96054  0.32541  0.68387  Biso   1.000  Hf
  Hf33     1.0000 0.75880  0.11438  0.55551  Biso   1.000  Hf
  Hf34     1.0000 0.77645  0.13539  0.04989  Biso   1.000  Hf
  Hf35     1.0000 0.72383  0.37649  0.04952  Biso   1.000  Hf
  Hf36     1.0000 0.71896  0.37803  0.55544  Biso   1.000  Hf
  Hf37     1.0000 0.63456  0.51918  0.27807  Biso   1.000  Hf
  Hf38     1.0000 0.63013  0.73833  0.77226  Biso   1.000  Hf
  Hf39     1.0000 0.85900  0.75840  0.29955  Biso   1.000  Hf
  Hf40     1.0000 0.86745  0.98039  0.78404  Biso   1.000  Hf
  Hf41     1.0000 0.53793  0.68236  0.41337  Biso   1.000  Hf
  Hf42     1.0000 0.53076  0.57598  0.91222  Biso   1.000  Hf
  Hf43     1.0000 0.98710  0.87819  0.53315  Biso   1.000  Hf
  Hf44     1.0000 0.98712  0.83386  0.01995  Biso   1.000  Hf
  Hf45     1.0000 0.77415  0.61655  0.54294  Biso   1.000  Hf
  Hf46     1.0000 0.76253  0.63620  0.03583  Biso   1.000  Hf
  Hf47     1.0000 0.73942  0.88380  0.03012  Biso   1.000  Hf
  Hf48     1.0000 0.73564  0.86752  0.52719  Biso   1.000  Hf
  Ba1      1.0000 0.07997  0.26176  0.08814  Biso   1.000  Ba
