data_image0
_cell_length_a       9.97718
_cell_length_b       10.3351
_cell_length_c       5.09225
_cell_angle_alpha    93.5382
_cell_angle_beta     89.092
_cell_angle_gamma    92.0633

_symmetry_space_group_name_H-M    "P 1"
_symmetry_int_tables_number       1

loop_
  _symmetry_equiv_pos_as_xyz
  'x, y, z'

loop_
  _atom_site_label
  _atom_site_occupancy
  _atom_site_fract_x
  _atom_site_fract_y
  _atom_site_fract_z
  _atom_site_thermal_displace_type
  _atom_site_B_iso_or_equiv
  _atom_site_type_symbol
  Hf1      1.0000 0.14689  0.97002  0.30648  Biso   1.000  Hf
  Hf2      1.0000 0.11743  0.25969  0.61270  Biso   1.000  Hf
  Hf3      1.0000 0.37652  0.24354  0.25843  Biso   1.000  Hf
  Hf4      1.0000 0.39854  0.00736  0.75760  Biso   1.000  Hf
  Hf5      1.0000 0.02809  0.14672  0.91556  Biso   1.000  Hf
  Hf6      1.0000 0.99164  0.09961  0.43853  Biso   1.000  Hf
  Hf7      1.0000 0.96935  0.37221  0.47574  Biso   1.000  Hf
  Hf8      1.0000 0.00813  0.39218  0.96935  Biso   1.000  Hf
  Hf9      1.0000 0.26309  0.12401  0.54238  Biso   1.000  Hf
  Hf10     1.0000 0.26398  0.07624  0.05142  Biso   1.000  Hf
  Hf11     1.0000 0.25639  0.30721  0.93568  Biso   1.000  Hf
  Hf12     1.0000 0.24722  0.40313  0.46726  Biso   1.000  Hf
  Hf13     1.0000 0.10623  0.51301  0.27033  Biso   1.000  Hf
  Hf14     1.0000 0.12226  0.73811  0.77976  Biso   1.000  Hf
  Hf15     1.0000 0.37994  0.74870  0.30272  Biso   1.000  Hf
  Hf16     1.0000 0.37333  0.47693  0.78831  Biso   1.000  Hf
  Hf17     1.0000 0.98829  0.64491  0.05649  Biso   1.000  Hf
  Hf18     1.0000 0.99140  0.60729  0.55718  Biso   1.000  Hf
  Hf19     1.0000 0.00384  0.84751  0.51087  Biso   1.000  Hf
  Hf20     1.0000 0.00647  0.89604  0.00980  Biso   1.000  Hf
  Hf21     1.0000 0.23075  0.64916  0.47255  Biso   1.000  Hf
  Hf22     1.0000 0.22124  0.57557  0.95645  Biso   1.000  Hf
  Hf23     1.0000 0.23921  0.82346  0.08388  Biso   1.000  Hf
  Hf24     1.0000 0.25205  0.88445  0.58747  Biso   1.000  Hf
  Hf25     1.0000 0.64521  0.02633  0.21573  Biso   1.000  Hf
  Hf26     1.0000 0.63539  0.26200  0.73346  Biso   1.000  Hf
  Hf27     1.0000 0.89974  0.24500  0.18213  Biso   1.000  Hf
  Hf28     1.0000 0.89995  0.99283  0.74247  Biso   1.000  Hf
  Hf29     1.0000 0.51366  0.15075  0.99265  Biso   1.000  Hf
  Hf30     1.0000 0.51191  0.10124  0.49002  Biso   1.000  Hf
  Hf31     1.0000 0.48081  0.34005  0.55535  Biso   1.000  Hf
  Hf32     1.0000 0.49087  0.39730  0.05995  Biso   1.000  Hf
  Hf33     1.0000 0.74340  0.18931  0.42661  Biso   1.000  Hf
  Hf34     1.0000 0.76741  0.11679  0.93516  Biso   1.000  Hf
  Hf35     1.0000 0.75345  0.36719  0.03572  Biso   1.000  Hf
  Hf36     1.0000 0.71555  0.43532  0.57258  Biso   1.000  Hf
  Hf37     1.0000 0.62682  0.51350  0.27218  Biso   1.000  Hf
  Hf38     1.0000 0.60380  0.74350  0.78689  Biso   1.000  Hf
  Hf39     1.0000 0.85578  0.77387  0.23535  Biso   1.000  Hf
  Hf40     1.0000 0.87525  0.50084  0.79133  Biso   1.000  Hf
  Hf41     1.0000 0.48454  0.63858  0.03371  Biso   1.000  Hf
  Hf42     1.0000 0.48390  0.59871  0.53657  Biso   1.000  Hf
  Hf43     1.0000 0.50294  0.85462  0.54652  Biso   1.000  Hf
  Hf44     1.0000 0.49938  0.89600  0.03909  Biso   1.000  Hf
  Hf45     1.0000 0.72649  0.68279  0.47957  Biso   1.000  Hf
  Hf46     1.0000 0.73752  0.61975  0.99903  Biso   1.000  Hf
  Hf47     1.0000 0.75332  0.86748  0.95197  Biso   1.000  Hf
  Hf48     1.0000 0.77135  0.93577  0.44146  Biso   1.000  Hf
  Be1      1.0000 0.16175  0.19484  0.06070  Biso   1.000  Be
