data_image0
_cell_length_a       10.0516
_cell_length_b       10.2035
_cell_length_c       10.4551
_cell_angle_alpha    89.9613
_cell_angle_beta     90.2083
_cell_angle_gamma    90.0045

_symmetry_space_group_name_H-M    "P 1"
_symmetry_int_tables_number       1

loop_
  _symmetry_equiv_pos_as_xyz
  'x, y, z'

loop_
  _atom_site_label
  _atom_site_occupancy
  _atom_site_fract_x
  _atom_site_fract_y
  _atom_site_fract_z
  _atom_site_thermal_displace_type
  _atom_site_B_iso_or_equiv
  _atom_site_type_symbol
  Be1      1.0000 0.04881  0.04900  0.17988  Biso   1.000  Be
  Hf1      1.0000 0.13962  0.01999  0.67100  Biso   1.000  Hf
  Hf2      1.0000 0.14107  0.52054  0.17220  Biso   1.000  Hf
  Hf3      1.0000 0.14000  0.52053  0.67264  Biso   1.000  Hf
  Hf4      1.0000 0.14099  0.22567  0.41816  Biso   1.000  Hf
  Hf5      1.0000 0.14333  0.22437  0.92519  Biso   1.000  Hf
  Hf6      1.0000 0.14159  0.73057  0.42013  Biso   1.000  Hf
  Hf7      1.0000 0.14369  0.73122  0.92321  Biso   1.000  Hf
  Hf8      1.0000 0.35545  0.26327  0.17242  Biso   1.000  Hf
  Hf9      1.0000 0.36015  0.26984  0.67230  Biso   1.000  Hf
  Hf10     1.0000 0.35594  0.77606  0.17222  Biso   1.000  Hf
  Hf11     1.0000 0.36149  0.77147  0.67189  Biso   1.000  Hf
  Hf12     1.0000 0.36007  0.47783  0.42158  Biso   1.000  Hf
  Hf13     1.0000 0.36012  0.47701  0.92418  Biso   1.000  Hf
  Hf14     1.0000 0.35644  0.97985  0.41769  Biso   1.000  Hf
  Hf15     1.0000 0.35924  0.97915  0.92547  Biso   1.000  Hf
  Hf16     1.0000 0.64137  0.02131  0.07777  Biso   1.000  Hf
  Hf17     1.0000 0.63771  0.01975  0.57794  Biso   1.000  Hf
  Hf18     1.0000 0.63825  0.52104  0.07876  Biso   1.000  Hf
  Hf19     1.0000 0.63959  0.51995  0.57864  Biso   1.000  Hf
  Hf20     1.0000 0.63883  0.22938  0.32766  Biso   1.000  Hf
  Hf21     1.0000 0.64005  0.22855  0.82790  Biso   1.000  Hf
  Hf22     1.0000 0.63849  0.72888  0.32704  Biso   1.000  Hf
  Hf23     1.0000 0.63966  0.72892  0.82885  Biso   1.000  Hf
  Hf24     1.0000 0.86236  0.27133  0.07800  Biso   1.000  Hf
  Hf25     1.0000 0.86243  0.27005  0.57725  Biso   1.000  Hf
  Hf26     1.0000 0.86469  0.77289  0.07901  Biso   1.000  Hf
  Hf27     1.0000 0.86180  0.76943  0.57896  Biso   1.000  Hf
  Hf28     1.0000 0.86178  0.47979  0.32827  Biso   1.000  Hf
  Hf29     1.0000 0.86295  0.47839  0.82932  Biso   1.000  Hf
  Hf30     1.0000 0.85806  0.97804  0.33103  Biso   1.000  Hf
  Hf31     1.0000 0.86188  0.97883  0.82807  Biso   1.000  Hf
  O1       1.0000 0.03429  0.16171  0.08390  Biso   1.000  O
  O2       1.0000 0.03118  0.16034  0.57806  Biso   1.000  O
  O3       1.0000 0.03419  0.66663  0.08521  Biso   1.000  O
  O4       1.0000 0.03309  0.66420  0.58494  Biso   1.000  O
  O5       1.0000 0.02785  0.09043  0.32310  Biso   1.000  O
  O6       1.0000 0.03217  0.08600  0.83194  Biso   1.000  O
  O7       1.0000 0.03255  0.58636  0.33344  Biso   1.000  O
  O8       1.0000 0.03398  0.58352  0.83465  Biso   1.000  O
  O9       1.0000 0.46800  0.41157  0.08435  Biso   1.000  O
  O10      1.0000 0.46810  0.41383  0.58377  Biso   1.000  O
  O11      1.0000 0.47358  0.91366  0.08394  Biso   1.000  O
  O12      1.0000 0.46731  0.91363  0.58203  Biso   1.000  O
  O13      1.0000 0.46977  0.33759  0.33333  Biso   1.000  O
  O14      1.0000 0.46925  0.33516  0.83331  Biso   1.000  O
  O15      1.0000 0.47322  0.84117  0.33040  Biso   1.000  O
  O16      1.0000 0.46967  0.83590  0.83251  Biso   1.000  O
  O17      1.0000 0.28472  0.13063  0.30510  Biso   1.000  O
  O18      1.0000 0.27526  0.12202  0.79260  Biso   1.000  O
  O19      1.0000 0.27776  0.62100  0.29527  Biso   1.000  O
  O20      1.0000 0.27759  0.62312  0.79619  Biso   1.000  O
  O21      1.0000 0.29236  0.13686  0.03333  Biso   1.000  O
  O22      1.0000 0.27543  0.12513  0.54696  Biso   1.000  O
  O23      1.0000 0.27637  0.62165  0.04726  Biso   1.000  O
  O24      1.0000 0.27692  0.62602  0.54566  Biso   1.000  O
  O25      1.0000 0.22248  0.37399  0.29621  Biso   1.000  O
  O26      1.0000 0.22509  0.37231  0.79680  Biso   1.000  O
  O27      1.0000 0.22941  0.86655  0.30134  Biso   1.000  O
  O28      1.0000 0.22431  0.87321  0.79291  Biso   1.000  O
  O29      1.0000 0.22116  0.37667  0.04716  Biso   1.000  O
  O30      1.0000 0.22402  0.37503  0.54556  Biso   1.000  O
  O31      1.0000 0.23677  0.86678  0.03702  Biso   1.000  O
  O32      1.0000 0.22293  0.87643  0.54648  Biso   1.000  O
  O33      1.0000 0.53393  0.16453  0.16641  Biso   1.000  O
  O34      1.0000 0.53250  0.16436  0.66616  Biso   1.000  O
  O35      1.0000 0.53078  0.66362  0.16725  Biso   1.000  O
  O36      1.0000 0.53336  0.66362  0.66694  Biso   1.000  O
  O37      1.0000 0.53375  0.08505  0.41595  Biso   1.000  O
  O38      1.0000 0.53679  0.08323  0.91530  Biso   1.000  O
  O39      1.0000 0.53171  0.58621  0.41726  Biso   1.000  O
  O40      1.0000 0.53208  0.58481  0.91731  Biso   1.000  O
  O41      1.0000 0.96788  0.41515  0.16680  Biso   1.000  O
  O42      1.0000 0.96911  0.41254  0.66755  Biso   1.000  O
  O43      1.0000 0.96413  0.92440  0.16298  Biso   1.000  O
  O44      1.0000 0.96685  0.91401  0.66640  Biso   1.000  O
  O45      1.0000 0.96816  0.33590  0.41593  Biso   1.000  O
  O46      1.0000 0.96982  0.33505  0.91900  Biso   1.000  O
  O47      1.0000 0.96726  0.83532  0.41591  Biso   1.000  O
  O48      1.0000 0.96909  0.83432  0.91574  Biso   1.000  O
  O49      1.0000 0.77888  0.12431  0.95405  Biso   1.000  O
  O50      1.0000 0.77605  0.12322  0.45467  Biso   1.000  O
  O51      1.0000 0.77681  0.62382  0.95532  Biso   1.000  O
  O52      1.0000 0.77609  0.62315  0.45478  Biso   1.000  O
  O53      1.0000 0.77666  0.12701  0.20470  Biso   1.000  O
  O54      1.0000 0.77629  0.12536  0.70391  Biso   1.000  O
  O55      1.0000 0.77655  0.62700  0.20426  Biso   1.000  O
  O56      1.0000 0.77700  0.62514  0.70507  Biso   1.000  O
  O57      1.0000 0.72495  0.37364  0.95472  Biso   1.000  O
  O58      1.0000 0.72477  0.37371  0.45481  Biso   1.000  O
  O59      1.0000 0.72632  0.87377  0.95505  Biso   1.000  O
  O60      1.0000 0.72361  0.87255  0.45622  Biso   1.000  O
  O61      1.0000 0.72489  0.37672  0.20450  Biso   1.000  O
  O62      1.0000 0.72543  0.37555  0.70445  Biso   1.000  O
  O63      1.0000 0.72547  0.87601  0.20613  Biso   1.000  O
  O64      1.0000 0.72431  0.87494  0.70513  Biso   1.000  O
