data_image0
_cell_length_a       5.10286
_cell_length_b       10.2459
_cell_length_c       10.5383
_cell_angle_alpha    90.137
_cell_angle_beta     79.1983
_cell_angle_gamma    90.0725

_symmetry_space_group_name_H-M    "P 1"
_symmetry_int_tables_number       1

loop_
  _symmetry_equiv_pos_as_xyz
  'x, y, z'

loop_
  _atom_site_label
  _atom_site_occupancy
  _atom_site_fract_x
  _atom_site_fract_y
  _atom_site_fract_z
  _atom_site_thermal_displace_type
  _atom_site_B_iso_or_equiv
  _atom_site_type_symbol
  Hf1      1.0000 0.26650  0.02285  0.14182  Biso   1.000  Hf
  Hf2      1.0000 0.31947  0.23485  0.39436  Biso   1.000  Hf
  Hf3      1.0000 0.70864  0.27146  0.11332  Biso   1.000  Hf
  Hf4      1.0000 0.71467  0.46970  0.34625  Biso   1.000  Hf
  O1       1.0000 0.05449  0.16489  0.07694  Biso   1.000  O
  O2       1.0000 0.03753  0.10553  0.32018  Biso   1.000  O
  O3       1.0000 0.91417  0.42690  0.16301  Biso   1.000  O
  O4       1.0000 0.95288  0.33430  0.42972  Biso   1.000  O
  O5       1.0000 0.52963  0.11411  0.23798  Biso   1.000  O
  O6       1.0000 0.60758  0.13105  0.47797  Biso   1.000  O
  O7       1.0000 0.44089  0.37914  0.01010  Biso   1.000  O
  O8       1.0000 0.40138  0.37844  0.25454  Biso   1.000  O
  Hf5      1.0000 0.27313  0.02052  0.64969  Biso   1.000  Hf
  Hf6      1.0000 0.27044  0.23143  0.89854  Biso   1.000  Hf
  Hf7      1.0000 0.73687  0.27358  0.61390  Biso   1.000  Hf
  Hf8      1.0000 0.72299  0.47844  0.85857  Biso   1.000  Hf
  O9       1.0000 0.09344  0.16551  0.57475  Biso   1.000  O
  O10      1.0000 0.06421  0.08542  0.82775  Biso   1.000  O
  O11      1.0000 0.94325  0.41473  0.67810  Biso   1.000  O
  O12      1.0000 0.92652  0.33465  0.92587  Biso   1.000  O
  O13      1.0000 0.55276  0.12844  0.73892  Biso   1.000  O
  O14      1.0000 0.54114  0.12251  0.98977  Biso   1.000  O
  O15      1.0000 0.46177  0.37702  0.51584  Biso   1.000  O
  O16      1.0000 0.45378  0.37316  0.76264  Biso   1.000  O
  Hf9      1.0000 0.26776  0.52344  0.14397  Biso   1.000  Hf
  Hf10     1.0000 0.27088  0.72126  0.39565  Biso   1.000  Hf
  Hf11     1.0000 0.71361  0.76998  0.10383  Biso   1.000  Hf
  Hf12     1.0000 0.71427  0.96697  0.35149  Biso   1.000  Hf
  O17      1.0000 0.06182  0.67072  0.07653  Biso   1.000  O
  O18      1.0000 0.05640  0.58371  0.32748  Biso   1.000  O
  O19      1.0000 0.92918  0.91085  0.17641  Biso   1.000  O
  O20      1.0000 0.93533  0.83668  0.42488  Biso   1.000  O
  O21      1.0000 0.54532  0.62754  0.23982  Biso   1.000  O
  O22      1.0000 0.54665  0.62130  0.48976  Biso   1.000  O
  O23      1.0000 0.44439  0.87952  0.00997  Biso   1.000  O
  O24      1.0000 0.43737  0.86759  0.26111  Biso   1.000  O
  Hf13     1.0000 0.28415  0.52384  0.64737  Biso   1.000  Hf
  Hf14     1.0000 0.27255  0.72986  0.89680  Biso   1.000  Hf
  Hf15     1.0000 0.72124  0.77116  0.60409  Biso   1.000  Hf
  Hf16     1.0000 0.71838  0.97914  0.85553  Biso   1.000  Hf
  O25      1.0000 0.06250  0.66380  0.57874  Biso   1.000  O
  O26      1.0000 0.06739  0.58622  0.82841  Biso   1.000  O
  O27      1.0000 0.93282  0.91465  0.67470  Biso   1.000  O
  O28      1.0000 0.92957  0.83762  0.92387  Biso   1.000  O
  O29      1.0000 0.55357  0.62914  0.74055  Biso   1.000  O
  O30      1.0000 0.54748  0.62355  0.98991  Biso   1.000  O
  O31      1.0000 0.44641  0.88229  0.51022  Biso   1.000  O
  O32      1.0000 0.44815  0.87196  0.76056  Biso   1.000  O
  Be1      1.0000 0.82731  0.21856  0.36282  Biso   1.000  Be
