data_image0
_cell_length_a       10.0519
_cell_length_b       5.12495
_cell_length_c       10.0519
_cell_angle_alpha    90.0001
_cell_angle_beta     90.0002
_cell_angle_gamma    90.0001

_symmetry_space_group_name_H-M    "P 1"
_symmetry_int_tables_number       1

loop_
  _symmetry_equiv_pos_as_xyz
  'x, y, z'

loop_
  _atom_site_label
  _atom_site_occupancy
  _atom_site_fract_x
  _atom_site_fract_y
  _atom_site_fract_z
  _atom_site_thermal_displace_type
  _atom_site_B_iso_or_equiv
  _atom_site_type_symbol
  Bi1      1.0000 0.12491  0.00011  0.12491  Biso   1.000  Bi
  Hf1      1.0000 0.12491  0.50011  0.37740  Biso   1.000  Hf
  Hf2      1.0000 0.37740  0.50011  0.12491  Biso   1.000  Hf
  Hf3      1.0000 0.37686  0.00295  0.37686  Biso   1.000  Hf
  Hf4      1.0000 0.99803  0.29866  0.99803  Biso   1.000  Hf
  Hf5      1.0000 0.99264  0.21980  0.25717  Biso   1.000  Hf
  Hf6      1.0000 0.99803  0.70155  0.25179  Biso   1.000  Hf
  Hf7      1.0000 0.99264  0.78041  0.99264  Biso   1.000  Hf
  Hf8      1.0000 0.25179  0.29866  0.25179  Biso   1.000  Hf
  Hf9      1.0000 0.25718  0.21980  0.99264  Biso   1.000  Hf
  Hf10     1.0000 0.25179  0.70155  0.99803  Biso   1.000  Hf
  Hf11     1.0000 0.25718  0.78041  0.25717  Biso   1.000  Hf
  Hf12     1.0000 0.12491  0.00011  0.62491  Biso   1.000  Hf
  Hf13     1.0000 0.12491  0.50011  0.87242  Biso   1.000  Hf
  Hf14     1.0000 0.37450  0.50011  0.62491  Biso   1.000  Hf
  Hf15     1.0000 0.37686  0.99726  0.87296  Biso   1.000  Hf
  Hf16     1.0000 0.00265  0.29633  0.50537  Biso   1.000  Hf
  Hf17     1.0000 0.99910  0.20291  0.75164  Biso   1.000  Hf
  Hf18     1.0000 0.00265  0.70388  0.74444  Biso   1.000  Hf
  Hf19     1.0000 0.99910  0.79730  0.49817  Biso   1.000  Hf
  Hf20     1.0000 0.24716  0.29633  0.74444  Biso   1.000  Hf
  Hf21     1.0000 0.25072  0.20291  0.49817  Biso   1.000  Hf
  Hf22     1.0000 0.24716  0.70388  0.50537  Biso   1.000  Hf
  Hf23     1.0000 0.25072  0.79730  0.75164  Biso   1.000  Hf
  Hf24     1.0000 0.62491  0.00011  0.12491  Biso   1.000  Hf
  Hf25     1.0000 0.62491  0.50011  0.37451  Biso   1.000  Hf
  Hf26     1.0000 0.87242  0.50011  0.12491  Biso   1.000  Hf
  Hf27     1.0000 0.87296  0.99726  0.37686  Biso   1.000  Hf
  Hf28     1.0000 0.50537  0.29633  0.00265  Biso   1.000  Hf
  Hf29     1.0000 0.49817  0.20291  0.25072  Biso   1.000  Hf
  Hf30     1.0000 0.50537  0.70388  0.24717  Biso   1.000  Hf
  Hf31     1.0000 0.49817  0.79731  0.99910  Biso   1.000  Hf
  Hf32     1.0000 0.74444  0.29633  0.24717  Biso   1.000  Hf
  Hf33     1.0000 0.75164  0.20291  0.99910  Biso   1.000  Hf
  Hf34     1.0000 0.74444  0.70389  0.00265  Biso   1.000  Hf
  Hf35     1.0000 0.75164  0.79731  0.25072  Biso   1.000  Hf
  Hf36     1.0000 0.62491  0.00011  0.62491  Biso   1.000  Hf
  Hf37     1.0000 0.62491  0.50011  0.87531  Biso   1.000  Hf
  Hf38     1.0000 0.87531  0.50011  0.62491  Biso   1.000  Hf
  Hf39     1.0000 0.87296  0.00295  0.87296  Biso   1.000  Hf
  Hf40     1.0000 0.50104  0.29770  0.50104  Biso   1.000  Hf
  Hf41     1.0000 0.49966  0.20321  0.75015  Biso   1.000  Hf
  Hf42     1.0000 0.50103  0.70251  0.74878  Biso   1.000  Hf
  Hf43     1.0000 0.49966  0.79701  0.49966  Biso   1.000  Hf
  Hf44     1.0000 0.74878  0.29771  0.74878  Biso   1.000  Hf
  Hf45     1.0000 0.75016  0.20320  0.49966  Biso   1.000  Hf
  Hf46     1.0000 0.74878  0.70251  0.50104  Biso   1.000  Hf
  Hf47     1.0000 0.75016  0.79701  0.75016  Biso   1.000  Hf
