data_image0
_cell_length_a       10.3917
_cell_length_b       10.5844
_cell_length_c       5.26074
_cell_angle_alpha    86.5607
_cell_angle_beta     77.3585
_cell_angle_gamma    87.0635

_symmetry_space_group_name_H-M    "P 1"
_symmetry_int_tables_number       1

loop_
  _symmetry_equiv_pos_as_xyz
  'x, y, z'

loop_
  _atom_site_label
  _atom_site_occupancy
  _atom_site_fract_x
  _atom_site_fract_y
  _atom_site_fract_z
  _atom_site_thermal_displace_type
  _atom_site_B_iso_or_equiv
  _atom_site_type_symbol
  Hf1      1.0000 0.12982  0.01076  0.27964  Biso   1.000  Hf
  Hf2      1.0000 0.12687  0.22014  0.75713  Biso   1.000  Hf
  Hf3      1.0000 0.33060  0.24695  0.14406  Biso   1.000  Hf
  Hf4      1.0000 0.37696  0.49733  0.74053  Biso   1.000  Hf
  O1       1.0000 0.03784  0.17318  0.16346  Biso   1.000  O
  O2       1.0000 0.02758  0.07547  0.66257  Biso   1.000  O
  O3       1.0000 0.47790  0.45739  0.38905  Biso   1.000  O
  O4       1.0000 0.47771  0.36432  0.94408  Biso   1.000  O
  O5       1.0000 0.25970  0.10702  0.44494  Biso   1.000  O
  O6       1.0000 0.26123  0.10722  0.94204  Biso   1.000  O
  O7       1.0000 0.22074  0.38322  0.96696  Biso   1.000  O
  O8       1.0000 0.20957  0.34836  0.45828  Biso   1.000  O
  Hf5      1.0000 0.14008  0.51420  0.30218  Biso   1.000  Hf
  Hf6      1.0000 0.13077  0.72103  0.79731  Biso   1.000  Hf
  Hf7      1.0000 0.35404  0.76245  0.20601  Biso   1.000  Hf
  Hf8      1.0000 0.34469  0.95915  0.68405  Biso   1.000  Hf
  O9       1.0000 0.02965  0.66608  0.16764  Biso   1.000  O
  O10      1.0000 0.03676  0.57921  0.66449  Biso   1.000  O
  O11      1.0000 0.44872  0.90703  0.30983  Biso   1.000  O
  O12      1.0000 0.45514  0.81940  0.83016  Biso   1.000  O
  O13      1.0000 0.27252  0.62025  0.49818  Biso   1.000  O
  O14      1.0000 0.27196  0.62287  0.00291  Biso   1.000  O
  O15      1.0000 0.21357  0.87030  0.01327  Biso   1.000  O
  O16      1.0000 0.21404  0.85844  0.51002  Biso   1.000  O
  Hf9      1.0000 0.61738  0.00267  0.26966  Biso   1.000  Hf
  Hf10     1.0000 0.66375  0.25305  0.86614  Biso   1.000  Hf
  Hf11     1.0000 0.86745  0.27984  0.25307  Biso   1.000  Hf
  Hf12     1.0000 0.86452  0.48923  0.73055  Biso   1.000  Hf
  O17      1.0000 0.51663  0.13569  0.06612  Biso   1.000  O
  O18      1.0000 0.51644  0.04262  0.62114  Biso   1.000  O
  O19      1.0000 0.96676  0.42452  0.34763  Biso   1.000  O
  O20      1.0000 0.95649  0.32682  0.84673  Biso   1.000  O
  O21      1.0000 0.78478  0.15164  0.55197  Biso   1.000  O
  O22      1.0000 0.77360  0.11681  0.04332  Biso   1.000  O
  O23      1.0000 0.73311  0.39277  0.06817  Biso   1.000  O
  O24      1.0000 0.73463  0.39298  0.56525  Biso   1.000  O
  Hf13     1.0000 0.64965  0.54084  0.32614  Biso   1.000  Hf
  Hf14     1.0000 0.64029  0.73755  0.80418  Biso   1.000  Hf
  Hf15     1.0000 0.86357  0.77897  0.21289  Biso   1.000  Hf
  Hf16     1.0000 0.85426  0.98578  0.70801  Biso   1.000  Hf
  O25      1.0000 0.53920  0.68061  0.18004  Biso   1.000  O
  O26      1.0000 0.54561  0.59298  0.70035  Biso   1.000  O
  O27      1.0000 0.95758  0.92079  0.34573  Biso   1.000  O
  O28      1.0000 0.96469  0.83391  0.84256  Biso   1.000  O
  O29      1.0000 0.78030  0.64156  0.50018  Biso   1.000  O
  O30      1.0000 0.78076  0.62970  0.99693  Biso   1.000  O
  O31      1.0000 0.72238  0.87714  0.00729  Biso   1.000  O
  O32      1.0000 0.72182  0.87974  0.51202  Biso   1.000  O
  Bi1      1.0000 0.49717  0.25000  0.50510  Biso   1.000  Bi
