data_image0
_cell_length_a       10.1712
_cell_length_b       10.1148
_cell_length_c       10.1682
_cell_angle_alpha    89.8872
_cell_angle_beta     83.2575
_cell_angle_gamma    90.4293

_symmetry_space_group_name_H-M    "P 1"
_symmetry_int_tables_number       1

loop_
  _symmetry_equiv_pos_as_xyz
  'x, y, z'

loop_
  _atom_site_label
  _atom_site_occupancy
  _atom_site_fract_x
  _atom_site_fract_y
  _atom_site_fract_z
  _atom_site_thermal_displace_type
  _atom_site_B_iso_or_equiv
  _atom_site_type_symbol
  Hf1      1.0000 0.13290  0.98966  0.12858  Biso   1.000  Hf
  Hf2      1.0000 0.12599  0.26208  0.36018  Biso   1.000  Hf
  Hf3      1.0000 0.37460  0.24658  0.13490  Biso   1.000  Hf
  Hf4      1.0000 0.37705  0.99202  0.37887  Biso   1.000  Hf
  Hf5      1.0000 0.06976  0.17654  0.04889  Biso   1.000  Hf
  Hf6      1.0000 0.04031  0.09112  0.28808  Biso   1.000  Hf
  Hf7      1.0000 0.97753  0.35433  0.26650  Biso   1.000  Hf
  Hf8      1.0000 0.99307  0.39782  0.99132  Biso   1.000  Hf
  Hf9      1.0000 0.29832  0.15795  0.30977  Biso   1.000  Hf
  Hf10     1.0000 0.30897  0.07427  0.04688  Biso   1.000  Hf
  Hf11     1.0000 0.24794  0.32702  0.00512  Biso   1.000  Hf
  Hf12     1.0000 0.25041  0.41088  0.25276  Biso   1.000  Hf
  Hf13     1.0000 0.12394  0.99360  0.62274  Biso   1.000  Hf
  Hf14     1.0000 0.12171  0.25968  0.85738  Biso   1.000  Hf
  Hf15     1.0000 0.37476  0.25522  0.62359  Biso   1.000  Hf
  Hf16     1.0000 0.37577  0.99028  0.87314  Biso   1.000  Hf
  Hf17     1.0000 0.04559  0.16050  0.53790  Biso   1.000  Hf
  Hf18     1.0000 0.04052  0.09351  0.79333  Biso   1.000  Hf
  Hf19     1.0000 0.99830  0.35238  0.74648  Biso   1.000  Hf
  Hf20     1.0000 0.99622  0.40351  0.49756  Biso   1.000  Hf
  Hf21     1.0000 0.29113  0.15914  0.79498  Biso   1.000  Hf
  Hf22     1.0000 0.29667  0.08547  0.55116  Biso   1.000  Hf
  Hf23     1.0000 0.25071  0.34914  0.50383  Biso   1.000  Hf
  Hf24     1.0000 0.24503  0.39943  0.74804  Biso   1.000  Hf
  Hf25     1.0000 0.11569  0.48512  0.12703  Biso   1.000  Hf
  Hf26     1.0000 0.12495  0.75502  0.37396  Biso   1.000  Hf
  Hf27     1.0000 0.37423  0.75500  0.12671  Biso   1.000  Hf
  Hf28     1.0000 0.37464  0.49408  0.37808  Biso   1.000  Hf
  Hf29     1.0000 0.95468  0.66106  0.95704  Biso   1.000  Hf
  Hf30     1.0000 0.95397  0.59213  0.20679  Biso   1.000  Hf
  Hf31     1.0000 0.99898  0.84930  0.24731  Biso   1.000  Hf
  Hf32     1.0000 0.00689  0.90702  0.00227  Biso   1.000  Hf
  Hf33     1.0000 0.20685  0.65940  0.20851  Biso   1.000  Hf
  Hf34     1.0000 0.20455  0.58190  0.95713  Biso   1.000  Hf
  Hf35     1.0000 0.24816  0.84255  0.99774  Biso   1.000  Hf
  Hf36     1.0000 0.25342  0.89976  0.25556  Biso   1.000  Hf
  Hf37     1.0000 0.12348  0.49338  0.62240  Biso   1.000  Hf
  Hf38     1.0000 0.12475  0.75455  0.87582  Biso   1.000  Hf
  Hf39     1.0000 0.37272  0.75772  0.62562  Biso   1.000  Hf
  Hf40     1.0000 0.37536  0.49596  0.87351  Biso   1.000  Hf
  Hf41     1.0000 0.95453  0.66114  0.45739  Biso   1.000  Hf
  Hf42     1.0000 0.95699  0.59339  0.70640  Biso   1.000  Hf
  Hf43     1.0000 0.99631  0.85105  0.74818  Biso   1.000  Hf
  Hf44     1.0000 0.00154  0.90174  0.50170  Biso   1.000  Hf
  Hf45     1.0000 0.20730  0.65757  0.70954  Biso   1.000  Hf
  Hf46     1.0000 0.20610  0.59220  0.45895  Biso   1.000  Hf
  Hf47     1.0000 0.24490  0.84929  0.49933  Biso   1.000  Hf
  Hf48     1.0000 0.24948  0.89958  0.75402  Biso   1.000  Hf
  Hf49     1.0000 0.62724  0.99332  0.12409  Biso   1.000  Hf
  Hf50     1.0000 0.62259  0.25758  0.37459  Biso   1.000  Hf
  Hf51     1.0000 0.86642  0.26438  0.12757  Biso   1.000  Hf
  Hf52     1.0000 0.87501  0.99414  0.37337  Biso   1.000  Hf
  Hf53     1.0000 0.55117  0.15854  0.04286  Biso   1.000  Hf
  Hf54     1.0000 0.54301  0.09068  0.29066  Biso   1.000  Hf
  Hf55     1.0000 0.49973  0.35017  0.25525  Biso   1.000  Hf
  Hf56     1.0000 0.48941  0.39864  0.99917  Biso   1.000  Hf
  Hf57     1.0000 0.78866  0.15964  0.29309  Biso   1.000  Hf
  Hf58     1.0000 0.80666  0.09257  0.04399  Biso   1.000  Hf
  Hf59     1.0000 0.74805  0.35184  0.00183  Biso   1.000  Hf
  Hf60     1.0000 0.74088  0.40134  0.24504  Biso   1.000  Hf
  Hf61     1.0000 0.62507  0.99329  0.62433  Biso   1.000  Hf
  Hf62     1.0000 0.62291  0.25722  0.87353  Biso   1.000  Hf
  Hf63     1.0000 0.87577  0.25648  0.61943  Biso   1.000  Hf
  Hf64     1.0000 0.87347  0.99194  0.87332  Biso   1.000  Hf
  Hf65     1.0000 0.54303  0.15890  0.54204  Biso   1.000  Hf
  Hf66     1.0000 0.54145  0.09091  0.79122  Biso   1.000  Hf
  Hf67     1.0000 0.50015  0.34990  0.75293  Biso   1.000  Hf
  Hf68     1.0000 0.49615  0.40006  0.49947  Biso   1.000  Hf
  Hf69     1.0000 0.79170  0.15933  0.79211  Biso   1.000  Hf
  Hf70     1.0000 0.79321  0.09009  0.54164  Biso   1.000  Hf
  Hf71     1.0000 0.75073  0.35032  0.50200  Biso   1.000  Hf
  Hf72     1.0000 0.74596  0.40035  0.74609  Biso   1.000  Hf
  Hf73     1.0000 0.61974  0.49422  0.12383  Biso   1.000  Hf
  Hf74     1.0000 0.62384  0.75691  0.37369  Biso   1.000  Hf
  Hf75     1.0000 0.87603  0.75866  0.12560  Biso   1.000  Hf
  Hf76     1.0000 0.87088  0.49682  0.37768  Biso   1.000  Hf
  Hf77     1.0000 0.45595  0.65838  0.95781  Biso   1.000  Hf
  Hf78     1.0000 0.45797  0.59272  0.20966  Biso   1.000  Hf
  Hf79     1.0000 0.49819  0.85113  0.24654  Biso   1.000  Hf
  Hf80     1.0000 0.50705  0.89821  0.00054  Biso   1.000  Hf
  Hf81     1.0000 0.70665  0.66081  0.20498  Biso   1.000  Hf
  Hf82     1.0000 0.70405  0.59121  0.95533  Biso   1.000  Hf
  Hf83     1.0000 0.75001  0.85131  0.99567  Biso   1.000  Hf
  Hf84     1.0000 0.75408  0.90106  0.25120  Biso   1.000  Hf
  Hf85     1.0000 0.62371  0.49259  0.62558  Biso   1.000  Hf
  Hf86     1.0000 0.62462  0.75773  0.87500  Biso   1.000  Hf
  Hf87     1.0000 0.87437  0.75880  0.62455  Biso   1.000  Hf
  Hf88     1.0000 0.87111  0.49582  0.87230  Biso   1.000  Hf
  Hf89     1.0000 0.45403  0.66223  0.45848  Biso   1.000  Hf
  Hf90     1.0000 0.45629  0.59093  0.70833  Biso   1.000  Hf
  Hf91     1.0000 0.49641  0.84816  0.74725  Biso   1.000  Hf
  Hf92     1.0000 0.50352  0.90050  0.50329  Biso   1.000  Hf
  Hf93     1.0000 0.70673  0.65911  0.70630  Biso   1.000  Hf
  Hf94     1.0000 0.70012  0.59084  0.45640  Biso   1.000  Hf
  Hf95     1.0000 0.74659  0.84926  0.49615  Biso   1.000  Hf
  Hf96     1.0000 0.75093  0.90050  0.75140  Biso   1.000  Hf
  C1       1.0000 0.15392  0.26617  0.11152  Biso   1.000  C 
