data_image0
_cell_length_a       9.96517
_cell_length_b       10.3754
_cell_length_c       10.0188
_cell_angle_alpha    90.1834
_cell_angle_beta     89.6488
_cell_angle_gamma    90.442

_symmetry_space_group_name_H-M    "P 1"
_symmetry_int_tables_number       1

loop_
  _symmetry_equiv_pos_as_xyz
  'x, y, z'

loop_
  _atom_site_label
  _atom_site_occupancy
  _atom_site_fract_x
  _atom_site_fract_y
  _atom_site_fract_z
  _atom_site_thermal_displace_type
  _atom_site_B_iso_or_equiv
  _atom_site_type_symbol
  Hf1      1.0000 0.14328  0.02017  0.12333  Biso   1.000  Hf
  Hf2      1.0000 0.13558  0.22621  0.39727  Biso   1.000  Hf
  Hf3      1.0000 0.36180  0.25996  0.11939  Biso   1.000  Hf
  Hf4      1.0000 0.37689  0.48830  0.37887  Biso   1.000  Hf
  Hf5      1.0000 0.02592  0.17669  0.21893  Biso   1.000  Hf
  Hf6      1.0000 0.03624  0.06405  0.45415  Biso   1.000  Hf
  Hf7      1.0000 0.45320  0.42973  0.19676  Biso   1.000  Hf
  Hf8      1.0000 0.46404  0.31572  0.44371  Biso   1.000  Hf
  Hf9      1.0000 0.27038  0.11664  0.25965  Biso   1.000  Hf
  Hf10     1.0000 0.27601  0.12865  0.50849  Biso   1.000  Hf
  Hf11     1.0000 0.23205  0.38336  0.49098  Biso   1.000  Hf
  Hf12     1.0000 0.18260  0.34010  0.22190  Biso   1.000  Hf
  Hf13     1.0000 0.13819  0.01593  0.63378  Biso   1.000  Hf
  Hf14     1.0000 0.13548  0.23619  0.88782  Biso   1.000  Hf
  Hf15     1.0000 0.36881  0.26666  0.62992  Biso   1.000  Hf
  Hf16     1.0000 0.36989  0.48755  0.87125  Biso   1.000  Hf
  Hf17     1.0000 0.03975  0.18572  0.69399  Biso   1.000  Hf
  Hf18     1.0000 0.03789  0.06819  0.94990  Biso   1.000  Hf
  Hf19     1.0000 0.46394  0.43610  0.69064  Biso   1.000  Hf
  Hf20     1.0000 0.46577  0.31515  0.94088  Biso   1.000  Hf
  Hf21     1.0000 0.27074  0.11961  0.75621  Biso   1.000  Hf
  Hf22     1.0000 0.29234  0.11792  0.99564  Biso   1.000  Hf
  Hf23     1.0000 0.23982  0.38936  0.99382  Biso   1.000  Hf
  Hf24     1.0000 0.22726  0.36856  0.74703  Biso   1.000  Hf
  Hf25     1.0000 0.12580  0.51698  0.11813  Biso   1.000  Hf
  Hf26     1.0000 0.13362  0.73222  0.37505  Biso   1.000  Hf
  Hf27     1.0000 0.36541  0.76309  0.12616  Biso   1.000  Hf
  Hf28     1.0000 0.36890  0.98052  0.37752  Biso   1.000  Hf
  Hf29     1.0000 0.03761  0.68642  0.19115  Biso   1.000  Hf
  Hf30     1.0000 0.03542  0.56643  0.44322  Biso   1.000  Hf
  Hf31     1.0000 0.46583  0.93168  0.19488  Biso   1.000  Hf
  Hf32     1.0000 0.46572  0.81406  0.44507  Biso   1.000  Hf
  Hf33     1.0000 0.26367  0.60423  0.24941  Biso   1.000  Hf
  Hf34     1.0000 0.27204  0.63296  0.49814  Biso   1.000  Hf
  Hf35     1.0000 0.22965  0.88177  0.50133  Biso   1.000  Hf
  Hf36     1.0000 0.23383  0.86367  0.25068  Biso   1.000  Hf
  Hf37     1.0000 0.13367  0.51662  0.62354  Biso   1.000  Hf
  Hf38     1.0000 0.13408  0.73481  0.87528  Biso   1.000  Hf
  Hf39     1.0000 0.36766  0.76551  0.62536  Biso   1.000  Hf
  Hf40     1.0000 0.37236  0.97940  0.87445  Biso   1.000  Hf
  Hf41     1.0000 0.03848  0.68593  0.69153  Biso   1.000  Hf
  Hf42     1.0000 0.03473  0.56525  0.93980  Biso   1.000  Hf
  Hf43     1.0000 0.46597  0.93395  0.69037  Biso   1.000  Hf
  Hf44     1.0000 0.46613  0.81400  0.94764  Biso   1.000  Hf
  Hf45     1.0000 0.26982  0.61821  0.74821  Biso   1.000  Hf
  Hf46     1.0000 0.26850  0.63431  0.99791  Biso   1.000  Hf
  Hf47     1.0000 0.22970  0.88004  0.00057  Biso   1.000  Hf
  Hf48     1.0000 0.23304  0.86698  0.75103  Biso   1.000  Hf
  Hf49     1.0000 0.63480  0.01861  0.12571  Biso   1.000  Hf
  Hf50     1.0000 0.63548  0.23327  0.37420  Biso   1.000  Hf
  Hf51     1.0000 0.87211  0.27494  0.11493  Biso   1.000  Hf
  Hf52     1.0000 0.86403  0.48454  0.37668  Biso   1.000  Hf
  Hf53     1.0000 0.53339  0.18300  0.19179  Biso   1.000  Hf
  Hf54     1.0000 0.53883  0.06504  0.44368  Biso   1.000  Hf
  Hf55     1.0000 0.94942  0.44749  0.19123  Biso   1.000  Hf
  Hf56     1.0000 0.96577  0.31812  0.44752  Biso   1.000  Hf
  Hf57     1.0000 0.77038  0.11900  0.24868  Biso   1.000  Hf
  Hf58     1.0000 0.77263  0.13482  0.49935  Biso   1.000  Hf
  Hf59     1.0000 0.72859  0.38251  0.49939  Biso   1.000  Hf
  Hf60     1.0000 0.72603  0.36896  0.24835  Biso   1.000  Hf
  Hf61     1.0000 0.63703  0.01858  0.62542  Biso   1.000  Hf
  Hf62     1.0000 0.63642  0.23312  0.87663  Biso   1.000  Hf
  Hf63     1.0000 0.86925  0.26788  0.62900  Biso   1.000  Hf
  Hf64     1.0000 0.86176  0.48668  0.87210  Biso   1.000  Hf
  Hf65     1.0000 0.53775  0.18479  0.69428  Biso   1.000  Hf
  Hf66     1.0000 0.54578  0.06166  0.93911  Biso   1.000  Hf
  Hf67     1.0000 0.95929  0.44106  0.68756  Biso   1.000  Hf
  Hf68     1.0000 0.95022  0.31538  0.91822  Biso   1.000  Hf
  Hf69     1.0000 0.77314  0.11879  0.74955  Biso   1.000  Hf
  Hf70     1.0000 0.77396  0.13339  0.99972  Biso   1.000  Hf
  Hf71     1.0000 0.72771  0.38373  0.99990  Biso   1.000  Hf
  Hf72     1.0000 0.72602  0.37063  0.74863  Biso   1.000  Hf
  Hf73     1.0000 0.63161  0.51529  0.12882  Biso   1.000  Hf
  Hf74     1.0000 0.63789  0.73673  0.37659  Biso   1.000  Hf
  Hf75     1.0000 0.86802  0.76870  0.12629  Biso   1.000  Hf
  Hf76     1.0000 0.86740  0.98617  0.37343  Biso   1.000  Hf
  Hf77     1.0000 0.53046  0.67893  0.20166  Biso   1.000  Hf
  Hf78     1.0000 0.53918  0.56778  0.44848  Biso   1.000  Hf
  Hf79     1.0000 0.96880  0.93525  0.19431  Biso   1.000  Hf
  Hf80     1.0000 0.96397  0.81646  0.44238  Biso   1.000  Hf
  Hf81     1.0000 0.76707  0.62032  0.25186  Biso   1.000  Hf
  Hf82     1.0000 0.77083  0.63413  0.50093  Biso   1.000  Hf
  Hf83     1.0000 0.73253  0.88461  0.49971  Biso   1.000  Hf
  Hf84     1.0000 0.73086  0.86926  0.24957  Biso   1.000  Hf
  Hf85     1.0000 0.63769  0.51742  0.62733  Biso   1.000  Hf
  Hf86     1.0000 0.63648  0.73494  0.87765  Biso   1.000  Hf
  Hf87     1.0000 0.86916  0.76912  0.62551  Biso   1.000  Hf
  Hf88     1.0000 0.86631  0.98507  0.87732  Biso   1.000  Hf
  Hf89     1.0000 0.53551  0.68323  0.69843  Biso   1.000  Hf
  Hf90     1.0000 0.53668  0.56654  0.94833  Biso   1.000  Hf
  Hf91     1.0000 0.96687  0.93380  0.69920  Biso   1.000  Hf
  Hf92     1.0000 0.96341  0.81623  0.94336  Biso   1.000  Hf
  Hf93     1.0000 0.77106  0.62197  0.74993  Biso   1.000  Hf
  Hf94     1.0000 0.76889  0.63263  0.00248  Biso   1.000  Hf
  Hf95     1.0000 0.73155  0.88260  0.00096  Biso   1.000  Hf
  Hf96     1.0000 0.73053  0.86967  0.75007  Biso   1.000  Hf
  C1       1.0000 0.10452  0.25378  0.13053  Biso   1.000  C 
