data_image0
_cell_length_a       5.05576
_cell_length_b       10.3515
_cell_length_c       10.3892
_cell_angle_alpha    90.269
_cell_angle_beta     80.8592
_cell_angle_gamma    90.3538

_symmetry_space_group_name_H-M    "P 1"
_symmetry_int_tables_number       1

loop_
  _symmetry_equiv_pos_as_xyz
  'x, y, z'

loop_
  _atom_site_label
  _atom_site_occupancy
  _atom_site_fract_x
  _atom_site_fract_y
  _atom_site_fract_z
  _atom_site_thermal_displace_type
  _atom_site_B_iso_or_equiv
  _atom_site_type_symbol
  Hf1      1.0000 0.27401  0.01666  0.14840  Biso   1.000  Hf
  Hf2      1.0000 0.29329  0.22556  0.39131  Biso   1.000  Hf
  Hf3      1.0000 0.72592  0.26991  0.11510  Biso   1.000  Hf
  Hf4      1.0000 0.69805  0.48556  0.34822  Biso   1.000  Hf
  O1       1.0000 0.07034  0.16519  0.08300  Biso   1.000  O
  O2       1.0000 0.08974  0.05743  0.34304  Biso   1.000  O
  O3       1.0000 0.91153  0.43636  0.15862  Biso   1.000  O
  O4       1.0000 0.96253  0.35294  0.42455  Biso   1.000  O
  O5       1.0000 0.54753  0.12362  0.24131  Biso   1.000  O
  O6       1.0000 0.56568  0.11966  0.49217  Biso   1.000  O
  O7       1.0000 0.44594  0.37750  0.01151  Biso   1.000  O
  O8       1.0000 0.42131  0.37627  0.25634  Biso   1.000  O
  Hf5      1.0000 0.26773  0.02118  0.64431  Biso   1.000  Hf
  Hf6      1.0000 0.27280  0.22696  0.90170  Biso   1.000  Hf
  Hf7      1.0000 0.71133  0.26706  0.61469  Biso   1.000  Hf
  Hf8      1.0000 0.72079  0.47517  0.85878  Biso   1.000  Hf
  O9       1.0000 0.07287  0.17361  0.57703  Biso   1.000  O
  O10      1.0000 0.06840  0.07940  0.82955  Biso   1.000  O
  O11      1.0000 0.92541  0.41568  0.67251  Biso   1.000  O
  O12      1.0000 0.92409  0.32702  0.92403  Biso   1.000  O
  O13      1.0000 0.54668  0.12875  0.74389  Biso   1.000  O
  O14      1.0000 0.55194  0.11969  0.99379  Biso   1.000  O
  O15      1.0000 0.46280  0.37503  0.50978  Biso   1.000  O
  O16      1.0000 0.44286  0.36868  0.76247  Biso   1.000  O
  Hf9      1.0000 0.27352  0.52288  0.14196  Biso   1.000  Hf
  Hf10     1.0000 0.26472  0.72830  0.39685  Biso   1.000  Hf
  Hf11     1.0000 0.71848  0.77100  0.10382  Biso   1.000  Hf
  Hf12     1.0000 0.72333  0.97486  0.35658  Biso   1.000  Hf
  O17      1.0000 0.07251  0.67609  0.08095  Biso   1.000  O
  O18      1.0000 0.06272  0.57998  0.32892  Biso   1.000  O
  O19      1.0000 0.91889  0.92084  0.16900  Biso   1.000  O
  O20      1.0000 0.90908  0.82004  0.41935  Biso   1.000  O
  O21      1.0000 0.54315  0.63068  0.24109  Biso   1.000  O
  O22      1.0000 0.53578  0.61935  0.49253  Biso   1.000  O
  O23      1.0000 0.44402  0.87838  0.00931  Biso   1.000  O
  O24      1.0000 0.44489  0.86589  0.25928  Biso   1.000  O
  Hf13     1.0000 0.27311  0.51929  0.64727  Biso   1.000  Hf
  Hf14     1.0000 0.27251  0.72898  0.89516  Biso   1.000  Hf
  Hf15     1.0000 0.71358  0.76904  0.60620  Biso   1.000  Hf
  Hf16     1.0000 0.71736  0.97865  0.85607  Biso   1.000  Hf
  O25      1.0000 0.06349  0.66831  0.58485  Biso   1.000  O
  O26      1.0000 0.07088  0.57669  0.83321  Biso   1.000  O
  O27      1.0000 0.91813  0.92180  0.66686  Biso   1.000  O
  O28      1.0000 0.92147  0.82864  0.91660  Biso   1.000  O
  O29      1.0000 0.54837  0.62714  0.74168  Biso   1.000  O
  O30      1.0000 0.54909  0.62010  0.99028  Biso   1.000  O
  O31      1.0000 0.43809  0.87892  0.51057  Biso   1.000  O
  O32      1.0000 0.44054  0.87084  0.75951  Biso   1.000  O
  C1       1.0000 0.91133  0.28839  0.32099  Biso   1.000  C
