data_image0
_cell_length_a       4.99595
_cell_length_b       10.1973
_cell_length_c       10.0637
_cell_angle_alpha    90.0005
_cell_angle_beta     89.9995
_cell_angle_gamma    90.0011

_symmetry_space_group_name_H-M    "P 1"
_symmetry_int_tables_number       1

loop_
  _symmetry_equiv_pos_as_xyz
  'x, y, z'

loop_
  _atom_site_label
  _atom_site_occupancy
  _atom_site_fract_x
  _atom_site_fract_y
  _atom_site_fract_z
  _atom_site_thermal_displace_type
  _atom_site_B_iso_or_equiv
  _atom_site_type_symbol
  Ca1      1.0000 0.25127  0.99985  0.12518  Biso   1.000  Ca
  Hf1      1.0000 0.25127  0.99986  0.62518  Biso   1.000  Hf
  Hf2      1.0000 0.25127  0.49986  0.12518  Biso   1.000  Hf
  Hf3      1.0000 0.25127  0.49985  0.62519  Biso   1.000  Hf
  Hf4      1.0000 0.25069  0.25059  0.37477  Biso   1.000  Hf
  Hf5      1.0000 0.25184  0.25059  0.87559  Biso   1.000  Hf
  Hf6      1.0000 0.25183  0.74911  0.37476  Biso   1.000  Hf
  Hf7      1.0000 0.25070  0.74912  0.87559  Biso   1.000  Hf
  Hf8      1.0000 0.75127  0.25077  0.12518  Biso   1.000  Hf
  Hf9      1.0000 0.75127  0.24717  0.62517  Biso   1.000  Hf
  Hf10     1.0000 0.75127  0.74893  0.12518  Biso   1.000  Hf
  Hf11     1.0000 0.75126  0.75254  0.62518  Biso   1.000  Hf
  Hf12     1.0000 0.75127  0.99985  0.37237  Biso   1.000  Hf
  Hf13     1.0000 0.75127  0.99985  0.87798  Biso   1.000  Hf
  Hf14     1.0000 0.75127  0.49985  0.37564  Biso   1.000  Hf
  Hf15     1.0000 0.75128  0.49986  0.87473  Biso   1.000  Hf
  Hf16     1.0000 0.00044  0.14403  0.99748  Biso   1.000  Hf
  Hf17     1.0000 0.01902  0.14611  0.50779  Biso   1.000  Hf
  Hf18     1.0000 0.01675  0.63732  0.00503  Biso   1.000  Hf
  Hf19     1.0000 0.00451  0.64446  0.50431  Biso   1.000  Hf
  Hf20     1.0000 0.98299  0.12123  0.25993  Biso   1.000  Hf
  Hf21     1.0000 0.98950  0.10375  0.75071  Biso   1.000  Hf
  Hf22     1.0000 0.98993  0.60869  0.25221  Biso   1.000  Hf
  Hf23     1.0000 0.00037  0.60468  0.75351  Biso   1.000  Hf
  Hf24     1.0000 0.01673  0.36238  0.24533  Biso   1.000  Hf
  Hf25     1.0000 0.00452  0.35524  0.74604  Biso   1.000  Hf
  Hf26     1.0000 0.00045  0.85567  0.25288  Biso   1.000  Hf
  Hf27     1.0000 0.01902  0.85360  0.74257  Biso   1.000  Hf
  Hf28     1.0000 0.98995  0.39100  0.99814  Biso   1.000  Hf
  Hf29     1.0000 0.00038  0.39502  0.49684  Biso   1.000  Hf
  Hf30     1.0000 0.98300  0.87847  0.99042  Biso   1.000  Hf
  Hf31     1.0000 0.98950  0.89595  0.49964  Biso   1.000  Hf
  Hf32     1.0000 0.50210  0.14403  0.25288  Biso   1.000  Hf
  Hf33     1.0000 0.48350  0.14611  0.74257  Biso   1.000  Hf
  Hf34     1.0000 0.48579  0.63733  0.24533  Biso   1.000  Hf
  Hf35     1.0000 0.49800  0.64447  0.74604  Biso   1.000  Hf
  Hf36     1.0000 0.51954  0.12123  0.99042  Biso   1.000  Hf
  Hf37     1.0000 0.51303  0.10375  0.49964  Biso   1.000  Hf
  Hf38     1.0000 0.51260  0.60870  0.99814  Biso   1.000  Hf
  Hf39     1.0000 0.50216  0.60468  0.49684  Biso   1.000  Hf
  Hf40     1.0000 0.48580  0.36238  0.00503  Biso   1.000  Hf
  Hf41     1.0000 0.49802  0.35524  0.50432  Biso   1.000  Hf
  Hf42     1.0000 0.50210  0.85567  0.99748  Biso   1.000  Hf
  Hf43     1.0000 0.48351  0.85359  0.50779  Biso   1.000  Hf
  Hf44     1.0000 0.51258  0.39101  0.25222  Biso   1.000  Hf
  Hf45     1.0000 0.50217  0.39503  0.75351  Biso   1.000  Hf
  Hf46     1.0000 0.51954  0.87847  0.25993  Biso   1.000  Hf
  Hf47     1.0000 0.51303  0.89596  0.75071  Biso   1.000  Hf
