data_image0
_cell_length_a       10.0409
_cell_length_b       10.2539
_cell_length_c       10.5354
_cell_angle_alpha    90.0355
_cell_angle_beta     90.6277
_cell_angle_gamma    90.1417

_symmetry_space_group_name_H-M    "P 1"
_symmetry_int_tables_number       1

loop_
  _symmetry_equiv_pos_as_xyz
  'x, y, z'

loop_
  _atom_site_label
  _atom_site_occupancy
  _atom_site_fract_x
  _atom_site_fract_y
  _atom_site_fract_z
  _atom_site_thermal_displace_type
  _atom_site_B_iso_or_equiv
  _atom_site_type_symbol
  Hf1      1.0000 0.13971  0.02082  0.17309  Biso   1.000  Hf
  Hf2      1.0000 0.13877  0.22679  0.42645  Biso   1.000  Hf
  Hf3      1.0000 0.35011  0.27373  0.18962  Biso   1.000  Hf
  Hf4      1.0000 0.36135  0.47938  0.42588  Biso   1.000  Hf
  Hf5      1.0000 0.64122  0.01001  0.08090  Biso   1.000  Hf
  Hf6      1.0000 0.63835  0.22414  0.32937  Biso   1.000  Hf
  Hf7      1.0000 0.86579  0.27091  0.07691  Biso   1.000  Hf
  Hf8      1.0000 0.86002  0.47799  0.32632  Biso   1.000  Hf
  O1       1.0000 0.03553  0.16358  0.08344  Biso   1.000  O
  O2       1.0000 0.03229  0.08620  0.33266  Biso   1.000  O
  O3       1.0000 0.45689  0.43039  0.09588  Biso   1.000  O
  O4       1.0000 0.46634  0.33305  0.33965  Biso   1.000  O
  O5       1.0000 0.27289  0.12319  0.30156  Biso   1.000  O
  O6       1.0000 0.28158  0.12930  0.04762  Biso   1.000  O
  O7       1.0000 0.21693  0.37682  0.30487  Biso   1.000  O
  O8       1.0000 0.22099  0.37732  0.04948  Biso   1.000  O
  O9       1.0000 0.52302  0.14679  0.18308  Biso   1.000  O
  O10      1.0000 0.53142  0.08424  0.42205  Biso   1.000  O
  O11      1.0000 0.96648  0.41476  0.16977  Biso   1.000  O
  O12      1.0000 0.96866  0.33625  0.41768  Biso   1.000  O
  O13      1.0000 0.77670  0.12308  0.45205  Biso   1.000  O
  O14      1.0000 0.77820  0.12549  0.20274  Biso   1.000  O
  O15      1.0000 0.72406  0.37428  0.45142  Biso   1.000  O
  O16      1.0000 0.71594  0.37181  0.19785  Biso   1.000  O
  Hf9      1.0000 0.13983  0.02074  0.67462  Biso   1.000  Hf
  Hf10     1.0000 0.14187  0.22947  0.92405  Biso   1.000  Hf
  Hf11     1.0000 0.36254  0.27172  0.67494  Biso   1.000  Hf
  Hf12     1.0000 0.35983  0.48327  0.92454  Biso   1.000  Hf
  Hf13     1.0000 0.64086  0.01649  0.57503  Biso   1.000  Hf
  Hf14     1.0000 0.65335  0.22626  0.80153  Biso   1.000  Hf
  Hf15     1.0000 0.86514  0.27288  0.57329  Biso   1.000  Hf
  Hf16     1.0000 0.86348  0.47913  0.82929  Biso   1.000  Hf
  O17      1.0000 0.03303  0.16248  0.58279  Biso   1.000  O
  O18      1.0000 0.03410  0.08642  0.83390  Biso   1.000  O
  O19      1.0000 0.46991  0.41464  0.58507  Biso   1.000  O
  O20      1.0000 0.47263  0.33439  0.83563  Biso   1.000  O
  O21      1.0000 0.27767  0.12447  0.79744  Biso   1.000  O
  O22      1.0000 0.27731  0.12512  0.54938  Biso   1.000  O
  O23      1.0000 0.22602  0.37390  0.79929  Biso   1.000  O
  O24      1.0000 0.22526  0.37513  0.55066  Biso   1.000  O
  O25      1.0000 0.53206  0.16101  0.66165  Biso   1.000  O
  O26      1.0000 0.53526  0.08151  0.91483  Biso   1.000  O
  O27      1.0000 0.97041  0.41255  0.66971  Biso   1.000  O
  O28      1.0000 0.97038  0.33516  0.91909  Biso   1.000  O
  O29      1.0000 0.77011  0.12919  0.95225  Biso   1.000  O
  O30      1.0000 0.78634  0.11976  0.69536  Biso   1.000  O
  O31      1.0000 0.72685  0.37877  0.95031  Biso   1.000  O
  O32      1.0000 0.72884  0.37824  0.69809  Biso   1.000  O
  Hf17     1.0000 0.13923  0.52191  0.17402  Biso   1.000  Hf
  Hf18     1.0000 0.13811  0.72820  0.42339  Biso   1.000  Hf
  Hf19     1.0000 0.36019  0.77167  0.17471  Biso   1.000  Hf
  Hf20     1.0000 0.36119  0.97731  0.42554  Biso   1.000  Hf
  Hf21     1.0000 0.64064  0.53215  0.07749  Biso   1.000  Hf
  Hf22     1.0000 0.63909  0.72922  0.32968  Biso   1.000  Hf
  Hf23     1.0000 0.86479  0.77048  0.07868  Biso   1.000  Hf
  Hf24     1.0000 0.86298  0.97912  0.32827  Biso   1.000  Hf
  O33      1.0000 0.03400  0.66406  0.08338  Biso   1.000  O
  O34      1.0000 0.03043  0.58627  0.33374  Biso   1.000  O
  O35      1.0000 0.46825  0.90935  0.08113  Biso   1.000  O
  O36      1.0000 0.46862  0.83695  0.33413  Biso   1.000  O
  O37      1.0000 0.27476  0.62514  0.29774  Biso   1.000  O
  O38      1.0000 0.27601  0.62824  0.04609  Biso   1.000  O
  O39      1.0000 0.22388  0.87395  0.29784  Biso   1.000  O
  O40      1.0000 0.22357  0.87796  0.04770  Biso   1.000  O
  O41      1.0000 0.53342  0.66910  0.16962  Biso   1.000  O
  O42      1.0000 0.53193  0.58649  0.41788  Biso   1.000  O
  O43      1.0000 0.96890  0.91491  0.16819  Biso   1.000  O
  O44      1.0000 0.96864  0.83661  0.41988  Biso   1.000  O
  O45      1.0000 0.77709  0.62401  0.45401  Biso   1.000  O
  O46      1.0000 0.77794  0.62541  0.20513  Biso   1.000  O
  O47      1.0000 0.72544  0.87326  0.45546  Biso   1.000  O
  O48      1.0000 0.72817  0.87169  0.20651  Biso   1.000  O
  Hf25     1.0000 0.13989  0.52054  0.67392  Biso   1.000  Hf
  Hf26     1.0000 0.13965  0.73019  0.92273  Biso   1.000  Hf
  Hf27     1.0000 0.36209  0.77070  0.67361  Biso   1.000  Hf
  Hf28     1.0000 0.36373  0.97842  0.92293  Biso   1.000  Hf
  Hf29     1.0000 0.64012  0.52300  0.57636  Biso   1.000  Hf
  Hf30     1.0000 0.64049  0.72937  0.82654  Biso   1.000  Hf
  Hf31     1.0000 0.86403  0.77055  0.57981  Biso   1.000  Hf
  Hf32     1.0000 0.86319  0.97958  0.83004  Biso   1.000  Hf
  O49      1.0000 0.03375  0.66298  0.58360  Biso   1.000  O
  O50      1.0000 0.03504  0.58560  0.83415  Biso   1.000  O
  O51      1.0000 0.46971  0.91060  0.58293  Biso   1.000  O
  O52      1.0000 0.46891  0.83503  0.83244  Biso   1.000  O
  O53      1.0000 0.27733  0.62502  0.79652  Biso   1.000  O
  O54      1.0000 0.27642  0.62532  0.54699  Biso   1.000  O
  O55      1.0000 0.22519  0.87395  0.79739  Biso   1.000  O
  O56      1.0000 0.22421  0.87549  0.54816  Biso   1.000  O
  O57      1.0000 0.53346  0.66379  0.66749  Biso   1.000  O
  O58      1.0000 0.53254  0.58743  0.91816  Biso   1.000  O
  O59      1.0000 0.97013  0.91179  0.67136  Biso   1.000  O
  O60      1.0000 0.96925  0.83660  0.91932  Biso   1.000  O
  O61      1.0000 0.77901  0.62788  0.95173  Biso   1.000  O
  O62      1.0000 0.77836  0.62607  0.70369  Biso   1.000  O
  O63      1.0000 0.72638  0.87401  0.95557  Biso   1.000  O
  O64      1.0000 0.72602  0.87478  0.70588  Biso   1.000  O
  Ca1      1.0000 0.55633  0.26514  0.02069  Biso   1.000  Ca
