data_image0
_cell_length_a       5.10331
_cell_length_b       10.3122
_cell_length_c       10.5988
_cell_angle_alpha    90.0893
_cell_angle_beta     78.6551
_cell_angle_gamma    91.1139

_symmetry_space_group_name_H-M    "P 1"
_symmetry_int_tables_number       1

loop_
  _symmetry_equiv_pos_as_xyz
  'x, y, z'

loop_
  _atom_site_label
  _atom_site_occupancy
  _atom_site_fract_x
  _atom_site_fract_y
  _atom_site_fract_z
  _atom_site_thermal_displace_type
  _atom_site_B_iso_or_equiv
  _atom_site_type_symbol
  Hf1      1.0000 0.28887  0.01731  0.15134  Biso   1.000  Hf
  Hf2      1.0000 0.32057  0.22574  0.41279  Biso   1.000  Hf
  Hf3      1.0000 0.66845  0.27459  0.09209  Biso   1.000  Hf
  Hf4      1.0000 0.69959  0.48261  0.35375  Biso   1.000  Hf
  O1       1.0000 0.04521  0.15872  0.06950  Biso   1.000  O
  O2       1.0000 0.09565  0.07125  0.33915  Biso   1.000  O
  O3       1.0000 0.89302  0.42829  0.16605  Biso   1.000  O
  O4       1.0000 0.94487  0.34199  0.43612  Biso   1.000  O
  O5       1.0000 0.59186  0.12888  0.24794  Biso   1.000  O
  O6       1.0000 0.57915  0.11770  0.49684  Biso   1.000  O
  O7       1.0000 0.41051  0.38250  0.00784  Biso   1.000  O
  O8       1.0000 0.39553  0.37079  0.25646  Biso   1.000  O
  Hf5      1.0000 0.28008  0.01898  0.64923  Biso   1.000  Hf
  Hf6      1.0000 0.25490  0.22626  0.89515  Biso   1.000  Hf
  Hf7      1.0000 0.73422  0.27386  0.60983  Biso   1.000  Hf
  Hf8      1.0000 0.70879  0.48117  0.85575  Biso   1.000  Hf
  O9       1.0000 0.08086  0.16661  0.58474  Biso   1.000  O
  O10      1.0000 0.05571  0.08347  0.82503  Biso   1.000  O
  O11      1.0000 0.93330  0.41648  0.68031  Biso   1.000  O
  O12      1.0000 0.90851  0.33355  0.92043  Biso   1.000  O
  O13      1.0000 0.54659  0.12800  0.74470  Biso   1.000  O
  O14      1.0000 0.53599  0.12053  0.99046  Biso   1.000  O
  O15      1.0000 0.45292  0.37961  0.51470  Biso   1.000  O
  O16      1.0000 0.44244  0.37199  0.76034  Biso   1.000  O
  Hf9      1.0000 0.26145  0.52725  0.14875  Biso   1.000  Hf
  Hf10     1.0000 0.26997  0.72677  0.39969  Biso   1.000  Hf
  Hf11     1.0000 0.71847  0.77310  0.10538  Biso   1.000  Hf
  Hf12     1.0000 0.72701  0.97247  0.35638  Biso   1.000  Hf
  O17      1.0000 0.05790  0.66981  0.07889  Biso   1.000  O
  O18      1.0000 0.05092  0.58582  0.32847  Biso   1.000  O
  O19      1.0000 0.93759  0.91413  0.17655  Biso   1.000  O
  O20      1.0000 0.93044  0.83001  0.42617  Biso   1.000  O
  O21      1.0000 0.54107  0.63048  0.24466  Biso   1.000  O
  O22      1.0000 0.54141  0.62262  0.49306  Biso   1.000  O
  O23      1.0000 0.44701  0.87750  0.01204  Biso   1.000  O
  O24      1.0000 0.44735  0.86938  0.26041  Biso   1.000  O
  Hf13     1.0000 0.27489  0.52339  0.64992  Biso   1.000  Hf
  Hf14     1.0000 0.26832  0.72912  0.89940  Biso   1.000  Hf
  Hf15     1.0000 0.72029  0.77088  0.60575  Biso   1.000  Hf
  Hf16     1.0000 0.71396  0.97664  0.85512  Biso   1.000  Hf
  O25      1.0000 0.05844  0.66306  0.58054  Biso   1.000  O
  O26      1.0000 0.05941  0.58649  0.82998  Biso   1.000  O
  O27      1.0000 0.92940  0.91362  0.67508  Biso   1.000  O
  O28      1.0000 0.93005  0.83690  0.92455  Biso   1.000  O
  O29      1.0000 0.54780  0.62887  0.74349  Biso   1.000  O
  O30      1.0000 0.54279  0.62337  0.99331  Biso   1.000  O
  O31      1.0000 0.44578  0.87670  0.51183  Biso   1.000  O
  O32      1.0000 0.44104  0.87110  0.76163  Biso   1.000  O
  Ca1      1.0000 0.99228  0.24960  0.25339  Biso   1.000  Ca
