data_image0
_cell_length_a       10.2515
_cell_length_b       5.16197
_cell_length_c       10.5805
_cell_angle_alpha    90.2311
_cell_angle_beta     78.8274
_cell_angle_gamma    90.0675

_symmetry_space_group_name_H-M    "P 1"
_symmetry_int_tables_number       1

loop_
  _symmetry_equiv_pos_as_xyz
  'x, y, z'

loop_
  _atom_site_label
  _atom_site_occupancy
  _atom_site_fract_x
  _atom_site_fract_y
  _atom_site_fract_z
  _atom_site_thermal_displace_type
  _atom_site_B_iso_or_equiv
  _atom_site_type_symbol
  Hf1      1.0000 0.12831  0.04492  0.14044  Biso   1.000  Hf
  Hf2      1.0000 0.14053  0.45502  0.39113  Biso   1.000  Hf
  Hf3      1.0000 0.34749  0.55137  0.09570  Biso   1.000  Hf
  Hf4      1.0000 0.35328  0.92909  0.34828  Biso   1.000  Hf
  O1       1.0000 0.02749  0.33865  0.07333  Biso   1.000  O
  O2       1.0000 0.02598  0.17472  0.32608  Biso   1.000  O
  O3       1.0000 0.46077  0.86500  0.16383  Biso   1.000  O
  O4       1.0000 0.48700  0.70414  0.44836  Biso   1.000  O
  O5       1.0000 0.25904  0.23039  0.23177  Biso   1.000  O
  O6       1.0000 0.27673  0.22950  0.48864  Biso   1.000  O
  O7       1.0000 0.21738  0.76847  0.00229  Biso   1.000  O
  O8       1.0000 0.20146  0.74732  0.24922  Biso   1.000  O
  Hf5      1.0000 0.14047  0.04357  0.64363  Biso   1.000  Hf
  Hf6      1.0000 0.13305  0.46081  0.89289  Biso   1.000  Hf
  Hf7      1.0000 0.36381  0.54805  0.60975  Biso   1.000  Hf
  Hf8      1.0000 0.35861  0.96287  0.85452  Biso   1.000  Hf
  O9       1.0000 0.03607  0.32833  0.57564  Biso   1.000  O
  O10      1.0000 0.03180  0.17298  0.82452  Biso   1.000  O
  O11      1.0000 0.46900  0.82496  0.68331  Biso   1.000  O
  O12      1.0000 0.46342  0.67556  0.92403  Biso   1.000  O
  O13      1.0000 0.27479  0.25642  0.73888  Biso   1.000  O
  O14      1.0000 0.27005  0.25559  0.98587  Biso   1.000  O
  O15      1.0000 0.22548  0.74435  0.51018  Biso   1.000  O
  O16      1.0000 0.22429  0.74585  0.75778  Biso   1.000  O
  Hf9      1.0000 0.63945  0.04168  0.14799  Biso   1.000  Hf
  Hf10     1.0000 0.65526  0.45896  0.41188  Biso   1.000  Hf
  Hf11     1.0000 0.85579  0.54357  0.10611  Biso   1.000  Hf
  Hf12     1.0000 0.86303  0.95374  0.35566  Biso   1.000  Hf
  O17      1.0000 0.53151  0.34388  0.08177  Biso   1.000  O
  O18      1.0000 0.54526  0.13837  0.33974  Biso   1.000  O
  O19      1.0000 0.95635  0.83502  0.17217  Biso   1.000  O
  O20      1.0000 0.96659  0.66796  0.42448  Biso   1.000  O
  O21      1.0000 0.77597  0.26060  0.24488  Biso   1.000  O
  O22      1.0000 0.78015  0.23604  0.49772  Biso   1.000  O
  O23      1.0000 0.72184  0.75937  0.01383  Biso   1.000  O
  O24      1.0000 0.71990  0.73993  0.26483  Biso   1.000  O
  Hf13     1.0000 0.63904  0.04225  0.65317  Biso   1.000  Hf
  Hf14     1.0000 0.63509  0.46161  0.90044  Biso   1.000  Hf
  Hf15     1.0000 0.86774  0.54343  0.60889  Biso   1.000  Hf
  Hf16     1.0000 0.86004  0.96034  0.85602  Biso   1.000  Hf
  O25      1.0000 0.53487  0.32493  0.58312  Biso   1.000  O
  O26      1.0000 0.53137  0.17450  0.83190  Biso   1.000  O
  O27      1.0000 0.96799  0.83233  0.67449  Biso   1.000  O
  O28      1.0000 0.96229  0.67326  0.92237  Biso   1.000  O
  O29      1.0000 0.77436  0.26020  0.74448  Biso   1.000  O
  O30      1.0000 0.77187  0.24479  0.99314  Biso   1.000  O
  O31      1.0000 0.73032  0.75234  0.51814  Biso   1.000  O
  O32      1.0000 0.72532  0.74616  0.76554  Biso   1.000  O
  Cd1      1.0000 0.43360  0.44674  0.30217  Biso   1.000  Cd
