data_image0
_cell_length_a       10.1629
_cell_length_b       5.16238
_cell_length_c       10.4666
_cell_angle_alpha    90.0614
_cell_angle_beta     80.6412
_cell_angle_gamma    90.112

_symmetry_space_group_name_H-M    "P 1"
_symmetry_int_tables_number       1

loop_
  _symmetry_equiv_pos_as_xyz
  'x, y, z'

loop_
  _atom_site_label
  _atom_site_occupancy
  _atom_site_fract_x
  _atom_site_fract_y
  _atom_site_fract_z
  _atom_site_thermal_displace_type
  _atom_site_B_iso_or_equiv
  _atom_site_type_symbol
  Ce1      1.0000 0.13411  0.03255  0.14382  Biso   1.000  Ce
  Hf1      1.0000 0.13876  0.45567  0.39850  Biso   1.000  Hf
  Hf2      1.0000 0.36603  0.53661  0.10247  Biso   1.000  Hf
  Hf3      1.0000 0.36185  0.95579  0.35482  Biso   1.000  Hf
  O1       1.0000 0.03728  0.37097  0.08000  Biso   1.000  O
  O2       1.0000 0.02877  0.16462  0.33940  Biso   1.000  O
  O3       1.0000 0.46342  0.84013  0.16908  Biso   1.000  O
  O4       1.0000 0.46278  0.65793  0.42048  Biso   1.000  O
  O5       1.0000 0.28081  0.26083  0.24470  Biso   1.000  O
  O6       1.0000 0.27534  0.23929  0.49158  Biso   1.000  O
  O7       1.0000 0.23453  0.74470  0.99989  Biso   1.000  O
  O8       1.0000 0.22895  0.72926  0.26149  Biso   1.000  O
  Hf4      1.0000 0.13909  0.04226  0.64595  Biso   1.000  Hf
  Hf5      1.0000 0.13990  0.46143  0.89229  Biso   1.000  Hf
  Hf6      1.0000 0.36114  0.54176  0.60380  Biso   1.000  Hf
  Hf7      1.0000 0.36488  0.95623  0.85188  Biso   1.000  Hf
  O9       1.0000 0.03732  0.34556  0.58446  Biso   1.000  O
  O10      1.0000 0.03830  0.15542  0.83340  Biso   1.000  O
  O11      1.0000 0.46537  0.83735  0.66913  Biso   1.000  O
  O12      1.0000 0.47124  0.66565  0.91922  Biso   1.000  O
  O13      1.0000 0.27654  0.25854  0.73878  Biso   1.000  O
  O14      1.0000 0.28275  0.24749  0.98309  Biso   1.000  O
  O15      1.0000 0.22340  0.75848  0.50966  Biso   1.000  O
  O16      1.0000 0.22451  0.74309  0.75690  Biso   1.000  O
  Hf8      1.0000 0.63856  0.03837  0.14638  Biso   1.000  Hf
  Hf9      1.0000 0.63621  0.45535  0.39692  Biso   1.000  Hf
  Hf10     1.0000 0.85543  0.53837  0.10346  Biso   1.000  Hf
  Hf11     1.0000 0.85484  0.95629  0.35842  Biso   1.000  Hf
  O17      1.0000 0.53906  0.33728  0.07957  Biso   1.000  O
  O18      1.0000 0.53616  0.15712  0.33100  Biso   1.000  O
  O19      1.0000 0.94388  0.84951  0.17114  Biso   1.000  O
  O20      1.0000 0.96368  0.66290  0.41933  Biso   1.000  O
  O21      1.0000 0.77393  0.25864  0.24186  Biso   1.000  O
  O22      1.0000 0.77412  0.24288  0.49221  Biso   1.000  O
  O23      1.0000 0.72361  0.75797  0.00889  Biso   1.000  O
  O24      1.0000 0.71586  0.73843  0.26208  Biso   1.000  O
  Hf12     1.0000 0.63916  0.04371  0.64627  Biso   1.000  Hf
  Hf13     1.0000 0.64096  0.45759  0.89430  Biso   1.000  Hf
  Hf14     1.0000 0.86235  0.54409  0.60427  Biso   1.000  Hf
  Hf15     1.0000 0.86222  0.95770  0.85360  Biso   1.000  Hf
  O25      1.0000 0.53467  0.33699  0.58098  Biso   1.000  O
  O26      1.0000 0.53842  0.16164  0.82905  Biso   1.000  O
  O27      1.0000 0.96348  0.84431  0.66851  Biso   1.000  O
  O28      1.0000 0.96307  0.66094  0.91731  Biso   1.000  O
  O29      1.0000 0.77796  0.25952  0.74001  Biso   1.000  O
  O30      1.0000 0.77710  0.23941  0.99035  Biso   1.000  O
  O31      1.0000 0.72274  0.75755  0.51060  Biso   1.000  O
  O32      1.0000 0.72546  0.74184  0.75868  Biso   1.000  O
