data_image0
_cell_length_a       10.0485
_cell_length_b       10.4057
_cell_length_c       10.0999
_cell_angle_alpha    89.8264
_cell_angle_beta     90.2752
_cell_angle_gamma    90.2855

_symmetry_space_group_name_H-M    "P 1"
_symmetry_int_tables_number       1

loop_
  _symmetry_equiv_pos_as_xyz
  'x, y, z'

loop_
  _atom_site_label
  _atom_site_occupancy
  _atom_site_fract_x
  _atom_site_fract_y
  _atom_site_fract_z
  _atom_site_thermal_displace_type
  _atom_site_B_iso_or_equiv
  _atom_site_type_symbol
  Hf1      1.0000 0.13703  0.98133  0.11231  Biso   1.000  Hf
  Hf2      1.0000 0.12992  0.22954  0.39504  Biso   1.000  Hf
  Hf3      1.0000 0.37674  0.27385  0.11585  Biso   1.000  Hf
  Hf4      1.0000 0.36712  0.48565  0.37343  Biso   1.000  Hf
  Hf5      1.0000 0.96220  0.17360  0.26855  Biso   1.000  Hf
  Hf6      1.0000 0.03648  0.06260  0.46389  Biso   1.000  Hf
  Hf7      1.0000 0.46632  0.43852  0.19285  Biso   1.000  Hf
  Hf8      1.0000 0.46714  0.32115  0.44714  Biso   1.000  Hf
  Hf9      1.0000 0.23390  0.10397  0.25061  Biso   1.000  Hf
  Hf10     1.0000 0.27720  0.13171  0.49960  Biso   1.000  Hf
  Hf11     1.0000 0.23539  0.38524  0.49942  Biso   1.000  Hf
  Hf12     1.0000 0.23565  0.36796  0.25300  Biso   1.000  Hf
  Hf13     1.0000 0.13848  0.00915  0.62680  Biso   1.000  Hf
  Hf14     1.0000 0.14073  0.23328  0.85178  Biso   1.000  Hf
  Hf15     1.0000 0.37368  0.26822  0.62158  Biso   1.000  Hf
  Hf16     1.0000 0.36968  0.48730  0.86999  Biso   1.000  Hf
  Hf17     1.0000 0.03449  0.17676  0.69051  Biso   1.000  Hf
  Hf18     1.0000 0.03251  0.07316  0.95365  Biso   1.000  Hf
  Hf19     1.0000 0.47173  0.43428  0.69511  Biso   1.000  Hf
  Hf20     1.0000 0.46820  0.31956  0.93947  Biso   1.000  Hf
  Hf21     1.0000 0.27369  0.11504  0.74452  Biso   1.000  Hf
  Hf22     1.0000 0.27104  0.12920  0.99492  Biso   1.000  Hf
  Hf23     1.0000 0.23370  0.39023  0.99111  Biso   1.000  Hf
  Hf24     1.0000 0.23892  0.36873  0.74167  Biso   1.000  Hf
  Hf25     1.0000 0.13611  0.52631  0.12320  Biso   1.000  Hf
  Hf26     1.0000 0.13335  0.73462  0.37653  Biso   1.000  Hf
  Hf27     1.0000 0.37315  0.75995  0.12220  Biso   1.000  Hf
  Hf28     1.0000 0.36334  0.98693  0.36914  Biso   1.000  Hf
  Hf29     1.0000 0.03389  0.68283  0.19940  Biso   1.000  Hf
  Hf30     1.0000 0.03489  0.57012  0.44484  Biso   1.000  Hf
  Hf31     1.0000 0.45892  0.93252  0.19276  Biso   1.000  Hf
  Hf32     1.0000 0.46832  0.82036  0.44341  Biso   1.000  Hf
  Hf33     1.0000 0.27446  0.61717  0.24670  Biso   1.000  Hf
  Hf34     1.0000 0.27075  0.63421  0.49642  Biso   1.000  Hf
  Hf35     1.0000 0.23418  0.88413  0.49462  Biso   1.000  Hf
  Hf36     1.0000 0.23630  0.85451  0.24533  Biso   1.000  Hf
  Hf37     1.0000 0.13329  0.51487  0.62098  Biso   1.000  Hf
  Hf38     1.0000 0.13424  0.73198  0.86817  Biso   1.000  Hf
  Hf39     1.0000 0.37207  0.76600  0.61970  Biso   1.000  Hf
  Hf40     1.0000 0.37184  0.98327  0.87118  Biso   1.000  Hf
  Hf41     1.0000 0.03642  0.68254  0.69182  Biso   1.000  Hf
  Hf42     1.0000 0.03395  0.57186  0.94710  Biso   1.000  Hf
  Hf43     1.0000 0.47132  0.93229  0.69574  Biso   1.000  Hf
  Hf44     1.0000 0.47730  0.82165  0.94892  Biso   1.000  Hf
  Hf45     1.0000 0.27001  0.61524  0.74443  Biso   1.000  Hf
  Hf46     1.0000 0.27121  0.63483  0.99412  Biso   1.000  Hf
  Hf47     1.0000 0.24241  0.87430  0.98780  Biso   1.000  Hf
  Hf48     1.0000 0.23805  0.86291  0.74416  Biso   1.000  Hf
  Hf49     1.0000 0.62541  0.00809  0.11947  Biso   1.000  Hf
  Hf50     1.0000 0.62719  0.22980  0.37919  Biso   1.000  Hf
  Hf51     1.0000 0.82931  0.26394  0.13090  Biso   1.000  Hf
  Hf52     1.0000 0.86773  0.48213  0.37539  Biso   1.000  Hf
  Hf53     1.0000 0.51821  0.17497  0.20585  Biso   1.000  Hf
  Hf54     1.0000 0.53099  0.06660  0.45089  Biso   1.000  Hf
  Hf55     1.0000 0.96295  0.42557  0.19490  Biso   1.000  Hf
  Hf56     1.0000 0.97371  0.33038  0.46572  Biso   1.000  Hf
  Hf57     1.0000 0.73985  0.10920  0.24822  Biso   1.000  Hf
  Hf58     1.0000 0.77087  0.13876  0.49765  Biso   1.000  Hf
  Hf59     1.0000 0.73369  0.38479  0.50147  Biso   1.000  Hf
  Hf60     1.0000 0.71729  0.37272  0.25673  Biso   1.000  Hf
  Hf61     1.0000 0.63827  0.01492  0.62278  Biso   1.000  Hf
  Hf62     1.0000 0.63494  0.23410  0.87019  Biso   1.000  Hf
  Hf63     1.0000 0.86661  0.26939  0.62824  Biso   1.000  Hf
  Hf64     1.0000 0.86809  0.48212  0.87802  Biso   1.000  Hf
  Hf65     1.0000 0.53966  0.18356  0.69334  Biso   1.000  Hf
  Hf66     1.0000 0.53405  0.07106  0.94373  Biso   1.000  Hf
  Hf67     1.0000 0.97129  0.43264  0.70501  Biso   1.000  Hf
  Hf68     1.0000 0.96045  0.31504  0.93911  Biso   1.000  Hf
  Hf69     1.0000 0.77275  0.11611  0.74900  Biso   1.000  Hf
  Hf70     1.0000 0.76476  0.13049  0.99773  Biso   1.000  Hf
  Hf71     1.0000 0.72248  0.38584  0.99953  Biso   1.000  Hf
  Hf72     1.0000 0.73289  0.36869  0.75004  Biso   1.000  Hf
  Hf73     1.0000 0.63406  0.52203  0.12636  Biso   1.000  Hf
  Hf74     1.0000 0.63786  0.73773  0.37702  Biso   1.000  Hf
  Hf75     1.0000 0.86552  0.76551  0.12754  Biso   1.000  Hf
  Hf76     1.0000 0.87386  0.99882  0.36597  Biso   1.000  Hf
  Hf77     1.0000 0.54003  0.68619  0.19768  Biso   1.000  Hf
  Hf78     1.0000 0.53650  0.57034  0.44593  Biso   1.000  Hf
  Hf79     1.0000 0.96554  0.93156  0.19691  Biso   1.000  Hf
  Hf80     1.0000 0.96863  0.82273  0.44578  Biso   1.000  Hf
  Hf81     1.0000 0.77287  0.61755  0.24970  Biso   1.000  Hf
  Hf82     1.0000 0.77262  0.63547  0.49831  Biso   1.000  Hf
  Hf83     1.0000 0.73571  0.88856  0.49639  Biso   1.000  Hf
  Hf84     1.0000 0.73074  0.86563  0.24621  Biso   1.000  Hf
  Hf85     1.0000 0.63791  0.51830  0.62332  Biso   1.000  Hf
  Hf86     1.0000 0.63879  0.73409  0.87249  Biso   1.000  Hf
  Hf87     1.0000 0.86982  0.76989  0.62119  Biso   1.000  Hf
  Hf88     1.0000 0.86990  0.98504  0.87670  Biso   1.000  Hf
  Hf89     1.0000 0.53746  0.68369  0.69570  Biso   1.000  Hf
  Hf90     1.0000 0.53442  0.57224  0.94779  Biso   1.000  Hf
  Hf91     1.0000 0.97422  0.92772  0.70756  Biso   1.000  Hf
  Hf92     1.0000 0.97911  0.82397  0.95773  Biso   1.000  Hf
  Hf93     1.0000 0.77325  0.61689  0.74833  Biso   1.000  Hf
  Hf94     1.0000 0.77186  0.63452  0.99883  Biso   1.000  Hf
  Hf95     1.0000 0.73675  0.88246  0.99714  Biso   1.000  Hf
  Hf96     1.0000 0.73572  0.86701  0.74710  Biso   1.000  Hf
  Ce1      1.0000 0.09829  0.24792  0.11524  Biso   1.000  Ce
