data_image0
_cell_length_a       10.089
_cell_length_b       10.2872
_cell_length_c       10.089
_cell_angle_alpha    89.9993
_cell_angle_beta     90
_cell_angle_gamma    89.9997

_symmetry_space_group_name_H-M    "P 1"
_symmetry_int_tables_number       1

loop_
  _symmetry_equiv_pos_as_xyz
  'x, y, z'

loop_
  _atom_site_label
  _atom_site_occupancy
  _atom_site_fract_x
  _atom_site_fract_y
  _atom_site_fract_z
  _atom_site_thermal_displace_type
  _atom_site_B_iso_or_equiv
  _atom_site_type_symbol
  Hf1      1.0000 0.12487  0.96927  0.12487  Biso   1.000  Hf
  Hf2      1.0000 0.12491  0.25005  0.39764  Biso   1.000  Hf
  Hf3      1.0000 0.39765  0.25005  0.12490  Biso   1.000  Hf
  Hf4      1.0000 0.37537  0.00788  0.37537  Biso   1.000  Hf
  Hf5      1.0000 0.97596  0.15908  0.97595  Biso   1.000  Hf
  Hf6      1.0000 0.00543  0.09058  0.24447  Biso   1.000  Hf
  Hf7      1.0000 0.97593  0.34097  0.27393  Biso   1.000  Hf
  Hf8      1.0000 0.00539  0.40950  0.00540  Biso   1.000  Hf
  Hf9      1.0000 0.27398  0.15922  0.27397  Biso   1.000  Hf
  Hf10     1.0000 0.24449  0.09056  0.00544  Biso   1.000  Hf
  Hf11     1.0000 0.27394  0.34094  0.97590  Biso   1.000  Hf
  Hf12     1.0000 0.24445  0.40958  0.24442  Biso   1.000  Hf
  Hf13     1.0000 0.12489  0.99238  0.62491  Biso   1.000  Hf
  Hf14     1.0000 0.12491  0.25006  0.85223  Biso   1.000  Hf
  Hf15     1.0000 0.37724  0.25005  0.62492  Biso   1.000  Hf
  Hf16     1.0000 0.37382  0.00296  0.87599  Biso   1.000  Hf
  Hf17     1.0000 0.99041  0.14306  0.49826  Biso   1.000  Hf
  Hf18     1.0000 0.00341  0.10237  0.74193  Biso   1.000  Hf
  Hf19     1.0000 0.99040  0.35703  0.75160  Biso   1.000  Hf
  Hf20     1.0000 0.00340  0.39773  0.50792  Biso   1.000  Hf
  Hf21     1.0000 0.25941  0.14308  0.75161  Biso   1.000  Hf
  Hf22     1.0000 0.24642  0.10237  0.50793  Biso   1.000  Hf
  Hf23     1.0000 0.25941  0.35705  0.49825  Biso   1.000  Hf
  Hf24     1.0000 0.24641  0.39774  0.74193  Biso   1.000  Hf
  Hf25     1.0000 0.12489  0.53084  0.12491  Biso   1.000  Hf
  Hf26     1.0000 0.12490  0.75007  0.38189  Biso   1.000  Hf
  Hf27     1.0000 0.38188  0.75007  0.12490  Biso   1.000  Hf
  Hf28     1.0000 0.37383  0.49715  0.37383  Biso   1.000  Hf
  Hf29     1.0000 0.00281  0.65724  0.00283  Biso   1.000  Hf
  Hf30     1.0000 0.99369  0.60164  0.25608  Biso   1.000  Hf
  Hf31     1.0000 0.00283  0.84284  0.24695  Biso   1.000  Hf
  Hf32     1.0000 0.99370  0.89843  0.99369  Biso   1.000  Hf
  Hf33     1.0000 0.24692  0.65731  0.24693  Biso   1.000  Hf
  Hf34     1.0000 0.25605  0.60162  0.99369  Biso   1.000  Hf
  Hf35     1.0000 0.24694  0.84283  0.00285  Biso   1.000  Hf
  Hf36     1.0000 0.25606  0.89853  0.25609  Biso   1.000  Hf
  Hf37     1.0000 0.12492  0.50773  0.62490  Biso   1.000  Hf
  Hf38     1.0000 0.12490  0.75004  0.86791  Biso   1.000  Hf
  Hf39     1.0000 0.37748  0.75007  0.62490  Biso   1.000  Hf
  Hf40     1.0000 0.37538  0.49224  0.87445  Biso   1.000  Hf
  Hf41     1.0000 0.99906  0.64748  0.50478  Biso   1.000  Hf
  Hf42     1.0000 0.00309  0.60388  0.75503  Biso   1.000  Hf
  Hf43     1.0000 0.99907  0.85261  0.74499  Biso   1.000  Hf
  Hf44     1.0000 0.00309  0.89621  0.49476  Biso   1.000  Hf
  Hf45     1.0000 0.25074  0.64749  0.74499  Biso   1.000  Hf
  Hf46     1.0000 0.24672  0.60390  0.49475  Biso   1.000  Hf
  Hf47     1.0000 0.25075  0.85263  0.50479  Biso   1.000  Hf
  Hf48     1.0000 0.24672  0.89622  0.75504  Biso   1.000  Hf
  Hf49     1.0000 0.62491  0.99239  0.12488  Biso   1.000  Hf
  Hf50     1.0000 0.62493  0.25005  0.37723  Biso   1.000  Hf
  Hf51     1.0000 0.85225  0.25006  0.12490  Biso   1.000  Hf
  Hf52     1.0000 0.87599  0.00296  0.37381  Biso   1.000  Hf
  Hf53     1.0000 0.49828  0.14306  0.99041  Biso   1.000  Hf
  Hf54     1.0000 0.50793  0.10237  0.24641  Biso   1.000  Hf
  Hf55     1.0000 0.49827  0.35706  0.25940  Biso   1.000  Hf
  Hf56     1.0000 0.50792  0.39773  0.00340  Biso   1.000  Hf
  Hf57     1.0000 0.75161  0.14308  0.25941  Biso   1.000  Hf
  Hf58     1.0000 0.74195  0.10237  0.00340  Biso   1.000  Hf
  Hf59     1.0000 0.75160  0.35702  0.99040  Biso   1.000  Hf
  Hf60     1.0000 0.74195  0.39774  0.24641  Biso   1.000  Hf
  Hf61     1.0000 0.62491  0.99788  0.62490  Biso   1.000  Hf
  Hf62     1.0000 0.62493  0.25006  0.87258  Biso   1.000  Hf
  Hf63     1.0000 0.87259  0.25006  0.62492  Biso   1.000  Hf
  Hf64     1.0000 0.87444  0.00786  0.87443  Biso   1.000  Hf
  Hf65     1.0000 0.49611  0.14990  0.49610  Biso   1.000  Hf
  Hf66     1.0000 0.50316  0.10068  0.74665  Biso   1.000  Hf
  Hf67     1.0000 0.49611  0.35021  0.75371  Biso   1.000  Hf
  Hf68     1.0000 0.50316  0.39942  0.50316  Biso   1.000  Hf
  Hf69     1.0000 0.75371  0.14989  0.75371  Biso   1.000  Hf
  Hf70     1.0000 0.74666  0.10068  0.50315  Biso   1.000  Hf
  Hf71     1.0000 0.75372  0.35021  0.49610  Biso   1.000  Hf
  Hf72     1.0000 0.74666  0.39942  0.74666  Biso   1.000  Hf
  Hf73     1.0000 0.62489  0.50772  0.12494  Biso   1.000  Hf
  Hf74     1.0000 0.62489  0.75007  0.37748  Biso   1.000  Hf
  Hf75     1.0000 0.86790  0.75004  0.12490  Biso   1.000  Hf
  Hf76     1.0000 0.87445  0.49224  0.37538  Biso   1.000  Hf
  Hf77     1.0000 0.50476  0.64747  0.99906  Biso   1.000  Hf
  Hf78     1.0000 0.49475  0.60391  0.24672  Biso   1.000  Hf
  Hf79     1.0000 0.50477  0.85264  0.25075  Biso   1.000  Hf
  Hf80     1.0000 0.49476  0.89621  0.00309  Biso   1.000  Hf
  Hf81     1.0000 0.74499  0.64749  0.25075  Biso   1.000  Hf
  Hf82     1.0000 0.75501  0.60388  0.00309  Biso   1.000  Hf
  Hf83     1.0000 0.74499  0.85262  0.99907  Biso   1.000  Hf
  Hf84     1.0000 0.75502  0.89622  0.24672  Biso   1.000  Hf
  Hf85     1.0000 0.62491  0.50223  0.62491  Biso   1.000  Hf
  Hf86     1.0000 0.62489  0.75004  0.87233  Biso   1.000  Hf
  Hf87     1.0000 0.87232  0.75004  0.62490  Biso   1.000  Hf
  Hf88     1.0000 0.87600  0.49715  0.87601  Biso   1.000  Hf
  Hf89     1.0000 0.49763  0.64891  0.49763  Biso   1.000  Hf
  Hf90     1.0000 0.50122  0.60108  0.74860  Biso   1.000  Hf
  Hf91     1.0000 0.49763  0.85120  0.75219  Biso   1.000  Hf
  Hf92     1.0000 0.50122  0.89903  0.50122  Biso   1.000  Hf
  Hf93     1.0000 0.75218  0.64891  0.75219  Biso   1.000  Hf
  Hf94     1.0000 0.74859  0.60108  0.50122  Biso   1.000  Hf
  Hf95     1.0000 0.75218  0.85119  0.49763  Biso   1.000  Hf
  Hf96     1.0000 0.74859  0.89902  0.74859  Biso   1.000  Hf
  Ce1      1.0000 0.12496  0.25005  0.12494  Biso   1.000  Ce
