data_image0
_cell_length_a       10.1393
_cell_length_b       10.3231
_cell_length_c       5.23827
_cell_angle_alpha    90.3451
_cell_angle_beta     79.9403
_cell_angle_gamma    90.3388

_symmetry_space_group_name_H-M    "P 1"
_symmetry_int_tables_number       1

loop_
  _symmetry_equiv_pos_as_xyz
  'x, y, z'

loop_
  _atom_site_label
  _atom_site_occupancy
  _atom_site_fract_x
  _atom_site_fract_y
  _atom_site_fract_z
  _atom_site_thermal_displace_type
  _atom_site_B_iso_or_equiv
  _atom_site_type_symbol
  Hf1      1.0000 0.13634  0.02272  0.29528  Biso   1.000  Hf
  Hf2      1.0000 0.13917  0.23350  0.79000  Biso   1.000  Hf
  Hf3      1.0000 0.35758  0.27755  0.21185  Biso   1.000  Hf
  Hf4      1.0000 0.35580  0.47587  0.70151  Biso   1.000  Hf
  O1       1.0000 0.03758  0.17041  0.15888  Biso   1.000  O
  O2       1.0000 0.03596  0.08222  0.65809  Biso   1.000  O
  O3       1.0000 0.46235  0.42460  0.33667  Biso   1.000  O
  O4       1.0000 0.47436  0.34337  0.85343  Biso   1.000  O
  O5       1.0000 0.28030  0.12938  0.48119  Biso   1.000  O
  O6       1.0000 0.28092  0.12295  0.97301  Biso   1.000  O
  O7       1.0000 0.22042  0.38225  0.01733  Biso   1.000  O
  O8       1.0000 0.20938  0.37796  0.50660  Biso   1.000  O
  Hf5      1.0000 0.13595  0.52459  0.28870  Biso   1.000  Hf
  Hf6      1.0000 0.13562  0.72848  0.79337  Biso   1.000  Hf
  Hf7      1.0000 0.35973  0.76872  0.20900  Biso   1.000  Hf
  Hf8      1.0000 0.36005  0.96754  0.71089  Biso   1.000  Hf
  O9       1.0000 0.03170  0.67189  0.15956  Biso   1.000  O
  O10      1.0000 0.03197  0.58456  0.65874  Biso   1.000  O
  O11      1.0000 0.46357  0.91754  0.34243  Biso   1.000  O
  O12      1.0000 0.46303  0.82592  0.84279  Biso   1.000  O
  O13      1.0000 0.27452  0.62946  0.48169  Biso   1.000  O
  O14      1.0000 0.27298  0.62189  0.98015  Biso   1.000  O
  O15      1.0000 0.22235  0.87947  0.02238  Biso   1.000  O
  O16      1.0000 0.22073  0.86941  0.51881  Biso   1.000  O
  Hf9      1.0000 0.63865  0.02125  0.29334  Biso   1.000  Hf
  Hf10     1.0000 0.64463  0.22891  0.80226  Biso   1.000  Hf
  Hf11     1.0000 0.86204  0.27263  0.21221  Biso   1.000  Hf
  Hf12     1.0000 0.86018  0.47906  0.71093  Biso   1.000  Hf
  O17      1.0000 0.53413  0.17020  0.16888  Biso   1.000  O
  O18      1.0000 0.54161  0.07055  0.67703  Biso   1.000  O
  O19      1.0000 0.96106  0.42241  0.33943  Biso   1.000  O
  O20      1.0000 0.96301  0.33336  0.84167  Biso   1.000  O
  O21      1.0000 0.77718  0.12982  0.48315  Biso   1.000  O
  O22      1.0000 0.77826  0.12053  0.98649  Biso   1.000  O
  O23      1.0000 0.72449  0.37895  0.02650  Biso   1.000  O
  O24      1.0000 0.72306  0.37098  0.52425  Biso   1.000  O
  Hf13     1.0000 0.63832  0.52301  0.29610  Biso   1.000  Hf
  Hf14     1.0000 0.63799  0.72659  0.79316  Biso   1.000  Hf
  Hf15     1.0000 0.85866  0.77275  0.20900  Biso   1.000  Hf
  Hf16     1.0000 0.86046  0.97901  0.70963  Biso   1.000  Hf
  O25      1.0000 0.53520  0.66936  0.16221  Biso   1.000  O
  O26      1.0000 0.53319  0.58192  0.65986  Biso   1.000  O
  O27      1.0000 0.96400  0.92060  0.33987  Biso   1.000  O
  O28      1.0000 0.96276  0.83333  0.84128  Biso   1.000  O
  O29      1.0000 0.77554  0.63024  0.48322  Biso   1.000  O
  O30      1.0000 0.77487  0.62152  0.98314  Biso   1.000  O
  O31      1.0000 0.72193  0.88005  0.02110  Biso   1.000  O
  O32      1.0000 0.72301  0.87124  0.52063  Biso   1.000  O
  Co1      1.0000 0.40471  0.20945  0.67229  Biso   1.000  Co
