data_image0
_cell_length_a       9.96777
_cell_length_b       5.09613
_cell_length_c       10.4006
_cell_angle_alpha    89.8274
_cell_angle_beta     89.9809
_cell_angle_gamma    89.988

_symmetry_space_group_name_H-M    "P 1"
_symmetry_int_tables_number       1

loop_
  _symmetry_equiv_pos_as_xyz
  'x, y, z'

loop_
  _atom_site_label
  _atom_site_occupancy
  _atom_site_fract_x
  _atom_site_fract_y
  _atom_site_fract_z
  _atom_site_thermal_displace_type
  _atom_site_B_iso_or_equiv
  _atom_site_type_symbol
  Cr1      1.0000 0.13085  0.04968  0.17803  Biso   1.000  Cr
  Hf1      1.0000 0.13999  0.46398  0.41816  Biso   1.000  Hf
  Hf2      1.0000 0.35471  0.54455  0.17103  Biso   1.000  Hf
  Hf3      1.0000 0.35814  0.96193  0.41826  Biso   1.000  Hf
  Hf4      1.0000 0.63808  0.04414  0.07855  Biso   1.000  Hf
  Hf5      1.0000 0.63691  0.45892  0.32738  Biso   1.000  Hf
  Hf6      1.0000 0.86708  0.54045  0.08011  Biso   1.000  Hf
  Hf7      1.0000 0.86241  0.96188  0.32788  Biso   1.000  Hf
  O1       1.0000 0.03669  0.31804  0.09021  Biso   1.000  O
  O2       1.0000 0.03741  0.16895  0.32429  Biso   1.000  O
  O3       1.0000 0.46790  0.83033  0.08618  Biso   1.000  O
  O4       1.0000 0.46223  0.66346  0.33618  Biso   1.000  O
  O5       1.0000 0.27129  0.24808  0.29253  Biso   1.000  O
  O6       1.0000 0.26978  0.23786  0.05276  Biso   1.000  O
  O7       1.0000 0.21914  0.76133  0.29062  Biso   1.000  O
  O8       1.0000 0.22190  0.74836  0.04551  Biso   1.000  O
  O9       1.0000 0.53290  0.33741  0.16438  Biso   1.000  O
  O10      1.0000 0.53381  0.16477  0.41321  Biso   1.000  O
  O11      1.0000 0.98379  0.83926  0.16472  Biso   1.000  O
  O12      1.0000 0.96571  0.66774  0.41289  Biso   1.000  O
  O13      1.0000 0.77752  0.24643  0.45367  Biso   1.000  O
  O14      1.0000 0.77706  0.25170  0.20472  Biso   1.000  O
  O15      1.0000 0.72253  0.74750  0.45481  Biso   1.000  O
  O16      1.0000 0.73222  0.75266  0.20476  Biso   1.000  O
  Hf8      1.0000 0.13925  0.04297  0.67155  Biso   1.000  Hf
  Hf9      1.0000 0.14108  0.45271  0.92499  Biso   1.000  Hf
  Hf10     1.0000 0.36130  0.54413  0.67148  Biso   1.000  Hf
  Hf11     1.0000 0.35837  0.95459  0.92504  Biso   1.000  Hf
  Hf12     1.0000 0.63772  0.04172  0.57875  Biso   1.000  Hf
  Hf13     1.0000 0.63888  0.45905  0.83010  Biso   1.000  Hf
  Hf14     1.0000 0.86050  0.54115  0.57805  Biso   1.000  Hf
  Hf15     1.0000 0.86182  0.95649  0.82931  Biso   1.000  Hf
  O17      1.0000 0.03149  0.32371  0.57749  Biso   1.000  O
  O18      1.0000 0.03258  0.16994  0.83284  Biso   1.000  O
  O19      1.0000 0.46426  0.83774  0.58509  Biso   1.000  O
  O20      1.0000 0.46576  0.66630  0.83628  Biso   1.000  O
  O21      1.0000 0.27772  0.24655  0.79707  Biso   1.000  O
  O22      1.0000 0.27715  0.25616  0.54421  Biso   1.000  O
  O23      1.0000 0.22253  0.74576  0.79484  Biso   1.000  O
  O24      1.0000 0.22180  0.75402  0.54297  Biso   1.000  O
  O25      1.0000 0.53456  0.33683  0.66462  Biso   1.000  O
  O26      1.0000 0.53285  0.16706  0.91624  Biso   1.000  O
  O27      1.0000 0.96785  0.82654  0.66649  Biso   1.000  O
  O28      1.0000 0.96856  0.66413  0.91840  Biso   1.000  O
  O29      1.0000 0.77882  0.25047  0.95647  Biso   1.000  O
  O30      1.0000 0.77714  0.25142  0.70541  Biso   1.000  O
  O31      1.0000 0.72489  0.74840  0.95612  Biso   1.000  O
  O32      1.0000 0.72308  0.75276  0.70537  Biso   1.000  O
