data_image0
_cell_length_a       10.0538
_cell_length_b       5.11408
_cell_length_c       10.3928
_cell_angle_alpha    89.9716
_cell_angle_beta     80.3027
_cell_angle_gamma    89.9147

_symmetry_space_group_name_H-M    "P 1"
_symmetry_int_tables_number       1

loop_
  _symmetry_equiv_pos_as_xyz
  'x, y, z'

loop_
  _atom_site_label
  _atom_site_occupancy
  _atom_site_fract_x
  _atom_site_fract_y
  _atom_site_fract_z
  _atom_site_thermal_displace_type
  _atom_site_B_iso_or_equiv
  _atom_site_type_symbol
  Cr1      1.0000 0.13301  0.04917  0.14955  Biso   1.000  Cr
  Hf1      1.0000 0.13994  0.45867  0.39193  Biso   1.000  Hf
  Hf2      1.0000 0.35452  0.54675  0.10586  Biso   1.000  Hf
  Hf3      1.0000 0.35903  0.95856  0.35123  Biso   1.000  Hf
  O1       1.0000 0.03945  0.32019  0.08412  Biso   1.000  O
  O2       1.0000 0.04067  0.15984  0.31834  Biso   1.000  O
  O3       1.0000 0.46512  0.83806  0.16858  Biso   1.000  O
  O4       1.0000 0.46400  0.66077  0.41780  Biso   1.000  O
  O5       1.0000 0.27138  0.25156  0.23696  Biso   1.000  O
  O6       1.0000 0.27767  0.24407  0.48940  Biso   1.000  O
  O7       1.0000 0.21650  0.77041  0.01450  Biso   1.000  O
  O8       1.0000 0.22089  0.74634  0.25753  Biso   1.000  O
  Hf4      1.0000 0.13937  0.04334  0.64557  Biso   1.000  Hf
  Hf5      1.0000 0.14056  0.45568  0.89849  Biso   1.000  Hf
  Hf6      1.0000 0.36132  0.54481  0.60409  Biso   1.000  Hf
  Hf7      1.0000 0.35713  0.95853  0.85814  Biso   1.000  Hf
  O9       1.0000 0.03394  0.32998  0.57467  Biso   1.000  O
  O10      1.0000 0.03518  0.16519  0.82932  Biso   1.000  O
  O11      1.0000 0.46187  0.84404  0.66934  Biso   1.000  O
  O12      1.0000 0.45720  0.65191  0.91829  Biso   1.000  O
  O13      1.0000 0.27755  0.25904  0.74209  Biso   1.000  O
  O14      1.0000 0.27158  0.23752  0.99773  Biso   1.000  O
  O15      1.0000 0.22234  0.75829  0.50827  Biso   1.000  O
  O16      1.0000 0.22214  0.74121  0.76041  Biso   1.000  O
  Hf8      1.0000 0.63819  0.04588  0.14538  Biso   1.000  Hf
  Hf9      1.0000 0.63966  0.45876  0.39523  Biso   1.000  Hf
  Hf10     1.0000 0.86685  0.54251  0.10470  Biso   1.000  Hf
  Hf11     1.0000 0.86379  0.96030  0.35233  Biso   1.000  Hf
  O17      1.0000 0.53470  0.34388  0.08264  Biso   1.000  O
  O18      1.0000 0.53661  0.15995  0.33113  Biso   1.000  O
  O19      1.0000 0.98105  0.84084  0.16587  Biso   1.000  O
  O20      1.0000 0.96379  0.65979  0.41747  Biso   1.000  O
  O21      1.0000 0.77864  0.25821  0.24020  Biso   1.000  O
  O22      1.0000 0.77838  0.24026  0.48976  Biso   1.000  O
  O23      1.0000 0.72421  0.75903  0.01007  Biso   1.000  O
  O24      1.0000 0.73139  0.74327  0.25742  Biso   1.000  O
  Hf12     1.0000 0.63781  0.04159  0.64691  Biso   1.000  Hf
  Hf13     1.0000 0.63685  0.45780  0.89784  Biso   1.000  Hf
  Hf14     1.0000 0.86029  0.54162  0.60409  Biso   1.000  Hf
  Hf15     1.0000 0.86123  0.95705  0.85509  Biso   1.000  Hf
  O25      1.0000 0.53802  0.34453  0.58171  Biso   1.000  O
  O26      1.0000 0.53562  0.15495  0.83430  Biso   1.000  O
  O27      1.0000 0.96512  0.83387  0.67065  Biso   1.000  O
  O28      1.0000 0.96538  0.65879  0.92214  Biso   1.000  O
  O29      1.0000 0.77621  0.25781  0.74166  Biso   1.000  O
  O30      1.0000 0.77821  0.24501  0.99173  Biso   1.000  O
  O31      1.0000 0.72337  0.75891  0.50918  Biso   1.000  O
  O32      1.0000 0.72227  0.74150  0.76027  Biso   1.000  O
