data_image0
_cell_length_a       10.2459
_cell_length_b       10.2874
_cell_length_c       5.25283
_cell_angle_alpha    90.554
_cell_angle_beta     79.4595
_cell_angle_gamma    89.985

_symmetry_space_group_name_H-M    "P 1"
_symmetry_int_tables_number       1

loop_
  _symmetry_equiv_pos_as_xyz
  'x, y, z'

loop_
  _atom_site_label
  _atom_site_occupancy
  _atom_site_fract_x
  _atom_site_fract_y
  _atom_site_fract_z
  _atom_site_thermal_displace_type
  _atom_site_B_iso_or_equiv
  _atom_site_type_symbol
  Hf1      1.0000 0.13545  0.01993  0.29632  Biso   1.000  Hf
  Hf2      1.0000 0.12841  0.22949  0.79485  Biso   1.000  Hf
  Hf3      1.0000 0.36370  0.27293  0.24558  Biso   1.000  Hf
  Hf4      1.0000 0.36125  0.48041  0.69277  Biso   1.000  Hf
  O1       1.0000 0.03084  0.16560  0.15553  Biso   1.000  O
  O2       1.0000 0.02996  0.08305  0.64949  Biso   1.000  O
  O3       1.0000 0.46605  0.42799  0.33250  Biso   1.000  O
  O4       1.0000 0.49072  0.35637  0.84779  Biso   1.000  O
  O5       1.0000 0.27817  0.12944  0.51013  Biso   1.000  O
  O6       1.0000 0.27182  0.11200  0.99604  Biso   1.000  O
  O7       1.0000 0.24464  0.36219  0.99303  Biso   1.000  O
  O8       1.0000 0.20587  0.37753  0.50704  Biso   1.000  O
  Hf5      1.0000 0.13856  0.51953  0.28509  Biso   1.000  Hf
  Hf6      1.0000 0.13586  0.72636  0.79090  Biso   1.000  Hf
  Hf7      1.0000 0.36046  0.76958  0.20678  Biso   1.000  Hf
  Hf8      1.0000 0.35669  0.96882  0.71228  Biso   1.000  Hf
  O9       1.0000 0.02932  0.66348  0.14600  Biso   1.000  O
  O10      1.0000 0.03190  0.58706  0.64048  Biso   1.000  O
  O11      1.0000 0.46448  0.91531  0.34729  Biso   1.000  O
  O12      1.0000 0.46631  0.83350  0.84897  Biso   1.000  O
  O13      1.0000 0.27390  0.62933  0.47734  Biso   1.000  O
  O14      1.0000 0.27166  0.61762  0.97980  Biso   1.000  O
  O15      1.0000 0.22127  0.87193  0.02155  Biso   1.000  O
  O16      1.0000 0.22059  0.87049  0.51723  Biso   1.000  O
  Hf9      1.0000 0.63816  0.02077  0.29360  Biso   1.000  Hf
  Hf10     1.0000 0.64600  0.23093  0.80075  Biso   1.000  Hf
  Hf11     1.0000 0.85914  0.27216  0.21161  Biso   1.000  Hf
  Hf12     1.0000 0.86153  0.48051  0.70259  Biso   1.000  Hf
  O17      1.0000 0.53800  0.16870  0.16679  Biso   1.000  O
  O18      1.0000 0.52705  0.08877  0.66516  Biso   1.000  O
  O19      1.0000 0.96572  0.41701  0.33590  Biso   1.000  O
  O20      1.0000 0.96251  0.33768  0.84415  Biso   1.000  O
  O21      1.0000 0.77327  0.12798  0.48311  Biso   1.000  O
  O22      1.0000 0.77831  0.12011  0.98458  Biso   1.000  O
  O23      1.0000 0.72694  0.37968  0.02381  Biso   1.000  O
  O24      1.0000 0.72690  0.37262  0.51980  Biso   1.000  O
  Hf13     1.0000 0.63963  0.52555  0.28917  Biso   1.000  Hf
  Hf14     1.0000 0.63812  0.72875  0.79045  Biso   1.000  Hf
  Hf15     1.0000 0.86081  0.77155  0.20354  Biso   1.000  Hf
  Hf16     1.0000 0.85951  0.97713  0.70753  Biso   1.000  Hf
  O25      1.0000 0.53475  0.66821  0.15222  Biso   1.000  O
  O26      1.0000 0.53407  0.58981  0.64795  Biso   1.000  O
  O27      1.0000 0.96517  0.91588  0.33946  Biso   1.000  O
  O28      1.0000 0.96459  0.83412  0.84016  Biso   1.000  O
  O29      1.0000 0.77638  0.63085  0.47658  Biso   1.000  O
  O30      1.0000 0.77487  0.62284  0.97568  Biso   1.000  O
  O31      1.0000 0.72350  0.87965  0.02035  Biso   1.000  O
  O32      1.0000 0.72225  0.87349  0.52050  Biso   1.000  O
  Cr1      1.0000 0.38624  0.22523  0.75974  Biso   1.000  Cr
