data_image0
_cell_length_a       10.0427
_cell_length_b       10.3099
_cell_length_c       10.4492
_cell_angle_alpha    89.8949
_cell_angle_beta     90.3549
_cell_angle_gamma    90.1933

_symmetry_space_group_name_H-M    "P 1"
_symmetry_int_tables_number       1

loop_
  _symmetry_equiv_pos_as_xyz
  'x, y, z'

loop_
  _atom_site_label
  _atom_site_occupancy
  _atom_site_fract_x
  _atom_site_fract_y
  _atom_site_fract_z
  _atom_site_thermal_displace_type
  _atom_site_B_iso_or_equiv
  _atom_site_type_symbol
  Cs1      1.0000 0.11754  0.01140  0.13982  Biso   1.000  Cs
  Hf1      1.0000 0.13988  0.02117  0.67209  Biso   1.000  Hf
  Hf2      1.0000 0.13918  0.51936  0.17036  Biso   1.000  Hf
  Hf3      1.0000 0.13893  0.52127  0.66882  Biso   1.000  Hf
  Hf4      1.0000 0.13850  0.22567  0.42063  Biso   1.000  Hf
  Hf5      1.0000 0.13652  0.23640  0.91515  Biso   1.000  Hf
  Hf6      1.0000 0.13815  0.72921  0.41961  Biso   1.000  Hf
  Hf7      1.0000 0.14129  0.72572  0.91838  Biso   1.000  Hf
  Hf8      1.0000 0.35882  0.26809  0.17446  Biso   1.000  Hf
  Hf9      1.0000 0.36083  0.27038  0.67023  Biso   1.000  Hf
  Hf10     1.0000 0.36616  0.76719  0.17149  Biso   1.000  Hf
  Hf11     1.0000 0.35997  0.77082  0.66771  Biso   1.000  Hf
  Hf12     1.0000 0.35970  0.47840  0.42020  Biso   1.000  Hf
  Hf13     1.0000 0.36250  0.47784  0.92109  Biso   1.000  Hf
  Hf14     1.0000 0.35822  0.97964  0.41752  Biso   1.000  Hf
  Hf15     1.0000 0.36854  0.97535  0.91655  Biso   1.000  Hf
  Hf16     1.0000 0.64098  0.02116  0.08149  Biso   1.000  Hf
  Hf17     1.0000 0.63523  0.02069  0.58202  Biso   1.000  Hf
  Hf18     1.0000 0.63635  0.51913  0.07965  Biso   1.000  Hf
  Hf19     1.0000 0.63784  0.52062  0.57755  Biso   1.000  Hf
  Hf20     1.0000 0.63627  0.22989  0.33084  Biso   1.000  Hf
  Hf21     1.0000 0.63934  0.22960  0.82866  Biso   1.000  Hf
  Hf22     1.0000 0.64001  0.72864  0.33034  Biso   1.000  Hf
  Hf23     1.0000 0.63850  0.72847  0.82646  Biso   1.000  Hf
  Hf24     1.0000 0.85341  0.27575  0.07927  Biso   1.000  Hf
  Hf25     1.0000 0.86239  0.27202  0.57963  Biso   1.000  Hf
  Hf26     1.0000 0.85780  0.76204  0.07537  Biso   1.000  Hf
  Hf27     1.0000 0.86264  0.77094  0.58050  Biso   1.000  Hf
  Hf28     1.0000 0.86186  0.47964  0.32984  Biso   1.000  Hf
  Hf29     1.0000 0.86042  0.47964  0.82614  Biso   1.000  Hf
  Hf30     1.0000 0.85488  0.98342  0.34292  Biso   1.000  Hf
  Hf31     1.0000 0.86201  0.97944  0.83035  Biso   1.000  Hf
  O1       1.0000 0.03977  0.21139  0.09211  Biso   1.000  O
  O2       1.0000 0.03595  0.17306  0.59318  Biso   1.000  O
  O3       1.0000 0.03802  0.67502  0.08857  Biso   1.000  O
  O4       1.0000 0.03540  0.67005  0.58815  Biso   1.000  O
  O5       1.0000 0.02502  0.08071  0.35482  Biso   1.000  O
  O6       1.0000 0.03651  0.08017  0.84240  Biso   1.000  O
  O7       1.0000 0.03550  0.58081  0.33586  Biso   1.000  O
  O8       1.0000 0.03464  0.57879  0.83588  Biso   1.000  O
  O9       1.0000 0.46708  0.41433  0.08487  Biso   1.000  O
  O10      1.0000 0.46660  0.41555  0.58358  Biso   1.000  O
  O11      1.0000 0.47362  0.91646  0.08455  Biso   1.000  O
  O12      1.0000 0.46445  0.91643  0.58360  Biso   1.000  O
  O13      1.0000 0.46621  0.33532  0.33371  Biso   1.000  O
  O14      1.0000 0.46672  0.33269  0.83375  Biso   1.000  O
  O15      1.0000 0.47289  0.83695  0.33256  Biso   1.000  O
  O16      1.0000 0.47000  0.83408  0.82886  Biso   1.000  O
  O17      1.0000 0.28248  0.13001  0.30359  Biso   1.000  O
  O18      1.0000 0.27765  0.12481  0.79492  Biso   1.000  O
  O19      1.0000 0.27816  0.61970  0.29289  Biso   1.000  O
  O20      1.0000 0.27738  0.62350  0.79279  Biso   1.000  O
  O21      1.0000 0.27464  0.12219  0.03982  Biso   1.000  O
  O22      1.0000 0.27566  0.12464  0.54701  Biso   1.000  O
  O23      1.0000 0.27427  0.61587  0.04461  Biso   1.000  O
  O24      1.0000 0.27576  0.62613  0.54244  Biso   1.000  O
  O25      1.0000 0.22120  0.37364  0.29315  Biso   1.000  O
  O26      1.0000 0.22333  0.37489  0.79249  Biso   1.000  O
  O27      1.0000 0.23202  0.86142  0.29737  Biso   1.000  O
  O28      1.0000 0.22454  0.87314  0.78985  Biso   1.000  O
  O29      1.0000 0.22735  0.37304  0.04226  Biso   1.000  O
  O30      1.0000 0.22339  0.37648  0.54377  Biso   1.000  O
  O31      1.0000 0.25315  0.85229  0.02769  Biso   1.000  O
  O32      1.0000 0.22150  0.87729  0.54318  Biso   1.000  O
  O33      1.0000 0.53376  0.16665  0.16596  Biso   1.000  O
  O34      1.0000 0.53282  0.16649  0.66660  Biso   1.000  O
  O35      1.0000 0.53647  0.66473  0.16670  Biso   1.000  O
  O36      1.0000 0.53305  0.66556  0.66445  Biso   1.000  O
  O37      1.0000 0.53407  0.08294  0.41642  Biso   1.000  O
  O38      1.0000 0.53812  0.08347  0.91627  Biso   1.000  O
  O39      1.0000 0.53300  0.58387  0.41544  Biso   1.000  O
  O40      1.0000 0.53311  0.58472  0.91662  Biso   1.000  O
  O41      1.0000 0.95832  0.42940  0.15780  Biso   1.000  O
  O42      1.0000 0.96413  0.42219  0.66113  Biso   1.000  O
  O43      1.0000 0.94450  0.92001  0.17210  Biso   1.000  O
  O44      1.0000 0.96510  0.91974  0.66595  Biso   1.000  O
  O45      1.0000 0.96451  0.33192  0.41320  Biso   1.000  O
  O46      1.0000 0.95988  0.32989  0.90639  Biso   1.000  O
  O47      1.0000 0.96295  0.83007  0.41489  Biso   1.000  O
  O48      1.0000 0.97044  0.83487  0.91968  Biso   1.000  O
  O49      1.0000 0.77995  0.12442  0.95895  Biso   1.000  O
  O50      1.0000 0.77221  0.12605  0.46150  Biso   1.000  O
  O51      1.0000 0.77643  0.62276  0.95440  Biso   1.000  O
  O52      1.0000 0.77715  0.62394  0.45590  Biso   1.000  O
  O53      1.0000 0.77708  0.12814  0.21002  Biso   1.000  O
  O54      1.0000 0.77624  0.12622  0.70864  Biso   1.000  O
  O55      1.0000 0.77609  0.62525  0.20561  Biso   1.000  O
  O56      1.0000 0.77567  0.62640  0.70501  Biso   1.000  O
  O57      1.0000 0.72109  0.37594  0.95429  Biso   1.000  O
  O58      1.0000 0.72307  0.37497  0.45532  Biso   1.000  O
  O59      1.0000 0.72558  0.87321  0.95576  Biso   1.000  O
  O60      1.0000 0.72171  0.87384  0.46042  Biso   1.000  O
  O61      1.0000 0.72154  0.37660  0.20640  Biso   1.000  O
  O62      1.0000 0.72359  0.37558  0.70443  Biso   1.000  O
  O63      1.0000 0.72820  0.87469  0.20732  Biso   1.000  O
  O64      1.0000 0.72463  0.87561  0.70704  Biso   1.000  O
