data_image0
_cell_length_a       5.15317
_cell_length_b       10.6051
_cell_length_c       10.5235
_cell_angle_alpha    97.5495
_cell_angle_beta     91.7912
_cell_angle_gamma    86.2599

_symmetry_space_group_name_H-M    "P 1"
_symmetry_int_tables_number       1

loop_
  _symmetry_equiv_pos_as_xyz
  'x, y, z'

loop_
  _atom_site_label
  _atom_site_occupancy
  _atom_site_fract_x
  _atom_site_fract_y
  _atom_site_fract_z
  _atom_site_thermal_displace_type
  _atom_site_B_iso_or_equiv
  _atom_site_type_symbol
  Hf1      1.0000 0.18565  0.01255  0.10797  Biso   1.000  Hf
  Hf2      1.0000 0.15559  0.20226  0.44041  Biso   1.000  Hf
  Hf3      1.0000 0.95599  0.38538  0.14197  Biso   1.000  Hf
  Hf4      1.0000 0.73940  0.96043  0.35840  Biso   1.000  Hf
  Hf5      1.0000 0.03878  0.19582  0.06219  Biso   1.000  Hf
  Hf6      1.0000 0.00589  0.06909  0.28018  Biso   1.000  Hf
  Hf7      1.0000 0.01217  0.32561  0.31634  Biso   1.000  Hf
  Hf8      1.0000 0.14816  0.41545  0.97422  Biso   1.000  Hf
  Hf9      1.0000 0.46301  0.09575  0.38863  Biso   1.000  Hf
  Hf10     1.0000 0.42745  0.08106  0.98410  Biso   1.000  Hf
  Hf11     1.0000 0.66090  0.40190  0.01015  Biso   1.000  Hf
  Hf12     1.0000 0.63030  0.47382  0.24064  Biso   1.000  Hf
  Hf13     1.0000 0.15258  0.98743  0.62985  Biso   1.000  Hf
  Hf14     1.0000 0.21600  0.22229  0.88829  Biso   1.000  Hf
  Hf15     1.0000 0.66176  0.25671  0.64735  Biso   1.000  Hf
  Hf16     1.0000 0.68553  0.99318  0.85330  Biso   1.000  Hf
  Hf17     1.0000 0.88173  0.10565  0.52870  Biso   1.000  Hf
  Hf18     1.0000 0.03033  0.06672  0.80040  Biso   1.000  Hf
  Hf19     1.0000 0.94532  0.31080  0.77987  Biso   1.000  Hf
  Hf20     1.0000 0.97667  0.37253  0.55531  Biso   1.000  Hf
  Hf21     1.0000 0.56888  0.17618  0.81024  Biso   1.000  Hf
  Hf22     1.0000 0.32000  0.15887  0.61428  Biso   1.000  Hf
  Hf23     1.0000 0.47551  0.35276  0.48957  Biso   1.000  Hf
  Hf24     1.0000 0.51697  0.43210  0.73199  Biso   1.000  Hf
  Hf25     1.0000 0.38816  0.53426  0.09576  Biso   1.000  Hf
  Hf26     1.0000 0.20495  0.71757  0.34658  Biso   1.000  Hf
  Hf27     1.0000 0.69871  0.77778  0.07251  Biso   1.000  Hf
  Hf28     1.0000 0.75484  0.46151  0.42013  Biso   1.000  Hf
  Hf29     1.0000 0.99941  0.65474  0.98827  Biso   1.000  Hf
  Hf30     1.0000 0.10433  0.55371  0.23324  Biso   1.000  Hf
  Hf31     1.0000 0.94932  0.81341  0.23534  Biso   1.000  Hf
  Hf32     1.0000 0.95170  0.90678  0.98884  Biso   1.000  Hf
  Hf33     1.0000 0.45470  0.70872  0.19376  Biso   1.000  Hf
  Hf34     1.0000 0.51198  0.62341  0.94604  Biso   1.000  Hf
  Hf35     1.0000 0.47745  0.85245  0.92801  Biso   1.000  Hf
  Hf36     1.0000 0.52407  0.94279  0.18081  Biso   1.000  Hf
  Hf37     1.0000 0.26712  0.51411  0.60605  Biso   1.000  Hf
  Hf38     1.0000 0.19673  0.73642  0.85356  Biso   1.000  Hf
  Hf39     1.0000 0.68800  0.75582  0.58328  Biso   1.000  Hf
  Hf40     1.0000 0.81595  0.48959  0.86792  Biso   1.000  Hf
  Hf41     1.0000 0.96650  0.61539  0.49066  Biso   1.000  Hf
  Hf42     1.0000 0.01703  0.58014  0.74677  Biso   1.000  Hf
  Hf43     1.0000 0.96081  0.83554  0.72831  Biso   1.000  Hf
  Hf44     1.0000 0.99145  0.86032  0.48496  Biso   1.000  Hf
  Hf45     1.0000 0.43746  0.68221  0.69813  Biso   1.000  Hf
  Hf46     1.0000 0.46542  0.60108  0.47068  Biso   1.000  Hf
  Hf47     1.0000 0.49822  0.83417  0.43732  Biso   1.000  Hf
  Hf48     1.0000 0.51092  0.92871  0.68384  Biso   1.000  Hf
  Cs1      1.0000 0.54960  0.22083  0.19956  Biso   1.000  Cs
