data_image0
_cell_length_a       10.254
_cell_length_b       5.17522
_cell_length_c       10.7573
_cell_angle_alpha    90.8726
_cell_angle_beta     79.0127
_cell_angle_gamma    90.6875

_symmetry_space_group_name_H-M    "P 1"
_symmetry_int_tables_number       1

loop_
  _symmetry_equiv_pos_as_xyz
  'x, y, z'

loop_
  _atom_site_label
  _atom_site_occupancy
  _atom_site_fract_x
  _atom_site_fract_y
  _atom_site_fract_z
  _atom_site_thermal_displace_type
  _atom_site_B_iso_or_equiv
  _atom_site_type_symbol
  Hf1      1.0000 0.12450  0.05214  0.14937  Biso   1.000  Hf
  Hf2      1.0000 0.13129  0.46453  0.39316  Biso   1.000  Hf
  Hf3      1.0000 0.34641  0.57384  0.07975  Biso   1.000  Hf
  Hf4      1.0000 0.36877  0.92791  0.37500  Biso   1.000  Hf
  O1       1.0000 0.02577  0.31739  0.06615  Biso   1.000  O
  O2       1.0000 0.02046  0.17308  0.32970  Biso   1.000  O
  O3       1.0000 0.46472  0.87162  0.18062  Biso   1.000  O
  O4       1.0000 0.48082  0.69255  0.45793  Biso   1.000  O
  O5       1.0000 0.23733  0.31278  0.21915  Biso   1.000  O
  O6       1.0000 0.27232  0.23182  0.48300  Biso   1.000  O
  O7       1.0000 0.21482  0.78836  0.00599  Biso   1.000  O
  O8       1.0000 0.22436  0.78221  0.26590  Biso   1.000  O
  Hf5      1.0000 0.13527  0.04518  0.64229  Biso   1.000  Hf
  Hf6      1.0000 0.12936  0.46087  0.89044  Biso   1.000  Hf
  Hf7      1.0000 0.36364  0.54509  0.61580  Biso   1.000  Hf
  Hf8      1.0000 0.35748  0.97663  0.85182  Biso   1.000  Hf
  O9       1.0000 0.03169  0.32252  0.57378  Biso   1.000  O
  O10      1.0000 0.02696  0.18226  0.81906  Biso   1.000  O
  O11      1.0000 0.46900  0.82026  0.68710  Biso   1.000  O
  O12      1.0000 0.46849  0.71253  0.92412  Biso   1.000  O
  O13      1.0000 0.26998  0.25134  0.73413  Biso   1.000  O
  O14      1.0000 0.27100  0.27777  0.97537  Biso   1.000  O
  O15      1.0000 0.22685  0.73989  0.51821  Biso   1.000  O
  O16      1.0000 0.22384  0.74489  0.76263  Biso   1.000  O
  Hf9      1.0000 0.64862  0.02131  0.15339  Biso   1.000  Hf
  Hf10     1.0000 0.65381  0.44163  0.41333  Biso   1.000  Hf
  Hf11     1.0000 0.85833  0.53274  0.10501  Biso   1.000  Hf
  Hf12     1.0000 0.85576  0.94639  0.35758  Biso   1.000  Hf
  O17      1.0000 0.51768  0.32473  0.05068  Biso   1.000  O
  O18      1.0000 0.57408  0.08899  0.35591  Biso   1.000  O
  O19      1.0000 0.96288  0.81070  0.18259  Biso   1.000  O
  O20      1.0000 0.96602  0.67797  0.43136  Biso   1.000  O
  O21      1.0000 0.78592  0.24609  0.24195  Biso   1.000  O
  O22      1.0000 0.78084  0.23441  0.49976  Biso   1.000  O
  O23      1.0000 0.72331  0.74916  0.01471  Biso   1.000  O
  O24      1.0000 0.72267  0.71715  0.25984  Biso   1.000  O
  Hf13     1.0000 0.63855  0.04252  0.65114  Biso   1.000  Hf
  Hf14     1.0000 0.63399  0.45847  0.89704  Biso   1.000  Hf
  Hf15     1.0000 0.86368  0.54228  0.61093  Biso   1.000  Hf
  Hf16     1.0000 0.85822  0.95721  0.85788  Biso   1.000  Hf
  O25      1.0000 0.53295  0.31818  0.58135  Biso   1.000  O
  O26      1.0000 0.52587  0.19940  0.81539  Biso   1.000  O
  O27      1.0000 0.96890  0.81979  0.68107  Biso   1.000  O
  O28      1.0000 0.96382  0.68392  0.92889  Biso   1.000  O
  O29      1.0000 0.77405  0.25947  0.74509  Biso   1.000  O
  O30      1.0000 0.76902  0.24045  0.99382  Biso   1.000  O
  O31      1.0000 0.72834  0.74632  0.51897  Biso   1.000  O
  O32      1.0000 0.72474  0.75166  0.76478  Biso   1.000  O
  Cs1      1.0000 0.45156  0.41910  0.27492  Biso   1.000  Cs
