data_image0
_cell_length_a       5.03777
_cell_length_b       10.5973
_cell_length_c       10.2755
_cell_angle_alpha    86.3038
_cell_angle_beta     91.8915
_cell_angle_gamma    92.2725

_symmetry_space_group_name_H-M    "P 1"
_symmetry_int_tables_number       1

loop_
  _symmetry_equiv_pos_as_xyz
  'x, y, z'

loop_
  _atom_site_label
  _atom_site_occupancy
  _atom_site_fract_x
  _atom_site_fract_y
  _atom_site_fract_z
  _atom_site_thermal_displace_type
  _atom_site_B_iso_or_equiv
  _atom_site_type_symbol
  Hf1      1.0000 0.29768  0.99974  0.10709  Biso   1.000  Hf
  Hf2      1.0000 0.23118  0.22726  0.41437  Biso   1.000  Hf
  Hf3      1.0000 0.62856  0.27349  0.17520  Biso   1.000  Hf
  Hf4      1.0000 0.73845  0.48847  0.39086  Biso   1.000  Hf
  Hf5      1.0000 0.90977  0.17975  0.28070  Biso   1.000  Hf
  Hf6      1.0000 0.08140  0.04630  0.45904  Biso   1.000  Hf
  Hf7      1.0000 0.90133  0.44097  0.22075  Biso   1.000  Hf
  Hf8      1.0000 0.93579  0.33102  0.46598  Biso   1.000  Hf
  Hf9      1.0000 0.42032  0.11367  0.25962  Biso   1.000  Hf
  Hf10     1.0000 0.56420  0.13497  0.50493  Biso   1.000  Hf
  Hf11     1.0000 0.46540  0.38245  0.51599  Biso   1.000  Hf
  Hf12     1.0000 0.39614  0.37607  0.27692  Biso   1.000  Hf
  Hf13     1.0000 0.31865  0.99781  0.61433  Biso   1.000  Hf
  Hf14     1.0000 0.28108  0.20583  0.82827  Biso   1.000  Hf
  Hf15     1.0000 0.75592  0.27288  0.63520  Biso   1.000  Hf
  Hf16     1.0000 0.75138  0.47330  0.85912  Biso   1.000  Hf
  Hf17     1.0000 0.12320  0.17466  0.64969  Biso   1.000  Hf
  Hf18     1.0000 0.08379  0.05677  0.93245  Biso   1.000  Hf
  Hf19     1.0000 0.90473  0.45757  0.66623  Biso   1.000  Hf
  Hf20     1.0000 0.90566  0.29042  0.82988  Biso   1.000  Hf
  Hf21     1.0000 0.56593  0.09909  0.75110  Biso   1.000  Hf
  Hf22     1.0000 0.52508  0.15219  0.01741  Biso   1.000  Hf
  Hf23     1.0000 0.55418  0.40934  0.02223  Biso   1.000  Hf
  Hf24     1.0000 0.44035  0.36995  0.75612  Biso   1.000  Hf
  Hf25     1.0000 0.26317  0.53649  0.14221  Biso   1.000  Hf
  Hf26     1.0000 0.28065  0.74132  0.37786  Biso   1.000  Hf
  Hf27     1.0000 0.73976  0.76938  0.13095  Biso   1.000  Hf
  Hf28     1.0000 0.75443  0.00154  0.35647  Biso   1.000  Hf
  Hf29     1.0000 0.07756  0.69079  0.20139  Biso   1.000  Hf
  Hf30     1.0000 0.08190  0.57682  0.44627  Biso   1.000  Hf
  Hf31     1.0000 0.94010  0.94616  0.18510  Biso   1.000  Hf
  Hf32     1.0000 0.94859  0.81794  0.44099  Biso   1.000  Hf
  Hf33     1.0000 0.54825  0.62639  0.26245  Biso   1.000  Hf
  Hf34     1.0000 0.54479  0.63657  0.50684  Biso   1.000  Hf
  Hf35     1.0000 0.49344  0.88483  0.48987  Biso   1.000  Hf
  Hf36     1.0000 0.48223  0.86890  0.24180  Biso   1.000  Hf
  Hf37     1.0000 0.27704  0.51731  0.62501  Biso   1.000  Hf
  Hf38     1.0000 0.27532  0.72879  0.87098  Biso   1.000  Hf
  Hf39     1.0000 0.76350  0.76203  0.61656  Biso   1.000  Hf
  Hf40     1.0000 0.77731  0.95968  0.85953  Biso   1.000  Hf
  Hf41     1.0000 0.08550  0.67859  0.69785  Biso   1.000  Hf
  Hf42     1.0000 0.07107  0.55262  0.95208  Biso   1.000  Hf
  Hf43     1.0000 0.98147  0.91857  0.70069  Biso   1.000  Hf
  Hf44     1.0000 0.96205  0.80538  0.95505  Biso   1.000  Hf
  Hf45     1.0000 0.54566  0.61157  0.76054  Biso   1.000  Hf
  Hf46     1.0000 0.50765  0.65482  0.01798  Biso   1.000  Hf
  Hf47     1.0000 0.49371  0.88976  0.98687  Biso   1.000  Hf
  Hf48     1.0000 0.50201  0.85008  0.74054  Biso   1.000  Hf
  Cs1      1.0000 0.09138  0.27946  0.06044  Biso   1.000  Cs
