data_image0
_cell_length_a       10.1025
_cell_length_b       5.11151
_cell_length_c       10.4519
_cell_angle_alpha    90.4104
_cell_angle_beta     80.4836
_cell_angle_gamma    89.5168

_symmetry_space_group_name_H-M    "P 1"
_symmetry_int_tables_number       1

loop_
  _symmetry_equiv_pos_as_xyz
  'x, y, z'

loop_
  _atom_site_label
  _atom_site_occupancy
  _atom_site_fract_x
  _atom_site_fract_y
  _atom_site_fract_z
  _atom_site_thermal_displace_type
  _atom_site_B_iso_or_equiv
  _atom_site_type_symbol
  Cu1      1.0000 0.12480  0.01906  0.16769  Biso   1.000  Cu
  Hf1      1.0000 0.13925  0.45050  0.39228  Biso   1.000  Hf
  Hf2      1.0000 0.35474  0.54591  0.10183  Biso   1.000  Hf
  Hf3      1.0000 0.36105  0.95233  0.35113  Biso   1.000  Hf
  O1       1.0000 0.04412  0.33423  0.08158  Biso   1.000  O
  O2       1.0000 0.03574  0.15292  0.32478  Biso   1.000  O
  O3       1.0000 0.46771  0.82820  0.17305  Biso   1.000  O
  O4       1.0000 0.46546  0.66658  0.42245  Biso   1.000  O
  O5       1.0000 0.26644  0.23500  0.23011  Biso   1.000  O
  O6       1.0000 0.27701  0.24151  0.48496  Biso   1.000  O
  O7       1.0000 0.22134  0.80606  0.02098  Biso   1.000  O
  O8       1.0000 0.22523  0.72581  0.26184  Biso   1.000  O
  Hf4      1.0000 0.13900  0.03836  0.64416  Biso   1.000  Hf
  Hf5      1.0000 0.13941  0.45510  0.89637  Biso   1.000  Hf
  Hf6      1.0000 0.36133  0.54477  0.60540  Biso   1.000  Hf
  Hf7      1.0000 0.35984  0.97383  0.85767  Biso   1.000  Hf
  O9       1.0000 0.03123  0.31649  0.57100  Biso   1.000  O
  O10      1.0000 0.03455  0.16924  0.82621  Biso   1.000  O
  O11      1.0000 0.46473  0.83673  0.67270  Biso   1.000  O
  O12      1.0000 0.46652  0.68610  0.92515  Biso   1.000  O
  O13      1.0000 0.27406  0.25567  0.73306  Biso   1.000  O
  O14      1.0000 0.29360  0.29192  0.97046  Biso   1.000  O
  O15      1.0000 0.22213  0.75188  0.50973  Biso   1.000  O
  O16      1.0000 0.22494  0.74365  0.76396  Biso   1.000  O
  Hf8      1.0000 0.63667  0.04375  0.14457  Biso   1.000  Hf
  Hf9      1.0000 0.63829  0.45508  0.39539  Biso   1.000  Hf
  Hf10     1.0000 0.86705  0.53223  0.10414  Biso   1.000  Hf
  Hf11     1.0000 0.85761  0.95129  0.35532  Biso   1.000  Hf
  O17      1.0000 0.53342  0.33624  0.07804  Biso   1.000  O
  O18      1.0000 0.53295  0.16640  0.32767  Biso   1.000  O
  O19      1.0000 0.96528  0.84227  0.17163  Biso   1.000  O
  O20      1.0000 0.96417  0.65897  0.42067  Biso   1.000  O
  O21      1.0000 0.77581  0.25357  0.24077  Biso   1.000  O
  O22      1.0000 0.77615  0.23839  0.49013  Biso   1.000  O
  O23      1.0000 0.72606  0.75942  0.01072  Biso   1.000  O
  O24      1.0000 0.72802  0.73863  0.25925  Biso   1.000  O
  Hf12     1.0000 0.63769  0.04295  0.64728  Biso   1.000  Hf
  Hf13     1.0000 0.63731  0.46464  0.89795  Biso   1.000  Hf
  Hf14     1.0000 0.86006  0.53901  0.60488  Biso   1.000  Hf
  Hf15     1.0000 0.86229  0.95679  0.85569  Biso   1.000  Hf
  O25      1.0000 0.53524  0.33468  0.57734  Biso   1.000  O
  O26      1.0000 0.53647  0.17430  0.82667  Biso   1.000  O
  O27      1.0000 0.96741  0.82162  0.67446  Biso   1.000  O
  O28      1.0000 0.96593  0.66541  0.92570  Biso   1.000  O
  O29      1.0000 0.77778  0.25801  0.74074  Biso   1.000  O
  O30      1.0000 0.77747  0.24606  0.99098  Biso   1.000  O
  O31      1.0000 0.72271  0.75369  0.51062  Biso   1.000  O
  O32      1.0000 0.72395  0.74474  0.76082  Biso   1.000  O
