data_image0
_cell_length_a       5.09234
_cell_length_b       10.2881
_cell_length_c       10.5232
_cell_angle_alpha    90.245
_cell_angle_beta     79.4666
_cell_angle_gamma    90.114

_symmetry_space_group_name_H-M    "P 1"
_symmetry_int_tables_number       1

loop_
  _symmetry_equiv_pos_as_xyz
  'x, y, z'

loop_
  _atom_site_label
  _atom_site_occupancy
  _atom_site_fract_x
  _atom_site_fract_y
  _atom_site_fract_z
  _atom_site_thermal_displace_type
  _atom_site_B_iso_or_equiv
  _atom_site_type_symbol
  Hf1      1.0000 0.27098  0.02095  0.14484  Biso   1.000  Hf
  Hf2      1.0000 0.30668  0.23292  0.40116  Biso   1.000  Hf
  Hf3      1.0000 0.70667  0.27483  0.10228  Biso   1.000  Hf
  Hf4      1.0000 0.71717  0.47728  0.34943  Biso   1.000  Hf
  O1       1.0000 0.05947  0.16850  0.08104  Biso   1.000  O
  O2       1.0000 0.07428  0.07713  0.33487  Biso   1.000  O
  O3       1.0000 0.91787  0.42600  0.16484  Biso   1.000  O
  O4       1.0000 0.96166  0.34823  0.43344  Biso   1.000  O
  O5       1.0000 0.54220  0.12329  0.23820  Biso   1.000  O
  O6       1.0000 0.56575  0.11718  0.49392  Biso   1.000  O
  O7       1.0000 0.43755  0.38166  0.00735  Biso   1.000  O
  O8       1.0000 0.41673  0.37608  0.25507  Biso   1.000  O
  Hf5      1.0000 0.27572  0.02110  0.64794  Biso   1.000  Hf
  Hf6      1.0000 0.27052  0.22996  0.89718  Biso   1.000  Hf
  Hf7      1.0000 0.73022  0.27263  0.61048  Biso   1.000  Hf
  Hf8      1.0000 0.71895  0.47993  0.85598  Biso   1.000  Hf
  O9       1.0000 0.07870  0.16840  0.57998  Biso   1.000  O
  O10      1.0000 0.06478  0.08354  0.82936  Biso   1.000  O
  O11      1.0000 0.93516  0.41608  0.67719  Biso   1.000  O
  O12      1.0000 0.92443  0.33362  0.92187  Biso   1.000  O
  O13      1.0000 0.55030  0.12944  0.74231  Biso   1.000  O
  O14      1.0000 0.54245  0.12268  0.99018  Biso   1.000  O
  O15      1.0000 0.46187  0.37719  0.51404  Biso   1.000  O
  O16      1.0000 0.44841  0.37188  0.76118  Biso   1.000  O
  Hf9      1.0000 0.27090  0.52413  0.14535  Biso   1.000  Hf
  Hf10     1.0000 0.27324  0.72457  0.39697  Biso   1.000  Hf
  Hf11     1.0000 0.71629  0.77168  0.10428  Biso   1.000  Hf
  Hf12     1.0000 0.71628  0.96871  0.35676  Biso   1.000  Hf
  O17      1.0000 0.06377  0.67133  0.07787  Biso   1.000  O
  O18      1.0000 0.05998  0.58607  0.32642  Biso   1.000  O
  O19      1.0000 0.92514  0.91652  0.17422  Biso   1.000  O
  O20      1.0000 0.92691  0.82991  0.42381  Biso   1.000  O
  O21      1.0000 0.54821  0.62956  0.24112  Biso   1.000  O
  O22      1.0000 0.54647  0.61982  0.49092  Biso   1.000  O
  O23      1.0000 0.44435  0.88011  0.01070  Biso   1.000  O
  O24      1.0000 0.44054  0.86935  0.26123  Biso   1.000  O
  Hf13     1.0000 0.27834  0.52226  0.64737  Biso   1.000  Hf
  Hf14     1.0000 0.27169  0.72977  0.89718  Biso   1.000  Hf
  Hf15     1.0000 0.71981  0.77025  0.60563  Biso   1.000  Hf
  Hf16     1.0000 0.71842  0.97918  0.85473  Biso   1.000  Hf
  O25      1.0000 0.06324  0.66429  0.57961  Biso   1.000  O
  O26      1.0000 0.06644  0.58476  0.82931  Biso   1.000  O
  O27      1.0000 0.92847  0.91674  0.67225  Biso   1.000  O
  O28      1.0000 0.92747  0.83553  0.92244  Biso   1.000  O
  O29      1.0000 0.55033  0.62854  0.74123  Biso   1.000  O
  O30      1.0000 0.54800  0.62391  0.99072  Biso   1.000  O
  O31      1.0000 0.44286  0.87632  0.51172  Biso   1.000  O
  O32      1.0000 0.44529  0.87171  0.76102  Biso   1.000  O
  Cu1      1.0000 0.85167  0.22447  0.31801  Biso   1.000  Cu
