data_image0
_cell_length_a       10.0213
_cell_length_b       10.4036
_cell_length_c       5.03447
_cell_angle_alpha    89.9294
_cell_angle_beta     89.5233
_cell_angle_gamma    89.9337

_symmetry_space_group_name_H-M    "P 1"
_symmetry_int_tables_number       1

loop_
  _symmetry_equiv_pos_as_xyz
  'x, y, z'

loop_
  _atom_site_label
  _atom_site_occupancy
  _atom_site_fract_x
  _atom_site_fract_y
  _atom_site_fract_z
  _atom_site_thermal_displace_type
  _atom_site_B_iso_or_equiv
  _atom_site_type_symbol
  Hf1      1.0000 0.13670  0.01760  0.25939  Biso   1.000  Hf
  Hf2      1.0000 0.13631  0.22597  0.78520  Biso   1.000  Hf
  Hf3      1.0000 0.36854  0.26624  0.24950  Biso   1.000  Hf
  Hf4      1.0000 0.37082  0.48582  0.74593  Biso   1.000  Hf
  Hf5      1.0000 0.00681  0.15979  0.47002  Biso   1.000  Hf
  Hf6      1.0000 0.03547  0.06141  0.92176  Biso   1.000  Hf
  Hf7      1.0000 0.46678  0.43325  0.38850  Biso   1.000  Hf
  Hf8      1.0000 0.46497  0.31631  0.88505  Biso   1.000  Hf
  Hf9      1.0000 0.26713  0.11892  0.50899  Biso   1.000  Hf
  Hf10     1.0000 0.28561  0.12346  0.00083  Biso   1.000  Hf
  Hf11     1.0000 0.23822  0.38951  0.00029  Biso   1.000  Hf
  Hf12     1.0000 0.23141  0.36803  0.50738  Biso   1.000  Hf
  Hf13     1.0000 0.13707  0.52946  0.24457  Biso   1.000  Hf
  Hf14     1.0000 0.13471  0.73720  0.74930  Biso   1.000  Hf
  Hf15     1.0000 0.36915  0.76734  0.24855  Biso   1.000  Hf
  Hf16     1.0000 0.36809  0.98147  0.75122  Biso   1.000  Hf
  Hf17     1.0000 0.03589  0.68481  0.38973  Biso   1.000  Hf
  Hf18     1.0000 0.03686  0.56875  0.88692  Biso   1.000  Hf
  Hf19     1.0000 0.46499  0.93342  0.38556  Biso   1.000  Hf
  Hf20     1.0000 0.46917  0.81682  0.89088  Biso   1.000  Hf
  Hf21     1.0000 0.27330  0.62024  0.49536  Biso   1.000  Hf
  Hf22     1.0000 0.27151  0.63652  0.99347  Biso   1.000  Hf
  Hf23     1.0000 0.23076  0.88143  0.00153  Biso   1.000  Hf
  Hf24     1.0000 0.23354  0.86751  0.50033  Biso   1.000  Hf
  Hf25     1.0000 0.63251  0.01227  0.23866  Biso   1.000  Hf
  Hf26     1.0000 0.63063  0.23119  0.74258  Biso   1.000  Hf
  Hf27     1.0000 0.85182  0.26215  0.24372  Biso   1.000  Hf
  Hf28     1.0000 0.86846  0.48160  0.74905  Biso   1.000  Hf
  Hf29     1.0000 0.53496  0.18250  0.38161  Biso   1.000  Hf
  Hf30     1.0000 0.53868  0.06407  0.87973  Biso   1.000  Hf
  Hf31     1.0000 0.96749  0.43026  0.38020  Biso   1.000  Hf
  Hf32     1.0000 0.96073  0.31841  0.88622  Biso   1.000  Hf
  Hf33     1.0000 0.76073  0.11220  0.48705  Biso   1.000  Hf
  Hf34     1.0000 0.76938  0.13325  0.98552  Biso   1.000  Hf
  Hf35     1.0000 0.72680  0.38143  0.99583  Biso   1.000  Hf
  Hf36     1.0000 0.72928  0.36736  0.49629  Biso   1.000  Hf
  Hf37     1.0000 0.63500  0.51765  0.24842  Biso   1.000  Hf
  Hf38     1.0000 0.63820  0.73406  0.74598  Biso   1.000  Hf
  Hf39     1.0000 0.86673  0.76653  0.24266  Biso   1.000  Hf
  Hf40     1.0000 0.87336  0.98734  0.73463  Biso   1.000  Hf
  Hf41     1.0000 0.53731  0.68359  0.39022  Biso   1.000  Hf
  Hf42     1.0000 0.53688  0.56772  0.89027  Biso   1.000  Hf
  Hf43     1.0000 0.96932  0.92519  0.39149  Biso   1.000  Hf
  Hf44     1.0000 0.96527  0.81697  0.88491  Biso   1.000  Hf
  Hf45     1.0000 0.77259  0.61543  0.49287  Biso   1.000  Hf
  Hf46     1.0000 0.77117  0.63160  0.99302  Biso   1.000  Hf
  Hf47     1.0000 0.73471  0.88392  0.98756  Biso   1.000  Hf
  Hf48     1.0000 0.73138  0.86540  0.48847  Biso   1.000  Hf
  Cu1      1.0000 0.09811  0.28774  0.27625  Biso   1.000  Cu
