data_image0
_cell_length_a       9.98056
_cell_length_b       10.451
_cell_length_c       5.02069
_cell_angle_alpha    89.7289
_cell_angle_beta     90.3624
_cell_angle_gamma    90.1381

_symmetry_space_group_name_H-M    "P 1"
_symmetry_int_tables_number       1

loop_
  _symmetry_equiv_pos_as_xyz
  'x, y, z'

loop_
  _atom_site_label
  _atom_site_occupancy
  _atom_site_fract_x
  _atom_site_fract_y
  _atom_site_fract_z
  _atom_site_thermal_displace_type
  _atom_site_B_iso_or_equiv
  _atom_site_type_symbol
  Hf1      1.0000 0.13574  0.02123  0.24671  Biso   1.000  Hf
  Hf2      1.0000 0.14253  0.22275  0.76197  Biso   1.000  Hf
  Hf3      1.0000 0.36404  0.26254  0.24280  Biso   1.000  Hf
  Hf4      1.0000 0.36818  0.48284  0.74558  Biso   1.000  Hf
  Hf5      1.0000 0.02037  0.17616  0.42537  Biso   1.000  Hf
  Hf6      1.0000 0.03769  0.06162  0.89376  Biso   1.000  Hf
  Hf7      1.0000 0.46313  0.43200  0.38975  Biso   1.000  Hf
  Hf8      1.0000 0.46405  0.31502  0.88506  Biso   1.000  Hf
  Hf9      1.0000 0.27194  0.11372  0.49787  Biso   1.000  Hf
  Hf10     1.0000 0.28930  0.11976  0.98688  Biso   1.000  Hf
  Hf11     1.0000 0.23070  0.38749  0.99963  Biso   1.000  Hf
  Hf12     1.0000 0.22559  0.36184  0.49342  Biso   1.000  Hf
  Hf13     1.0000 0.13402  0.53382  0.24575  Biso   1.000  Hf
  Hf14     1.0000 0.13505  0.73906  0.75102  Biso   1.000  Hf
  Hf15     1.0000 0.36804  0.76662  0.25024  Biso   1.000  Hf
  Hf16     1.0000 0.36925  0.97796  0.74742  Biso   1.000  Hf
  Hf17     1.0000 0.03377  0.68844  0.39677  Biso   1.000  Hf
  Hf18     1.0000 0.03392  0.57190  0.89153  Biso   1.000  Hf
  Hf19     1.0000 0.46707  0.93077  0.38388  Biso   1.000  Hf
  Hf20     1.0000 0.46743  0.81327  0.88891  Biso   1.000  Hf
  Hf21     1.0000 0.27382  0.62050  0.50079  Biso   1.000  Hf
  Hf22     1.0000 0.27206  0.63642  0.99424  Biso   1.000  Hf
  Hf23     1.0000 0.23050  0.88138  0.00001  Biso   1.000  Hf
  Hf24     1.0000 0.23238  0.86700  0.49667  Biso   1.000  Hf
  Hf25     1.0000 0.63372  0.01393  0.24586  Biso   1.000  Hf
  Hf26     1.0000 0.62988  0.22948  0.74775  Biso   1.000  Hf
  Hf27     1.0000 0.85312  0.26340  0.25686  Biso   1.000  Hf
  Hf28     1.0000 0.86747  0.48238  0.75579  Biso   1.000  Hf
  Hf29     1.0000 0.53541  0.18056  0.38510  Biso   1.000  Hf
  Hf30     1.0000 0.54117  0.06146  0.88097  Biso   1.000  Hf
  Hf31     1.0000 0.96606  0.43282  0.40179  Biso   1.000  Hf
  Hf32     1.0000 0.97454  0.31560  0.92195  Biso   1.000  Hf
  Hf33     1.0000 0.76556  0.11359  0.49872  Biso   1.000  Hf
  Hf34     1.0000 0.77163  0.13183  0.99514  Biso   1.000  Hf
  Hf35     1.0000 0.72964  0.38153  0.00113  Biso   1.000  Hf
  Hf36     1.0000 0.72763  0.36708  0.50618  Biso   1.000  Hf
  Hf37     1.0000 0.63333  0.51523  0.25335  Biso   1.000  Hf
  Hf38     1.0000 0.63592  0.73158  0.75007  Biso   1.000  Hf
  Hf39     1.0000 0.86544  0.76786  0.25026  Biso   1.000  Hf
  Hf40     1.0000 0.86760  0.98245  0.74720  Biso   1.000  Hf
  Hf41     1.0000 0.53773  0.68136  0.38874  Biso   1.000  Hf
  Hf42     1.0000 0.53476  0.56434  0.88946  Biso   1.000  Hf
  Hf43     1.0000 0.96625  0.93306  0.39092  Biso   1.000  Hf
  Hf44     1.0000 0.96437  0.81638  0.89179  Biso   1.000  Hf
  Hf45     1.0000 0.77171  0.61455  0.50271  Biso   1.000  Hf
  Hf46     1.0000 0.76960  0.63128  0.00209  Biso   1.000  Hf
  Hf47     1.0000 0.73145  0.88182  0.99648  Biso   1.000  Hf
  Hf48     1.0000 0.73090  0.86487  0.49772  Biso   1.000  Hf
  Fe1      1.0000 0.09983  0.30864  0.21940  Biso   1.000  Fe
