data_image0
_cell_length_a       9.93564
_cell_length_b       5.1877
_cell_length_c       9.95495
_cell_angle_alpha    91.9692
_cell_angle_beta     89.2941
_cell_angle_gamma    90.1887

_symmetry_space_group_name_H-M    "P 1"
_symmetry_int_tables_number       1

loop_
  _symmetry_equiv_pos_as_xyz
  'x, y, z'

loop_
  _atom_site_label
  _atom_site_occupancy
  _atom_site_fract_x
  _atom_site_fract_y
  _atom_site_fract_z
  _atom_site_thermal_displace_type
  _atom_site_B_iso_or_equiv
  _atom_site_type_symbol
  Fe1      1.0000 0.11832  0.07144  0.10973  Biso   1.000  Fe
  Hf1      1.0000 0.13717  0.43633  0.37291  Biso   1.000  Hf
  Hf2      1.0000 0.38909  0.52989  0.10754  Biso   1.000  Hf
  Hf3      1.0000 0.36412  0.93802  0.37198  Biso   1.000  Hf
  Hf4      1.0000 0.03855  0.36822  0.18429  Biso   1.000  Hf
  Hf5      1.0000 0.03114  0.13364  0.45958  Biso   1.000  Hf
  Hf6      1.0000 0.46814  0.87760  0.18814  Biso   1.000  Hf
  Hf7      1.0000 0.47619  0.64588  0.46149  Biso   1.000  Hf
  Hf8      1.0000 0.21940  0.10194  0.25671  Biso   1.000  Hf
  Hf9      1.0000 0.27649  0.25347  0.50034  Biso   1.000  Hf
  Hf10     1.0000 0.22603  0.75272  0.50455  Biso   1.000  Hf
  Hf11     1.0000 0.27969  0.61028  0.26868  Biso   1.000  Hf
  Hf12     1.0000 0.13768  0.03812  0.63111  Biso   1.000  Hf
  Hf13     1.0000 0.13157  0.48404  0.88679  Biso   1.000  Hf
  Hf14     1.0000 0.36393  0.54143  0.63103  Biso   1.000  Hf
  Hf15     1.0000 0.35489  0.98445  0.88694  Biso   1.000  Hf
  Hf16     1.0000 0.03585  0.37264  0.70253  Biso   1.000  Hf
  Hf17     1.0000 0.03347  0.13493  0.94494  Biso   1.000  Hf
  Hf18     1.0000 0.45814  0.88345  0.70092  Biso   1.000  Hf
  Hf19     1.0000 0.46207  0.65889  0.92980  Biso   1.000  Hf
  Hf20     1.0000 0.27057  0.25289  0.75997  Biso   1.000  Hf
  Hf21     1.0000 0.25511  0.27230  0.01750  Biso   1.000  Hf
  Hf22     1.0000 0.22151  0.78595  0.01886  Biso   1.000  Hf
  Hf23     1.0000 0.22450  0.74851  0.76007  Biso   1.000  Hf
  Hf24     1.0000 0.63861  0.04504  0.12681  Biso   1.000  Hf
  Hf25     1.0000 0.63912  0.47026  0.37918  Biso   1.000  Hf
  Hf26     1.0000 0.87052  0.54154  0.12002  Biso   1.000  Hf
  Hf27     1.0000 0.87209  0.97071  0.37227  Biso   1.000  Hf
  Hf28     1.0000 0.54098  0.37721  0.20294  Biso   1.000  Hf
  Hf29     1.0000 0.53735  0.13147  0.43578  Biso   1.000  Hf
  Hf30     1.0000 0.98162  0.87951  0.18362  Biso   1.000  Hf
  Hf31     1.0000 0.96653  0.62649  0.43269  Biso   1.000  Hf
  Hf32     1.0000 0.77934  0.24025  0.24659  Biso   1.000  Hf
  Hf33     1.0000 0.76938  0.26513  0.49685  Biso   1.000  Hf
  Hf34     1.0000 0.73897  0.76981  0.49547  Biso   1.000  Hf
  Hf35     1.0000 0.73603  0.74142  0.24498  Biso   1.000  Hf
  Hf36     1.0000 0.62536  0.02684  0.61625  Biso   1.000  Hf
  Hf37     1.0000 0.63611  0.47228  0.86736  Biso   1.000  Hf
  Hf38     1.0000 0.87324  0.52977  0.61868  Biso   1.000  Hf
  Hf39     1.0000 0.86289  0.97321  0.86860  Biso   1.000  Hf
  Hf40     1.0000 0.53421  0.37065  0.69149  Biso   1.000  Hf
  Hf41     1.0000 0.51914  0.17762  0.96094  Biso   1.000  Hf
  Hf42     1.0000 0.96565  0.86919  0.69089  Biso   1.000  Hf
  Hf43     1.0000 0.95501  0.63742  0.93704  Biso   1.000  Hf
  Hf44     1.0000 0.76497  0.22792  0.74441  Biso   1.000  Hf
  Hf45     1.0000 0.76695  0.27436  0.99543  Biso   1.000  Hf
  Hf46     1.0000 0.72414  0.77647  0.99346  Biso   1.000  Hf
  Hf47     1.0000 0.73039  0.73017  0.74191  Biso   1.000  Hf
