data_image0
_cell_length_a       9.95502
_cell_length_b       5.17159
_cell_length_c       10.0078
_cell_angle_alpha    90.663
_cell_angle_beta     89.5664
_cell_angle_gamma    90.2612

_symmetry_space_group_name_H-M    "P 1"
_symmetry_int_tables_number       1

loop_
  _symmetry_equiv_pos_as_xyz
  'x, y, z'

loop_
  _atom_site_label
  _atom_site_occupancy
  _atom_site_fract_x
  _atom_site_fract_y
  _atom_site_fract_z
  _atom_site_thermal_displace_type
  _atom_site_B_iso_or_equiv
  _atom_site_type_symbol
  Ga1      1.0000 0.12534  0.04858  0.11076  Biso   1.000  Ga
  Hf1      1.0000 0.13497  0.45337  0.37439  Biso   1.000  Hf
  Hf2      1.0000 0.36581  0.52098  0.12409  Biso   1.000  Hf
  Hf3      1.0000 0.36206  0.95919  0.37201  Biso   1.000  Hf
  Hf4      1.0000 0.03114  0.36480  0.19526  Biso   1.000  Hf
  Hf5      1.0000 0.03468  0.12814  0.45182  Biso   1.000  Hf
  Hf6      1.0000 0.47045  0.86059  0.19547  Biso   1.000  Hf
  Hf7      1.0000 0.47028  0.63684  0.45204  Biso   1.000  Hf
  Hf8      1.0000 0.25640  0.18939  0.24192  Biso   1.000  Hf
  Hf9      1.0000 0.27353  0.26382  0.49718  Biso   1.000  Hf
  Hf10     1.0000 0.22904  0.76297  0.50434  Biso   1.000  Hf
  Hf11     1.0000 0.25036  0.68434  0.26291  Biso   1.000  Hf
  Hf12     1.0000 0.13579  0.03576  0.62829  Biso   1.000  Hf
  Hf13     1.0000 0.13296  0.47700  0.87911  Biso   1.000  Hf
  Hf14     1.0000 0.36512  0.53722  0.62766  Biso   1.000  Hf
  Hf15     1.0000 0.36108  0.97371  0.88158  Biso   1.000  Hf
  Hf16     1.0000 0.03596  0.37326  0.69646  Biso   1.000  Hf
  Hf17     1.0000 0.03269  0.13999  0.94373  Biso   1.000  Hf
  Hf18     1.0000 0.46376  0.87101  0.69906  Biso   1.000  Hf
  Hf19     1.0000 0.46129  0.63955  0.94355  Biso   1.000  Hf
  Hf20     1.0000 0.27122  0.24151  0.74989  Biso   1.000  Hf
  Hf21     1.0000 0.26727  0.27440  0.99622  Biso   1.000  Hf
  Hf22     1.0000 0.22481  0.77833  0.01193  Biso   1.000  Hf
  Hf23     1.0000 0.22865  0.74238  0.75505  Biso   1.000  Hf
  Hf24     1.0000 0.63476  0.03449  0.12541  Biso   1.000  Hf
  Hf25     1.0000 0.63635  0.46722  0.37606  Biso   1.000  Hf
  Hf26     1.0000 0.86818  0.53641  0.12160  Biso   1.000  Hf
  Hf27     1.0000 0.87047  0.96821  0.37303  Biso   1.000  Hf
  Hf28     1.0000 0.53323  0.36424  0.20029  Biso   1.000  Hf
  Hf29     1.0000 0.53539  0.13192  0.44361  Biso   1.000  Hf
  Hf30     1.0000 0.97962  0.86698  0.19431  Biso   1.000  Hf
  Hf31     1.0000 0.96532  0.62949  0.44237  Biso   1.000  Hf
  Hf32     1.0000 0.77178  0.23184  0.24738  Biso   1.000  Hf
  Hf33     1.0000 0.77063  0.26637  0.49758  Biso   1.000  Hf
  Hf34     1.0000 0.73327  0.76845  0.49702  Biso   1.000  Hf
  Hf35     1.0000 0.73522  0.73303  0.24682  Biso   1.000  Hf
  Hf36     1.0000 0.63203  0.03143  0.62307  Biso   1.000  Hf
  Hf37     1.0000 0.63214  0.47209  0.87384  Biso   1.000  Hf
  Hf38     1.0000 0.86744  0.53337  0.62379  Biso   1.000  Hf
  Hf39     1.0000 0.86474  0.97390  0.87305  Biso   1.000  Hf
  Hf40     1.0000 0.53502  0.36899  0.69424  Biso   1.000  Hf
  Hf41     1.0000 0.53225  0.14234  0.94870  Biso   1.000  Hf
  Hf42     1.0000 0.96464  0.87012  0.69419  Biso   1.000  Hf
  Hf43     1.0000 0.96079  0.63921  0.94179  Biso   1.000  Hf
  Hf44     1.0000 0.76856  0.23604  0.74723  Biso   1.000  Hf
  Hf45     1.0000 0.76830  0.27218  0.99743  Biso   1.000  Hf
  Hf46     1.0000 0.72779  0.77112  0.99680  Biso   1.000  Hf
  Hf47     1.0000 0.72874  0.73557  0.74645  Biso   1.000  Hf
