data_image0
_cell_length_a       10.0707
_cell_length_b       10.2742
_cell_length_c       10.4672
_cell_angle_alpha    89.961
_cell_angle_beta     90.9288
_cell_angle_gamma    89.8679

_symmetry_space_group_name_H-M    "P 1"
_symmetry_int_tables_number       1

loop_
  _symmetry_equiv_pos_as_xyz
  'x, y, z'

loop_
  _atom_site_label
  _atom_site_occupancy
  _atom_site_fract_x
  _atom_site_fract_y
  _atom_site_fract_z
  _atom_site_thermal_displace_type
  _atom_site_B_iso_or_equiv
  _atom_site_type_symbol
  Hf1      1.0000 0.13382  0.01745  0.17490  Biso   1.000  Hf
  Hf2      1.0000 0.13770  0.22799  0.42555  Biso   1.000  Hf
  Hf3      1.0000 0.34532  0.26711  0.18226  Biso   1.000  Hf
  Hf4      1.0000 0.36217  0.47895  0.42280  Biso   1.000  Hf
  Hf5      1.0000 0.64339  0.01695  0.07530  Biso   1.000  Hf
  Hf6      1.0000 0.63714  0.22865  0.32925  Biso   1.000  Hf
  Hf7      1.0000 0.86097  0.27175  0.07631  Biso   1.000  Hf
  Hf8      1.0000 0.86130  0.47869  0.32794  Biso   1.000  Hf
  O1       1.0000 0.03200  0.16872  0.08842  Biso   1.000  O
  O2       1.0000 0.03078  0.08359  0.33706  Biso   1.000  O
  O3       1.0000 0.46769  0.43114  0.09731  Biso   1.000  O
  O4       1.0000 0.46349  0.33248  0.33524  Biso   1.000  O
  O5       1.0000 0.27053  0.12329  0.30097  Biso   1.000  O
  O6       1.0000 0.26312  0.11216  0.05183  Biso   1.000  O
  O7       1.0000 0.21713  0.37622  0.30170  Biso   1.000  O
  O8       1.0000 0.21782  0.37861  0.05168  Biso   1.000  O
  O9       1.0000 0.52192  0.15288  0.17749  Biso   1.000  O
  O10      1.0000 0.53216  0.08528  0.42033  Biso   1.000  O
  O11      1.0000 0.96360  0.41825  0.16592  Biso   1.000  O
  O12      1.0000 0.96710  0.33381  0.41600  Biso   1.000  O
  O13      1.0000 0.77576  0.12488  0.45329  Biso   1.000  O
  O14      1.0000 0.77201  0.12678  0.20276  Biso   1.000  O
  O15      1.0000 0.72460  0.37469  0.45340  Biso   1.000  O
  O16      1.0000 0.72156  0.37503  0.20404  Biso   1.000  O
  Hf9      1.0000 0.14149  0.02115  0.67404  Biso   1.000  Hf
  Hf10     1.0000 0.14183  0.22809  0.92567  Biso   1.000  Hf
  Hf11     1.0000 0.36565  0.27119  0.67272  Biso   1.000  Hf
  Hf12     1.0000 0.35941  0.48289  0.92667  Biso   1.000  Hf
  Hf13     1.0000 0.64062  0.02089  0.57918  Biso   1.000  Hf
  Hf14     1.0000 0.65747  0.23273  0.81972  Biso   1.000  Hf
  Hf15     1.0000 0.86508  0.27185  0.57642  Biso   1.000  Hf
  Hf16     1.0000 0.86897  0.48238  0.82707  Biso   1.000  Hf
  O17      1.0000 0.03569  0.16604  0.58598  Biso   1.000  O
  O18      1.0000 0.03919  0.08159  0.83606  Biso   1.000  O
  O19      1.0000 0.47063  0.41456  0.58164  Biso   1.000  O
  O20      1.0000 0.48087  0.34698  0.82447  Biso   1.000  O
  O21      1.0000 0.28123  0.12481  0.79793  Biso   1.000  O
  O22      1.0000 0.27818  0.12515  0.54857  Biso   1.000  O
  O23      1.0000 0.23078  0.37306  0.79922  Biso   1.000  O
  O24      1.0000 0.22703  0.37496  0.54869  Biso   1.000  O
  O25      1.0000 0.53930  0.16736  0.66672  Biso   1.000  O
  O26      1.0000 0.53512  0.06870  0.90465  Biso   1.000  O
  O27      1.0000 0.97201  0.41625  0.66492  Biso   1.000  O
  O28      1.0000 0.97080  0.33112  0.91355  Biso   1.000  O
  O29      1.0000 0.78497  0.12123  0.95030  Biso   1.000  O
  O30      1.0000 0.78565  0.12362  0.70027  Biso   1.000  O
  O31      1.0000 0.73968  0.38768  0.95014  Biso   1.000  O
  O32      1.0000 0.73226  0.37654  0.70100  Biso   1.000  O
  Hf17     1.0000 0.13645  0.52217  0.17356  Biso   1.000  Hf
  Hf18     1.0000 0.13880  0.72883  0.42280  Biso   1.000  Hf
  Hf19     1.0000 0.36298  0.77138  0.17419  Biso   1.000  Hf
  Hf20     1.0000 0.36232  0.97808  0.42548  Biso   1.000  Hf
  Hf21     1.0000 0.64317  0.52506  0.07812  Biso   1.000  Hf
  Hf22     1.0000 0.63952  0.72996  0.32884  Biso   1.000  Hf
  Hf23     1.0000 0.86218  0.77013  0.07877  Biso   1.000  Hf
  Hf24     1.0000 0.86008  0.97977  0.32958  Biso   1.000  Hf
  O33      1.0000 0.03409  0.66705  0.08497  Biso   1.000  O
  O34      1.0000 0.03239  0.58445  0.33608  Biso   1.000  O
  O35      1.0000 0.46888  0.91489  0.08455  Biso   1.000  O
  O36      1.0000 0.46817  0.83511  0.33657  Biso   1.000  O
  O37      1.0000 0.27579  0.62474  0.29599  Biso   1.000  O
  O38      1.0000 0.27630  0.62513  0.04665  Biso   1.000  O
  O39      1.0000 0.22448  0.87367  0.29827  Biso   1.000  O
  O40      1.0000 0.22413  0.87061  0.04920  Biso   1.000  O
  O41      1.0000 0.53691  0.67107  0.16578  Biso   1.000  O
  O42      1.0000 0.53341  0.58482  0.41504  Biso   1.000  O
  O43      1.0000 0.96270  0.91730  0.16594  Biso   1.000  O
  O44      1.0000 0.96653  0.83356  0.41601  Biso   1.000  O
  O45      1.0000 0.77709  0.62422  0.45452  Biso   1.000  O
  O46      1.0000 0.77811  0.62697  0.20485  Biso   1.000  O
  O47      1.0000 0.72543  0.87513  0.45590  Biso   1.000  O
  O48      1.0000 0.72382  0.87579  0.20541  Biso   1.000  O
  Hf25     1.0000 0.14271  0.52007  0.67239  Biso   1.000  Hf
  Hf26     1.0000 0.14061  0.72971  0.92320  Biso   1.000  Hf
  Hf27     1.0000 0.36327  0.76988  0.67313  Biso   1.000  Hf
  Hf28     1.0000 0.35963  0.97479  0.92385  Biso   1.000  Hf
  Hf29     1.0000 0.64047  0.52176  0.57649  Biso   1.000  Hf
  Hf30     1.0000 0.63981  0.72846  0.82778  Biso   1.000  Hf
  Hf31     1.0000 0.86399  0.77101  0.57917  Biso   1.000  Hf
  Hf32     1.0000 0.86635  0.97767  0.82841  Biso   1.000  Hf
  O49      1.0000 0.03626  0.66628  0.58596  Biso   1.000  O
  O50      1.0000 0.04009  0.58254  0.83603  Biso   1.000  O
  O51      1.0000 0.46938  0.91503  0.58693  Biso   1.000  O
  O52      1.0000 0.46588  0.82877  0.83619  Biso   1.000  O
  O53      1.0000 0.27898  0.62405  0.79656  Biso   1.000  O
  O54      1.0000 0.27736  0.62472  0.54607  Biso   1.000  O
  O55      1.0000 0.22469  0.87287  0.79712  Biso   1.000  O
  O56      1.0000 0.22571  0.87562  0.54745  Biso   1.000  O
  O57      1.0000 0.53462  0.66473  0.66540  Biso   1.000  O
  O58      1.0000 0.53391  0.58496  0.91743  Biso   1.000  O
  O59      1.0000 0.97040  0.91539  0.66589  Biso   1.000  O
  O60      1.0000 0.96870  0.83279  0.91700  Biso   1.000  O
  O61      1.0000 0.77866  0.62923  0.95277  Biso   1.000  O
  O62      1.0000 0.77831  0.62616  0.70370  Biso   1.000  O
  O63      1.0000 0.72649  0.87471  0.95532  Biso   1.000  O
  O64      1.0000 0.72700  0.87510  0.70599  Biso   1.000  O
  Ge1      1.0000 0.50139  0.24993  0.00099  Biso   1.000  Ge
