data_image0
_cell_length_a       10.2915
_cell_length_b       5.15971
_cell_length_c       10.5123
_cell_angle_alpha    89.986
_cell_angle_beta     78.8522
_cell_angle_gamma    89.6039

_symmetry_space_group_name_H-M    "P 1"
_symmetry_int_tables_number       1

loop_
  _symmetry_equiv_pos_as_xyz
  'x, y, z'

loop_
  _atom_site_label
  _atom_site_occupancy
  _atom_site_fract_x
  _atom_site_fract_y
  _atom_site_fract_z
  _atom_site_thermal_displace_type
  _atom_site_B_iso_or_equiv
  _atom_site_type_symbol
  Hf1      1.0000 0.12915  0.04040  0.14316  Biso   1.000  Hf
  Hf2      1.0000 0.13704  0.45549  0.39378  Biso   1.000  Hf
  Hf3      1.0000 0.34180  0.53482  0.09760  Biso   1.000  Hf
  Hf4      1.0000 0.35098  0.95842  0.35128  Biso   1.000  Hf
  O1       1.0000 0.02808  0.33576  0.07729  Biso   1.000  O
  O2       1.0000 0.03008  0.17091  0.32974  Biso   1.000  O
  O3       1.0000 0.46315  0.86202  0.16354  Biso   1.000  O
  O4       1.0000 0.47009  0.68233  0.43322  Biso   1.000  O
  O5       1.0000 0.26055  0.23593  0.23514  Biso   1.000  O
  O6       1.0000 0.27397  0.24426  0.48734  Biso   1.000  O
  O7       1.0000 0.21444  0.76270  0.00378  Biso   1.000  O
  O8       1.0000 0.21201  0.73930  0.25443  Biso   1.000  O
  Hf5      1.0000 0.13597  0.04205  0.64586  Biso   1.000  Hf
  Hf6      1.0000 0.13056  0.45754  0.89373  Biso   1.000  Hf
  Hf7      1.0000 0.36013  0.54287  0.60559  Biso   1.000  Hf
  Hf8      1.0000 0.35743  0.95597  0.85285  Biso   1.000  Hf
  O9       1.0000 0.03367  0.33201  0.57992  Biso   1.000  O
  O10      1.0000 0.02872  0.16734  0.82850  Biso   1.000  O
  O11      1.0000 0.46480  0.82914  0.67519  Biso   1.000  O
  O12      1.0000 0.45971  0.66821  0.92280  Biso   1.000  O
  O13      1.0000 0.27037  0.25390  0.73793  Biso   1.000  O
  O14      1.0000 0.26710  0.24624  0.98600  Biso   1.000  O
  O15      1.0000 0.22341  0.75541  0.50679  Biso   1.000  O
  O16      1.0000 0.22188  0.74165  0.75735  Biso   1.000  O
  Hf9      1.0000 0.64188  0.04184  0.15309  Biso   1.000  Hf
  Hf10     1.0000 0.65106  0.46546  0.40678  Biso   1.000  Hf
  Hf11     1.0000 0.85582  0.54478  0.11059  Biso   1.000  Hf
  Hf12     1.0000 0.86372  0.95988  0.36121  Biso   1.000  Hf
  O17      1.0000 0.52277  0.31796  0.07116  Biso   1.000  O
  O18      1.0000 0.52971  0.13828  0.34084  Biso   1.000  O
  O19      1.0000 0.96278  0.82936  0.17463  Biso   1.000  O
  O20      1.0000 0.96478  0.66452  0.42708  Biso   1.000  O
  O21      1.0000 0.78085  0.26098  0.24995  Biso   1.000  O
  O22      1.0000 0.77842  0.23757  0.50059  Biso   1.000  O
  O23      1.0000 0.71889  0.75602  0.01703  Biso   1.000  O
  O24      1.0000 0.73231  0.76436  0.26923  Biso   1.000  O
  Hf13     1.0000 0.63544  0.04430  0.65152  Biso   1.000  Hf
  Hf14     1.0000 0.63273  0.45740  0.89877  Biso   1.000  Hf
  Hf15     1.0000 0.86230  0.54272  0.61064  Biso   1.000  Hf
  Hf16     1.0000 0.85689  0.95822  0.85850  Biso   1.000  Hf
  O25      1.0000 0.53315  0.33206  0.58157  Biso   1.000  O
  O26      1.0000 0.52806  0.17113  0.82917  Biso   1.000  O
  O27      1.0000 0.96414  0.83293  0.67587  Biso   1.000  O
  O28      1.0000 0.95919  0.66826  0.92445  Biso   1.000  O
  O29      1.0000 0.77098  0.25861  0.74702  Biso   1.000  O
  O30      1.0000 0.76945  0.24487  0.99758  Biso   1.000  O
  O31      1.0000 0.72576  0.75403  0.51837  Biso   1.000  O
  O32      1.0000 0.72249  0.74636  0.76644  Biso   1.000  O
  Ge1      1.0000 0.49643  0.50012  0.25219  Biso   1.000  Ge
