data_image0
_cell_length_a       10.1997
_cell_length_b       10.2946
_cell_length_c       10.4796
_cell_angle_alpha    89.9722
_cell_angle_beta     79.6174
_cell_angle_gamma    89.8237

_symmetry_space_group_name_H-M    "P 1"
_symmetry_int_tables_number       1

loop_
  _symmetry_equiv_pos_as_xyz
  'x, y, z'

loop_
  _atom_site_label
  _atom_site_occupancy
  _atom_site_fract_x
  _atom_site_fract_y
  _atom_site_fract_z
  _atom_site_thermal_displace_type
  _atom_site_B_iso_or_equiv
  _atom_site_type_symbol
  Hf1      1.0000 0.13063  0.01818  0.14447  Biso   1.000  Hf
  Hf2      1.0000 0.13867  0.22667  0.39296  Biso   1.000  Hf
  Hf3      1.0000 0.34188  0.26662  0.09751  Biso   1.000  Hf
  Hf4      1.0000 0.35575  0.48272  0.35209  Biso   1.000  Hf
  O1       1.0000 0.03165  0.16854  0.07923  Biso   1.000  O
  O2       1.0000 0.03019  0.07996  0.33234  Biso   1.000  O
  O3       1.0000 0.46147  0.43209  0.16079  Biso   1.000  O
  O4       1.0000 0.47510  0.34621  0.43151  Biso   1.000  O
  O5       1.0000 0.26080  0.11942  0.23511  Biso   1.000  O
  O6       1.0000 0.27797  0.12228  0.48707  Biso   1.000  O
  O7       1.0000 0.21501  0.38240  0.00441  Biso   1.000  O
  O8       1.0000 0.21552  0.37290  0.25613  Biso   1.000  O
  Hf5      1.0000 0.13763  0.02132  0.64561  Biso   1.000  Hf
  Hf6      1.0000 0.13298  0.22899  0.89306  Biso   1.000  Hf
  Hf7      1.0000 0.36171  0.27216  0.60464  Biso   1.000  Hf
  Hf8      1.0000 0.35981  0.47839  0.85463  Biso   1.000  Hf
  O9       1.0000 0.03760  0.16881  0.57985  Biso   1.000  O
  O10      1.0000 0.03163  0.08233  0.82876  Biso   1.000  O
  O11      1.0000 0.46558  0.41642  0.67523  Biso   1.000  O
  O12      1.0000 0.46024  0.33080  0.92230  Biso   1.000  O
  O13      1.0000 0.27363  0.12825  0.73797  Biso   1.000  O
  O14      1.0000 0.26805  0.12082  0.98543  Biso   1.000  O
  O15      1.0000 0.22597  0.37818  0.50652  Biso   1.000  O
  O16      1.0000 0.22321  0.37070  0.75737  Biso   1.000  O
  Hf9      1.0000 0.13805  0.52336  0.14470  Biso   1.000  Hf
  Hf10     1.0000 0.13777  0.72966  0.39727  Biso   1.000  Hf
  Hf11     1.0000 0.36081  0.77276  0.10439  Biso   1.000  Hf
  Hf12     1.0000 0.35820  0.97507  0.35443  Biso   1.000  Hf
  O17      1.0000 0.03347  0.66929  0.07897  Biso   1.000  O
  O18      1.0000 0.03702  0.58530  0.32837  Biso   1.000  O
  O19      1.0000 0.46462  0.91773  0.17258  Biso   1.000  O
  O20      1.0000 0.45992  0.82638  0.42128  Biso   1.000  O
  O21      1.0000 0.27653  0.62924  0.24103  Biso   1.000  O
  O22      1.0000 0.27369  0.62104  0.49109  Biso   1.000  O
  O23      1.0000 0.22312  0.87847  0.00918  Biso   1.000  O
  O24      1.0000 0.22147  0.86822  0.25902  Biso   1.000  O
  Hf13     1.0000 0.13801  0.52117  0.64661  Biso   1.000  Hf
  Hf14     1.0000 0.13713  0.72839  0.89645  Biso   1.000  Hf
  Hf15     1.0000 0.36032  0.77091  0.60496  Biso   1.000  Hf
  Hf16     1.0000 0.35958  0.97816  0.85279  Biso   1.000  Hf
  O25      1.0000 0.03292  0.66683  0.58093  Biso   1.000  O
  O26      1.0000 0.03368  0.58177  0.83038  Biso   1.000  O
  O27      1.0000 0.46406  0.91727  0.67028  Biso   1.000  O
  O28      1.0000 0.46448  0.83373  0.92095  Biso   1.000  O
  O29      1.0000 0.27425  0.62795  0.74057  Biso   1.000  O
  O30      1.0000 0.27612  0.62290  0.99080  Biso   1.000  O
  O31      1.0000 0.22183  0.87895  0.51043  Biso   1.000  O
  O32      1.0000 0.22275  0.87105  0.75989  Biso   1.000  O
  Hf17     1.0000 0.64139  0.01728  0.15049  Biso   1.000  Hf
  Hf18     1.0000 0.65526  0.23338  0.40507  Biso   1.000  Hf
  Hf19     1.0000 0.85847  0.27333  0.10961  Biso   1.000  Hf
  Hf20     1.0000 0.86651  0.48182  0.35811  Biso   1.000  Hf
  O33      1.0000 0.52204  0.15380  0.07107  Biso   1.000  O
  O34      1.0000 0.53567  0.06790  0.34179  Biso   1.000  O
  O35      1.0000 0.96695  0.42004  0.17024  Biso   1.000  O
  O36      1.0000 0.96549  0.33146  0.42335  Biso   1.000  O
  O37      1.0000 0.78162  0.12710  0.24645  Biso   1.000  O
  O38      1.0000 0.78213  0.11760  0.49817  Biso   1.000  O
  O39      1.0000 0.71916  0.37772  0.01550  Biso   1.000  O
  O40      1.0000 0.73634  0.38059  0.26747  Biso   1.000  O
  Hf21     1.0000 0.63733  0.02161  0.64794  Biso   1.000  Hf
  Hf22     1.0000 0.63543  0.22784  0.89793  Biso   1.000  Hf
  Hf23     1.0000 0.86417  0.27100  0.60952  Biso   1.000  Hf
  Hf24     1.0000 0.85951  0.47868  0.85697  Biso   1.000  Hf
  O41      1.0000 0.53690  0.16919  0.58027  Biso   1.000  O
  O42      1.0000 0.53156  0.08357  0.82735  Biso   1.000  O
  O43      1.0000 0.96551  0.41767  0.67381  Biso   1.000  O
  O44      1.0000 0.95954  0.33119  0.92273  Biso   1.000  O
  O45      1.0000 0.77393  0.12930  0.74520  Biso   1.000  O
  O46      1.0000 0.77117  0.12181  0.99605  Biso   1.000  O
  O47      1.0000 0.72909  0.37918  0.51715  Biso   1.000  O
  O48      1.0000 0.72351  0.37175  0.76461  Biso   1.000  O
  Hf25     1.0000 0.63894  0.52493  0.14814  Biso   1.000  Hf
  Hf26     1.0000 0.63633  0.72724  0.39819  Biso   1.000  Hf
  Hf27     1.0000 0.85937  0.77034  0.10530  Biso   1.000  Hf
  Hf28     1.0000 0.85909  0.97664  0.35788  Biso   1.000  Hf
  O49      1.0000 0.53722  0.67362  0.08129  Biso   1.000  O
  O50      1.0000 0.53252  0.58228  0.32999  Biso   1.000  O
  O51      1.0000 0.96012  0.91470  0.17421  Biso   1.000  O
  O52      1.0000 0.96367  0.83070  0.42360  Biso   1.000  O
  O53      1.0000 0.77567  0.63178  0.24356  Biso   1.000  O
  O54      1.0000 0.77402  0.62153  0.49339  Biso   1.000  O
  O55      1.0000 0.72345  0.87896  0.01148  Biso   1.000  O
  O56      1.0000 0.72061  0.87076  0.26155  Biso   1.000  O
  Hf29     1.0000 0.63756  0.52183  0.64979  Biso   1.000  Hf
  Hf30     1.0000 0.63682  0.72909  0.89761  Biso   1.000  Hf
  Hf31     1.0000 0.86001  0.77161  0.60612  Biso   1.000  Hf
  Hf32     1.0000 0.85913  0.97882  0.85596  Biso   1.000  Hf
  O57      1.0000 0.53266  0.66627  0.58163  Biso   1.000  O
  O58      1.0000 0.53308  0.58273  0.83230  Biso   1.000  O
  O59      1.0000 0.96346  0.91823  0.67219  Biso   1.000  O
  O60      1.0000 0.96422  0.83317  0.92164  Biso   1.000  O
  O61      1.0000 0.77439  0.62895  0.74269  Biso   1.000  O
  O62      1.0000 0.77532  0.62105  0.99215  Biso   1.000  O
  O63      1.0000 0.72102  0.87710  0.51177  Biso   1.000  O
  O64      1.0000 0.72289  0.87205  0.76200  Biso   1.000  O
  Ge1      1.0000 0.49857  0.25000  0.25129  Biso   1.000  Ge
