data_image0
_cell_length_a       10.0032
_cell_length_b       10.1832
_cell_length_c       10.0032
_cell_angle_alpha    90.0022
_cell_angle_beta     89.9997
_cell_angle_gamma    89.9979

_symmetry_space_group_name_H-M    "P 1"
_symmetry_int_tables_number       1

loop_
  _symmetry_equiv_pos_as_xyz
  'x, y, z'

loop_
  _atom_site_label
  _atom_site_occupancy
  _atom_site_fract_x
  _atom_site_fract_y
  _atom_site_fract_z
  _atom_site_thermal_displace_type
  _atom_site_B_iso_or_equiv
  _atom_site_type_symbol
  Ge1      1.0000 0.12505  0.00014  0.12506  Biso   1.000  Ge
  Hf1      1.0000 0.12839  0.25221  0.37514  Biso   1.000  Hf
  Hf2      1.0000 0.37511  0.25221  0.12841  Biso   1.000  Hf
  Hf3      1.0000 0.37349  0.00336  0.37351  Biso   1.000  Hf
  Hf4      1.0000 0.97892  0.15611  0.97894  Biso   1.000  Hf
  Hf5      1.0000 0.01779  0.09383  0.23232  Biso   1.000  Hf
  Hf6      1.0000 0.00025  0.34829  0.24986  Biso   1.000  Hf
  Hf7      1.0000 0.00021  0.40134  0.00025  Biso   1.000  Hf
  Hf8      1.0000 0.27116  0.15611  0.27118  Biso   1.000  Hf
  Hf9      1.0000 0.23230  0.09383  0.01781  Biso   1.000  Hf
  Hf10     1.0000 0.24982  0.34829  0.00029  Biso   1.000  Hf
  Hf11     1.0000 0.24986  0.40134  0.24990  Biso   1.000  Hf
  Hf12     1.0000 0.12504  0.00014  0.62505  Biso   1.000  Hf
  Hf13     1.0000 0.12169  0.25221  0.87500  Biso   1.000  Hf
  Hf14     1.0000 0.37437  0.24812  0.62745  Biso   1.000  Hf
  Hf15     1.0000 0.37349  0.99692  0.87662  Biso   1.000  Hf
  Hf16     1.0000 0.99210  0.14584  0.48347  Biso   1.000  Hf
  Hf17     1.0000 0.00198  0.10529  0.73887  Biso   1.000  Hf
  Hf18     1.0000 0.99732  0.35468  0.74987  Biso   1.000  Hf
  Hf19     1.0000 0.00223  0.39584  0.50016  Biso   1.000  Hf
  Hf20     1.0000 0.25798  0.14585  0.76666  Biso   1.000  Hf
  Hf21     1.0000 0.24809  0.10530  0.51125  Biso   1.000  Hf
  Hf22     1.0000 0.25277  0.35468  0.50027  Biso   1.000  Hf
  Hf23     1.0000 0.24786  0.39585  0.74998  Biso   1.000  Hf
  Hf24     1.0000 0.12504  0.50015  0.12506  Biso   1.000  Hf
  Hf25     1.0000 0.12168  0.74807  0.37515  Biso   1.000  Hf
  Hf26     1.0000 0.37511  0.74807  0.12172  Biso   1.000  Hf
  Hf27     1.0000 0.37704  0.50113  0.37706  Biso   1.000  Hf
  Hf28     1.0000 0.00025  0.65200  0.00028  Biso   1.000  Hf
  Hf29     1.0000 0.00020  0.59894  0.24989  Biso   1.000  Hf
  Hf30     1.0000 0.97894  0.84418  0.27116  Biso   1.000  Hf
  Hf31     1.0000 0.01779  0.90646  0.01779  Biso   1.000  Hf
  Hf32     1.0000 0.24981  0.65200  0.24984  Biso   1.000  Hf
  Hf33     1.0000 0.24986  0.59895  0.00023  Biso   1.000  Hf
  Hf34     1.0000 0.27116  0.84418  0.97895  Biso   1.000  Hf
  Hf35     1.0000 0.23232  0.90646  0.23232  Biso   1.000  Hf
  Hf36     1.0000 0.12505  0.50014  0.62507  Biso   1.000  Hf
  Hf37     1.0000 0.12838  0.74807  0.87500  Biso   1.000  Hf
  Hf38     1.0000 0.37437  0.75216  0.62269  Biso   1.000  Hf
  Hf39     1.0000 0.37704  0.49916  0.87307  Biso   1.000  Hf
  Hf40     1.0000 0.99731  0.64560  0.50026  Biso   1.000  Hf
  Hf41     1.0000 0.00223  0.60443  0.74998  Biso   1.000  Hf
  Hf42     1.0000 0.99210  0.85443  0.76665  Biso   1.000  Hf
  Hf43     1.0000 0.00199  0.89498  0.51124  Biso   1.000  Hf
  Hf44     1.0000 0.25277  0.64560  0.74986  Biso   1.000  Hf
  Hf45     1.0000 0.24785  0.60444  0.50015  Biso   1.000  Hf
  Hf46     1.0000 0.25798  0.85444  0.48347  Biso   1.000  Hf
  Hf47     1.0000 0.24809  0.89499  0.73888  Biso   1.000  Hf
  Hf48     1.0000 0.62505  0.00014  0.12506  Biso   1.000  Hf
  Hf49     1.0000 0.62742  0.24812  0.37440  Biso   1.000  Hf
  Hf50     1.0000 0.87497  0.25222  0.12172  Biso   1.000  Hf
  Hf51     1.0000 0.87660  0.99692  0.37351  Biso   1.000  Hf
  Hf52     1.0000 0.48345  0.14584  0.99212  Biso   1.000  Hf
  Hf53     1.0000 0.51123  0.10529  0.24812  Biso   1.000  Hf
  Hf54     1.0000 0.50024  0.35467  0.25278  Biso   1.000  Hf
  Hf55     1.0000 0.50012  0.39584  0.00225  Biso   1.000  Hf
  Hf56     1.0000 0.76664  0.14584  0.25800  Biso   1.000  Hf
  Hf57     1.0000 0.73885  0.10530  0.00201  Biso   1.000  Hf
  Hf58     1.0000 0.74984  0.35468  0.99733  Biso   1.000  Hf
  Hf59     1.0000 0.74995  0.39584  0.24787  Biso   1.000  Hf
  Hf60     1.0000 0.62505  0.00014  0.62506  Biso   1.000  Hf
  Hf61     1.0000 0.62265  0.24812  0.87574  Biso   1.000  Hf
  Hf62     1.0000 0.87571  0.24813  0.62269  Biso   1.000  Hf
  Hf63     1.0000 0.87660  0.00336  0.87661  Biso   1.000  Hf
  Hf64     1.0000 0.49373  0.14703  0.49376  Biso   1.000  Hf
  Hf65     1.0000 0.50340  0.10340  0.74670  Biso   1.000  Hf
  Hf66     1.0000 0.49721  0.35365  0.75290  Biso   1.000  Hf
  Hf67     1.0000 0.50196  0.39593  0.50197  Biso   1.000  Hf
  Hf68     1.0000 0.75634  0.14703  0.75637  Biso   1.000  Hf
  Hf69     1.0000 0.74667  0.10340  0.50343  Biso   1.000  Hf
  Hf70     1.0000 0.75289  0.35364  0.49722  Biso   1.000  Hf
  Hf71     1.0000 0.74813  0.39593  0.74814  Biso   1.000  Hf
  Hf72     1.0000 0.62504  0.50014  0.12506  Biso   1.000  Hf
  Hf73     1.0000 0.62266  0.75215  0.37441  Biso   1.000  Hf
  Hf74     1.0000 0.87496  0.74806  0.12842  Biso   1.000  Hf
  Hf75     1.0000 0.87305  0.49914  0.37705  Biso   1.000  Hf
  Hf76     1.0000 0.50023  0.64560  0.99733  Biso   1.000  Hf
  Hf77     1.0000 0.50012  0.60443  0.24788  Biso   1.000  Hf
  Hf78     1.0000 0.48345  0.85443  0.25802  Biso   1.000  Hf
  Hf79     1.0000 0.51123  0.89499  0.00202  Biso   1.000  Hf
  Hf80     1.0000 0.74983  0.64560  0.25279  Biso   1.000  Hf
  Hf81     1.0000 0.74995  0.60444  0.00225  Biso   1.000  Hf
  Hf82     1.0000 0.76664  0.85444  0.99212  Biso   1.000  Hf
  Hf83     1.0000 0.73886  0.89498  0.24812  Biso   1.000  Hf
  Hf84     1.0000 0.62504  0.50014  0.62506  Biso   1.000  Hf
  Hf85     1.0000 0.62742  0.75215  0.87574  Biso   1.000  Hf
  Hf86     1.0000 0.87570  0.75215  0.62745  Biso   1.000  Hf
  Hf87     1.0000 0.87305  0.50113  0.87307  Biso   1.000  Hf
  Hf88     1.0000 0.49720  0.64663  0.49722  Biso   1.000  Hf
  Hf89     1.0000 0.50196  0.60435  0.74814  Biso   1.000  Hf
  Hf90     1.0000 0.49373  0.85325  0.75638  Biso   1.000  Hf
  Hf91     1.0000 0.50341  0.89688  0.50344  Biso   1.000  Hf
  Hf92     1.0000 0.75288  0.64663  0.75291  Biso   1.000  Hf
  Hf93     1.0000 0.74812  0.60434  0.50198  Biso   1.000  Hf
  Hf94     1.0000 0.75635  0.85325  0.49376  Biso   1.000  Hf
  Hf95     1.0000 0.74667  0.89687  0.74670  Biso   1.000  Hf
