data_image0
_cell_length_a       5.00768
_cell_length_b       10.2071
_cell_length_c       10.0187
_cell_angle_alpha    89.9999
_cell_angle_beta     90.0002
_cell_angle_gamma    89.9997

_symmetry_space_group_name_H-M    "P 1"
_symmetry_int_tables_number       1

loop_
  _symmetry_equiv_pos_as_xyz
  'x, y, z'

loop_
  _atom_site_label
  _atom_site_occupancy
  _atom_site_fract_x
  _atom_site_fract_y
  _atom_site_fract_z
  _atom_site_thermal_displace_type
  _atom_site_B_iso_or_equiv
  _atom_site_type_symbol
  Hf1      1.0000 0.24981  0.99802  0.12491  Biso   1.000  Hf
  Hf2      1.0000 0.24981  0.25005  0.37050  Biso   1.000  Hf
  Hf3      1.0000 0.74981  0.25005  0.12491  Biso   1.000  Hf
  Hf4      1.0000 0.75218  0.99873  0.37659  Biso   1.000  Hf
  Hf5      1.0000 0.98069  0.14531  0.99137  Biso   1.000  Hf
  Hf6      1.0000 0.00615  0.10214  0.24770  Biso   1.000  Hf
  Hf7      1.0000 0.98070  0.35479  0.25845  Biso   1.000  Hf
  Hf8      1.0000 0.00615  0.39797  0.00212  Biso   1.000  Hf
  Hf9      1.0000 0.51893  0.14531  0.25845  Biso   1.000  Hf
  Hf10     1.0000 0.49347  0.10213  0.00212  Biso   1.000  Hf
  Hf11     1.0000 0.51894  0.35479  0.99137  Biso   1.000  Hf
  Hf12     1.0000 0.49348  0.39797  0.24770  Biso   1.000  Hf
  Hf13     1.0000 0.24982  0.00307  0.62491  Biso   1.000  Hf
  Hf14     1.0000 0.24981  0.25005  0.87933  Biso   1.000  Hf
  Hf15     1.0000 0.74981  0.25005  0.62491  Biso   1.000  Hf
  Hf16     1.0000 0.74745  0.99873  0.87323  Biso   1.000  Hf
  Hf17     1.0000 0.00192  0.14836  0.49629  Biso   1.000  Hf
  Hf18     1.0000 0.99300  0.10192  0.74503  Biso   1.000  Hf
  Hf19     1.0000 0.00193  0.35175  0.75353  Biso   1.000  Hf
  Hf20     1.0000 0.99301  0.39819  0.50479  Biso   1.000  Hf
  Hf21     1.0000 0.49770  0.14836  0.75353  Biso   1.000  Hf
  Hf22     1.0000 0.50663  0.10192  0.50479  Biso   1.000  Hf
  Hf23     1.0000 0.49771  0.35175  0.49629  Biso   1.000  Hf
  Hf24     1.0000 0.50663  0.39819  0.74503  Biso   1.000  Hf
  Hf25     1.0000 0.24982  0.50209  0.12491  Biso   1.000  Hf
  Hf26     1.0000 0.24982  0.75005  0.37594  Biso   1.000  Hf
  Hf27     1.0000 0.74982  0.75005  0.12491  Biso   1.000  Hf
  Hf28     1.0000 0.74746  0.50138  0.37659  Biso   1.000  Hf
  Hf29     1.0000 0.99681  0.64796  0.99723  Biso   1.000  Hf
  Hf30     1.0000 0.00009  0.60261  0.24777  Biso   1.000  Hf
  Hf31     1.0000 0.99680  0.85215  0.25259  Biso   1.000  Hf
  Hf32     1.0000 0.00009  0.89750  0.00205  Biso   1.000  Hf
  Hf33     1.0000 0.50283  0.64796  0.25259  Biso   1.000  Hf
  Hf34     1.0000 0.49955  0.60261  0.00204  Biso   1.000  Hf
  Hf35     1.0000 0.50283  0.85215  0.99723  Biso   1.000  Hf
  Hf36     1.0000 0.49954  0.89750  0.24777  Biso   1.000  Hf
  Hf37     1.0000 0.24982  0.49704  0.62491  Biso   1.000  Hf
  Hf38     1.0000 0.24982  0.75005  0.87387  Biso   1.000  Hf
  Hf39     1.0000 0.74982  0.75006  0.62491  Biso   1.000  Hf
  Hf40     1.0000 0.75218  0.50138  0.87322  Biso   1.000  Hf
  Hf41     1.0000 0.99015  0.64763  0.49569  Biso   1.000  Hf
  Hf42     1.0000 0.00740  0.60323  0.74748  Biso   1.000  Hf
  Hf43     1.0000 0.99014  0.85248  0.75413  Biso   1.000  Hf
  Hf44     1.0000 0.00740  0.89687  0.50234  Biso   1.000  Hf
  Hf45     1.0000 0.50949  0.64763  0.75413  Biso   1.000  Hf
  Hf46     1.0000 0.49224  0.60323  0.50234  Biso   1.000  Hf
  Hf47     1.0000 0.50949  0.85248  0.49569  Biso   1.000  Hf
  Hf48     1.0000 0.49223  0.89687  0.74748  Biso   1.000  Hf
  H1       1.0000 0.24982  0.25005  0.12490  Biso   1.000  H 
