data_image0
_cell_length_a       5.10519
_cell_length_b       10.2665
_cell_length_c       10.1116
_cell_angle_alpha    87.9806
_cell_angle_beta     91.4875
_cell_angle_gamma    91.8035

_symmetry_space_group_name_H-M    "P 1"
_symmetry_int_tables_number       1

loop_
  _symmetry_equiv_pos_as_xyz
  'x, y, z'

loop_
  _atom_site_label
  _atom_site_occupancy
  _atom_site_fract_x
  _atom_site_fract_y
  _atom_site_fract_z
  _atom_site_thermal_displace_type
  _atom_site_B_iso_or_equiv
  _atom_site_type_symbol
  Hf1      1.0000 0.26492  0.98246  0.09248  Biso   1.000  Hf
  Hf2      1.0000 0.24979  0.23007  0.39237  Biso   1.000  Hf
  Hf3      1.0000 0.69019  0.26049  0.12164  Biso   1.000  Hf
  Hf4      1.0000 0.74089  0.48113  0.36473  Biso   1.000  Hf
  Hf5      1.0000 0.92220  0.17149  0.26656  Biso   1.000  Hf
  Hf6      1.0000 0.06120  0.06596  0.47454  Biso   1.000  Hf
  Hf7      1.0000 0.94455  0.42112  0.20344  Biso   1.000  Hf
  Hf8      1.0000 0.97020  0.33399  0.47992  Biso   1.000  Hf
  Hf9      1.0000 0.43141  0.11429  0.24199  Biso   1.000  Hf
  Hf10     1.0000 0.55515  0.13213  0.49753  Biso   1.000  Hf
  Hf11     1.0000 0.48557  0.38196  0.49604  Biso   1.000  Hf
  Hf12     1.0000 0.44661  0.36934  0.24614  Biso   1.000  Hf
  Hf13     1.0000 0.30113  0.00180  0.62082  Biso   1.000  Hf
  Hf14     1.0000 0.22639  0.24863  0.84993  Biso   1.000  Hf
  Hf15     1.0000 0.73182  0.26227  0.62833  Biso   1.000  Hf
  Hf16     1.0000 0.72970  0.48910  0.87724  Biso   1.000  Hf
  Hf17     1.0000 0.00514  0.13962  0.71858  Biso   1.000  Hf
  Hf18     1.0000 0.97270  0.10524  0.99225  Biso   1.000  Hf
  Hf19     1.0000 0.98703  0.40396  0.72681  Biso   1.000  Hf
  Hf20     1.0000 0.92628  0.33684  0.96348  Biso   1.000  Hf
  Hf21     1.0000 0.51145  0.11418  0.75248  Biso   1.000  Hf
  Hf22     1.0000 0.44704  0.14751  0.99707  Biso   1.000  Hf
  Hf23     1.0000 0.43794  0.39194  0.99342  Biso   1.000  Hf
  Hf24     1.0000 0.49132  0.36592  0.74342  Biso   1.000  Hf
  Hf25     1.0000 0.26773  0.53149  0.11740  Biso   1.000  Hf
  Hf26     1.0000 0.27084  0.74089  0.36900  Biso   1.000  Hf
  Hf27     1.0000 0.74813  0.77002  0.11890  Biso   1.000  Hf
  Hf28     1.0000 0.74926  0.00025  0.35612  Biso   1.000  Hf
  Hf29     1.0000 0.06923  0.68172  0.19882  Biso   1.000  Hf
  Hf30     1.0000 0.06200  0.57471  0.44448  Biso   1.000  Hf
  Hf31     1.0000 0.95248  0.92812  0.20591  Biso   1.000  Hf
  Hf32     1.0000 0.95215  0.82555  0.44649  Biso   1.000  Hf
  Hf33     1.0000 0.55371  0.61959  0.24005  Biso   1.000  Hf
  Hf34     1.0000 0.53794  0.63200  0.48760  Biso   1.000  Hf
  Hf35     1.0000 0.47980  0.88494  0.48620  Biso   1.000  Hf
  Hf36     1.0000 0.48217  0.86332  0.23413  Biso   1.000  Hf
  Hf37     1.0000 0.26621  0.50545  0.61323  Biso   1.000  Hf
  Hf38     1.0000 0.27205  0.74254  0.85071  Biso   1.000  Hf
  Hf39     1.0000 0.75431  0.75550  0.60808  Biso   1.000  Hf
  Hf40     1.0000 0.80123  0.99251  0.85261  Biso   1.000  Hf
  Hf41     1.0000 0.07029  0.66112  0.68834  Biso   1.000  Hf
  Hf42     1.0000 0.05799  0.58966  0.94472  Biso   1.000  Hf
  Hf43     1.0000 0.02868  0.89203  0.72490  Biso   1.000  Hf
  Hf44     1.0000 0.02363  0.84508  0.97148  Biso   1.000  Hf
  Hf45     1.0000 0.53940  0.61010  0.73562  Biso   1.000  Hf
  Hf46     1.0000 0.54554  0.64437  0.98468  Biso   1.000  Hf
  Hf47     1.0000 0.52979  0.89362  0.97623  Biso   1.000  Hf
  Hf48     1.0000 0.53637  0.86162  0.73229  Biso   1.000  Hf
  Hf49     1.0000 0.18900  0.25356  0.11752  Biso   1.000  Hf
