data_image0
_cell_length_a       10.0358
_cell_length_b       10.3777
_cell_length_c       10.0742
_cell_angle_alpha    89.9513
_cell_angle_beta     90.1885
_cell_angle_gamma    89.7265

_symmetry_space_group_name_H-M    "P 1"
_symmetry_int_tables_number       1

loop_
  _symmetry_equiv_pos_as_xyz
  'x, y, z'

loop_
  _atom_site_label
  _atom_site_occupancy
  _atom_site_fract_x
  _atom_site_fract_y
  _atom_site_fract_z
  _atom_site_thermal_displace_type
  _atom_site_B_iso_or_equiv
  _atom_site_type_symbol
  Hf1      1.0000 0.12662  0.99870  0.12265  Biso   1.000  Hf
  Hf2      1.0000 0.12814  0.23038  0.38610  Biso   1.000  Hf
  Hf3      1.0000 0.38268  0.27198  0.11566  Biso   1.000  Hf
  Hf4      1.0000 0.36675  0.48509  0.37262  Biso   1.000  Hf
  Hf5      1.0000 0.99035  0.15307  0.24031  Biso   1.000  Hf
  Hf6      1.0000 0.03476  0.06385  0.46115  Biso   1.000  Hf
  Hf7      1.0000 0.47048  0.43653  0.19566  Biso   1.000  Hf
  Hf8      1.0000 0.46702  0.31986  0.44520  Biso   1.000  Hf
  Hf9      1.0000 0.24757  0.12155  0.24232  Biso   1.000  Hf
  Hf10     1.0000 0.27349  0.13185  0.49730  Biso   1.000  Hf
  Hf11     1.0000 0.23222  0.38514  0.49610  Biso   1.000  Hf
  Hf12     1.0000 0.23674  0.36973  0.24433  Biso   1.000  Hf
  Hf13     1.0000 0.13551  0.01070  0.62701  Biso   1.000  Hf
  Hf14     1.0000 0.13733  0.23866  0.85117  Biso   1.000  Hf
  Hf15     1.0000 0.37248  0.26746  0.61899  Biso   1.000  Hf
  Hf16     1.0000 0.36956  0.48761  0.87031  Biso   1.000  Hf
  Hf17     1.0000 0.02977  0.17518  0.69334  Biso   1.000  Hf
  Hf18     1.0000 0.02730  0.07792  0.95814  Biso   1.000  Hf
  Hf19     1.0000 0.47026  0.43450  0.69316  Biso   1.000  Hf
  Hf20     1.0000 0.47140  0.32239  0.93969  Biso   1.000  Hf
  Hf21     1.0000 0.27120  0.11659  0.74402  Biso   1.000  Hf
  Hf22     1.0000 0.26275  0.14115  0.99469  Biso   1.000  Hf
  Hf23     1.0000 0.23476  0.38884  0.99137  Biso   1.000  Hf
  Hf24     1.0000 0.23951  0.37015  0.74061  Biso   1.000  Hf
  Hf25     1.0000 0.13829  0.52537  0.12272  Biso   1.000  Hf
  Hf26     1.0000 0.13330  0.73393  0.37626  Biso   1.000  Hf
  Hf27     1.0000 0.36884  0.76584  0.12379  Biso   1.000  Hf
  Hf28     1.0000 0.36296  0.98779  0.37123  Biso   1.000  Hf
  Hf29     1.0000 0.03030  0.67757  0.20311  Biso   1.000  Hf
  Hf30     1.0000 0.03419  0.56827  0.44803  Biso   1.000  Hf
  Hf31     1.0000 0.45912  0.93546  0.19387  Biso   1.000  Hf
  Hf32     1.0000 0.46705  0.82189  0.44474  Biso   1.000  Hf
  Hf33     1.0000 0.27458  0.62076  0.24760  Biso   1.000  Hf
  Hf34     1.0000 0.27021  0.63428  0.49755  Biso   1.000  Hf
  Hf35     1.0000 0.23313  0.88409  0.49735  Biso   1.000  Hf
  Hf36     1.0000 0.23204  0.86313  0.24937  Biso   1.000  Hf
  Hf37     1.0000 0.13450  0.51659  0.62299  Biso   1.000  Hf
  Hf38     1.0000 0.13323  0.73492  0.87166  Biso   1.000  Hf
  Hf39     1.0000 0.36935  0.76755  0.62232  Biso   1.000  Hf
  Hf40     1.0000 0.36615  0.98608  0.87521  Biso   1.000  Hf
  Hf41     1.0000 0.03520  0.68158  0.69517  Biso   1.000  Hf
  Hf42     1.0000 0.03389  0.57197  0.94759  Biso   1.000  Hf
  Hf43     1.0000 0.46774  0.93398  0.69781  Biso   1.000  Hf
  Hf44     1.0000 0.46995  0.82144  0.94699  Biso   1.000  Hf
  Hf45     1.0000 0.27053  0.61770  0.74545  Biso   1.000  Hf
  Hf46     1.0000 0.27155  0.63765  0.99470  Biso   1.000  Hf
  Hf47     1.0000 0.23344  0.88301  0.99567  Biso   1.000  Hf
  Hf48     1.0000 0.23515  0.86524  0.74813  Biso   1.000  Hf
  Hf49     1.0000 0.62841  0.01014  0.12308  Biso   1.000  Hf
  Hf50     1.0000 0.63158  0.23120  0.37710  Biso   1.000  Hf
  Hf51     1.0000 0.84647  0.25924  0.12856  Biso   1.000  Hf
  Hf52     1.0000 0.86914  0.48065  0.37478  Biso   1.000  Hf
  Hf53     1.0000 0.53010  0.17742  0.20284  Biso   1.000  Hf
  Hf54     1.0000 0.53142  0.06779  0.44876  Biso   1.000  Hf
  Hf55     1.0000 0.97540  0.41440  0.20192  Biso   1.000  Hf
  Hf56     1.0000 0.96685  0.32247  0.45880  Biso   1.000  Hf
  Hf57     1.0000 0.75168  0.10886  0.24977  Biso   1.000  Hf
  Hf58     1.0000 0.77015  0.13600  0.49800  Biso   1.000  Hf
  Hf59     1.0000 0.73179  0.38486  0.50016  Biso   1.000  Hf
  Hf60     1.0000 0.72727  0.36791  0.25299  Biso   1.000  Hf
  Hf61     1.0000 0.63500  0.01414  0.62288  Biso   1.000  Hf
  Hf62     1.0000 0.63559  0.23292  0.87121  Biso   1.000  Hf
  Hf63     1.0000 0.86390  0.26642  0.62641  Biso   1.000  Hf
  Hf64     1.0000 0.86884  0.48183  0.87821  Biso   1.000  Hf
  Hf65     1.0000 0.53815  0.18383  0.69384  Biso   1.000  Hf
  Hf66     1.0000 0.52927  0.07303  0.94796  Biso   1.000  Hf
  Hf67     1.0000 0.97443  0.42695  0.70696  Biso   1.000  Hf
  Hf68     1.0000 0.96908  0.31837  0.95555  Biso   1.000  Hf
  Hf69     1.0000 0.77044  0.11474  0.74845  Biso   1.000  Hf
  Hf70     1.0000 0.76436  0.12921  0.99769  Biso   1.000  Hf
  Hf71     1.0000 0.72759  0.38229  0.99925  Biso   1.000  Hf
  Hf72     1.0000 0.73382  0.36770  0.75031  Biso   1.000  Hf
  Hf73     1.0000 0.63494  0.51876  0.12426  Biso   1.000  Hf
  Hf74     1.0000 0.63476  0.73586  0.37561  Biso   1.000  Hf
  Hf75     1.0000 0.86348  0.76143  0.12650  Biso   1.000  Hf
  Hf76     1.0000 0.87389  0.99082  0.36886  Biso   1.000  Hf
  Hf77     1.0000 0.53790  0.68587  0.19476  Biso   1.000  Hf
  Hf78     1.0000 0.53439  0.56990  0.44532  Biso   1.000  Hf
  Hf79     1.0000 0.96262  0.91927  0.19973  Biso   1.000  Hf
  Hf80     1.0000 0.96855  0.82042  0.44926  Biso   1.000  Hf
  Hf81     1.0000 0.77146  0.61355  0.24790  Biso   1.000  Hf
  Hf82     1.0000 0.77087  0.63479  0.49745  Biso   1.000  Hf
  Hf83     1.0000 0.73470  0.88694  0.49588  Biso   1.000  Hf
  Hf84     1.0000 0.72792  0.86335  0.24624  Biso   1.000  Hf
  Hf85     1.0000 0.63647  0.51832  0.62347  Biso   1.000  Hf
  Hf86     1.0000 0.63541  0.73467  0.87300  Biso   1.000  Hf
  Hf87     1.0000 0.86765  0.76749  0.62315  Biso   1.000  Hf
  Hf88     1.0000 0.86863  0.98363  0.87740  Biso   1.000  Hf
  Hf89     1.0000 0.53699  0.68477  0.69484  Biso   1.000  Hf
  Hf90     1.0000 0.53523  0.57081  0.94551  Biso   1.000  Hf
  Hf91     1.0000 0.97175  0.92762  0.70634  Biso   1.000  Hf
  Hf92     1.0000 0.97170  0.82132  0.95411  Biso   1.000  Hf
  Hf93     1.0000 0.77282  0.61584  0.74792  Biso   1.000  Hf
  Hf94     1.0000 0.77057  0.63192  0.99662  Biso   1.000  Hf
  Hf95     1.0000 0.73220  0.88165  0.99686  Biso   1.000  Hf
  Hf96     1.0000 0.73293  0.86648  0.74711  Biso   1.000  Hf
  Hf97     1.0000 0.11469  0.25939  0.11267  Biso   1.000  Hf
