data_image0
_cell_length_a       10.0086
_cell_length_b       10.4014
_cell_length_c       10.0854
_cell_angle_alpha    89.5677
_cell_angle_beta     90.4972
_cell_angle_gamma    90.4983

_symmetry_space_group_name_H-M    "P 1"
_symmetry_int_tables_number       1

loop_
  _symmetry_equiv_pos_as_xyz
  'x, y, z'

loop_
  _atom_site_label
  _atom_site_occupancy
  _atom_site_fract_x
  _atom_site_fract_y
  _atom_site_fract_z
  _atom_site_thermal_displace_type
  _atom_site_B_iso_or_equiv
  _atom_site_type_symbol
  Hf1      1.0000 0.14521  0.99997  0.10924  Biso   1.000  Hf
  Hf2      1.0000 0.12855  0.23138  0.39755  Biso   1.000  Hf
  Hf3      1.0000 0.36815  0.26776  0.12254  Biso   1.000  Hf
  Hf4      1.0000 0.36771  0.48443  0.37548  Biso   1.000  Hf
  Hf5      1.0000 0.95732  0.18167  0.28465  Biso   1.000  Hf
  Hf6      1.0000 0.04892  0.05367  0.45498  Biso   1.000  Hf
  Hf7      1.0000 0.46079  0.43659  0.19387  Biso   1.000  Hf
  Hf8      1.0000 0.46347  0.31855  0.44723  Biso   1.000  Hf
  Hf9      1.0000 0.24896  0.11490  0.24787  Biso   1.000  Hf
  Hf10     1.0000 0.27856  0.13161  0.50015  Biso   1.000  Hf
  Hf11     1.0000 0.23526  0.38459  0.50137  Biso   1.000  Hf
  Hf12     1.0000 0.22505  0.36370  0.25381  Biso   1.000  Hf
  Hf13     1.0000 0.14093  0.00801  0.62829  Biso   1.000  Hf
  Hf14     1.0000 0.13668  0.22685  0.85280  Biso   1.000  Hf
  Hf15     1.0000 0.37168  0.26758  0.62690  Biso   1.000  Hf
  Hf16     1.0000 0.37056  0.48609  0.87259  Biso   1.000  Hf
  Hf17     1.0000 0.05173  0.18153  0.67051  Biso   1.000  Hf
  Hf18     1.0000 0.05179  0.04936  0.91959  Biso   1.000  Hf
  Hf19     1.0000 0.46527  0.43552  0.69360  Biso   1.000  Hf
  Hf20     1.0000 0.47020  0.31617  0.94350  Biso   1.000  Hf
  Hf21     1.0000 0.27901  0.11563  0.74662  Biso   1.000  Hf
  Hf22     1.0000 0.28555  0.12412  0.99518  Biso   1.000  Hf
  Hf23     1.0000 0.24212  0.39311  0.99852  Biso   1.000  Hf
  Hf24     1.0000 0.23159  0.36842  0.74602  Biso   1.000  Hf
  Hf25     1.0000 0.13342  0.52171  0.12710  Biso   1.000  Hf
  Hf26     1.0000 0.13446  0.73638  0.37520  Biso   1.000  Hf
  Hf27     1.0000 0.36893  0.76161  0.12555  Biso   1.000  Hf
  Hf28     1.0000 0.36392  0.98599  0.37435  Biso   1.000  Hf
  Hf29     1.0000 0.03861  0.68610  0.19153  Biso   1.000  Hf
  Hf30     1.0000 0.03803  0.57196  0.43844  Biso   1.000  Hf
  Hf31     1.0000 0.45899  0.93468  0.19550  Biso   1.000  Hf
  Hf32     1.0000 0.46712  0.81804  0.44248  Biso   1.000  Hf
  Hf33     1.0000 0.27151  0.61698  0.24885  Biso   1.000  Hf
  Hf34     1.0000 0.27153  0.63357  0.49743  Biso   1.000  Hf
  Hf35     1.0000 0.23522  0.88104  0.49775  Biso   1.000  Hf
  Hf36     1.0000 0.23153  0.86353  0.24490  Biso   1.000  Hf
  Hf37     1.0000 0.13305  0.51686  0.61933  Biso   1.000  Hf
  Hf38     1.0000 0.13421  0.73006  0.87035  Biso   1.000  Hf
  Hf39     1.0000 0.37152  0.76447  0.62266  Biso   1.000  Hf
  Hf40     1.0000 0.37456  0.98065  0.87188  Biso   1.000  Hf
  Hf41     1.0000 0.04176  0.69005  0.68854  Biso   1.000  Hf
  Hf42     1.0000 0.03636  0.55943  0.94526  Biso   1.000  Hf
  Hf43     1.0000 0.47179  0.93136  0.69488  Biso   1.000  Hf
  Hf44     1.0000 0.47360  0.81778  0.95162  Biso   1.000  Hf
  Hf45     1.0000 0.27019  0.61517  0.74734  Biso   1.000  Hf
  Hf46     1.0000 0.26979  0.63437  0.99827  Biso   1.000  Hf
  Hf47     1.0000 0.23820  0.87496  0.99368  Biso   1.000  Hf
  Hf48     1.0000 0.23890  0.86259  0.74877  Biso   1.000  Hf
  Hf49     1.0000 0.62659  0.00658  0.12139  Biso   1.000  Hf
  Hf50     1.0000 0.62849  0.22998  0.39257  Biso   1.000  Hf
  Hf51     1.0000 0.82004  0.25767  0.15423  Biso   1.000  Hf
  Hf52     1.0000 0.86658  0.48379  0.38435  Biso   1.000  Hf
  Hf53     1.0000 0.52895  0.18370  0.19448  Biso   1.000  Hf
  Hf54     1.0000 0.53233  0.06552  0.45219  Biso   1.000  Hf
  Hf55     1.0000 0.95496  0.43283  0.19797  Biso   1.000  Hf
  Hf56     1.0000 0.97603  0.33363  0.47098  Biso   1.000  Hf
  Hf57     1.0000 0.73557  0.10620  0.26026  Biso   1.000  Hf
  Hf58     1.0000 0.77719  0.13800  0.50665  Biso   1.000  Hf
  Hf59     1.0000 0.73200  0.38147  0.50837  Biso   1.000  Hf
  Hf60     1.0000 0.71089  0.37336  0.26605  Biso   1.000  Hf
  Hf61     1.0000 0.64229  0.01625  0.62678  Biso   1.000  Hf
  Hf62     1.0000 0.63875  0.23368  0.87650  Biso   1.000  Hf
  Hf63     1.0000 0.87420  0.27597  0.64321  Biso   1.000  Hf
  Hf64     1.0000 0.86521  0.48438  0.87179  Biso   1.000  Hf
  Hf65     1.0000 0.54261  0.18529  0.69315  Biso   1.000  Hf
  Hf66     1.0000 0.54338  0.06445  0.93941  Biso   1.000  Hf
  Hf67     1.0000 0.95328  0.45938  0.68099  Biso   1.000  Hf
  Hf68     1.0000 0.94933  0.30416  0.85666  Biso   1.000  Hf
  Hf69     1.0000 0.77419  0.11753  0.75590  Biso   1.000  Hf
  Hf70     1.0000 0.77300  0.13047  0.00861  Biso   1.000  Hf
  Hf71     1.0000 0.73669  0.38108  0.00831  Biso   1.000  Hf
  Hf72     1.0000 0.72043  0.37553  0.75463  Biso   1.000  Hf
  Hf73     1.0000 0.63327  0.52034  0.12876  Biso   1.000  Hf
  Hf74     1.0000 0.63858  0.73789  0.37678  Biso   1.000  Hf
  Hf75     1.0000 0.86673  0.76629  0.12648  Biso   1.000  Hf
  Hf76     1.0000 0.87797  0.99837  0.36774  Biso   1.000  Hf
  Hf77     1.0000 0.53875  0.68535  0.19697  Biso   1.000  Hf
  Hf78     1.0000 0.53630  0.56877  0.44604  Biso   1.000  Hf
  Hf79     1.0000 0.96702  0.94354  0.18323  Biso   1.000  Hf
  Hf80     1.0000 0.96523  0.81941  0.43769  Biso   1.000  Hf
  Hf81     1.0000 0.77235  0.61797  0.25253  Biso   1.000  Hf
  Hf82     1.0000 0.77143  0.63428  0.50069  Biso   1.000  Hf
  Hf83     1.0000 0.73476  0.88792  0.49727  Biso   1.000  Hf
  Hf84     1.0000 0.73414  0.86599  0.24674  Biso   1.000  Hf
  Hf85     1.0000 0.63589  0.51824  0.62670  Biso   1.000  Hf
  Hf86     1.0000 0.63870  0.73416  0.87613  Biso   1.000  Hf
  Hf87     1.0000 0.86976  0.77031  0.62133  Biso   1.000  Hf
  Hf88     1.0000 0.87030  0.98076  0.87488  Biso   1.000  Hf
  Hf89     1.0000 0.53709  0.68296  0.69846  Biso   1.000  Hf
  Hf90     1.0000 0.53734  0.56834  0.94854  Biso   1.000  Hf
  Hf91     1.0000 0.96708  0.93302  0.69495  Biso   1.000  Hf
  Hf92     1.0000 0.96789  0.81078  0.94535  Biso   1.000  Hf
  Hf93     1.0000 0.77219  0.62187  0.75163  Biso   1.000  Hf
  Hf94     1.0000 0.77055  0.63308  0.00261  Biso   1.000  Hf
  Hf95     1.0000 0.73427  0.88103  0.99861  Biso   1.000  Hf
  Hf96     1.0000 0.73509  0.86753  0.74879  Biso   1.000  Hf
  Hg1      1.0000 0.06864  0.25256  0.09868  Biso   1.000  Hg
