data_image0
_cell_length_a       5.05184
_cell_length_b       10.2849
_cell_length_c       10.4705
_cell_angle_alpha    89.3454
_cell_angle_beta     81.4104
_cell_angle_gamma    89.9674

_symmetry_space_group_name_H-M    "P 1"
_symmetry_int_tables_number       1

loop_
  _symmetry_equiv_pos_as_xyz
  'x, y, z'

loop_
  _atom_site_label
  _atom_site_occupancy
  _atom_site_fract_x
  _atom_site_fract_y
  _atom_site_fract_z
  _atom_site_thermal_displace_type
  _atom_site_B_iso_or_equiv
  _atom_site_type_symbol
  Hg1      1.0000 0.25749  0.01533  0.15611  Biso   1.000  Hg
  Hf1      1.0000 0.26678  0.23278  0.40123  Biso   1.000  Hf
  Hf2      1.0000 0.71682  0.26855  0.10453  Biso   1.000  Hf
  Hf3      1.0000 0.71789  0.48054  0.35394  Biso   1.000  Hf
  O1       1.0000 0.08775  0.17026  0.08196  Biso   1.000  O
  O2       1.0000 0.04416  0.08357  0.36185  Biso   1.000  O
  O3       1.0000 0.92499  0.41840  0.17017  Biso   1.000  O
  O4       1.0000 0.92176  0.33508  0.42412  Biso   1.000  O
  O5       1.0000 0.54375  0.12970  0.24392  Biso   1.000  O
  O6       1.0000 0.54441  0.12388  0.49279  Biso   1.000  O
  O7       1.0000 0.45171  0.37772  0.01066  Biso   1.000  O
  O8       1.0000 0.44711  0.37016  0.26027  Biso   1.000  O
  Hf4      1.0000 0.27402  0.02158  0.64451  Biso   1.000  Hf
  Hf5      1.0000 0.28935  0.22374  0.89367  Biso   1.000  Hf
  Hf6      1.0000 0.72046  0.27284  0.60682  Biso   1.000  Hf
  Hf7      1.0000 0.73120  0.47654  0.85556  Biso   1.000  Hf
  O9       1.0000 0.07602  0.17985  0.59083  Biso   1.000  O
  O10      1.0000 0.08195  0.07616  0.83043  Biso   1.000  O
  O11      1.0000 0.92720  0.42128  0.67236  Biso   1.000  O
  O12      1.0000 0.93937  0.32873  0.92541  Biso   1.000  O
  O13      1.0000 0.55556  0.12761  0.73747  Biso   1.000  O
  O14      1.0000 0.58075  0.12689  0.97988  Biso   1.000  O
  O15      1.0000 0.44330  0.38234  0.51070  Biso   1.000  O
  O16      1.0000 0.45209  0.36927  0.76086  Biso   1.000  O
  Hf8      1.0000 0.27602  0.51915  0.14458  Biso   1.000  Hf
  Hf9      1.0000 0.26892  0.72717  0.39475  Biso   1.000  Hf
  Hf10     1.0000 0.72677  0.76745  0.09483  Biso   1.000  Hf
  Hf11     1.0000 0.71288  0.98349  0.36053  Biso   1.000  Hf
  O17      1.0000 0.08173  0.67150  0.07876  Biso   1.000  O
  O18      1.0000 0.07310  0.57836  0.32846  Biso   1.000  O
  O19      1.0000 0.89305  0.92564  0.17078  Biso   1.000  O
  O20      1.0000 0.91970  0.82705  0.41546  Biso   1.000  O
  O21      1.0000 0.55111  0.63185  0.23928  Biso   1.000  O
  O22      1.0000 0.55044  0.62162  0.48951  Biso   1.000  O
  O23      1.0000 0.46961  0.87090  0.99478  Biso   1.000  O
  O24      1.0000 0.43870  0.86926  0.25026  Biso   1.000  O
  Hf12     1.0000 0.27836  0.52125  0.64705  Biso   1.000  Hf
  Hf13     1.0000 0.28841  0.72989  0.89191  Biso   1.000  Hf
  Hf14     1.0000 0.72074  0.77120  0.60190  Biso   1.000  Hf
  Hf15     1.0000 0.72551  0.97881  0.85200  Biso   1.000  Hf
  O25      1.0000 0.07261  0.66988  0.57860  Biso   1.000  O
  O26      1.0000 0.07933  0.57776  0.83060  Biso   1.000  O
  O27      1.0000 0.92557  0.92121  0.66478  Biso   1.000  O
  O28      1.0000 0.94150  0.82912  0.91514  Biso   1.000  O
  O29      1.0000 0.55888  0.62848  0.73939  Biso   1.000  O
  O30      1.0000 0.55959  0.61600  0.98968  Biso   1.000  O
  O31      1.0000 0.44225  0.88043  0.50490  Biso   1.000  O
  O32      1.0000 0.44932  0.86975  0.75198  Biso   1.000  O
