data_image0
_cell_length_a       10.242
_cell_length_b       5.1731
_cell_length_c       10.6213
_cell_angle_alpha    90.4159
_cell_angle_beta     79.3456
_cell_angle_gamma    89.8413

_symmetry_space_group_name_H-M    "P 1"
_symmetry_int_tables_number       1

loop_
  _symmetry_equiv_pos_as_xyz
  'x, y, z'

loop_
  _atom_site_label
  _atom_site_occupancy
  _atom_site_fract_x
  _atom_site_fract_y
  _atom_site_fract_z
  _atom_site_thermal_displace_type
  _atom_site_B_iso_or_equiv
  _atom_site_type_symbol
  Hf1      1.0000 0.12766  0.04749  0.14337  Biso   1.000  Hf
  Hf2      1.0000 0.13497  0.45454  0.39138  Biso   1.000  Hf
  Hf3      1.0000 0.35058  0.56465  0.09673  Biso   1.000  Hf
  Hf4      1.0000 0.36516  0.91380  0.35970  Biso   1.000  Hf
  O1       1.0000 0.02617  0.32917  0.06938  Biso   1.000  O
  O2       1.0000 0.02167  0.17504  0.32654  Biso   1.000  O
  O3       1.0000 0.45747  0.87670  0.16650  Biso   1.000  O
  O4       1.0000 0.48785  0.72332  0.46182  Biso   1.000  O
  O5       1.0000 0.24599  0.27911  0.22366  Biso   1.000  O
  O6       1.0000 0.26806  0.20653  0.48317  Biso   1.000  O
  O7       1.0000 0.21797  0.77260  0.00676  Biso   1.000  O
  O8       1.0000 0.21152  0.76743  0.26026  Biso   1.000  O
  Hf5      1.0000 0.13855  0.03901  0.64266  Biso   1.000  Hf
  Hf6      1.0000 0.13305  0.45903  0.89261  Biso   1.000  Hf
  Hf7      1.0000 0.36533  0.54974  0.61503  Biso   1.000  Hf
  Hf8      1.0000 0.35814  0.96708  0.85690  Biso   1.000  Hf
  O9       1.0000 0.03315  0.32306  0.57433  Biso   1.000  O
  O10      1.0000 0.03074  0.17760  0.82090  Biso   1.000  O
  O11      1.0000 0.47065  0.81627  0.69105  Biso   1.000  O
  O12      1.0000 0.46572  0.68746  0.92704  Biso   1.000  O
  O13      1.0000 0.27309  0.25377  0.73583  Biso   1.000  O
  O14      1.0000 0.27181  0.26283  0.98262  Biso   1.000  O
  O15      1.0000 0.22855  0.72502  0.51410  Biso   1.000  O
  O16      1.0000 0.22487  0.74700  0.76184  Biso   1.000  O
  Hf9      1.0000 0.63935  0.04318  0.14439  Biso   1.000  Hf
  Hf10     1.0000 0.65334  0.46088  0.40947  Biso   1.000  Hf
  Hf11     1.0000 0.85665  0.54313  0.10513  Biso   1.000  Hf
  Hf12     1.0000 0.85991  0.95303  0.35480  Biso   1.000  Hf
  O17      1.0000 0.53201  0.33769  0.07231  Biso   1.000  O
  O18      1.0000 0.55674  0.11313  0.34066  Biso   1.000  O
  O19      1.0000 0.95976  0.82593  0.17537  Biso   1.000  O
  O20      1.0000 0.96528  0.66962  0.42567  Biso   1.000  O
  O21      1.0000 0.77621  0.25959  0.24062  Biso   1.000  O
  O22      1.0000 0.77815  0.23716  0.49525  Biso   1.000  O
  O23      1.0000 0.72250  0.76088  0.01339  Biso   1.000  O
  O24      1.0000 0.72228  0.73621  0.26314  Biso   1.000  O
  Hf13     1.0000 0.63728  0.04169  0.65077  Biso   1.000  Hf
  Hf14     1.0000 0.63524  0.46223  0.89732  Biso   1.000  Hf
  Hf15     1.0000 0.86588  0.54105  0.60877  Biso   1.000  Hf
  Hf16     1.0000 0.86079  0.96039  0.85520  Biso   1.000  Hf
  O25      1.0000 0.53198  0.31697  0.57735  Biso   1.000  O
  O26      1.0000 0.52923  0.18572  0.82540  Biso   1.000  O
  O27      1.0000 0.96867  0.82543  0.67557  Biso   1.000  O
  O28      1.0000 0.96391  0.67927  0.92459  Biso   1.000  O
  O29      1.0000 0.77296  0.25825  0.74133  Biso   1.000  O
  O30      1.0000 0.77282  0.24694  0.98936  Biso   1.000  O
  O31      1.0000 0.72985  0.75095  0.51734  Biso   1.000  O
  O32      1.0000 0.72624  0.74715  0.76464  Biso   1.000  O
  Hg1      1.0000 0.43551  0.42520  0.30298  Biso   1.000  Hg
