data_image0
_cell_length_a       5.09282
_cell_length_b       10.3086
_cell_length_c       10.5544
_cell_angle_alpha    90.435
_cell_angle_beta     79.9489
_cell_angle_gamma    90.1532

_symmetry_space_group_name_H-M    "P 1"
_symmetry_int_tables_number       1

loop_
  _symmetry_equiv_pos_as_xyz
  'x, y, z'

loop_
  _atom_site_label
  _atom_site_occupancy
  _atom_site_fract_x
  _atom_site_fract_y
  _atom_site_fract_z
  _atom_site_thermal_displace_type
  _atom_site_B_iso_or_equiv
  _atom_site_type_symbol
  Hf1      1.0000 0.27148  0.02152  0.14658  Biso   1.000  Hf
  Hf2      1.0000 0.31085  0.23377  0.40301  Biso   1.000  Hf
  Hf3      1.0000 0.71412  0.27517  0.09422  Biso   1.000  Hf
  Hf4      1.0000 0.71531  0.48311  0.35036  Biso   1.000  Hf
  O1       1.0000 0.06033  0.16064  0.06979  Biso   1.000  O
  O2       1.0000 0.09604  0.06512  0.34127  Biso   1.000  O
  O3       1.0000 0.92434  0.42295  0.16787  Biso   1.000  O
  O4       1.0000 0.97809  0.35837  0.43466  Biso   1.000  O
  O5       1.0000 0.56618  0.12658  0.23714  Biso   1.000  O
  O6       1.0000 0.54118  0.10699  0.50300  Biso   1.000  O
  O7       1.0000 0.43973  0.38236  0.00524  Biso   1.000  O
  O8       1.0000 0.42836  0.37835  0.25314  Biso   1.000  O
  Hf5      1.0000 0.26795  0.01902  0.64930  Biso   1.000  Hf
  Hf6      1.0000 0.27331  0.22877  0.89346  Biso   1.000  Hf
  Hf7      1.0000 0.72831  0.27083  0.60548  Biso   1.000  Hf
  Hf8      1.0000 0.71622  0.48037  0.85375  Biso   1.000  Hf
  O9       1.0000 0.07083  0.16798  0.57818  Biso   1.000  O
  O10      1.0000 0.05837  0.08607  0.82579  Biso   1.000  O
  O11      1.0000 0.93163  0.41458  0.67753  Biso   1.000  O
  O12      1.0000 0.92998  0.33736  0.92079  Biso   1.000  O
  O13      1.0000 0.54738  0.12949  0.74281  Biso   1.000  O
  O14      1.0000 0.54392  0.12350  0.98944  Biso   1.000  O
  O15      1.0000 0.46154  0.37985  0.51427  Biso   1.000  O
  O16      1.0000 0.44693  0.37166  0.75921  Biso   1.000  O
  Hf9      1.0000 0.27527  0.52456  0.14499  Biso   1.000  Hf
  Hf10     1.0000 0.27144  0.72667  0.39781  Biso   1.000  Hf
  Hf11     1.0000 0.71808  0.77348  0.10526  Biso   1.000  Hf
  Hf12     1.0000 0.71735  0.96940  0.36146  Biso   1.000  Hf
  O17      1.0000 0.06117  0.66915  0.07672  Biso   1.000  O
  O18      1.0000 0.05966  0.58972  0.32272  Biso   1.000  O
  O19      1.0000 0.92936  0.91697  0.17643  Biso   1.000  O
  O20      1.0000 0.92283  0.82799  0.42650  Biso   1.000  O
  O21      1.0000 0.54875  0.63080  0.24134  Biso   1.000  O
  O22      1.0000 0.54085  0.61983  0.49167  Biso   1.000  O
  O23      1.0000 0.44268  0.88148  0.01320  Biso   1.000  O
  O24      1.0000 0.44600  0.86976  0.26221  Biso   1.000  O
  Hf13     1.0000 0.27268  0.52154  0.64762  Biso   1.000  Hf
  Hf14     1.0000 0.26848  0.72966  0.89800  Biso   1.000  Hf
  Hf15     1.0000 0.71552  0.76859  0.60686  Biso   1.000  Hf
  Hf16     1.0000 0.71561  0.97949  0.85512  Biso   1.000  Hf
  O25      1.0000 0.05856  0.66197  0.57796  Biso   1.000  O
  O26      1.0000 0.06158  0.58711  0.82770  Biso   1.000  O
  O27      1.0000 0.92182  0.91456  0.67387  Biso   1.000  O
  O28      1.0000 0.92639  0.83774  0.92494  Biso   1.000  O
  O29      1.0000 0.54548  0.62834  0.74176  Biso   1.000  O
  O30      1.0000 0.54674  0.62474  0.99088  Biso   1.000  O
  O31      1.0000 0.43952  0.87203  0.51369  Biso   1.000  O
  O32      1.0000 0.44033  0.87151  0.76321  Biso   1.000  O
  Ir1      1.0000 0.85408  0.22848  0.31677  Biso   1.000  Ir
