data_image0
_cell_length_a       10.0267
_cell_length_b       5.20555
_cell_length_c       9.94611
_cell_angle_alpha    89.9049
_cell_angle_beta     89.4994
_cell_angle_gamma    88.5801

_symmetry_space_group_name_H-M    "P 1"
_symmetry_int_tables_number       1

loop_
  _symmetry_equiv_pos_as_xyz
  'x, y, z'

loop_
  _atom_site_label
  _atom_site_occupancy
  _atom_site_fract_x
  _atom_site_fract_y
  _atom_site_fract_z
  _atom_site_thermal_displace_type
  _atom_site_B_iso_or_equiv
  _atom_site_type_symbol
  Ir1      1.0000 0.12373  0.92459  0.11910  Biso   1.000  Ir
  Hf1      1.0000 0.13172  0.45693  0.38525  Biso   1.000  Hf
  Hf2      1.0000 0.39808  0.55710  0.13728  Biso   1.000  Hf
  Hf3      1.0000 0.39415  0.05808  0.36389  Biso   1.000  Hf
  Hf4      1.0000 0.96055  0.36492  0.95898  Biso   1.000  Hf
  Hf5      1.0000 0.03096  0.21665  0.22743  Biso   1.000  Hf
  Hf6      1.0000 0.03004  0.72348  0.26255  Biso   1.000  Hf
  Hf7      1.0000 0.94219  0.87220  0.03844  Biso   1.000  Hf
  Hf8      1.0000 0.28765  0.37435  0.27261  Biso   1.000  Hf
  Hf9      1.0000 0.20662  0.12073  0.97313  Biso   1.000  Hf
  Hf10     1.0000 0.21198  0.62126  0.03437  Biso   1.000  Hf
  Hf11     1.0000 0.28524  0.88098  0.22345  Biso   1.000  Hf
  Hf12     1.0000 0.14509  0.95794  0.63899  Biso   1.000  Hf
  Hf13     1.0000 0.14161  0.45869  0.86655  Biso   1.000  Hf
  Hf14     1.0000 0.39694  0.53171  0.63684  Biso   1.000  Hf
  Hf15     1.0000 0.39343  0.02928  0.87044  Biso   1.000  Hf
  Hf16     1.0000 0.95061  0.35083  0.46375  Biso   1.000  Hf
  Hf17     1.0000 0.01462  0.23110  0.72533  Biso   1.000  Hf
  Hf18     1.0000 0.01534  0.73251  0.77216  Biso   1.000  Hf
  Hf19     1.0000 0.97254  0.84185  0.52876  Biso   1.000  Hf
  Hf20     1.0000 0.26587  0.25916  0.73315  Biso   1.000  Hf
  Hf21     1.0000 0.20940  0.12037  0.46839  Biso   1.000  Hf
  Hf22     1.0000 0.21882  0.62650  0.53864  Biso   1.000  Hf
  Hf23     1.0000 0.26686  0.76040  0.77559  Biso   1.000  Hf
  Hf24     1.0000 0.65058  0.96262  0.13629  Biso   1.000  Hf
  Hf25     1.0000 0.64865  0.46279  0.36589  Biso   1.000  Hf
  Hf26     1.0000 0.89796  0.51549  0.13250  Biso   1.000  Hf
  Hf27     1.0000 0.89925  0.01939  0.36240  Biso   1.000  Hf
  Hf28     1.0000 0.45471  0.37056  0.96495  Biso   1.000  Hf
  Hf29     1.0000 0.52499  0.24387  0.22664  Biso   1.000  Hf
  Hf30     1.0000 0.52216  0.74480  0.27596  Biso   1.000  Hf
  Hf31     1.0000 0.47898  0.86624  0.02978  Biso   1.000  Hf
  Hf32     1.0000 0.77579  0.25457  0.22839  Biso   1.000  Hf
  Hf33     1.0000 0.70926  0.13256  0.96428  Biso   1.000  Hf
  Hf34     1.0000 0.71517  0.62099  0.03897  Biso   1.000  Hf
  Hf35     1.0000 0.77607  0.75130  0.27259  Biso   1.000  Hf
  Hf36     1.0000 0.63686  0.97037  0.62863  Biso   1.000  Hf
  Hf37     1.0000 0.63728  0.46941  0.87164  Biso   1.000  Hf
  Hf38     1.0000 0.88830  0.53290  0.63758  Biso   1.000  Hf
  Hf39     1.0000 0.88707  0.03453  0.86207  Biso   1.000  Hf
  Hf40     1.0000 0.47756  0.36181  0.47362  Biso   1.000  Hf
  Hf41     1.0000 0.51537  0.23150  0.73597  Biso   1.000  Hf
  Hf42     1.0000 0.51625  0.73379  0.76837  Biso   1.000  Hf
  Hf43     1.0000 0.45788  0.86881  0.53671  Biso   1.000  Hf
  Hf44     1.0000 0.76274  0.27058  0.73062  Biso   1.000  Hf
  Hf45     1.0000 0.71727  0.12161  0.46149  Biso   1.000  Hf
  Hf46     1.0000 0.71255  0.63128  0.53573  Biso   1.000  Hf
  Hf47     1.0000 0.76402  0.77112  0.76796  Biso   1.000  Hf
