data_image0
_cell_length_a       10.1513
_cell_length_b       10.2599
_cell_length_c       10.1036
_cell_angle_alpha    90.7494
_cell_angle_beta     93.9857
_cell_angle_gamma    90.9332

_symmetry_space_group_name_H-M    "P 1"
_symmetry_int_tables_number       1

loop_
  _symmetry_equiv_pos_as_xyz
  'x, y, z'

loop_
  _atom_site_label
  _atom_site_occupancy
  _atom_site_fract_x
  _atom_site_fract_y
  _atom_site_fract_z
  _atom_site_thermal_displace_type
  _atom_site_B_iso_or_equiv
  _atom_site_type_symbol
  Hf1      1.0000 0.11504  0.95884  0.15368  Biso   1.000  Hf
  Hf2      1.0000 0.11719  0.24279  0.38052  Biso   1.000  Hf
  Hf3      1.0000 0.38368  0.24280  0.11802  Biso   1.000  Hf
  Hf4      1.0000 0.37983  0.01420  0.37494  Biso   1.000  Hf
  Hf5      1.0000 0.96390  0.20201  0.95189  Biso   1.000  Hf
  Hf6      1.0000 0.99973  0.09230  0.26593  Biso   1.000  Hf
  Hf7      1.0000 0.04050  0.33536  0.19817  Biso   1.000  Hf
  Hf8      1.0000 0.05188  0.43041  0.94768  Biso   1.000  Hf
  Hf9      1.0000 0.25657  0.15397  0.25658  Biso   1.000  Hf
  Hf10     1.0000 0.27809  0.07454  0.02764  Biso   1.000  Hf
  Hf11     1.0000 0.30747  0.32726  0.94231  Biso   1.000  Hf
  Hf12     1.0000 0.29396  0.41011  0.20481  Biso   1.000  Hf
  Hf13     1.0000 0.12948  0.98534  0.64773  Biso   1.000  Hf
  Hf14     1.0000 0.12313  0.27167  0.83922  Biso   1.000  Hf
  Hf15     1.0000 0.35822  0.23775  0.62137  Biso   1.000  Hf
  Hf16     1.0000 0.39137  0.01489  0.88088  Biso   1.000  Hf
  Hf17     1.0000 0.97754  0.17018  0.49241  Biso   1.000  Hf
  Hf18     1.0000 0.99979  0.11325  0.73603  Biso   1.000  Hf
  Hf19     1.0000 0.98892  0.37195  0.71004  Biso   1.000  Hf
  Hf20     1.0000 0.03582  0.41556  0.45305  Biso   1.000  Hf
  Hf21     1.0000 0.25044  0.13474  0.75577  Biso   1.000  Hf
  Hf22     1.0000 0.22901  0.09664  0.50543  Biso   1.000  Hf
  Hf23     1.0000 0.28297  0.34169  0.46248  Biso   1.000  Hf
  Hf24     1.0000 0.24118  0.39126  0.71436  Biso   1.000  Hf
  Hf25     1.0000 0.13046  0.50761  0.12395  Biso   1.000  Hf
  Hf26     1.0000 0.12852  0.73456  0.37853  Biso   1.000  Hf
  Hf27     1.0000 0.38583  0.74005  0.12409  Biso   1.000  Hf
  Hf28     1.0000 0.37106  0.50411  0.37261  Biso   1.000  Hf
  Hf29     1.0000 0.00356  0.65275  0.00382  Biso   1.000  Hf
  Hf30     1.0000 0.00377  0.59520  0.24990  Biso   1.000  Hf
  Hf31     1.0000 0.98383  0.84422  0.27410  Biso   1.000  Hf
  Hf32     1.0000 0.96294  0.90030  0.02751  Biso   1.000  Hf
  Hf33     1.0000 0.25250  0.64750  0.25172  Biso   1.000  Hf
  Hf34     1.0000 0.26283  0.59275  0.99580  Biso   1.000  Hf
  Hf35     1.0000 0.21575  0.82494  0.04729  Biso   1.000  Hf
  Hf36     1.0000 0.22816  0.89513  0.30974  Biso   1.000  Hf
  Hf37     1.0000 0.10998  0.51732  0.62024  Biso   1.000  Hf
  Hf38     1.0000 0.13490  0.73759  0.87755  Biso   1.000  Hf
  Hf39     1.0000 0.37537  0.75497  0.63311  Biso   1.000  Hf
  Hf40     1.0000 0.37537  0.49590  0.86410  Biso   1.000  Hf
  Hf41     1.0000 0.98806  0.65741  0.50359  Biso   1.000  Hf
  Hf42     1.0000 0.99601  0.61705  0.74866  Biso   1.000  Hf
  Hf43     1.0000 0.00550  0.86302  0.77544  Biso   1.000  Hf
  Hf44     1.0000 0.95734  0.91570  0.53678  Biso   1.000  Hf
  Hf45     1.0000 0.24817  0.63921  0.74947  Biso   1.000  Hf
  Hf46     1.0000 0.24647  0.59565  0.49621  Biso   1.000  Hf
  Hf47     1.0000 0.20202  0.82821  0.54993  Biso   1.000  Hf
  Hf48     1.0000 0.25392  0.88851  0.78909  Biso   1.000  Hf
  Hf49     1.0000 0.63095  0.99937  0.13076  Biso   1.000  Hf
  Hf50     1.0000 0.61928  0.24895  0.37632  Biso   1.000  Hf
  Hf51     1.0000 0.86145  0.24335  0.12397  Biso   1.000  Hf
  Hf52     1.0000 0.87061  0.01363  0.38451  Biso   1.000  Hf
  Hf53     1.0000 0.52443  0.15239  0.99505  Biso   1.000  Hf
  Hf54     1.0000 0.50140  0.10145  0.24843  Biso   1.000  Hf
  Hf55     1.0000 0.54329  0.34358  0.21308  Biso   1.000  Hf
  Hf56     1.0000 0.53745  0.41642  0.96312  Biso   1.000  Hf
  Hf57     1.0000 0.74985  0.15122  0.25857  Biso   1.000  Hf
  Hf58     1.0000 0.76912  0.08094  0.02182  Biso   1.000  Hf
  Hf59     1.0000 0.77417  0.34833  0.97466  Biso   1.000  Hf
  Hf60     1.0000 0.79016  0.40779  0.22054  Biso   1.000  Hf
  Hf61     1.0000 0.62451  0.99101  0.64537  Biso   1.000  Hf
  Hf62     1.0000 0.61712  0.26755  0.85637  Biso   1.000  Hf
  Hf63     1.0000 0.85506  0.23972  0.62652  Biso   1.000  Hf
  Hf64     1.0000 0.89227  0.01816  0.87799  Biso   1.000  Hf
  Hf65     1.0000 0.48482  0.16392  0.49035  Biso   1.000  Hf
  Hf66     1.0000 0.49695  0.11623  0.74425  Biso   1.000  Hf
  Hf67     1.0000 0.49364  0.36439  0.71820  Biso   1.000  Hf
  Hf68     1.0000 0.53325  0.41623  0.46119  Biso   1.000  Hf
  Hf69     1.0000 0.74728  0.14053  0.76135  Biso   1.000  Hf
  Hf70     1.0000 0.73063  0.09864  0.50954  Biso   1.000  Hf
  Hf71     1.0000 0.77745  0.34959  0.47390  Biso   1.000  Hf
  Hf72     1.0000 0.74187  0.39328  0.73097  Biso   1.000  Hf
  Hf73     1.0000 0.63130  0.50294  0.12513  Biso   1.000  Hf
  Hf74     1.0000 0.62476  0.74418  0.37315  Biso   1.000  Hf
  Hf75     1.0000 0.87683  0.73957  0.12368  Biso   1.000  Hf
  Hf76     1.0000 0.86946  0.50951  0.38040  Biso   1.000  Hf
  Hf77     1.0000 0.50544  0.64942  0.99953  Biso   1.000  Hf
  Hf78     1.0000 0.50579  0.60038  0.24666  Biso   1.000  Hf
  Hf79     1.0000 0.47416  0.84876  0.28141  Biso   1.000  Hf
  Hf80     1.0000 0.47223  0.90156  0.02864  Biso   1.000  Hf
  Hf81     1.0000 0.75204  0.64925  0.25541  Biso   1.000  Hf
  Hf82     1.0000 0.76097  0.59689  0.99853  Biso   1.000  Hf
  Hf83     1.0000 0.71461  0.83358  0.04230  Biso   1.000  Hf
  Hf84     1.0000 0.72423  0.90333  0.28898  Biso   1.000  Hf
  Hf85     1.0000 0.61480  0.51450  0.62201  Biso   1.000  Hf
  Hf86     1.0000 0.63318  0.74140  0.87939  Biso   1.000  Hf
  Hf87     1.0000 0.87132  0.75978  0.63597  Biso   1.000  Hf
  Hf88     1.0000 0.87586  0.49894  0.86819  Biso   1.000  Hf
  Hf89     1.0000 0.48928  0.65922  0.50052  Biso   1.000  Hf
  Hf90     1.0000 0.49828  0.61251  0.74629  Biso   1.000  Hf
  Hf91     1.0000 0.50546  0.86182  0.77302  Biso   1.000  Hf
  Hf92     1.0000 0.45251  0.91859  0.53872  Biso   1.000  Hf
  Hf93     1.0000 0.74962  0.64356  0.75414  Biso   1.000  Hf
  Hf94     1.0000 0.74609  0.60412  0.50191  Biso   1.000  Hf
  Hf95     1.0000 0.70425  0.83995  0.53969  Biso   1.000  Hf
  Hf96     1.0000 0.75448  0.89406  0.77968  Biso   1.000  Hf
  Ir1      1.0000 0.12264  0.18808  0.07974  Biso   1.000  Ir
