data_image0
_cell_length_a       10.1103
_cell_length_b       5.07317
_cell_length_c       10.1107
_cell_angle_alpha    90.0001
_cell_angle_beta     89.9963
_cell_angle_gamma    89.9968

_symmetry_space_group_name_H-M    "P 1"
_symmetry_int_tables_number       1

loop_
  _symmetry_equiv_pos_as_xyz
  'x, y, z'

loop_
  _atom_site_label
  _atom_site_occupancy
  _atom_site_fract_x
  _atom_site_fract_y
  _atom_site_fract_z
  _atom_site_thermal_displace_type
  _atom_site_B_iso_or_equiv
  _atom_site_type_symbol
  K1       1.0000 0.12567  0.00291  0.12566  Biso   1.000  K 
  Hf1      1.0000 0.12567  0.00295  0.62565  Biso   1.000  Hf
  Hf2      1.0000 0.62568  0.00294  0.12565  Biso   1.000  Hf
  Hf3      1.0000 0.62567  0.00297  0.62565  Biso   1.000  Hf
  Hf4      1.0000 0.12568  0.50295  0.37824  Biso   1.000  Hf
  Hf5      1.0000 0.12567  0.50294  0.87308  Biso   1.000  Hf
  Hf6      1.0000 0.62567  0.50294  0.37528  Biso   1.000  Hf
  Hf7      1.0000 0.62567  0.50295  0.87603  Biso   1.000  Hf
  Hf8      1.0000 0.37824  0.50295  0.12567  Biso   1.000  Hf
  Hf9      1.0000 0.37528  0.50294  0.62567  Biso   1.000  Hf
  Hf10     1.0000 0.87310  0.50293  0.12566  Biso   1.000  Hf
  Hf11     1.0000 0.87605  0.50296  0.62566  Biso   1.000  Hf
  Hf12     1.0000 0.37687  0.00726  0.37685  Biso   1.000  Hf
  Hf13     1.0000 0.37685  0.99855  0.87444  Biso   1.000  Hf
  Hf14     1.0000 0.87447  0.99856  0.37684  Biso   1.000  Hf
  Hf15     1.0000 0.87449  0.00725  0.87445  Biso   1.000  Hf
  Hf16     1.0000 0.99147  0.29686  0.99146  Biso   1.000  Hf
  Hf17     1.0000 0.00655  0.29297  0.51026  Biso   1.000  Hf
  Hf18     1.0000 0.51027  0.29294  0.00656  Biso   1.000  Hf
  Hf19     1.0000 0.50411  0.29628  0.50412  Biso   1.000  Hf
  Hf20     1.0000 0.98523  0.24946  0.26611  Biso   1.000  Hf
  Hf21     1.0000 0.99798  0.21187  0.75153  Biso   1.000  Hf
  Hf22     1.0000 0.49983  0.21186  0.25338  Biso   1.000  Hf
  Hf23     1.0000 0.49922  0.21104  0.75215  Biso   1.000  Hf
  Hf24     1.0000 0.99147  0.70894  0.25986  Biso   1.000  Hf
  Hf25     1.0000 0.00651  0.71300  0.74109  Biso   1.000  Hf
  Hf26     1.0000 0.51025  0.71298  0.24478  Biso   1.000  Hf
  Hf27     1.0000 0.50407  0.70960  0.74722  Biso   1.000  Hf
  Hf28     1.0000 0.98524  0.75637  0.98523  Biso   1.000  Hf
  Hf29     1.0000 0.99798  0.79409  0.49981  Biso   1.000  Hf
  Hf30     1.0000 0.49983  0.79406  0.99794  Biso   1.000  Hf
  Hf31     1.0000 0.49922  0.79485  0.49918  Biso   1.000  Hf
  Hf32     1.0000 0.25987  0.29687  0.25985  Biso   1.000  Hf
  Hf33     1.0000 0.24481  0.29289  0.74107  Biso   1.000  Hf
  Hf34     1.0000 0.74109  0.29288  0.24478  Biso   1.000  Hf
  Hf35     1.0000 0.74724  0.29629  0.74721  Biso   1.000  Hf
  Hf36     1.0000 0.26611  0.24947  0.98522  Biso   1.000  Hf
  Hf37     1.0000 0.25337  0.21183  0.49980  Biso   1.000  Hf
  Hf38     1.0000 0.75153  0.21185  0.99794  Biso   1.000  Hf
  Hf39     1.0000 0.75213  0.21105  0.49918  Biso   1.000  Hf
  Hf40     1.0000 0.25988  0.70894  0.99145  Biso   1.000  Hf
  Hf41     1.0000 0.24481  0.71296  0.51025  Biso   1.000  Hf
  Hf42     1.0000 0.74109  0.71297  0.00653  Biso   1.000  Hf
  Hf43     1.0000 0.74725  0.70960  0.50408  Biso   1.000  Hf
  Hf44     1.0000 0.26611  0.75639  0.26610  Biso   1.000  Hf
  Hf45     1.0000 0.25334  0.79403  0.75152  Biso   1.000  Hf
  Hf46     1.0000 0.75152  0.79401  0.25336  Biso   1.000  Hf
  Hf47     1.0000 0.75211  0.79486  0.75213  Biso   1.000  Hf
