data_image0
_cell_length_a       10.1016
_cell_length_b       5.15573
_cell_length_c       10.5549
_cell_angle_alpha    89.486
_cell_angle_beta     90.3501
_cell_angle_gamma    90.3257

_symmetry_space_group_name_H-M    "P 1"
_symmetry_int_tables_number       1

loop_
  _symmetry_equiv_pos_as_xyz
  'x, y, z'

loop_
  _atom_site_label
  _atom_site_occupancy
  _atom_site_fract_x
  _atom_site_fract_y
  _atom_site_fract_z
  _atom_site_thermal_displace_type
  _atom_site_B_iso_or_equiv
  _atom_site_type_symbol
  K1       1.0000 0.10363  0.97639  0.15436  Biso   1.000  K
  Hf1      1.0000 0.14166  0.04551  0.67123  Biso   1.000  Hf
  Hf2      1.0000 0.14399  0.45643  0.42079  Biso   1.000  Hf
  Hf3      1.0000 0.14913  0.45611  0.92068  Biso   1.000  Hf
  Hf4      1.0000 0.35915  0.52525  0.16999  Biso   1.000  Hf
  Hf5      1.0000 0.35960  0.54500  0.66923  Biso   1.000  Hf
  Hf6      1.0000 0.35921  0.95615  0.41558  Biso   1.000  Hf
  Hf7      1.0000 0.36293  0.95684  0.92084  Biso   1.000  Hf
  Hf8      1.0000 0.63426  0.04875  0.07385  Biso   1.000  Hf
  Hf9      1.0000 0.63473  0.04223  0.58254  Biso   1.000  Hf
  Hf10     1.0000 0.63600  0.45511  0.33230  Biso   1.000  Hf
  Hf11     1.0000 0.63753  0.46368  0.82484  Biso   1.000  Hf
  Hf12     1.0000 0.86800  0.49615  0.05901  Biso   1.000  Hf
  Hf13     1.0000 0.86487  0.54665  0.58204  Biso   1.000  Hf
  Hf14     1.0000 0.86071  0.98925  0.35356  Biso   1.000  Hf
  Hf15     1.0000 0.86343  0.95373  0.82555  Biso   1.000  Hf
  O1       1.0000 0.04689  0.40819  0.09002  Biso   1.000  O
  O2       1.0000 0.03776  0.35072  0.59459  Biso   1.000  O
  O3       1.0000 0.02595  0.17259  0.35940  Biso   1.000  O
  O4       1.0000 0.03687  0.15707  0.84024  Biso   1.000  O
  O5       1.0000 0.47914  0.81500  0.07760  Biso   1.000  O
  O6       1.0000 0.46924  0.82070  0.57691  Biso   1.000  O
  O7       1.0000 0.48195  0.69419  0.32276  Biso   1.000  O
  O8       1.0000 0.47229  0.68201  0.82374  Biso   1.000  O
  O9       1.0000 0.28529  0.24957  0.30300  Biso   1.000  O
  O10      1.0000 0.27807  0.24802  0.79144  Biso   1.000  O
  O11      1.0000 0.29051  0.24765  0.03548  Biso   1.000  O
  O12      1.0000 0.27704  0.25234  0.54533  Biso   1.000  O
  O13      1.0000 0.23863  0.72033  0.30119  Biso   1.000  O
  O14      1.0000 0.22582  0.74788  0.79020  Biso   1.000  O
  O15      1.0000 0.24982  0.71966  0.03020  Biso   1.000  O
  O16      1.0000 0.22413  0.75868  0.54474  Biso   1.000  O
  O17      1.0000 0.53610  0.32266  0.17067  Biso   1.000  O
  O18      1.0000 0.53031  0.32600  0.66777  Biso   1.000  O
  O19      1.0000 0.53388  0.17605  0.42020  Biso   1.000  O
  O20      1.0000 0.53514  0.17933  0.91701  Biso   1.000  O
  O21      1.0000 0.85996  0.81580  0.17432  Biso   1.000  O
  O22      1.0000 0.96553  0.84942  0.66054  Biso   1.000  O
  O23      1.0000 0.96792  0.67383  0.41530  Biso   1.000  O
  O24      1.0000 0.97004  0.66226  0.90584  Biso   1.000  O
  O25      1.0000 0.77830  0.22751  0.95149  Biso   1.000  O
  O26      1.0000 0.77135  0.26042  0.46504  Biso   1.000  O
  O27      1.0000 0.77918  0.27399  0.21135  Biso   1.000  O
  O28      1.0000 0.77573  0.25597  0.70751  Biso   1.000  O
  O29      1.0000 0.72609  0.73672  0.95292  Biso   1.000  O
  O30      1.0000 0.72609  0.75425  0.46111  Biso   1.000  O
  O31      1.0000 0.72040  0.78510  0.21184  Biso   1.000  O
  O32      1.0000 0.72645  0.75262  0.70445  Biso   1.000  O
