data_image0
_cell_length_a       10.0918
_cell_length_b       5.21046
_cell_length_c       10.0943
_cell_angle_alpha    90.2009
_cell_angle_beta     89.6044
_cell_angle_gamma    90.0849

_symmetry_space_group_name_H-M    "P 1"
_symmetry_int_tables_number       1

loop_
  _symmetry_equiv_pos_as_xyz
  'x, y, z'

loop_
  _atom_site_label
  _atom_site_occupancy
  _atom_site_fract_x
  _atom_site_fract_y
  _atom_site_fract_z
  _atom_site_thermal_displace_type
  _atom_site_B_iso_or_equiv
  _atom_site_type_symbol
  K1       1.0000 0.09927  0.98062  0.14057  Biso   1.000  K 
  Hf1      1.0000 0.13858  0.03605  0.62428  Biso   1.000  Hf
  Hf2      1.0000 0.63019  0.03555  0.11470  Biso   1.000  Hf
  Hf3      1.0000 0.63051  0.03166  0.62460  Biso   1.000  Hf
  Hf4      1.0000 0.14090  0.47500  0.37597  Biso   1.000  Hf
  Hf5      1.0000 0.14372  0.46521  0.87774  Biso   1.000  Hf
  Hf6      1.0000 0.63228  0.45746  0.37435  Biso   1.000  Hf
  Hf7      1.0000 0.62958  0.47280  0.86728  Biso   1.000  Hf
  Hf8      1.0000 0.36514  0.51706  0.12508  Biso   1.000  Hf
  Hf9      1.0000 0.36737  0.53841  0.62426  Biso   1.000  Hf
  Hf10     1.0000 0.88885  0.47486  0.08221  Biso   1.000  Hf
  Hf11     1.0000 0.87366  0.54060  0.62427  Biso   1.000  Hf
  Hf12     1.0000 0.36977  0.96717  0.37027  Biso   1.000  Hf
  Hf13     1.0000 0.36238  0.96128  0.88013  Biso   1.000  Hf
  Hf14     1.0000 0.86644  0.99170  0.39242  Biso   1.000  Hf
  Hf15     1.0000 0.86278  0.97424  0.86805  Biso   1.000  Hf
  Hf16     1.0000 0.03854  0.44200  0.20506  Biso   1.000  Hf
  Hf17     1.0000 0.03861  0.37109  0.69483  Biso   1.000  Hf
  Hf18     1.0000 0.54024  0.35797  0.19709  Biso   1.000  Hf
  Hf19     1.0000 0.53440  0.36604  0.69191  Biso   1.000  Hf
  Hf20     1.0000 0.03883  0.14056  0.44314  Biso   1.000  Hf
  Hf21     1.0000 0.99844  0.21814  0.95248  Biso   1.000  Hf
  Hf22     1.0000 0.54051  0.13062  0.44502  Biso   1.000  Hf
  Hf23     1.0000 0.53014  0.13955  0.94128  Biso   1.000  Hf
  Hf24     1.0000 0.47380  0.85623  0.19630  Biso   1.000  Hf
  Hf25     1.0000 0.46789  0.86429  0.69961  Biso   1.000  Hf
  Hf26     1.0000 0.85005  0.73990  0.23332  Biso   1.000  Hf
  Hf27     1.0000 0.96651  0.87813  0.69399  Biso   1.000  Hf
  Hf28     1.0000 0.47505  0.63425  0.45185  Biso   1.000  Hf
  Hf29     1.0000 0.47639  0.64494  0.94989  Biso   1.000  Hf
  Hf30     1.0000 0.97772  0.65650  0.45543  Biso   1.000  Hf
  Hf31     1.0000 0.98646  0.69649  0.94515  Biso   1.000  Hf
  Hf32     1.0000 0.28504  0.24029  0.25612  Biso   1.000  Hf
  Hf33     1.0000 0.27101  0.23619  0.74969  Biso   1.000  Hf
  Hf34     1.0000 0.78011  0.21974  0.24021  Biso   1.000  Hf
  Hf35     1.0000 0.76972  0.23786  0.74091  Biso   1.000  Hf
  Hf36     1.0000 0.27344  0.26823  0.50225  Biso   1.000  Hf
  Hf37     1.0000 0.27320  0.25307  0.99422  Biso   1.000  Hf
  Hf38     1.0000 0.77107  0.27943  0.49729  Biso   1.000  Hf
  Hf39     1.0000 0.75480  0.25454  0.98663  Biso   1.000  Hf
  Hf40     1.0000 0.23815  0.77435  0.50134  Biso   1.000  Hf
  Hf41     1.0000 0.24455  0.73081  0.99532  Biso   1.000  Hf
  Hf42     1.0000 0.73607  0.77166  0.49782  Biso   1.000  Hf
  Hf43     1.0000 0.74190  0.75319  0.99497  Biso   1.000  Hf
  Hf44     1.0000 0.25492  0.71005  0.26187  Biso   1.000  Hf
  Hf45     1.0000 0.22979  0.74102  0.74790  Biso   1.000  Hf
  Hf46     1.0000 0.70694  0.74964  0.24141  Biso   1.000  Hf
  Hf47     1.0000 0.73221  0.73715  0.74500  Biso   1.000  Hf
