data_image0
_cell_length_a       10.0461
_cell_length_b       10.2049
_cell_length_c       5.26608
_cell_angle_alpha    89.9572
_cell_angle_beta     91.0701
_cell_angle_gamma    90.2347

_symmetry_space_group_name_H-M    "P 1"
_symmetry_int_tables_number       1

loop_
  _symmetry_equiv_pos_as_xyz
  'x, y, z'

loop_
  _atom_site_label
  _atom_site_occupancy
  _atom_site_fract_x
  _atom_site_fract_y
  _atom_site_fract_z
  _atom_site_thermal_displace_type
  _atom_site_B_iso_or_equiv
  _atom_site_type_symbol
  Hf1      1.0000 0.14078  0.02122  0.35213  Biso   1.000  Hf
  Hf2      1.0000 0.14136  0.22762  0.85811  Biso   1.000  Hf
  Hf3      1.0000 0.35460  0.27428  0.37735  Biso   1.000  Hf
  Hf4      1.0000 0.36042  0.48193  0.85734  Biso   1.000  Hf
  Hf5      1.0000 0.64525  0.01809  0.15289  Biso   1.000  Hf
  Hf6      1.0000 0.65107  0.22573  0.63289  Biso   1.000  Hf
  Hf7      1.0000 0.86431  0.27239  0.15211  Biso   1.000  Hf
  Hf8      1.0000 0.86489  0.47879  0.65810  Biso   1.000  Hf
  O1       1.0000 0.03609  0.16453  0.17144  Biso   1.000  O
  O2       1.0000 0.03543  0.08576  0.66868  Biso   1.000  O
  O3       1.0000 0.47143  0.40920  0.16999  Biso   1.000  O
  O4       1.0000 0.47225  0.33204  0.68515  Biso   1.000  O
  O5       1.0000 0.27853  0.12399  0.60599  Biso   1.000  O
  O6       1.0000 0.28230  0.12797  0.10737  Biso   1.000  O
  O7       1.0000 0.22181  0.37635  0.61507  Biso   1.000  O
  O8       1.0000 0.22301  0.37772  0.11066  Biso   1.000  O
  O9       1.0000 0.53341  0.16797  0.32510  Biso   1.000  O
  O10      1.0000 0.53423  0.09081  0.84024  Biso   1.000  O
  O11      1.0000 0.97024  0.41425  0.34155  Biso   1.000  O
  O12      1.0000 0.96958  0.33548  0.83879  Biso   1.000  O
  O13      1.0000 0.78267  0.12230  0.89957  Biso   1.000  O
  O14      1.0000 0.78386  0.12366  0.39515  Biso   1.000  O
  O15      1.0000 0.72338  0.37205  0.90285  Biso   1.000  O
  O16      1.0000 0.72713  0.37602  0.40423  Biso   1.000  O
  Hf9      1.0000 0.14090  0.52251  0.35232  Biso   1.000  Hf
  Hf10     1.0000 0.14082  0.73013  0.85023  Biso   1.000  Hf
  Hf11     1.0000 0.36446  0.77228  0.35306  Biso   1.000  Hf
  Hf12     1.0000 0.36369  0.97822  0.85451  Biso   1.000  Hf
  Hf13     1.0000 0.64198  0.52179  0.15572  Biso   1.000  Hf
  Hf14     1.0000 0.64120  0.72774  0.65717  Biso   1.000  Hf
  Hf15     1.0000 0.86485  0.76988  0.15999  Biso   1.000  Hf
  Hf16     1.0000 0.86476  0.97750  0.65791  Biso   1.000  Hf
  O17      1.0000 0.03606  0.66467  0.17014  Biso   1.000  O
  O18      1.0000 0.03483  0.58680  0.67166  Biso   1.000  O
  O19      1.0000 0.47270  0.91337  0.17036  Biso   1.000  O
  O20      1.0000 0.47257  0.83859  0.66962  Biso   1.000  O
  O21      1.0000 0.27806  0.62642  0.60030  Biso   1.000  O
  O22      1.0000 0.27916  0.62689  0.09808  Biso   1.000  O
  O23      1.0000 0.22675  0.87433  0.60032  Biso   1.000  O
  O24      1.0000 0.22688  0.87728  0.10123  Biso   1.000  O
  O25      1.0000 0.53310  0.66142  0.34061  Biso   1.000  O
  O26      1.0000 0.53297  0.58664  0.83986  Biso   1.000  O
  O27      1.0000 0.97084  0.91321  0.33857  Biso   1.000  O
  O28      1.0000 0.96960  0.83534  0.84009  Biso   1.000  O
  O29      1.0000 0.77879  0.62273  0.90900  Biso   1.000  O
  O30      1.0000 0.77892  0.62568  0.40990  Biso   1.000  O
  O31      1.0000 0.72651  0.87313  0.91215  Biso   1.000  O
  O32      1.0000 0.72761  0.87359  0.40992  Biso   1.000  O
  Li1      1.0000 0.50282  0.25000  0.00510  Biso   1.000  Li
