data_image0
_cell_length_a       10.0024
_cell_length_b       10.1694
_cell_length_c       10.0025
_cell_angle_alpha    90.0004
_cell_angle_beta     90.0005
_cell_angle_gamma    89.9991

_symmetry_space_group_name_H-M    "P 1"
_symmetry_int_tables_number       1

loop_
  _symmetry_equiv_pos_as_xyz
  'x, y, z'

loop_
  _atom_site_label
  _atom_site_occupancy
  _atom_site_fract_x
  _atom_site_fract_y
  _atom_site_fract_z
  _atom_site_thermal_displace_type
  _atom_site_B_iso_or_equiv
  _atom_site_type_symbol
  Li1      1.0000 0.12460  0.99994  0.12461  Biso   1.000  Li
  Hf1      1.0000 0.12463  0.99995  0.62464  Biso   1.000  Hf
  Hf2      1.0000 0.12463  0.49995  0.12464  Biso   1.000  Hf
  Hf3      1.0000 0.12464  0.49995  0.62464  Biso   1.000  Hf
  Hf4      1.0000 0.62463  0.99995  0.12464  Biso   1.000  Hf
  Hf5      1.0000 0.62463  0.99995  0.62464  Biso   1.000  Hf
  Hf6      1.0000 0.62463  0.49995  0.12464  Biso   1.000  Hf
  Hf7      1.0000 0.62463  0.49995  0.62464  Biso   1.000  Hf
  Hf8      1.0000 0.12451  0.24850  0.37117  Biso   1.000  Hf
  Hf9      1.0000 0.12476  0.24850  0.87812  Biso   1.000  Hf
  Hf10     1.0000 0.12475  0.75140  0.37116  Biso   1.000  Hf
  Hf11     1.0000 0.12451  0.75140  0.87812  Biso   1.000  Hf
  Hf12     1.0000 0.62489  0.24895  0.37448  Biso   1.000  Hf
  Hf13     1.0000 0.62437  0.24895  0.87481  Biso   1.000  Hf
  Hf14     1.0000 0.62437  0.75095  0.37448  Biso   1.000  Hf
  Hf15     1.0000 0.62489  0.75095  0.87481  Biso   1.000  Hf
  Hf16     1.0000 0.37116  0.24851  0.12452  Biso   1.000  Hf
  Hf17     1.0000 0.37447  0.24895  0.62491  Biso   1.000  Hf
  Hf18     1.0000 0.37116  0.75140  0.12476  Biso   1.000  Hf
  Hf19     1.0000 0.37447  0.75095  0.62438  Biso   1.000  Hf
  Hf20     1.0000 0.87811  0.24851  0.12476  Biso   1.000  Hf
  Hf21     1.0000 0.87480  0.24895  0.62438  Biso   1.000  Hf
  Hf22     1.0000 0.87811  0.75140  0.12452  Biso   1.000  Hf
  Hf23     1.0000 0.87480  0.75095  0.62490  Biso   1.000  Hf
  Hf24     1.0000 0.36927  0.99768  0.36927  Biso   1.000  Hf
  Hf25     1.0000 0.36926  0.00223  0.88001  Biso   1.000  Hf
  Hf26     1.0000 0.37493  0.49868  0.37494  Biso   1.000  Hf
  Hf27     1.0000 0.37493  0.50122  0.87434  Biso   1.000  Hf
  Hf28     1.0000 0.88000  0.00223  0.36927  Biso   1.000  Hf
  Hf29     1.0000 0.88000  0.99767  0.88001  Biso   1.000  Hf
  Hf30     1.0000 0.87434  0.50122  0.37494  Biso   1.000  Hf
  Hf31     1.0000 0.87433  0.49868  0.87434  Biso   1.000  Hf
  Hf32     1.0000 0.99213  0.14460  0.99213  Biso   1.000  Hf
  Hf33     1.0000 0.00314  0.14527  0.50137  Biso   1.000  Hf
  Hf34     1.0000 0.00201  0.63916  0.00202  Biso   1.000  Hf
  Hf35     1.0000 0.00043  0.64590  0.50106  Biso   1.000  Hf
  Hf36     1.0000 0.50137  0.14526  0.00315  Biso   1.000  Hf
  Hf37     1.0000 0.50364  0.14708  0.50365  Biso   1.000  Hf
  Hf38     1.0000 0.50105  0.64590  0.00044  Biso   1.000  Hf
  Hf39     1.0000 0.50019  0.64577  0.50019  Biso   1.000  Hf
  Hf40     1.0000 0.99725  0.11665  0.25203  Biso   1.000  Hf
  Hf41     1.0000 0.99692  0.10383  0.74790  Biso   1.000  Hf
  Hf42     1.0000 0.99879  0.60770  0.25048  Biso   1.000  Hf
  Hf43     1.0000 0.99901  0.60412  0.75095  Biso   1.000  Hf
  Hf44     1.0000 0.50137  0.10383  0.25236  Biso   1.000  Hf
  Hf45     1.0000 0.49710  0.10315  0.75218  Biso   1.000  Hf
  Hf46     1.0000 0.49832  0.60412  0.25025  Biso   1.000  Hf
  Hf47     1.0000 0.49940  0.60399  0.74987  Biso   1.000  Hf
  Hf48     1.0000 0.00202  0.36074  0.24726  Biso   1.000  Hf
  Hf49     1.0000 0.00044  0.35400  0.74822  Biso   1.000  Hf
  Hf50     1.0000 0.99213  0.85530  0.25714  Biso   1.000  Hf
  Hf51     1.0000 0.00314  0.85464  0.74790  Biso   1.000  Hf
  Hf52     1.0000 0.50106  0.35400  0.24884  Biso   1.000  Hf
  Hf53     1.0000 0.50019  0.35413  0.74908  Biso   1.000  Hf
  Hf54     1.0000 0.50137  0.85464  0.24613  Biso   1.000  Hf
  Hf55     1.0000 0.50363  0.85283  0.74564  Biso   1.000  Hf
  Hf56     1.0000 0.99879  0.39220  0.99880  Biso   1.000  Hf
  Hf57     1.0000 0.99902  0.39578  0.49832  Biso   1.000  Hf
  Hf58     1.0000 0.99724  0.88325  0.99725  Biso   1.000  Hf
  Hf59     1.0000 0.99692  0.89607  0.50138  Biso   1.000  Hf
  Hf60     1.0000 0.49832  0.39578  0.99903  Biso   1.000  Hf
  Hf61     1.0000 0.49940  0.39591  0.49940  Biso   1.000  Hf
  Hf62     1.0000 0.50137  0.89607  0.99693  Biso   1.000  Hf
  Hf63     1.0000 0.49710  0.89675  0.49711  Biso   1.000  Hf
  Hf64     1.0000 0.25714  0.14460  0.25714  Biso   1.000  Hf
  Hf65     1.0000 0.24612  0.14526  0.74790  Biso   1.000  Hf
  Hf66     1.0000 0.24725  0.63916  0.24726  Biso   1.000  Hf
  Hf67     1.0000 0.24883  0.64590  0.74822  Biso   1.000  Hf
  Hf68     1.0000 0.74790  0.14527  0.24613  Biso   1.000  Hf
  Hf69     1.0000 0.74563  0.14708  0.74564  Biso   1.000  Hf
  Hf70     1.0000 0.74821  0.64590  0.24884  Biso   1.000  Hf
  Hf71     1.0000 0.74908  0.64577  0.74908  Biso   1.000  Hf
  Hf72     1.0000 0.25203  0.11665  0.99725  Biso   1.000  Hf
  Hf73     1.0000 0.25235  0.10383  0.50138  Biso   1.000  Hf
  Hf74     1.0000 0.25047  0.60770  0.99880  Biso   1.000  Hf
  Hf75     1.0000 0.25025  0.60412  0.49833  Biso   1.000  Hf
  Hf76     1.0000 0.74790  0.10383  0.99693  Biso   1.000  Hf
  Hf77     1.0000 0.75216  0.10315  0.49711  Biso   1.000  Hf
  Hf78     1.0000 0.75094  0.60412  0.99902  Biso   1.000  Hf
  Hf79     1.0000 0.74987  0.60399  0.49941  Biso   1.000  Hf
  Hf80     1.0000 0.24725  0.36075  0.00202  Biso   1.000  Hf
  Hf81     1.0000 0.24884  0.35400  0.50106  Biso   1.000  Hf
  Hf82     1.0000 0.25713  0.85530  0.99214  Biso   1.000  Hf
  Hf83     1.0000 0.24612  0.85464  0.50138  Biso   1.000  Hf
  Hf84     1.0000 0.74821  0.35400  0.00044  Biso   1.000  Hf
  Hf85     1.0000 0.74908  0.35413  0.50020  Biso   1.000  Hf
  Hf86     1.0000 0.74789  0.85464  0.00315  Biso   1.000  Hf
  Hf87     1.0000 0.74562  0.85282  0.50365  Biso   1.000  Hf
  Hf88     1.0000 0.25047  0.39220  0.25048  Biso   1.000  Hf
  Hf89     1.0000 0.25025  0.39578  0.75095  Biso   1.000  Hf
  Hf90     1.0000 0.25203  0.88325  0.25203  Biso   1.000  Hf
  Hf91     1.0000 0.25235  0.89607  0.74790  Biso   1.000  Hf
  Hf92     1.0000 0.75095  0.39578  0.25026  Biso   1.000  Hf
  Hf93     1.0000 0.74987  0.39591  0.74987  Biso   1.000  Hf
  Hf94     1.0000 0.74790  0.89607  0.25236  Biso   1.000  Hf
  Hf95     1.0000 0.75216  0.89675  0.75218  Biso   1.000  Hf
