data_image0
_cell_length_a       4.99333
_cell_length_b       10.2888
_cell_length_c       10.0468
_cell_angle_alpha    90.188
_cell_angle_beta     89.8917
_cell_angle_gamma    90.1381

_symmetry_space_group_name_H-M    "P 1"
_symmetry_int_tables_number       1

loop_
  _symmetry_equiv_pos_as_xyz
  'x, y, z'

loop_
  _atom_site_label
  _atom_site_occupancy
  _atom_site_fract_x
  _atom_site_fract_y
  _atom_site_fract_z
  _atom_site_thermal_displace_type
  _atom_site_B_iso_or_equiv
  _atom_site_type_symbol
  Mg1      1.0000 0.26377  0.01813  0.11529  Biso   1.000  Mg
  Hf1      1.0000 0.26652  0.01646  0.62525  Biso   1.000  Hf
  Hf2      1.0000 0.27087  0.51566  0.12573  Biso   1.000  Hf
  Hf3      1.0000 0.26923  0.51698  0.62596  Biso   1.000  Hf
  Hf4      1.0000 0.26884  0.22931  0.37298  Biso   1.000  Hf
  Hf5      1.0000 0.26908  0.23154  0.87569  Biso   1.000  Hf
  Hf6      1.0000 0.27234  0.73593  0.37578  Biso   1.000  Hf
  Hf7      1.0000 0.27337  0.73651  0.87822  Biso   1.000  Hf
  Hf8      1.0000 0.72284  0.26134  0.12597  Biso   1.000  Hf
  Hf9      1.0000 0.73063  0.26608  0.62411  Biso   1.000  Hf
  Hf10     1.0000 0.72907  0.77054  0.12550  Biso   1.000  Hf
  Hf11     1.0000 0.73372  0.76788  0.62607  Biso   1.000  Hf
  Hf12     1.0000 0.73060  0.48337  0.37603  Biso   1.000  Hf
  Hf13     1.0000 0.73077  0.48376  0.87570  Biso   1.000  Hf
  Hf14     1.0000 0.72873  0.98443  0.36904  Biso   1.000  Hf
  Hf15     1.0000 0.72293  0.98436  0.87806  Biso   1.000  Hf
  Hf16     1.0000 0.05906  0.18255  0.19882  Biso   1.000  Hf
  Hf17     1.0000 0.07317  0.18665  0.69182  Biso   1.000  Hf
  Hf18     1.0000 0.06667  0.68251  0.19683  Biso   1.000  Hf
  Hf19     1.0000 0.07222  0.68447  0.69557  Biso   1.000  Hf
  Hf20     1.0000 0.06603  0.06635  0.44778  Biso   1.000  Hf
  Hf21     1.0000 0.06522  0.06851  0.93515  Biso   1.000  Hf
  Hf22     1.0000 0.06986  0.56603  0.44606  Biso   1.000  Hf
  Hf23     1.0000 0.07035  0.56728  0.94598  Biso   1.000  Hf
  Hf24     1.0000 0.93120  0.43215  0.19580  Biso   1.000  Hf
  Hf25     1.0000 0.92893  0.43478  0.69512  Biso   1.000  Hf
  Hf26     1.0000 0.94433  0.93133  0.19757  Biso   1.000  Hf
  Hf27     1.0000 0.92726  0.93462  0.69529  Biso   1.000  Hf
  Hf28     1.0000 0.93000  0.31688  0.44490  Biso   1.000  Hf
  Hf29     1.0000 0.93203  0.31778  0.94564  Biso   1.000  Hf
  Hf30     1.0000 0.93417  0.81689  0.44799  Biso   1.000  Hf
  Hf31     1.0000 0.92905  0.81682  0.94326  Biso   1.000  Hf
  Hf32     1.0000 0.54237  0.11959  0.24951  Biso   1.000  Hf
  Hf33     1.0000 0.54148  0.11785  0.74710  Biso   1.000  Hf
  Hf34     1.0000 0.54001  0.61447  0.24863  Biso   1.000  Hf
  Hf35     1.0000 0.54205  0.61851  0.74978  Biso   1.000  Hf
  Hf36     1.0000 0.53881  0.13261  0.49871  Biso   1.000  Hf
  Hf37     1.0000 0.54359  0.13393  0.99540  Biso   1.000  Hf
  Hf38     1.0000 0.54126  0.63324  0.49916  Biso   1.000  Hf
  Hf39     1.0000 0.54263  0.63134  0.99968  Biso   1.000  Hf
  Hf40     1.0000 0.45911  0.38284  0.49864  Biso   1.000  Hf
  Hf41     1.0000 0.45860  0.38272  0.99877  Biso   1.000  Hf
  Hf42     1.0000 0.46190  0.88367  0.50007  Biso   1.000  Hf
  Hf43     1.0000 0.45857  0.88058  0.00078  Biso   1.000  Hf
  Hf44     1.0000 0.45602  0.36722  0.24845  Biso   1.000  Hf
  Hf45     1.0000 0.45975  0.36828  0.74881  Biso   1.000  Hf
  Hf46     1.0000 0.47470  0.86055  0.25422  Biso   1.000  Hf
  Hf47     1.0000 0.45657  0.86810  0.74876  Biso   1.000  Hf
