data_image0
_cell_length_a       9.90521
_cell_length_b       10.3729
_cell_length_c       4.98585
_cell_angle_alpha    90.7014
_cell_angle_beta     89.3264
_cell_angle_gamma    90.3846

_symmetry_space_group_name_H-M    "P 1"
_symmetry_int_tables_number       1

loop_
  _symmetry_equiv_pos_as_xyz
  'x, y, z'

loop_
  _atom_site_label
  _atom_site_occupancy
  _atom_site_fract_x
  _atom_site_fract_y
  _atom_site_fract_z
  _atom_site_thermal_displace_type
  _atom_site_B_iso_or_equiv
  _atom_site_type_symbol
  Mn1      1.0000 0.12288  0.03661  0.21908  Biso   1.000  Mn
  Hf1      1.0000 0.13461  0.51504  0.25251  Biso   1.000  Hf
  Hf2      1.0000 0.63007  0.01537  0.24436  Biso   1.000  Hf
  Hf3      1.0000 0.63321  0.51841  0.25347  Biso   1.000  Hf
  Hf4      1.0000 0.13181  0.23269  0.74115  Biso   1.000  Hf
  Hf5      1.0000 0.13482  0.73388  0.76504  Biso   1.000  Hf
  Hf6      1.0000 0.63174  0.23306  0.74925  Biso   1.000  Hf
  Hf7      1.0000 0.63379  0.73736  0.75138  Biso   1.000  Hf
  Hf8      1.0000 0.36454  0.26313  0.24593  Biso   1.000  Hf
  Hf9      1.0000 0.36491  0.76757  0.26281  Biso   1.000  Hf
  Hf10     1.0000 0.86381  0.26690  0.24469  Biso   1.000  Hf
  Hf11     1.0000 0.87422  0.76667  0.24090  Biso   1.000  Hf
  Hf12     1.0000 0.36653  0.48417  0.75157  Biso   1.000  Hf
  Hf13     1.0000 0.35683  0.98145  0.76093  Biso   1.000  Hf
  Hf14     1.0000 0.86400  0.48487  0.74905  Biso   1.000  Hf
  Hf15     1.0000 0.86699  0.98778  0.74245  Biso   1.000  Hf
  Hf16     1.0000 0.03411  0.18303  0.37794  Biso   1.000  Hf
  Hf17     1.0000 0.03758  0.68568  0.39313  Biso   1.000  Hf
  Hf18     1.0000 0.53139  0.18316  0.39354  Biso   1.000  Hf
  Hf19     1.0000 0.53536  0.68439  0.39810  Biso   1.000  Hf
  Hf20     1.0000 0.03418  0.06688  0.90706  Biso   1.000  Hf
  Hf21     1.0000 0.03264  0.56566  0.89764  Biso   1.000  Hf
  Hf22     1.0000 0.53061  0.06946  0.89709  Biso   1.000  Hf
  Hf23     1.0000 0.53700  0.56828  0.88964  Biso   1.000  Hf
  Hf24     1.0000 0.46315  0.43284  0.38576  Biso   1.000  Hf
  Hf25     1.0000 0.47059  0.93184  0.41037  Biso   1.000  Hf
  Hf26     1.0000 0.96423  0.43209  0.38938  Biso   1.000  Hf
  Hf27     1.0000 0.99343  0.94433  0.37965  Biso   1.000  Hf
  Hf28     1.0000 0.46185  0.31617  0.88785  Biso   1.000  Hf
  Hf29     1.0000 0.46542  0.82127  0.90730  Biso   1.000  Hf
  Hf30     1.0000 0.96103  0.31449  0.87892  Biso   1.000  Hf
  Hf31     1.0000 0.96176  0.81925  0.87719  Biso   1.000  Hf
  Hf32     1.0000 0.25400  0.10340  0.48181  Biso   1.000  Hf
  Hf33     1.0000 0.26799  0.61003  0.50370  Biso   1.000  Hf
  Hf34     1.0000 0.76899  0.11639  0.48893  Biso   1.000  Hf
  Hf35     1.0000 0.77173  0.61764  0.49862  Biso   1.000  Hf
  Hf36     1.0000 0.26300  0.13403  0.99280  Biso   1.000  Hf
  Hf37     1.0000 0.27124  0.63410  0.00451  Biso   1.000  Hf
  Hf38     1.0000 0.76995  0.13354  0.98867  Biso   1.000  Hf
  Hf39     1.0000 0.76969  0.63659  0.00039  Biso   1.000  Hf
  Hf40     1.0000 0.22741  0.38278  0.99547  Biso   1.000  Hf
  Hf41     1.0000 0.22125  0.89216  0.04153  Biso   1.000  Hf
  Hf42     1.0000 0.72810  0.38368  0.99813  Biso   1.000  Hf
  Hf43     1.0000 0.73153  0.88654  0.99115  Biso   1.000  Hf
  Hf44     1.0000 0.23047  0.36236  0.49607  Biso   1.000  Hf
  Hf45     1.0000 0.24608  0.85093  0.54214  Biso   1.000  Hf
  Hf46     1.0000 0.72712  0.36740  0.49674  Biso   1.000  Hf
  Hf47     1.0000 0.74286  0.86765  0.48968  Biso   1.000  Hf
