data_image0
_cell_length_a       10.0003
_cell_length_b       10.1811
_cell_length_c       10.0002
_cell_angle_alpha    90
_cell_angle_beta     90
_cell_angle_gamma    90

_symmetry_space_group_name_H-M    "P 1"
_symmetry_int_tables_number       1

loop_
  _symmetry_equiv_pos_as_xyz
  'x, y, z'

loop_
  _atom_site_label
  _atom_site_occupancy
  _atom_site_fract_x
  _atom_site_fract_y
  _atom_site_fract_z
  _atom_site_thermal_displace_type
  _atom_site_B_iso_or_equiv
  _atom_site_type_symbol
  Mo1      1.0000 0.12491  0.00005  0.12491  Biso   1.000  Mo
  Hf1      1.0000 0.12581  0.24984  0.37393  Biso   1.000  Hf
  Hf2      1.0000 0.37393  0.24984  0.12581  Biso   1.000  Hf
  Hf3      1.0000 0.37393  0.00002  0.37393  Biso   1.000  Hf
  Hf4      1.0000 0.99613  0.14464  0.99613  Biso   1.000  Hf
  Hf5      1.0000 0.00496  0.10178  0.24486  Biso   1.000  Hf
  Hf6      1.0000 0.99911  0.35250  0.25071  Biso   1.000  Hf
  Hf7      1.0000 0.00050  0.39675  0.00050  Biso   1.000  Hf
  Hf8      1.0000 0.25368  0.14464  0.25368  Biso   1.000  Hf
  Hf9      1.0000 0.24486  0.10178  0.00496  Biso   1.000  Hf
  Hf10     1.0000 0.25071  0.35250  0.99911  Biso   1.000  Hf
  Hf11     1.0000 0.24932  0.39675  0.24932  Biso   1.000  Hf
  Hf12     1.0000 0.12491  0.00005  0.62491  Biso   1.000  Hf
  Hf13     1.0000 0.12401  0.24984  0.87588  Biso   1.000  Hf
  Hf14     1.0000 0.37489  0.24957  0.62542  Biso   1.000  Hf
  Hf15     1.0000 0.37393  0.00008  0.87589  Biso   1.000  Hf
  Hf16     1.0000 0.99669  0.14736  0.49443  Biso   1.000  Hf
  Hf17     1.0000 0.00090  0.10294  0.74682  Biso   1.000  Hf
  Hf18     1.0000 0.99871  0.35239  0.75094  Biso   1.000  Hf
  Hf19     1.0000 0.00059  0.39740  0.50045  Biso   1.000  Hf
  Hf20     1.0000 0.25312  0.14736  0.75539  Biso   1.000  Hf
  Hf21     1.0000 0.24892  0.10294  0.50300  Biso   1.000  Hf
  Hf22     1.0000 0.25111  0.35240  0.49888  Biso   1.000  Hf
  Hf23     1.0000 0.24923  0.39740  0.74937  Biso   1.000  Hf
  Hf24     1.0000 0.12491  0.50005  0.12491  Biso   1.000  Hf
  Hf25     1.0000 0.12401  0.75027  0.37394  Biso   1.000  Hf
  Hf26     1.0000 0.37393  0.75027  0.12401  Biso   1.000  Hf
  Hf27     1.0000 0.37538  0.50006  0.37538  Biso   1.000  Hf
  Hf28     1.0000 0.99911  0.64761  0.99911  Biso   1.000  Hf
  Hf29     1.0000 0.00050  0.60336  0.24932  Biso   1.000  Hf
  Hf30     1.0000 0.99613  0.85547  0.25368  Biso   1.000  Hf
  Hf31     1.0000 0.00496  0.89832  0.00496  Biso   1.000  Hf
  Hf32     1.0000 0.25071  0.64761  0.25071  Biso   1.000  Hf
  Hf33     1.0000 0.24932  0.60336  0.00050  Biso   1.000  Hf
  Hf34     1.0000 0.25369  0.85547  0.99613  Biso   1.000  Hf
  Hf35     1.0000 0.24486  0.89832  0.24486  Biso   1.000  Hf
  Hf36     1.0000 0.12491  0.50005  0.62491  Biso   1.000  Hf
  Hf37     1.0000 0.12581  0.75027  0.87588  Biso   1.000  Hf
  Hf38     1.0000 0.37489  0.75054  0.62440  Biso   1.000  Hf
  Hf39     1.0000 0.37539  0.50005  0.87443  Biso   1.000  Hf
  Hf40     1.0000 0.99871  0.64771  0.49888  Biso   1.000  Hf
  Hf41     1.0000 0.00059  0.60271  0.74937  Biso   1.000  Hf
  Hf42     1.0000 0.99669  0.85275  0.75539  Biso   1.000  Hf
  Hf43     1.0000 0.00090  0.89717  0.50300  Biso   1.000  Hf
  Hf44     1.0000 0.25111  0.64771  0.75094  Biso   1.000  Hf
  Hf45     1.0000 0.24923  0.60270  0.50045  Biso   1.000  Hf
  Hf46     1.0000 0.25312  0.85275  0.49443  Biso   1.000  Hf
  Hf47     1.0000 0.24892  0.89717  0.74682  Biso   1.000  Hf
  Hf48     1.0000 0.62491  0.00005  0.12491  Biso   1.000  Hf
  Hf49     1.0000 0.62542  0.24957  0.37489  Biso   1.000  Hf
  Hf50     1.0000 0.87588  0.24984  0.12401  Biso   1.000  Hf
  Hf51     1.0000 0.87589  0.00008  0.37393  Biso   1.000  Hf
  Hf52     1.0000 0.49443  0.14736  0.99669  Biso   1.000  Hf
  Hf53     1.0000 0.50300  0.10294  0.24892  Biso   1.000  Hf
  Hf54     1.0000 0.49888  0.35240  0.25111  Biso   1.000  Hf
  Hf55     1.0000 0.50045  0.39740  0.00059  Biso   1.000  Hf
  Hf56     1.0000 0.75539  0.14736  0.25312  Biso   1.000  Hf
  Hf57     1.0000 0.74682  0.10294  0.00090  Biso   1.000  Hf
  Hf58     1.0000 0.75094  0.35239  0.99871  Biso   1.000  Hf
  Hf59     1.0000 0.74937  0.39740  0.24923  Biso   1.000  Hf
  Hf60     1.0000 0.62491  0.00005  0.62491  Biso   1.000  Hf
  Hf61     1.0000 0.62440  0.24957  0.87492  Biso   1.000  Hf
  Hf62     1.0000 0.87492  0.24957  0.62440  Biso   1.000  Hf
  Hf63     1.0000 0.87589  0.00002  0.87589  Biso   1.000  Hf
  Hf64     1.0000 0.49726  0.14735  0.49726  Biso   1.000  Hf
  Hf65     1.0000 0.50122  0.10277  0.74860  Biso   1.000  Hf
  Hf66     1.0000 0.49876  0.35300  0.75106  Biso   1.000  Hf
  Hf67     1.0000 0.50067  0.39708  0.50067  Biso   1.000  Hf
  Hf68     1.0000 0.75255  0.14735  0.75255  Biso   1.000  Hf
  Hf69     1.0000 0.74860  0.10277  0.50122  Biso   1.000  Hf
  Hf70     1.0000 0.75106  0.35300  0.49876  Biso   1.000  Hf
  Hf71     1.0000 0.74915  0.39708  0.74915  Biso   1.000  Hf
  Hf72     1.0000 0.62491  0.50005  0.12491  Biso   1.000  Hf
  Hf73     1.0000 0.62440  0.75054  0.37489  Biso   1.000  Hf
  Hf74     1.0000 0.87588  0.75027  0.12581  Biso   1.000  Hf
  Hf75     1.0000 0.87443  0.50005  0.37539  Biso   1.000  Hf
  Hf76     1.0000 0.49888  0.64771  0.99871  Biso   1.000  Hf
  Hf77     1.0000 0.50045  0.60270  0.24923  Biso   1.000  Hf
  Hf78     1.0000 0.49443  0.85275  0.25312  Biso   1.000  Hf
  Hf79     1.0000 0.50300  0.89717  0.00090  Biso   1.000  Hf
  Hf80     1.0000 0.75094  0.64771  0.25111  Biso   1.000  Hf
  Hf81     1.0000 0.74937  0.60271  0.00059  Biso   1.000  Hf
  Hf82     1.0000 0.75539  0.85274  0.99669  Biso   1.000  Hf
  Hf83     1.0000 0.74682  0.89717  0.24892  Biso   1.000  Hf
  Hf84     1.0000 0.62491  0.50005  0.62491  Biso   1.000  Hf
  Hf85     1.0000 0.62542  0.75054  0.87492  Biso   1.000  Hf
  Hf86     1.0000 0.87492  0.75054  0.62542  Biso   1.000  Hf
  Hf87     1.0000 0.87443  0.50006  0.87443  Biso   1.000  Hf
  Hf88     1.0000 0.49876  0.64711  0.49876  Biso   1.000  Hf
  Hf89     1.0000 0.50067  0.60302  0.74915  Biso   1.000  Hf
  Hf90     1.0000 0.49726  0.85275  0.75255  Biso   1.000  Hf
  Hf91     1.0000 0.50122  0.89734  0.50122  Biso   1.000  Hf
  Hf92     1.0000 0.75106  0.64711  0.75106  Biso   1.000  Hf
  Hf93     1.0000 0.74915  0.60302  0.50067  Biso   1.000  Hf
  Hf94     1.0000 0.75255  0.85275  0.49726  Biso   1.000  Hf
  Hf95     1.0000 0.74860  0.89734  0.74860  Biso   1.000  Hf
