data_image0
_cell_length_a       10.0787
_cell_length_b       5.14073
_cell_length_c       10.5741
_cell_angle_alpha    90.1975
_cell_angle_beta     91.2715
_cell_angle_gamma    90.4341

_symmetry_space_group_name_H-M    "P 1"
_symmetry_int_tables_number       1

loop_
  _symmetry_equiv_pos_as_xyz
  'x, y, z'

loop_
  _atom_site_label
  _atom_site_occupancy
  _atom_site_fract_x
  _atom_site_fract_y
  _atom_site_fract_z
  _atom_site_thermal_displace_type
  _atom_site_B_iso_or_equiv
  _atom_site_type_symbol
  Hf1      1.0000 0.14024  0.03819  0.17241  Biso   1.000  Hf
  Hf2      1.0000 0.13699  0.45920  0.42142  Biso   1.000  Hf
  Hf3      1.0000 0.36244  0.53296  0.17802  Biso   1.000  Hf
  Hf4      1.0000 0.35991  0.96001  0.42545  Biso   1.000  Hf
  Hf5      1.0000 0.64541  0.03579  0.07249  Biso   1.000  Hf
  Hf6      1.0000 0.63085  0.45699  0.33687  Biso   1.000  Hf
  Hf7      1.0000 0.87673  0.53732  0.07118  Biso   1.000  Hf
  Hf8      1.0000 0.86074  0.95545  0.32958  Biso   1.000  Hf
  O1       1.0000 0.03714  0.31490  0.07440  Biso   1.000  O
  O2       1.0000 0.02617  0.18361  0.32504  Biso   1.000  O
  O3       1.0000 0.46853  0.81170  0.06765  Biso   1.000  O
  O4       1.0000 0.46482  0.68114  0.33546  Biso   1.000  O
  O5       1.0000 0.26903  0.25002  0.29932  Biso   1.000  O
  O6       1.0000 0.27600  0.24581  0.04675  Biso   1.000  O
  O7       1.0000 0.22096  0.74901  0.29642  Biso   1.000  O
  O8       1.0000 0.22389  0.75293  0.04383  Biso   1.000  O
  O9       1.0000 0.51252  0.25088  0.19958  Biso   1.000  O
  O10      1.0000 0.52456  0.19211  0.43929  Biso   1.000  O
  O11      1.0000 0.96537  0.82929  0.16811  Biso   1.000  O
  O12      1.0000 0.96652  0.67804  0.41716  Biso   1.000  O
  O13      1.0000 0.77575  0.24248  0.45079  Biso   1.000  O
  O14      1.0000 0.76301  0.28218  0.19201  Biso   1.000  O
  O15      1.0000 0.72547  0.74837  0.46218  Biso   1.000  O
  O16      1.0000 0.71779  0.76742  0.21482  Biso   1.000  O
  Hf9      1.0000 0.14104  0.04521  0.66885  Biso   1.000  Hf
  Hf10     1.0000 0.14554  0.45546  0.91990  Biso   1.000  Hf
  Hf11     1.0000 0.36625  0.54585  0.67432  Biso   1.000  Hf
  Hf12     1.0000 0.35951  0.96212  0.92103  Biso   1.000  Hf
  Hf13     1.0000 0.63986  0.03934  0.58019  Biso   1.000  Hf
  Hf14     1.0000 0.64424  0.45610  0.82700  Biso   1.000  Hf
  Hf15     1.0000 0.86270  0.54048  0.57769  Biso   1.000  Hf
  Hf16     1.0000 0.86937  0.95467  0.82422  Biso   1.000  Hf
  O17      1.0000 0.03217  0.32443  0.57734  Biso   1.000  O
  O18      1.0000 0.03788  0.17285  0.82621  Biso   1.000  O
  O19      1.0000 0.47307  0.80924  0.57763  Biso   1.000  O
  O20      1.0000 0.47833  0.70708  0.82417  Biso   1.000  O
  O21      1.0000 0.27854  0.25331  0.79573  Biso   1.000  O
  O22      1.0000 0.27463  0.25413  0.54677  Biso   1.000  O
  O23      1.0000 0.22835  0.74849  0.79404  Biso   1.000  O
  O24      1.0000 0.22581  0.75424  0.54588  Biso   1.000  O
  O25      1.0000 0.52758  0.30116  0.68491  Biso   1.000  O
  O26      1.0000 0.52162  0.23450  0.94512  Biso   1.000  O
  O27      1.0000 0.97162  0.82689  0.66344  Biso   1.000  O
  O28      1.0000 0.97448  0.66882  0.91260  Biso   1.000  O
  O29      1.0000 0.78788  0.23082  0.94105  Biso   1.000  O
  O30      1.0000 0.77851  0.25073  0.69923  Biso   1.000  O
  O31      1.0000 0.73058  0.74495  0.95891  Biso   1.000  O
  O32      1.0000 0.72941  0.74621  0.70786  Biso   1.000  O
  Mo1      1.0000 0.60899  0.51771  0.09097  Biso   1.000  Mo
