data_image0
_cell_length_a       9.94703
_cell_length_b       10.3536
_cell_length_c       9.98927
_cell_angle_alpha    89.9429
_cell_angle_beta     89.9811
_cell_angle_gamma    90.0118

_symmetry_space_group_name_H-M    "P 1"
_symmetry_int_tables_number       1

loop_
  _symmetry_equiv_pos_as_xyz
  'x, y, z'

loop_
  _atom_site_label
  _atom_site_occupancy
  _atom_site_fract_x
  _atom_site_fract_y
  _atom_site_fract_z
  _atom_site_thermal_displace_type
  _atom_site_B_iso_or_equiv
  _atom_site_type_symbol
  Mo1      1.0000 0.13610  0.02041  0.12354  Biso   1.000  Mo
  Hf1      1.0000 0.13313  0.23252  0.37535  Biso   1.000  Hf
  Hf2      1.0000 0.36635  0.26700  0.12578  Biso   1.000  Hf
  Hf3      1.0000 0.36603  0.48397  0.37621  Biso   1.000  Hf
  Hf4      1.0000 0.03634  0.18075  0.19563  Biso   1.000  Hf
  Hf5      1.0000 0.03496  0.06715  0.44883  Biso   1.000  Hf
  Hf6      1.0000 0.46340  0.43476  0.19358  Biso   1.000  Hf
  Hf7      1.0000 0.46347  0.31607  0.44382  Biso   1.000  Hf
  Hf8      1.0000 0.26835  0.11710  0.24661  Biso   1.000  Hf
  Hf9      1.0000 0.27089  0.13232  0.49864  Biso   1.000  Hf
  Hf10     1.0000 0.22915  0.38217  0.49987  Biso   1.000  Hf
  Hf11     1.0000 0.22982  0.36784  0.25014  Biso   1.000  Hf
  Hf12     1.0000 0.13436  0.01649  0.62686  Biso   1.000  Hf
  Hf13     1.0000 0.13472  0.23354  0.87761  Biso   1.000  Hf
  Hf14     1.0000 0.36585  0.26662  0.62584  Biso   1.000  Hf
  Hf15     1.0000 0.36588  0.48386  0.87579  Biso   1.000  Hf
  Hf16     1.0000 0.03489  0.18256  0.69927  Biso   1.000  Hf
  Hf17     1.0000 0.03713  0.06514  0.95407  Biso   1.000  Hf
  Hf18     1.0000 0.46311  0.43471  0.69353  Biso   1.000  Hf
  Hf19     1.0000 0.46251  0.31481  0.94335  Biso   1.000  Hf
  Hf20     1.0000 0.27084  0.11801  0.75023  Biso   1.000  Hf
  Hf21     1.0000 0.27157  0.12961  0.00052  Biso   1.000  Hf
  Hf22     1.0000 0.22916  0.38166  0.00016  Biso   1.000  Hf
  Hf23     1.0000 0.22890  0.36740  0.75033  Biso   1.000  Hf
  Hf24     1.0000 0.13451  0.51641  0.12660  Biso   1.000  Hf
  Hf25     1.0000 0.13393  0.73465  0.37562  Biso   1.000  Hf
  Hf26     1.0000 0.36424  0.76809  0.12652  Biso   1.000  Hf
  Hf27     1.0000 0.36499  0.98353  0.37485  Biso   1.000  Hf
  Hf28     1.0000 0.03694  0.68341  0.19392  Biso   1.000  Hf
  Hf29     1.0000 0.03646  0.56605  0.44362  Biso   1.000  Hf
  Hf30     1.0000 0.46428  0.93399  0.19473  Biso   1.000  Hf
  Hf31     1.0000 0.46335  0.81595  0.44335  Biso   1.000  Hf
  Hf32     1.0000 0.27122  0.61925  0.25007  Biso   1.000  Hf
  Hf33     1.0000 0.27063  0.63251  0.49967  Biso   1.000  Hf
  Hf34     1.0000 0.22935  0.88249  0.49997  Biso   1.000  Hf
  Hf35     1.0000 0.22652  0.87128  0.24881  Biso   1.000  Hf
  Hf36     1.0000 0.13377  0.51639  0.62565  Biso   1.000  Hf
  Hf37     1.0000 0.13353  0.73310  0.87613  Biso   1.000  Hf
  Hf38     1.0000 0.36613  0.76656  0.62582  Biso   1.000  Hf
  Hf39     1.0000 0.36498  0.98269  0.87715  Biso   1.000  Hf
  Hf40     1.0000 0.03625  0.68411  0.69376  Biso   1.000  Hf
  Hf41     1.0000 0.03639  0.56493  0.94472  Biso   1.000  Hf
  Hf42     1.0000 0.46324  0.93452  0.69433  Biso   1.000  Hf
  Hf43     1.0000 0.46213  0.81535  0.94447  Biso   1.000  Hf
  Hf44     1.0000 0.27047  0.61763  0.74968  Biso   1.000  Hf
  Hf45     1.0000 0.27098  0.63203  0.99993  Biso   1.000  Hf
  Hf46     1.0000 0.22491  0.88228  0.00144  Biso   1.000  Hf
  Hf47     1.0000 0.22965  0.86736  0.75047  Biso   1.000  Hf
  Hf48     1.0000 0.63405  0.01645  0.12562  Biso   1.000  Hf
  Hf49     1.0000 0.63394  0.23355  0.37619  Biso   1.000  Hf
  Hf50     1.0000 0.86615  0.26562  0.12614  Biso   1.000  Hf
  Hf51     1.0000 0.86591  0.48364  0.37608  Biso   1.000  Hf
  Hf52     1.0000 0.53594  0.18422  0.19427  Biso   1.000  Hf
  Hf53     1.0000 0.53583  0.06574  0.44351  Biso   1.000  Hf
  Hf54     1.0000 0.96473  0.43241  0.19488  Biso   1.000  Hf
  Hf55     1.0000 0.96385  0.31582  0.44503  Biso   1.000  Hf
  Hf56     1.0000 0.77032  0.11784  0.24939  Biso   1.000  Hf
  Hf57     1.0000 0.77066  0.13243  0.49934  Biso   1.000  Hf
  Hf58     1.0000 0.72931  0.38236  0.49998  Biso   1.000  Hf
  Hf59     1.0000 0.72945  0.36782  0.24980  Biso   1.000  Hf
  Hf60     1.0000 0.63367  0.01618  0.62519  Biso   1.000  Hf
  Hf61     1.0000 0.63372  0.23316  0.87561  Biso   1.000  Hf
  Hf62     1.0000 0.86603  0.26578  0.62632  Biso   1.000  Hf
  Hf63     1.0000 0.86574  0.48332  0.87609  Biso   1.000  Hf
  Hf64     1.0000 0.53671  0.18472  0.69323  Biso   1.000  Hf
  Hf65     1.0000 0.53629  0.06524  0.94392  Biso   1.000  Hf
  Hf66     1.0000 0.96348  0.43390  0.69420  Biso   1.000  Hf
  Hf67     1.0000 0.96371  0.31493  0.94464  Biso   1.000  Hf
  Hf68     1.0000 0.77015  0.11712  0.74970  Biso   1.000  Hf
  Hf69     1.0000 0.77079  0.13215  0.99940  Biso   1.000  Hf
  Hf70     1.0000 0.72915  0.38176  0.99999  Biso   1.000  Hf
  Hf71     1.0000 0.72932  0.36750  0.74976  Biso   1.000  Hf
  Hf72     1.0000 0.63441  0.51708  0.12606  Biso   1.000  Hf
  Hf73     1.0000 0.63456  0.73436  0.37476  Biso   1.000  Hf
  Hf74     1.0000 0.86846  0.76739  0.12475  Biso   1.000  Hf
  Hf75     1.0000 0.86835  0.98442  0.37426  Biso   1.000  Hf
  Hf76     1.0000 0.53649  0.68516  0.19311  Biso   1.000  Hf
  Hf77     1.0000 0.53688  0.56628  0.44352  Biso   1.000  Hf
  Hf78     1.0000 0.97027  0.93437  0.19232  Biso   1.000  Hf
  Hf79     1.0000 0.96414  0.81635  0.44455  Biso   1.000  Hf
  Hf80     1.0000 0.77132  0.61798  0.24958  Biso   1.000  Hf
  Hf81     1.0000 0.77070  0.63278  0.49967  Biso   1.000  Hf
  Hf82     1.0000 0.72997  0.88301  0.49846  Biso   1.000  Hf
  Hf83     1.0000 0.73267  0.86831  0.24833  Biso   1.000  Hf
  Hf84     1.0000 0.63411  0.51671  0.62576  Biso   1.000  Hf
  Hf85     1.0000 0.63381  0.73363  0.87611  Biso   1.000  Hf
  Hf86     1.0000 0.86592  0.76684  0.62601  Biso   1.000  Hf
  Hf87     1.0000 0.86632  0.98357  0.87637  Biso   1.000  Hf
  Hf88     1.0000 0.53655  0.68466  0.69405  Biso   1.000  Hf
  Hf89     1.0000 0.53699  0.56505  0.94322  Biso   1.000  Hf
  Hf90     1.0000 0.96451  0.93407  0.69590  Biso   1.000  Hf
  Hf91     1.0000 0.96178  0.81456  0.94151  Biso   1.000  Hf
  Hf92     1.0000 0.77059  0.61778  0.74989  Biso   1.000  Hf
  Hf93     1.0000 0.77089  0.63232  0.99984  Biso   1.000  Hf
  Hf94     1.0000 0.72902  0.88271  0.99887  Biso   1.000  Hf
  Hf95     1.0000 0.72927  0.86802  0.74950  Biso   1.000  Hf
