data_image0
_cell_length_a       9.97164
_cell_length_b       10.3553
_cell_length_c       10.0018
_cell_angle_alpha    89.8509
_cell_angle_beta     89.7613
_cell_angle_gamma    90.0171

_symmetry_space_group_name_H-M    "P 1"
_symmetry_int_tables_number       1

loop_
  _symmetry_equiv_pos_as_xyz
  'x, y, z'

loop_
  _atom_site_label
  _atom_site_occupancy
  _atom_site_fract_x
  _atom_site_fract_y
  _atom_site_fract_z
  _atom_site_thermal_displace_type
  _atom_site_B_iso_or_equiv
  _atom_site_type_symbol
  N1       1.0000 0.04020  0.05183  0.11692  Biso   1.000  N 
  Hf1      1.0000 0.14538  0.23023  0.37884  Biso   1.000  Hf
  Hf2      1.0000 0.36403  0.26147  0.12723  Biso   1.000  Hf
  Hf3      1.0000 0.36725  0.48363  0.37582  Biso   1.000  Hf
  Hf4      1.0000 0.03495  0.16722  0.17864  Biso   1.000  Hf
  Hf5      1.0000 0.03617  0.06902  0.44799  Biso   1.000  Hf
  Hf6      1.0000 0.46211  0.43356  0.19501  Biso   1.000  Hf
  Hf7      1.0000 0.46473  0.31621  0.44676  Biso   1.000  Hf
  Hf8      1.0000 0.28670  0.13198  0.26222  Biso   1.000  Hf
  Hf9      1.0000 0.26913  0.13145  0.50782  Biso   1.000  Hf
  Hf10     1.0000 0.23056  0.38037  0.50112  Biso   1.000  Hf
  Hf11     1.0000 0.22486  0.36812  0.24967  Biso   1.000  Hf
  Hf12     1.0000 0.13568  0.01511  0.62895  Biso   1.000  Hf
  Hf13     1.0000 0.14176  0.23633  0.88221  Biso   1.000  Hf
  Hf14     1.0000 0.36639  0.26664  0.62886  Biso   1.000  Hf
  Hf15     1.0000 0.36800  0.48385  0.87754  Biso   1.000  Hf
  Hf16     1.0000 0.02687  0.17281  0.71754  Biso   1.000  Hf
  Hf17     1.0000 0.02566  0.06334  0.98592  Biso   1.000  Hf
  Hf18     1.0000 0.46413  0.43500  0.69344  Biso   1.000  Hf
  Hf19     1.0000 0.46579  0.31758  0.94148  Biso   1.000  Hf
  Hf20     1.0000 0.26750  0.11745  0.75266  Biso   1.000  Hf
  Hf21     1.0000 0.27583  0.13753  0.99544  Biso   1.000  Hf
  Hf22     1.0000 0.23063  0.38324  0.00212  Biso   1.000  Hf
  Hf23     1.0000 0.22948  0.36736  0.75276  Biso   1.000  Hf
  Hf24     1.0000 0.13508  0.51606  0.12770  Biso   1.000  Hf
  Hf25     1.0000 0.13859  0.73534  0.37666  Biso   1.000  Hf
  Hf26     1.0000 0.36222  0.76818  0.12524  Biso   1.000  Hf
  Hf27     1.0000 0.36213  0.98257  0.36991  Biso   1.000  Hf
  Hf28     1.0000 0.03697  0.68900  0.19332  Biso   1.000  Hf
  Hf29     1.0000 0.03697  0.56555  0.44533  Biso   1.000  Hf
  Hf30     1.0000 0.47262  0.93211  0.19744  Biso   1.000  Hf
  Hf31     1.0000 0.47101  0.81799  0.45176  Biso   1.000  Hf
  Hf32     1.0000 0.26909  0.61354  0.25036  Biso   1.000  Hf
  Hf33     1.0000 0.27370  0.63185  0.50072  Biso   1.000  Hf
  Hf34     1.0000 0.23011  0.88227  0.50333  Biso   1.000  Hf
  Hf35     1.0000 0.24469  0.85694  0.26018  Biso   1.000  Hf
  Hf36     1.0000 0.13588  0.51852  0.62607  Biso   1.000  Hf
  Hf37     1.0000 0.13883  0.73501  0.88052  Biso   1.000  Hf
  Hf38     1.0000 0.36739  0.76875  0.62738  Biso   1.000  Hf
  Hf39     1.0000 0.35900  0.98308  0.88584  Biso   1.000  Hf
  Hf40     1.0000 0.03736  0.68342  0.69294  Biso   1.000  Hf
  Hf41     1.0000 0.03396  0.56766  0.94802  Biso   1.000  Hf
  Hf42     1.0000 0.46227  0.93410  0.70027  Biso   1.000  Hf
  Hf43     1.0000 0.46925  0.81775  0.94684  Biso   1.000  Hf
  Hf44     1.0000 0.27137  0.61899  0.75158  Biso   1.000  Hf
  Hf45     1.0000 0.27283  0.62680  0.00201  Biso   1.000  Hf
  Hf46     1.0000 0.23332  0.87112  0.99809  Biso   1.000  Hf
  Hf47     1.0000 0.22713  0.86983  0.75071  Biso   1.000  Hf
  Hf48     1.0000 0.63560  0.01723  0.12401  Biso   1.000  Hf
  Hf49     1.0000 0.63196  0.23366  0.37534  Biso   1.000  Hf
  Hf50     1.0000 0.85336  0.27420  0.12125  Biso   1.000  Hf
  Hf51     1.0000 0.86853  0.48184  0.37660  Biso   1.000  Hf
  Hf52     1.0000 0.54447  0.18738  0.18919  Biso   1.000  Hf
  Hf53     1.0000 0.53624  0.06627  0.44144  Biso   1.000  Hf
  Hf54     1.0000 0.96636  0.42500  0.19683  Biso   1.000  Hf
  Hf55     1.0000 0.96759  0.31286  0.44431  Biso   1.000  Hf
  Hf56     1.0000 0.77629  0.12042  0.24780  Biso   1.000  Hf
  Hf57     1.0000 0.77026  0.13239  0.49818  Biso   1.000  Hf
  Hf58     1.0000 0.73229  0.38125  0.49954  Biso   1.000  Hf
  Hf59     1.0000 0.72598  0.37153  0.25019  Biso   1.000  Hf
  Hf60     1.0000 0.62680  0.01331  0.62220  Biso   1.000  Hf
  Hf61     1.0000 0.63080  0.23104  0.87306  Biso   1.000  Hf
  Hf62     1.0000 0.86881  0.26298  0.62591  Biso   1.000  Hf
  Hf63     1.0000 0.86898  0.48243  0.87244  Biso   1.000  Hf
  Hf64     1.0000 0.53509  0.18344  0.69288  Biso   1.000  Hf
  Hf65     1.0000 0.53674  0.06502  0.94603  Biso   1.000  Hf
  Hf66     1.0000 0.96772  0.42981  0.69397  Biso   1.000  Hf
  Hf67     1.0000 0.96632  0.31620  0.94808  Biso   1.000  Hf
  Hf68     1.0000 0.76434  0.11282  0.74489  Biso   1.000  Hf
  Hf69     1.0000 0.77298  0.13222  0.99481  Biso   1.000  Hf
  Hf70     1.0000 0.72914  0.38342  0.99847  Biso   1.000  Hf
  Hf71     1.0000 0.73231  0.36426  0.74835  Biso   1.000  Hf
  Hf72     1.0000 0.63037  0.51842  0.12749  Biso   1.000  Hf
  Hf73     1.0000 0.63581  0.73552  0.37243  Biso   1.000  Hf
  Hf74     1.0000 0.86807  0.76016  0.11578  Biso   1.000  Hf
  Hf75     1.0000 0.86521  0.98921  0.38172  Biso   1.000  Hf
  Hf76     1.0000 0.53862  0.68556  0.19480  Biso   1.000  Hf
  Hf77     1.0000 0.53883  0.56601  0.44153  Biso   1.000  Hf
  Hf78     1.0000 0.97192  0.96036  0.17631  Biso   1.000  Hf
  Hf79     1.0000 0.96605  0.82012  0.43915  Biso   1.000  Hf
  Hf80     1.0000 0.77430  0.61560  0.24628  Biso   1.000  Hf
  Hf81     1.0000 0.77105  0.63316  0.49639  Biso   1.000  Hf
  Hf82     1.0000 0.73169  0.88363  0.49817  Biso   1.000  Hf
  Hf83     1.0000 0.74828  0.86862  0.24645  Biso   1.000  Hf
  Hf84     1.0000 0.63473  0.51564  0.62360  Biso   1.000  Hf
  Hf85     1.0000 0.63150  0.73285  0.87382  Biso   1.000  Hf
  Hf86     1.0000 0.86893  0.76389  0.62231  Biso   1.000  Hf
  Hf87     1.0000 0.85866  0.97973  0.86794  Biso   1.000  Hf
  Hf88     1.0000 0.53713  0.68279  0.69432  Biso   1.000  Hf
  Hf89     1.0000 0.53760  0.56569  0.94468  Biso   1.000  Hf
  Hf90     1.0000 0.96303  0.93198  0.69321  Biso   1.000  Hf
  Hf91     1.0000 0.96275  0.81728  0.93790  Biso   1.000  Hf
  Hf92     1.0000 0.77255  0.61477  0.74638  Biso   1.000  Hf
  Hf93     1.0000 0.77042  0.63215  0.99716  Biso   1.000  Hf
  Hf94     1.0000 0.73042  0.88221  0.99671  Biso   1.000  Hf
  Hf95     1.0000 0.73014  0.86492  0.74708  Biso   1.000  Hf
