data_image0
_cell_length_a       10.0434
_cell_length_b       5.04543
_cell_length_c       10.0433
_cell_angle_alpha    89.9986
_cell_angle_beta     89.9987
_cell_angle_gamma    89.9969

_symmetry_space_group_name_H-M    "P 1"
_symmetry_int_tables_number       1

loop_
  _symmetry_equiv_pos_as_xyz
  'x, y, z'

loop_
  _atom_site_label
  _atom_site_occupancy
  _atom_site_fract_x
  _atom_site_fract_y
  _atom_site_fract_z
  _atom_site_thermal_displace_type
  _atom_site_B_iso_or_equiv
  _atom_site_type_symbol
  Na1      1.0000 0.12498  0.00045  0.12500  Biso   1.000  Na
  Hf1      1.0000 0.12498  0.00044  0.62499  Biso   1.000  Hf
  Hf2      1.0000 0.62498  0.00044  0.12500  Biso   1.000  Hf
  Hf3      1.0000 0.62498  0.00046  0.62500  Biso   1.000  Hf
  Hf4      1.0000 0.12497  0.50047  0.37165  Biso   1.000  Hf
  Hf5      1.0000 0.12497  0.50042  0.87835  Biso   1.000  Hf
  Hf6      1.0000 0.62499  0.50046  0.37493  Biso   1.000  Hf
  Hf7      1.0000 0.62498  0.50044  0.87507  Biso   1.000  Hf
  Hf8      1.0000 0.37163  0.50047  0.12499  Biso   1.000  Hf
  Hf9      1.0000 0.37491  0.50046  0.62500  Biso   1.000  Hf
  Hf10     1.0000 0.87833  0.50042  0.12499  Biso   1.000  Hf
  Hf11     1.0000 0.87505  0.50044  0.62500  Biso   1.000  Hf
  Hf12     1.0000 0.37300  0.99923  0.37301  Biso   1.000  Hf
  Hf13     1.0000 0.37299  0.00164  0.87697  Biso   1.000  Hf
  Hf14     1.0000 0.87696  0.00166  0.37301  Biso   1.000  Hf
  Hf15     1.0000 0.87697  0.99924  0.87698  Biso   1.000  Hf
  Hf16     1.0000 0.99492  0.27696  0.99494  Biso   1.000  Hf
  Hf17     1.0000 0.00400  0.28195  0.50532  Biso   1.000  Hf
  Hf18     1.0000 0.50529  0.28194  0.00402  Biso   1.000  Hf
  Hf19     1.0000 0.50343  0.28768  0.50345  Biso   1.000  Hf
  Hf20     1.0000 0.99162  0.24673  0.25838  Biso   1.000  Hf
  Hf21     1.0000 0.99730  0.21781  0.75053  Biso   1.000  Hf
  Hf22     1.0000 0.49948  0.21785  0.25271  Biso   1.000  Hf
  Hf23     1.0000 0.49802  0.21395  0.75198  Biso   1.000  Hf
  Hf24     1.0000 0.99490  0.72392  0.25505  Biso   1.000  Hf
  Hf25     1.0000 0.00400  0.71893  0.74467  Biso   1.000  Hf
  Hf26     1.0000 0.50527  0.71899  0.24600  Biso   1.000  Hf
  Hf27     1.0000 0.50342  0.71323  0.74656  Biso   1.000  Hf
  Hf28     1.0000 0.99160  0.75416  0.99162  Biso   1.000  Hf
  Hf29     1.0000 0.99730  0.78308  0.49947  Biso   1.000  Hf
  Hf30     1.0000 0.49945  0.78308  0.99732  Biso   1.000  Hf
  Hf31     1.0000 0.49801  0.78698  0.49803  Biso   1.000  Hf
  Hf32     1.0000 0.25505  0.27696  0.25506  Biso   1.000  Hf
  Hf33     1.0000 0.24597  0.28192  0.74469  Biso   1.000  Hf
  Hf34     1.0000 0.74468  0.28193  0.24598  Biso   1.000  Hf
  Hf35     1.0000 0.74654  0.28770  0.74655  Biso   1.000  Hf
  Hf36     1.0000 0.25835  0.24673  0.99163  Biso   1.000  Hf
  Hf37     1.0000 0.25268  0.21786  0.49948  Biso   1.000  Hf
  Hf38     1.0000 0.75050  0.21779  0.99730  Biso   1.000  Hf
  Hf39     1.0000 0.75196  0.21394  0.49802  Biso   1.000  Hf
  Hf40     1.0000 0.25504  0.72392  0.99492  Biso   1.000  Hf
  Hf41     1.0000 0.24597  0.71899  0.50530  Biso   1.000  Hf
  Hf42     1.0000 0.74466  0.71893  0.00403  Biso   1.000  Hf
  Hf43     1.0000 0.74653  0.71322  0.50346  Biso   1.000  Hf
  Hf44     1.0000 0.25834  0.75416  0.25836  Biso   1.000  Hf
  Hf45     1.0000 0.25268  0.78305  0.75051  Biso   1.000  Hf
  Hf46     1.0000 0.75048  0.78307  0.25271  Biso   1.000  Hf
  Hf47     1.0000 0.75195  0.78699  0.75199  Biso   1.000  Hf
