data_image0
_cell_length_a       10.1214
_cell_length_b       10.2356
_cell_length_c       5.22048
_cell_angle_alpha    89.9638
_cell_angle_beta     89.7224
_cell_angle_gamma    90.0181

_symmetry_space_group_name_H-M    "P 1"
_symmetry_int_tables_number       1

loop_
  _symmetry_equiv_pos_as_xyz
  'x, y, z'

loop_
  _atom_site_label
  _atom_site_occupancy
  _atom_site_fract_x
  _atom_site_fract_y
  _atom_site_fract_z
  _atom_site_thermal_displace_type
  _atom_site_B_iso_or_equiv
  _atom_site_type_symbol
  Na1      1.0000 0.14021  0.01248  0.34030  Biso   1.000  Na
  Hf1      1.0000 0.14051  0.52113  0.34643  Biso   1.000  Hf
  Hf2      1.0000 0.14286  0.22915  0.84843  Biso   1.000  Hf
  Hf3      1.0000 0.14428  0.73173  0.84489  Biso   1.000  Hf
  Hf4      1.0000 0.35735  0.26654  0.34639  Biso   1.000  Hf
  Hf5      1.0000 0.35890  0.77354  0.34379  Biso   1.000  Hf
  Hf6      1.0000 0.35982  0.47797  0.84596  Biso   1.000  Hf
  Hf7      1.0000 0.35682  0.97853  0.84450  Biso   1.000  Hf
  Hf8      1.0000 0.63866  0.02070  0.15372  Biso   1.000  Hf
  Hf9      1.0000 0.63667  0.52046  0.15434  Biso   1.000  Hf
  Hf10     1.0000 0.63810  0.22860  0.65418  Biso   1.000  Hf
  Hf11     1.0000 0.63848  0.73001  0.65215  Biso   1.000  Hf
  Hf12     1.0000 0.85829  0.27105  0.14943  Biso   1.000  Hf
  Hf13     1.0000 0.86050  0.77030  0.15527  Biso   1.000  Hf
  Hf14     1.0000 0.85979  0.48079  0.65361  Biso   1.000  Hf
  Hf15     1.0000 0.86183  0.97839  0.65197  Biso   1.000  Hf
  O1       1.0000 0.02664  0.16730  0.15395  Biso   1.000  O
  O2       1.0000 0.02937  0.65878  0.16109  Biso   1.000  O
  O3       1.0000 0.02047  0.09572  0.69946  Biso   1.000  O
  O4       1.0000 0.02912  0.59092  0.65984  Biso   1.000  O
  O5       1.0000 0.46741  0.41230  0.16684  Biso   1.000  O
  O6       1.0000 0.47123  0.91328  0.16414  Biso   1.000  O
  O7       1.0000 0.46919  0.33699  0.66663  Biso   1.000  O
  O8       1.0000 0.47329  0.84037  0.66082  Biso   1.000  O
  O9       1.0000 0.28163  0.12961  0.60762  Biso   1.000  O
  O10      1.0000 0.27641  0.62097  0.59280  Biso   1.000  O
  O11      1.0000 0.28750  0.13485  0.07777  Biso   1.000  O
  O12      1.0000 0.27486  0.62210  0.09546  Biso   1.000  O
  O13      1.0000 0.22410  0.37534  0.59423  Biso   1.000  O
  O14      1.0000 0.23257  0.86662  0.59865  Biso   1.000  O
  O15      1.0000 0.22291  0.37702  0.09628  Biso   1.000  O
  O16      1.0000 0.23652  0.86563  0.08044  Biso   1.000  O
  O17      1.0000 0.53294  0.16492  0.33139  Biso   1.000  O
  O18      1.0000 0.53095  0.66232  0.33423  Biso   1.000  O
  O19      1.0000 0.53357  0.08388  0.82863  Biso   1.000  O
  O20      1.0000 0.52947  0.58722  0.83399  Biso   1.000  O
  O21      1.0000 0.96970  0.41068  0.33662  Biso   1.000  O
  O22      1.0000 0.95898  0.90311  0.35069  Biso   1.000  O
  O23      1.0000 0.96983  0.34499  0.83652  Biso   1.000  O
  O24      1.0000 0.97202  0.83970  0.84332  Biso   1.000  O
  O25      1.0000 0.77222  0.12688  0.90882  Biso   1.000  O
  O26      1.0000 0.77270  0.62334  0.90423  Biso   1.000  O
  O27      1.0000 0.77500  0.12600  0.40805  Biso   1.000  O
  O28      1.0000 0.77429  0.62568  0.40452  Biso   1.000  O
  O29      1.0000 0.72310  0.37510  0.90329  Biso   1.000  O
  O30      1.0000 0.72713  0.87406  0.90461  Biso   1.000  O
  O31      1.0000 0.72450  0.37705  0.40506  Biso   1.000  O
  O32      1.0000 0.71731  0.87588  0.40462  Biso   1.000  O
