data_image0
_cell_length_a       10.0325
_cell_length_b       5.12556
_cell_length_c       10.5711
_cell_angle_alpha    89.9165
_cell_angle_beta     90.9881
_cell_angle_gamma    90.3844

_symmetry_space_group_name_H-M    "P 1"
_symmetry_int_tables_number       1

loop_
  _symmetry_equiv_pos_as_xyz
  'x, y, z'

loop_
  _atom_site_label
  _atom_site_occupancy
  _atom_site_fract_x
  _atom_site_fract_y
  _atom_site_fract_z
  _atom_site_thermal_displace_type
  _atom_site_B_iso_or_equiv
  _atom_site_type_symbol
  Hf1      1.0000 0.13901  0.04551  0.17484  Biso   1.000  Hf
  Hf2      1.0000 0.13934  0.45383  0.42775  Biso   1.000  Hf
  Hf3      1.0000 0.35078  0.54877  0.18752  Biso   1.000  Hf
  Hf4      1.0000 0.36128  0.95684  0.42916  Biso   1.000  Hf
  Hf5      1.0000 0.64423  0.04214  0.08112  Biso   1.000  Hf
  Hf6      1.0000 0.63880  0.45530  0.33001  Biso   1.000  Hf
  Hf7      1.0000 0.86470  0.54074  0.07847  Biso   1.000  Hf
  Hf8      1.0000 0.86229  0.95646  0.32781  Biso   1.000  Hf
  O1       1.0000 0.03526  0.32877  0.08418  Biso   1.000  O
  O2       1.0000 0.03242  0.17297  0.33387  Biso   1.000  O
  O3       1.0000 0.46211  0.84806  0.09400  Biso   1.000  O
  O4       1.0000 0.46735  0.67145  0.33921  Biso   1.000  O
  O5       1.0000 0.27546  0.24899  0.30246  Biso   1.000  O
  O6       1.0000 0.28085  0.26042  0.04943  Biso   1.000  O
  O7       1.0000 0.21976  0.75119  0.30466  Biso   1.000  O
  O8       1.0000 0.22122  0.75722  0.05262  Biso   1.000  O
  O9       1.0000 0.52819  0.32312  0.17583  Biso   1.000  O
  O10      1.0000 0.53229  0.17112  0.42032  Biso   1.000  O
  O11      1.0000 0.96726  0.83011  0.16910  Biso   1.000  O
  O12      1.0000 0.96991  0.67301  0.41948  Biso   1.000  O
  O13      1.0000 0.77867  0.24754  0.45152  Biso   1.000  O
  O14      1.0000 0.77811  0.25212  0.20331  Biso   1.000  O
  O15      1.0000 0.72539  0.74811  0.45341  Biso   1.000  O
  O16      1.0000 0.72221  0.74613  0.20304  Biso   1.000  O
  Hf9      1.0000 0.14207  0.04190  0.67640  Biso   1.000  Hf
  Hf10     1.0000 0.14224  0.45924  0.92534  Biso   1.000  Hf
  Hf11     1.0000 0.36396  0.54390  0.67704  Biso   1.000  Hf
  Hf12     1.0000 0.36177  0.96418  0.92621  Biso   1.000  Hf
  Hf13     1.0000 0.64280  0.03772  0.57421  Biso   1.000  Hf
  Hf14     1.0000 0.65266  0.44516  0.81061  Biso   1.000  Hf
  Hf15     1.0000 0.86661  0.54354  0.57582  Biso   1.000  Hf
  Hf16     1.0000 0.86604  0.95271  0.83011  Biso   1.000  Hf
  O17      1.0000 0.03487  0.32505  0.58455  Biso   1.000  O
  O18      1.0000 0.03645  0.17052  0.83521  Biso   1.000  O
  O19      1.0000 0.47202  0.82348  0.58499  Biso   1.000  O
  O20      1.0000 0.47455  0.67118  0.83416  Biso   1.000  O
  O21      1.0000 0.28020  0.25101  0.80041  Biso   1.000  O
  O22      1.0000 0.27922  0.25014  0.55108  Biso   1.000  O
  O23      1.0000 0.22737  0.74887  0.80152  Biso   1.000  O
  O24      1.0000 0.22548  0.75037  0.55284  Biso   1.000  O
  O25      1.0000 0.53477  0.32166  0.66580  Biso   1.000  O
  O26      1.0000 0.53827  0.16734  0.91767  Biso   1.000  O
  O27      1.0000 0.97192  0.82461  0.67107  Biso   1.000  O
  O28      1.0000 0.96978  0.66960  0.91994  Biso   1.000  O
  O29      1.0000 0.78159  0.24492  0.95030  Biso   1.000  O
  O30      1.0000 0.78448  0.24347  0.69784  Biso   1.000  O
  O31      1.0000 0.72320  0.74161  0.95479  Biso   1.000  O
  O32      1.0000 0.72911  0.74715  0.70157  Biso   1.000  O
  Na1      1.0000 0.54052  0.53135  0.01269  Biso   1.000  Na
