data_image0
_cell_length_a       5.00105
_cell_length_b       10.1758
_cell_length_c       10.0048
_cell_angle_alpha    90.0008
_cell_angle_beta     90.0003
_cell_angle_gamma    90.0018

_symmetry_space_group_name_H-M    "P 1"
_symmetry_int_tables_number       1

loop_
  _symmetry_equiv_pos_as_xyz
  'x, y, z'

loop_
  _atom_site_label
  _atom_site_occupancy
  _atom_site_fract_x
  _atom_site_fract_y
  _atom_site_fract_z
  _atom_site_thermal_displace_type
  _atom_site_B_iso_or_equiv
  _atom_site_type_symbol
  Nb1      1.0000 0.25001  0.00016  0.12502  Biso   1.000  Nb
  Hf1      1.0000 0.25240  0.24915  0.37419  Biso   1.000  Hf
  Hf2      1.0000 0.75001  0.25093  0.12502  Biso   1.000  Hf
  Hf3      1.0000 0.75001  0.00015  0.37506  Biso   1.000  Hf
  Hf4      1.0000 0.98500  0.14618  0.99727  Biso   1.000  Hf
  Hf5      1.0000 0.01573  0.10118  0.25027  Biso   1.000  Hf
  Hf6      1.0000 0.99794  0.35205  0.25020  Biso   1.000  Hf
  Hf7      1.0000 0.00261  0.39747  0.99964  Biso   1.000  Hf
  Hf8      1.0000 0.51504  0.14618  0.25278  Biso   1.000  Hf
  Hf9      1.0000 0.48432  0.10118  0.99978  Biso   1.000  Hf
  Hf10     1.0000 0.50208  0.35206  0.99985  Biso   1.000  Hf
  Hf11     1.0000 0.49740  0.39747  0.25040  Biso   1.000  Hf
  Hf12     1.0000 0.25001  0.00015  0.62503  Biso   1.000  Hf
  Hf13     1.0000 0.24762  0.24915  0.87584  Biso   1.000  Hf
  Hf14     1.0000 0.75001  0.24993  0.62502  Biso   1.000  Hf
  Hf15     1.0000 0.75001  0.00015  0.87499  Biso   1.000  Hf
  Hf16     1.0000 0.99242  0.14732  0.49673  Biso   1.000  Hf
  Hf17     1.0000 0.00526  0.10333  0.74887  Biso   1.000  Hf
  Hf18     1.0000 0.99594  0.35311  0.75059  Biso   1.000  Hf
  Hf19     1.0000 0.00413  0.39706  0.49947  Biso   1.000  Hf
  Hf20     1.0000 0.50759  0.14733  0.75331  Biso   1.000  Hf
  Hf21     1.0000 0.49475  0.10333  0.50118  Biso   1.000  Hf
  Hf22     1.0000 0.50407  0.35311  0.49946  Biso   1.000  Hf
  Hf23     1.0000 0.49588  0.39706  0.75058  Biso   1.000  Hf
  Hf24     1.0000 0.25001  0.50016  0.12503  Biso   1.000  Hf
  Hf25     1.0000 0.24761  0.75116  0.37420  Biso   1.000  Hf
  Hf26     1.0000 0.75000  0.74938  0.12502  Biso   1.000  Hf
  Hf27     1.0000 0.75001  0.50015  0.37616  Biso   1.000  Hf
  Hf28     1.0000 0.99793  0.64825  0.99985  Biso   1.000  Hf
  Hf29     1.0000 0.00258  0.60283  0.25040  Biso   1.000  Hf
  Hf30     1.0000 0.98498  0.85412  0.25278  Biso   1.000  Hf
  Hf31     1.0000 0.01572  0.89913  0.99977  Biso   1.000  Hf
  Hf32     1.0000 0.50205  0.64825  0.25018  Biso   1.000  Hf
  Hf33     1.0000 0.49739  0.60283  0.99964  Biso   1.000  Hf
  Hf34     1.0000 0.51503  0.85412  0.99727  Biso   1.000  Hf
  Hf35     1.0000 0.48430  0.89913  0.25027  Biso   1.000  Hf
  Hf36     1.0000 0.25002  0.50015  0.62503  Biso   1.000  Hf
  Hf37     1.0000 0.25239  0.75116  0.87584  Biso   1.000  Hf
  Hf38     1.0000 0.75001  0.75037  0.62502  Biso   1.000  Hf
  Hf39     1.0000 0.75001  0.50015  0.87390  Biso   1.000  Hf
  Hf40     1.0000 0.99594  0.64719  0.49945  Biso   1.000  Hf
  Hf41     1.0000 0.00413  0.60324  0.75058  Biso   1.000  Hf
  Hf42     1.0000 0.99241  0.85298  0.75331  Biso   1.000  Hf
  Hf43     1.0000 0.00527  0.89697  0.50118  Biso   1.000  Hf
  Hf44     1.0000 0.50407  0.64719  0.75059  Biso   1.000  Hf
  Hf45     1.0000 0.49588  0.60324  0.49946  Biso   1.000  Hf
  Hf46     1.0000 0.50760  0.85298  0.49673  Biso   1.000  Hf
  Hf47     1.0000 0.49474  0.89697  0.74887  Biso   1.000  Hf
