data_image0
_cell_length_a       10.2008
_cell_length_b       10.2956
_cell_length_c       5.29809
_cell_angle_alpha    89.8178
_cell_angle_beta     79.4991
_cell_angle_gamma    89.8586

_symmetry_space_group_name_H-M    "P 1"
_symmetry_int_tables_number       1

loop_
  _symmetry_equiv_pos_as_xyz
  'x, y, z'

loop_
  _atom_site_label
  _atom_site_occupancy
  _atom_site_fract_x
  _atom_site_fract_y
  _atom_site_fract_z
  _atom_site_thermal_displace_type
  _atom_site_B_iso_or_equiv
  _atom_site_type_symbol
  Hf1      1.0000 0.13285  0.01886  0.29110  Biso   1.000  Hf
  Hf2      1.0000 0.13112  0.22828  0.78202  Biso   1.000  Hf
  Hf3      1.0000 0.35350  0.27570  0.16127  Biso   1.000  Hf
  Hf4      1.0000 0.35738  0.49132  0.70927  Biso   1.000  Hf
  O1       1.0000 0.03549  0.16316  0.14715  Biso   1.000  O
  O2       1.0000 0.02880  0.08356  0.64805  Biso   1.000  O
  O3       1.0000 0.47339  0.40265  0.36803  Biso   1.000  O
  O4       1.0000 0.48639  0.36393  0.86520  Biso   1.000  O
  O5       1.0000 0.27287  0.12091  0.44644  Biso   1.000  O
  O6       1.0000 0.28270  0.12350  0.93615  Biso   1.000  O
  O7       1.0000 0.21123  0.38997  0.01273  Biso   1.000  O
  O8       1.0000 0.23518  0.36613  0.50589  Biso   1.000  O
  Hf5      1.0000 0.13711  0.52418  0.29480  Biso   1.000  Hf
  Hf6      1.0000 0.13289  0.72900  0.79797  Biso   1.000  Hf
  Hf7      1.0000 0.36019  0.77069  0.20965  Biso   1.000  Hf
  Hf8      1.0000 0.35965  0.96537  0.70397  Biso   1.000  Hf
  O9       1.0000 0.02837  0.66348  0.15657  Biso   1.000  O
  O10      1.0000 0.03255  0.58634  0.65707  Biso   1.000  O
  O11      1.0000 0.46822  0.91101  0.35171  Biso   1.000  O
  O12      1.0000 0.46611  0.83264  0.85712  Biso   1.000  O
  O13      1.0000 0.27438  0.62823  0.48321  Biso   1.000  O
  O14      1.0000 0.27152  0.62862  0.98770  Biso   1.000  O
  O15      1.0000 0.22170  0.87913  0.02163  Biso   1.000  O
  O16      1.0000 0.21985  0.86632  0.51884  Biso   1.000  O
  Hf9      1.0000 0.63831  0.02314  0.29899  Biso   1.000  Hf
  Hf10     1.0000 0.64504  0.23297  0.80860  Biso   1.000  Hf
  Hf11     1.0000 0.86315  0.27276  0.22009  Biso   1.000  Hf
  Hf12     1.0000 0.86115  0.47964  0.71657  Biso   1.000  Hf
  O17      1.0000 0.52747  0.16597  0.16871  Biso   1.000  O
  O18      1.0000 0.53686  0.07644  0.68078  Biso   1.000  O
  O19      1.0000 0.96979  0.41220  0.35924  Biso   1.000  O
  O20      1.0000 0.96438  0.33825  0.85634  Biso   1.000  O
  O21      1.0000 0.77584  0.12934  0.48766  Biso   1.000  O
  O22      1.0000 0.77747  0.11988  0.99409  Biso   1.000  O
  O23      1.0000 0.72798  0.37800  0.03621  Biso   1.000  O
  O24      1.0000 0.72937  0.37391  0.53195  Biso   1.000  O
  Hf13     1.0000 0.63751  0.52100  0.29999  Biso   1.000  Hf
  Hf14     1.0000 0.63787  0.72700  0.79757  Biso   1.000  Hf
  Hf15     1.0000 0.85735  0.77188  0.21533  Biso   1.000  Hf
  Hf16     1.0000 0.85631  0.97825  0.71535  Biso   1.000  Hf
  O25      1.0000 0.52857  0.65702  0.14961  Biso   1.000  O
  O26      1.0000 0.53069  0.59522  0.64290  Biso   1.000  O
  O27      1.0000 0.96299  0.91173  0.35566  Biso   1.000  O
  O28      1.0000 0.96319  0.83696  0.85563  Biso   1.000  O
  O29      1.0000 0.77515  0.62850  0.48497  Biso   1.000  O
  O30      1.0000 0.77355  0.62192  0.98560  Biso   1.000  O
  O31      1.0000 0.72053  0.87863  0.02981  Biso   1.000  O
  O32      1.0000 0.72133  0.87207  0.52792  Biso   1.000  O
  Nb1      1.0000 0.40599  0.23428  0.61684  Biso   1.000  Nb
