data_image0
_cell_length_a       5.11157
_cell_length_b       10.2774
_cell_length_c       10.6117
_cell_angle_alpha    89.5685
_cell_angle_beta     79.7168
_cell_angle_gamma    89.919

_symmetry_space_group_name_H-M    "P 1"
_symmetry_int_tables_number       1

loop_
  _symmetry_equiv_pos_as_xyz
  'x, y, z'

loop_
  _atom_site_label
  _atom_site_occupancy
  _atom_site_fract_x
  _atom_site_fract_y
  _atom_site_fract_z
  _atom_site_thermal_displace_type
  _atom_site_B_iso_or_equiv
  _atom_site_type_symbol
  Hf1      1.0000 0.27307  0.01944  0.14474  Biso   1.000  Hf
  Hf2      1.0000 0.26721  0.23525  0.40606  Biso   1.000  Hf
  Hf3      1.0000 0.71389  0.26754  0.08935  Biso   1.000  Hf
  Hf4      1.0000 0.72181  0.49502  0.35806  Biso   1.000  Hf
  O1       1.0000 0.05834  0.15654  0.07012  Biso   1.000  O
  O2       1.0000 0.06788  0.07875  0.33233  Biso   1.000  O
  O3       1.0000 0.95746  0.39523  0.18762  Biso   1.000  O
  O4       1.0000 0.96254  0.36911  0.44297  Biso   1.000  O
  O5       1.0000 0.55289  0.11788  0.22830  Biso   1.000  O
  O6       1.0000 0.56596  0.11890  0.48380  Biso   1.000  O
  O7       1.0000 0.43961  0.38035  0.00731  Biso   1.000  O
  O8       1.0000 0.48370  0.36708  0.26226  Biso   1.000  O
  Hf5      1.0000 0.27557  0.02281  0.64522  Biso   1.000  Hf
  Hf6      1.0000 0.27189  0.22763  0.89218  Biso   1.000  Hf
  Hf7      1.0000 0.72390  0.27795  0.60802  Biso   1.000  Hf
  Hf8      1.0000 0.71754  0.48096  0.85536  Biso   1.000  Hf
  O9       1.0000 0.06516  0.16680  0.58138  Biso   1.000  O
  O10      1.0000 0.06029  0.08713  0.82324  Biso   1.000  O
  O11      1.0000 0.93433  0.41366  0.68375  Biso   1.000  O
  O12      1.0000 0.93892  0.34216  0.92399  Biso   1.000  O
  O13      1.0000 0.54616  0.12874  0.73737  Biso   1.000  O
  O14      1.0000 0.54333  0.12132  0.98249  Biso   1.000  O
  O15      1.0000 0.45221  0.38391  0.51751  Biso   1.000  O
  O16      1.0000 0.44757  0.37333  0.76202  Biso   1.000  O
  Hf9      1.0000 0.27638  0.51906  0.14751  Biso   1.000  Hf
  Hf10     1.0000 0.26860  0.72959  0.39845  Biso   1.000  Hf
  Hf11     1.0000 0.72088  0.77006  0.10356  Biso   1.000  Hf
  Hf12     1.0000 0.71184  0.96745  0.35361  Biso   1.000  Hf
  O17      1.0000 0.05816  0.65519  0.07302  Biso   1.000  O
  O18      1.0000 0.06617  0.59588  0.31831  Biso   1.000  O
  O19      1.0000 0.93438  0.90683  0.17779  Biso   1.000  O
  O20      1.0000 0.92849  0.83475  0.42953  Biso   1.000  O
  O21      1.0000 0.55151  0.62669  0.23958  Biso   1.000  O
  O22      1.0000 0.53971  0.62770  0.49425  Biso   1.000  O
  O23      1.0000 0.44756  0.87825  0.01141  Biso   1.000  O
  O24      1.0000 0.44095  0.86592  0.25935  Biso   1.000  O
  Hf13     1.0000 0.27083  0.52371  0.64914  Biso   1.000  Hf
  Hf14     1.0000 0.27254  0.72773  0.89767  Biso   1.000  Hf
  Hf15     1.0000 0.71828  0.77281  0.60749  Biso   1.000  Hf
  Hf16     1.0000 0.72097  0.97776  0.85293  Biso   1.000  Hf
  O25      1.0000 0.05282  0.66022  0.57515  Biso   1.000  O
  O26      1.0000 0.05832  0.59170  0.82543  Biso   1.000  O
  O27      1.0000 0.93456  0.91273  0.67610  Biso   1.000  O
  O28      1.0000 0.93392  0.83851  0.92736  Biso   1.000  O
  O29      1.0000 0.54548  0.62923  0.74215  Biso   1.000  O
  O30      1.0000 0.54762  0.62317  0.99140  Biso   1.000  O
  O31      1.0000 0.44072  0.87761  0.51233  Biso   1.000  O
  O32      1.0000 0.44638  0.87252  0.76172  Biso   1.000  O
  Nb1      1.0000 0.79430  0.23742  0.32431  Biso   1.000  Nb
