data_image0
_cell_length_a       10.0977
_cell_length_b       10.2697
_cell_length_c       10.4436
_cell_angle_alpha    90.0114
_cell_angle_beta     80.2487
_cell_angle_gamma    89.9386

_symmetry_space_group_name_H-M    "P 1"
_symmetry_int_tables_number       1

loop_
  _symmetry_equiv_pos_as_xyz
  'x, y, z'

loop_
  _atom_site_label
  _atom_site_occupancy
  _atom_site_fract_x
  _atom_site_fract_y
  _atom_site_fract_z
  _atom_site_thermal_displace_type
  _atom_site_B_iso_or_equiv
  _atom_site_type_symbol
  Nb1      1.0000 0.13934  0.02351  0.14693  Biso   1.000  Nb
  Hf1      1.0000 0.14002  0.22903  0.39555  Biso   1.000  Hf
  Hf2      1.0000 0.36082  0.27153  0.10435  Biso   1.000  Hf
  Hf3      1.0000 0.36149  0.47902  0.35405  Biso   1.000  Hf
  O1       1.0000 0.03659  0.16597  0.08061  Biso   1.000  O
  O2       1.0000 0.04038  0.07816  0.32654  Biso   1.000  O
  O3       1.0000 0.46375  0.42023  0.16899  Biso   1.000  O
  O4       1.0000 0.46409  0.33042  0.41935  Biso   1.000  O
  O5       1.0000 0.27784  0.12814  0.24086  Biso   1.000  O
  O6       1.0000 0.27750  0.12105  0.49092  Biso   1.000  O
  O7       1.0000 0.22266  0.37892  0.00956  Biso   1.000  O
  O8       1.0000 0.22403  0.37079  0.25956  Biso   1.000  O
  Hf4      1.0000 0.13892  0.02123  0.64567  Biso   1.000  Hf
  Hf5      1.0000 0.13895  0.22842  0.89526  Biso   1.000  Hf
  Hf6      1.0000 0.36140  0.27156  0.60407  Biso   1.000  Hf
  Hf7      1.0000 0.36073  0.47881  0.85436  Biso   1.000  Hf
  O9       1.0000 0.03563  0.16827  0.57861  Biso   1.000  O
  O10      1.0000 0.03545  0.08093  0.82954  Biso   1.000  O
  O11      1.0000 0.46389  0.42003  0.66953  Biso   1.000  O
  O12      1.0000 0.46302  0.32970  0.91937  Biso   1.000  O
  O13      1.0000 0.27680  0.12925  0.74099  Biso   1.000  O
  O14      1.0000 0.27462  0.12039  0.99249  Biso   1.000  O
  O15      1.0000 0.22309  0.37901  0.50920  Biso   1.000  O
  O16      1.0000 0.22307  0.37080  0.75934  Biso   1.000  O
  Hf8      1.0000 0.13907  0.52159  0.14587  Biso   1.000  Hf
  Hf9      1.0000 0.13906  0.72859  0.39577  Biso   1.000  Hf
  Hf10     1.0000 0.35891  0.77420  0.10476  Biso   1.000  Hf
  Hf11     1.0000 0.36093  0.97822  0.35386  Biso   1.000  Hf
  O17      1.0000 0.03559  0.66844  0.08018  Biso   1.000  O
  O18      1.0000 0.03600  0.57997  0.33071  Biso   1.000  O
  O19      1.0000 0.46491  0.91939  0.17063  Biso   1.000  O
  O20      1.0000 0.46482  0.83057  0.41989  Biso   1.000  O
  O21      1.0000 0.27642  0.63019  0.24064  Biso   1.000  O
  O22      1.0000 0.27717  0.62086  0.49073  Biso   1.000  O
  O23      1.0000 0.21753  0.88096  0.01029  Biso   1.000  O
  O24      1.0000 0.22099  0.87230  0.25954  Biso   1.000  O
  Hf12     1.0000 0.13885  0.52152  0.64582  Biso   1.000  Hf
  Hf13     1.0000 0.13862  0.72849  0.89593  Biso   1.000  Hf
  Hf14     1.0000 0.36134  0.77147  0.60425  Biso   1.000  Hf
  Hf15     1.0000 0.36006  0.97883  0.85480  Biso   1.000  Hf
  O25      1.0000 0.03588  0.66944  0.58036  Biso   1.000  O
  O26      1.0000 0.03559  0.58022  0.83029  Biso   1.000  O
  O27      1.0000 0.46363  0.91985  0.67006  Biso   1.000  O
  O28      1.0000 0.46208  0.83100  0.92046  Biso   1.000  O
  O29      1.0000 0.27663  0.62909  0.74059  Biso   1.000  O
  O30      1.0000 0.27663  0.62147  0.99076  Biso   1.000  O
  O31      1.0000 0.22351  0.87885  0.50948  Biso   1.000  O
  O32      1.0000 0.22305  0.87090  0.75957  Biso   1.000  O
  Hf16     1.0000 0.63911  0.02181  0.14612  Biso   1.000  Hf
  Hf17     1.0000 0.63939  0.22845  0.39565  Biso   1.000  Hf
  Hf18     1.0000 0.86089  0.27146  0.10410  Biso   1.000  Hf
  Hf19     1.0000 0.86112  0.47836  0.35379  Biso   1.000  Hf
  O33      1.0000 0.53577  0.16977  0.08062  Biso   1.000  O
  O34      1.0000 0.53672  0.08040  0.33086  Biso   1.000  O
  O35      1.0000 0.96484  0.41833  0.16959  Biso   1.000  O
  O36      1.0000 0.96375  0.32882  0.41836  Biso   1.000  O
  O37      1.0000 0.77827  0.12896  0.24054  Biso   1.000  O
  O38      1.0000 0.77785  0.12023  0.48997  Biso   1.000  O
  O39      1.0000 0.72303  0.37921  0.00943  Biso   1.000  O
  O40      1.0000 0.72322  0.37068  0.25901  Biso   1.000  O
  Hf20     1.0000 0.63871  0.02123  0.64589  Biso   1.000  Hf
  Hf21     1.0000 0.63863  0.22851  0.89575  Biso   1.000  Hf
  Hf22     1.0000 0.86101  0.27109  0.60379  Biso   1.000  Hf
  Hf23     1.0000 0.86083  0.47847  0.85421  Biso   1.000  Hf
  O41      1.0000 0.53677  0.17020  0.58070  Biso   1.000  O
  O42      1.0000 0.53533  0.08031  0.83086  Biso   1.000  O
  O43      1.0000 0.96419  0.41883  0.66946  Biso   1.000  O
  O44      1.0000 0.96411  0.32990  0.92022  Biso   1.000  O
  O45      1.0000 0.77634  0.12906  0.74030  Biso   1.000  O
  O46      1.0000 0.77648  0.12111  0.99028  Biso   1.000  O
  O47      1.0000 0.72351  0.37917  0.50935  Biso   1.000  O
  O48      1.0000 0.72308  0.37083  0.75947  Biso   1.000  O
  Hf24     1.0000 0.63849  0.52240  0.14557  Biso   1.000  Hf
  Hf25     1.0000 0.63953  0.72857  0.39586  Biso   1.000  Hf
  Hf26     1.0000 0.86183  0.77219  0.10379  Biso   1.000  Hf
  Hf27     1.0000 0.86177  0.97823  0.35332  Biso   1.000  Hf
  O49      1.0000 0.53473  0.67075  0.08121  Biso   1.000  O
  O50      1.0000 0.53641  0.58029  0.33074  Biso   1.000  O
  O51      1.0000 0.96919  0.91890  0.16860  Biso   1.000  O
  O52      1.0000 0.96444  0.83100  0.41978  Biso   1.000  O
  O53      1.0000 0.77708  0.62920  0.24029  Biso   1.000  O
  O54      1.0000 0.77725  0.62076  0.49063  Biso   1.000  O
  O55      1.0000 0.72234  0.87954  0.00946  Biso   1.000  O
  O56      1.0000 0.72566  0.87123  0.25930  Biso   1.000  O
  Hf28     1.0000 0.63904  0.52148  0.64608  Biso   1.000  Hf
  Hf29     1.0000 0.63797  0.72888  0.89675  Biso   1.000  Hf
  Hf30     1.0000 0.86085  0.77140  0.60438  Biso   1.000  Hf
  Hf31     1.0000 0.86072  0.97851  0.85416  Biso   1.000  Hf
  O57      1.0000 0.53656  0.66987  0.58064  Biso   1.000  O
  O58      1.0000 0.53567  0.58044  0.83094  Biso   1.000  O
  O59      1.0000 0.96395  0.91938  0.66956  Biso   1.000  O
  O60      1.0000 0.96320  0.82996  0.91920  Biso   1.000  O
  O61      1.0000 0.77657  0.62911  0.74097  Biso   1.000  O
  O62      1.0000 0.77629  0.62109  0.99066  Biso   1.000  O
  O63      1.0000 0.72352  0.87917  0.50922  Biso   1.000  O
  O64      1.0000 0.72265  0.87085  0.75959  Biso   1.000  O
