data_image0
_cell_length_a       10.0025
_cell_length_b       10.2065
_cell_length_c       10.4214
_cell_angle_alpha    90.0252
_cell_angle_beta     90.4107
_cell_angle_gamma    89.7262

_symmetry_space_group_name_H-M    "P 1"
_symmetry_int_tables_number       1

loop_
  _symmetry_equiv_pos_as_xyz
  'x, y, z'

loop_
  _atom_site_label
  _atom_site_occupancy
  _atom_site_fract_x
  _atom_site_fract_y
  _atom_site_fract_z
  _atom_site_thermal_displace_type
  _atom_site_B_iso_or_equiv
  _atom_site_type_symbol
  Ni1      1.0000 0.12261  0.01138  0.19495  Biso   1.000  Ni
  Hf1      1.0000 0.13768  0.02054  0.66792  Biso   1.000  Hf
  Hf2      1.0000 0.13899  0.52306  0.17100  Biso   1.000  Hf
  Hf3      1.0000 0.13949  0.52049  0.67305  Biso   1.000  Hf
  Hf4      1.0000 0.14010  0.23137  0.41557  Biso   1.000  Hf
  Hf5      1.0000 0.14522  0.22332  0.92389  Biso   1.000  Hf
  Hf6      1.0000 0.13529  0.72840  0.42229  Biso   1.000  Hf
  Hf7      1.0000 0.13981  0.73337  0.92217  Biso   1.000  Hf
  Hf8      1.0000 0.35889  0.26996  0.16695  Biso   1.000  Hf
  Hf9      1.0000 0.36129  0.27154  0.67029  Biso   1.000  Hf
  Hf10     1.0000 0.35632  0.77769  0.16870  Biso   1.000  Hf
  Hf11     1.0000 0.36155  0.77158  0.67158  Biso   1.000  Hf
  Hf12     1.0000 0.36039  0.47994  0.42095  Biso   1.000  Hf
  Hf13     1.0000 0.36147  0.47912  0.92154  Biso   1.000  Hf
  Hf14     1.0000 0.35766  0.98084  0.41827  Biso   1.000  Hf
  Hf15     1.0000 0.36073  0.98224  0.92229  Biso   1.000  Hf
  Hf16     1.0000 0.63970  0.02229  0.07702  Biso   1.000  Hf
  Hf17     1.0000 0.63615  0.02068  0.57893  Biso   1.000  Hf
  Hf18     1.0000 0.63923  0.52060  0.07925  Biso   1.000  Hf
  Hf19     1.0000 0.63902  0.52049  0.58047  Biso   1.000  Hf
  Hf20     1.0000 0.63718  0.22924  0.32837  Biso   1.000  Hf
  Hf21     1.0000 0.64053  0.22993  0.82970  Biso   1.000  Hf
  Hf22     1.0000 0.63491  0.72771  0.32768  Biso   1.000  Hf
  Hf23     1.0000 0.63930  0.72920  0.82995  Biso   1.000  Hf
  Hf24     1.0000 0.86962  0.26496  0.08417  Biso   1.000  Hf
  Hf25     1.0000 0.86097  0.27002  0.57902  Biso   1.000  Hf
  Hf26     1.0000 0.86310  0.77169  0.07883  Biso   1.000  Hf
  Hf27     1.0000 0.85869  0.76970  0.58057  Biso   1.000  Hf
  Hf28     1.0000 0.86000  0.47910  0.32940  Biso   1.000  Hf
  Hf29     1.0000 0.86484  0.47609  0.83308  Biso   1.000  Hf
  Hf30     1.0000 0.85596  0.97687  0.33077  Biso   1.000  Hf
  Hf31     1.0000 0.86221  0.98000  0.82889  Biso   1.000  Hf
  O1       1.0000 0.04789  0.15332  0.09466  Biso   1.000  O
  O2       1.0000 0.03185  0.16114  0.57497  Biso   1.000  O
  O3       1.0000 0.03521  0.66946  0.08622  Biso   1.000  O
  O4       1.0000 0.03192  0.66449  0.58539  Biso   1.000  O
  O5       1.0000 0.03557  0.07799  0.33249  Biso   1.000  O
  O6       1.0000 0.03422  0.08524  0.83103  Biso   1.000  O
  O7       1.0000 0.03259  0.58233  0.33605  Biso   1.000  O
  O8       1.0000 0.03567  0.58354  0.83753  Biso   1.000  O
  O9       1.0000 0.46614  0.41831  0.08597  Biso   1.000  O
  O10      1.0000 0.46485  0.41951  0.58580  Biso   1.000  O
  O11      1.0000 0.46848  0.91744  0.08381  Biso   1.000  O
  O12      1.0000 0.46324  0.91895  0.58439  Biso   1.000  O
  O13      1.0000 0.46281  0.32915  0.33769  Biso   1.000  O
  O14      1.0000 0.46785  0.33385  0.83424  Biso   1.000  O
  O15      1.0000 0.45949  0.83235  0.33475  Biso   1.000  O
  O16      1.0000 0.46633  0.83260  0.83511  Biso   1.000  O
  O17      1.0000 0.26563  0.11650  0.28008  Biso   1.000  O
  O18      1.0000 0.27633  0.12138  0.78639  Biso   1.000  O
  O19      1.0000 0.27467  0.62808  0.29470  Biso   1.000  O
  O20      1.0000 0.27727  0.62381  0.79462  Biso   1.000  O
  O21      1.0000 0.30151  0.14484  0.02593  Biso   1.000  O
  O22      1.0000 0.27680  0.12884  0.53746  Biso   1.000  O
  O23      1.0000 0.27804  0.63219  0.04373  Biso   1.000  O
  O24      1.0000 0.27543  0.62605  0.54522  Biso   1.000  O
  O25      1.0000 0.22348  0.37504  0.29412  Biso   1.000  O
  O26      1.0000 0.22481  0.37203  0.79565  Biso   1.000  O
  O27      1.0000 0.21103  0.87841  0.29126  Biso   1.000  O
  O28      1.0000 0.22317  0.87372  0.79514  Biso   1.000  O
  O29      1.0000 0.22081  0.38249  0.04478  Biso   1.000  O
  O30      1.0000 0.22159  0.37601  0.54346  Biso   1.000  O
  O31      1.0000 0.21900  0.88997  0.04858  Biso   1.000  O
  O32      1.0000 0.22239  0.87637  0.54292  Biso   1.000  O
  O33      1.0000 0.53588  0.16895  0.16341  Biso   1.000  O
  O34      1.0000 0.53492  0.16952  0.66287  Biso   1.000  O
  O35      1.0000 0.53181  0.66931  0.16330  Biso   1.000  O
  O36      1.0000 0.53516  0.66876  0.66367  Biso   1.000  O
  O37      1.0000 0.53196  0.08101  0.41207  Biso   1.000  O
  O38      1.0000 0.53935  0.07994  0.91048  Biso   1.000  O
  O39      1.0000 0.53339  0.58152  0.41367  Biso   1.000  O
  O40      1.0000 0.53591  0.58158  0.91404  Biso   1.000  O
  O41      1.0000 0.96753  0.41662  0.16703  Biso   1.000  O
  O42      1.0000 0.96897  0.41151  0.66976  Biso   1.000  O
  O43      1.0000 0.96758  0.92106  0.16819  Biso   1.000  O
  O44      1.0000 0.96615  0.91452  0.66619  Biso   1.000  O
  O45      1.0000 0.96485  0.33104  0.41394  Biso   1.000  O
  O46      1.0000 0.97119  0.32940  0.92355  Biso   1.000  O
  O47      1.0000 0.96270  0.83263  0.41742  Biso   1.000  O
  O48      1.0000 0.96595  0.83396  0.91629  Biso   1.000  O
  O49      1.0000 0.78051  0.12379  0.95665  Biso   1.000  O
  O50      1.0000 0.77530  0.12229  0.45529  Biso   1.000  O
  O51      1.0000 0.77918  0.62379  0.95777  Biso   1.000  O
  O52      1.0000 0.77492  0.62315  0.45622  Biso   1.000  O
  O53      1.0000 0.77761  0.12491  0.20667  Biso   1.000  O
  O54      1.0000 0.77713  0.12637  0.70480  Biso   1.000  O
  O55      1.0000 0.77551  0.62632  0.20623  Biso   1.000  O
  O56      1.0000 0.77802  0.62457  0.70792  Biso   1.000  O
  O57      1.0000 0.72770  0.37231  0.95826  Biso   1.000  O
  O58      1.0000 0.72309  0.37315  0.45691  Biso   1.000  O
  O59      1.0000 0.72452  0.87363  0.95559  Biso   1.000  O
  O60      1.0000 0.71903  0.87222  0.45540  Biso   1.000  O
  O61      1.0000 0.72517  0.37437  0.20647  Biso   1.000  O
  O62      1.0000 0.72513  0.37656  0.70707  Biso   1.000  O
  O63      1.0000 0.72619  0.87595  0.20555  Biso   1.000  O
  O64      1.0000 0.72276  0.87651  0.70570  Biso   1.000  O
