data_image0
_cell_length_a       10.0876
_cell_length_b       10.2339
_cell_length_c       10.4388
_cell_angle_alpha    90.0474
_cell_angle_beta     80.6533
_cell_angle_gamma    89.6507

_symmetry_space_group_name_H-M    "P 1"
_symmetry_int_tables_number       1

loop_
  _symmetry_equiv_pos_as_xyz
  'x, y, z'

loop_
  _atom_site_label
  _atom_site_occupancy
  _atom_site_fract_x
  _atom_site_fract_y
  _atom_site_fract_z
  _atom_site_thermal_displace_type
  _atom_site_B_iso_or_equiv
  _atom_site_type_symbol
  Ni1      1.0000 0.12305  0.00994  0.17125  Biso   1.000  Ni
  Hf1      1.0000 0.13720  0.02048  0.64283  Biso   1.000  Hf
  Hf2      1.0000 0.13983  0.52292  0.14585  Biso   1.000  Hf
  Hf3      1.0000 0.14033  0.52054  0.64679  Biso   1.000  Hf
  Hf4      1.0000 0.63796  0.02221  0.14532  Biso   1.000  Hf
  Hf5      1.0000 0.63822  0.02153  0.64658  Biso   1.000  Hf
  Hf6      1.0000 0.63751  0.52044  0.14481  Biso   1.000  Hf
  Hf7      1.0000 0.63872  0.52120  0.64724  Biso   1.000  Hf
  Hf8      1.0000 0.13957  0.22918  0.39001  Biso   1.000  Hf
  Hf9      1.0000 0.14367  0.22256  0.89671  Biso   1.000  Hf
  Hf10     1.0000 0.13611  0.72799  0.39743  Biso   1.000  Hf
  Hf11     1.0000 0.13896  0.73241  0.89639  Biso   1.000  Hf
  Hf12     1.0000 0.63856  0.22882  0.39555  Biso   1.000  Hf
  Hf13     1.0000 0.64063  0.23050  0.89714  Biso   1.000  Hf
  Hf14     1.0000 0.63785  0.72791  0.39570  Biso   1.000  Hf
  Hf15     1.0000 0.63682  0.72919  0.89746  Biso   1.000  Hf
  Hf16     1.0000 0.35844  0.26833  0.10044  Biso   1.000  Hf
  Hf17     1.0000 0.36061  0.27182  0.60307  Biso   1.000  Hf
  Hf18     1.0000 0.35600  0.77777  0.10300  Biso   1.000  Hf
  Hf19     1.0000 0.36133  0.77223  0.60469  Biso   1.000  Hf
  Hf20     1.0000 0.86922  0.26505  0.10755  Biso   1.000  Hf
  Hf21     1.0000 0.86140  0.27114  0.60428  Biso   1.000  Hf
  Hf22     1.0000 0.86211  0.77136  0.10358  Biso   1.000  Hf
  Hf23     1.0000 0.85900  0.76973  0.60650  Biso   1.000  Hf
  Hf24     1.0000 0.36195  0.47927  0.35304  Biso   1.000  Hf
  Hf25     1.0000 0.36097  0.47988  0.85478  Biso   1.000  Hf
  Hf26     1.0000 0.35887  0.97918  0.35085  Biso   1.000  Hf
  Hf27     1.0000 0.36076  0.98433  0.85501  Biso   1.000  Hf
  Hf28     1.0000 0.86043  0.47853  0.35388  Biso   1.000  Hf
  Hf29     1.0000 0.86457  0.47636  0.85758  Biso   1.000  Hf
  Hf30     1.0000 0.85723  0.97633  0.35610  Biso   1.000  Hf
  Hf31     1.0000 0.86116  0.97952  0.85423  Biso   1.000  Hf
  O1       1.0000 0.04698  0.15251  0.08536  Biso   1.000  O
  O2       1.0000 0.03369  0.16327  0.57058  Biso   1.000  O
  O3       1.0000 0.03647  0.67031  0.08063  Biso   1.000  O
  O4       1.0000 0.03452  0.66653  0.58040  Biso   1.000  O
  O5       1.0000 0.53649  0.16992  0.08010  Biso   1.000  O
  O6       1.0000 0.53604  0.16966  0.57925  Biso   1.000  O
  O7       1.0000 0.53390  0.67033  0.07997  Biso   1.000  O
  O8       1.0000 0.53596  0.66935  0.57924  Biso   1.000  O
  O9       1.0000 0.03557  0.07787  0.32418  Biso   1.000  O
  O10      1.0000 0.03506  0.08242  0.82577  Biso   1.000  O
  O11      1.0000 0.03594  0.57958  0.33074  Biso   1.000  O
  O12      1.0000 0.03758  0.58187  0.83182  Biso   1.000  O
  O13      1.0000 0.53259  0.08245  0.32897  Biso   1.000  O
  O14      1.0000 0.53991  0.08108  0.82977  Biso   1.000  O
  O15      1.0000 0.53710  0.57919  0.33028  Biso   1.000  O
  O16      1.0000 0.53469  0.58384  0.82854  Biso   1.000  O
  O17      1.0000 0.46362  0.41927  0.16966  Biso   1.000  O
  O18      1.0000 0.46413  0.41910  0.67028  Biso   1.000  O
  O19      1.0000 0.46361  0.91833  0.17130  Biso   1.000  O
  O20      1.0000 0.46403  0.92038  0.66914  Biso   1.000  O
  O21      1.0000 0.96763  0.41695  0.17148  Biso   1.000  O
  O22      1.0000 0.96759  0.41414  0.67417  Biso   1.000  O
  O23      1.0000 0.96598  0.92056  0.17259  Biso   1.000  O
  O24      1.0000 0.96375  0.91648  0.67104  Biso   1.000  O
  O25      1.0000 0.46426  0.33186  0.42005  Biso   1.000  O
  O26      1.0000 0.47045  0.33856  0.92208  Biso   1.000  O
  O27      1.0000 0.46241  0.83051  0.41812  Biso   1.000  O
  O28      1.0000 0.45971  0.83210  0.92039  Biso   1.000  O
  O29      1.0000 0.96364  0.32962  0.41915  Biso   1.000  O
  O30      1.0000 0.96918  0.32822  0.92786  Biso   1.000  O
  O31      1.0000 0.96187  0.83043  0.42278  Biso   1.000  O
  O32      1.0000 0.96299  0.83130  0.92109  Biso   1.000  O
  O33      1.0000 0.26424  0.11882  0.22823  Biso   1.000  O
  O34      1.0000 0.27474  0.12690  0.73250  Biso   1.000  O
  O35      1.0000 0.27584  0.63407  0.24163  Biso   1.000  O
  O36      1.0000 0.27660  0.62994  0.74041  Biso   1.000  O
  O37      1.0000 0.77514  0.12674  0.24200  Biso   1.000  O
  O38      1.0000 0.77843  0.12989  0.73996  Biso   1.000  O
  O39      1.0000 0.77681  0.62883  0.24029  Biso   1.000  O
  O40      1.0000 0.77735  0.62769  0.74273  Biso   1.000  O
  O41      1.0000 0.27705  0.12290  0.48324  Biso   1.000  O
  O42      1.0000 0.29762  0.13879  0.97024  Biso   1.000  O
  O43      1.0000 0.27654  0.62053  0.49124  Biso   1.000  O
  O44      1.0000 0.27643  0.62606  0.99062  Biso   1.000  O
  O45      1.0000 0.77704  0.12001  0.49034  Biso   1.000  O
  O46      1.0000 0.77856  0.12087  0.99191  Biso   1.000  O
  O47      1.0000 0.77633  0.62004  0.49141  Biso   1.000  O
  O48      1.0000 0.77720  0.62135  0.99141  Biso   1.000  O
  O49      1.0000 0.22363  0.38344  0.00895  Biso   1.000  O
  O50      1.0000 0.22168  0.37845  0.50787  Biso   1.000  O
  O51      1.0000 0.21937  0.89781  0.01679  Biso   1.000  O
  O52      1.0000 0.22289  0.87890  0.50758  Biso   1.000  O
  O53      1.0000 0.72876  0.37753  0.01178  Biso   1.000  O
  O54      1.0000 0.72343  0.37840  0.51029  Biso   1.000  O
  O55      1.0000 0.72215  0.87976  0.01004  Biso   1.000  O
  O56      1.0000 0.72092  0.87787  0.51019  Biso   1.000  O
  O57      1.0000 0.22587  0.36940  0.25825  Biso   1.000  O
  O58      1.0000 0.22521  0.36906  0.76007  Biso   1.000  O
  O59      1.0000 0.21036  0.87535  0.25714  Biso   1.000  O
  O60      1.0000 0.22330  0.87161  0.76045  Biso   1.000  O
  O61      1.0000 0.72601  0.36886  0.25937  Biso   1.000  O
  O62      1.0000 0.72548  0.37203  0.76108  Biso   1.000  O
  O63      1.0000 0.72596  0.87077  0.25910  Biso   1.000  O
  O64      1.0000 0.72262  0.87070  0.76047  Biso   1.000  O
