data_image0
_cell_length_a       10.0353
_cell_length_b       10.2833
_cell_length_c       5.24035
_cell_angle_alpha    89.6348
_cell_angle_beta     90.1287
_cell_angle_gamma    90.111

_symmetry_space_group_name_H-M    "P 1"
_symmetry_int_tables_number       1

loop_
  _symmetry_equiv_pos_as_xyz
  'x, y, z'

loop_
  _atom_site_label
  _atom_site_occupancy
  _atom_site_fract_x
  _atom_site_fract_y
  _atom_site_fract_z
  _atom_site_thermal_displace_type
  _atom_site_B_iso_or_equiv
  _atom_site_type_symbol
  Hf1      1.0000 0.14020  0.02012  0.34440  Biso   1.000  Hf
  Hf2      1.0000 0.13729  0.22720  0.84693  Biso   1.000  Hf
  Hf3      1.0000 0.35451  0.27098  0.35176  Biso   1.000  Hf
  Hf4      1.0000 0.36195  0.47980  0.84227  Biso   1.000  Hf
  Hf5      1.0000 0.64302  0.02217  0.15014  Biso   1.000  Hf
  Hf6      1.0000 0.64028  0.22412  0.66178  Biso   1.000  Hf
  Hf7      1.0000 0.86030  0.26835  0.16355  Biso   1.000  Hf
  Hf8      1.0000 0.86447  0.47926  0.66299  Biso   1.000  Hf
  O1       1.0000 0.03413  0.16445  0.17101  Biso   1.000  O
  O2       1.0000 0.03535  0.08285  0.66765  Biso   1.000  O
  O3       1.0000 0.46165  0.42658  0.18623  Biso   1.000  O
  O4       1.0000 0.46664  0.33263  0.66952  Biso   1.000  O
  O5       1.0000 0.27608  0.12389  0.59366  Biso   1.000  O
  O6       1.0000 0.27650  0.12499  0.09086  Biso   1.000  O
  O7       1.0000 0.22186  0.37374  0.59435  Biso   1.000  O
  O8       1.0000 0.22359  0.37550  0.09067  Biso   1.000  O
  O9       1.0000 0.52508  0.15678  0.33936  Biso   1.000  O
  O10      1.0000 0.53757  0.07213  0.81606  Biso   1.000  O
  O11      1.0000 0.96739  0.41466  0.33755  Biso   1.000  O
  O12      1.0000 0.96610  0.33432  0.83883  Biso   1.000  O
  O13      1.0000 0.78741  0.11825  0.90369  Biso   1.000  O
  O14      1.0000 0.77808  0.12330  0.41365  Biso   1.000  O
  O15      1.0000 0.72025  0.37147  0.92348  Biso   1.000  O
  O16      1.0000 0.72659  0.38049  0.42588  Biso   1.000  O
  Hf9      1.0000 0.13906  0.52034  0.34269  Biso   1.000  Hf
  Hf10     1.0000 0.14062  0.72817  0.84374  Biso   1.000  Hf
  Hf11     1.0000 0.36231  0.77188  0.34402  Biso   1.000  Hf
  Hf12     1.0000 0.36221  0.97695  0.84501  Biso   1.000  Hf
  Hf13     1.0000 0.64155  0.52983  0.16518  Biso   1.000  Hf
  Hf14     1.0000 0.64025  0.73082  0.65994  Biso   1.000  Hf
  Hf15     1.0000 0.86418  0.77178  0.15935  Biso   1.000  Hf
  Hf16     1.0000 0.86351  0.97668  0.65711  Biso   1.000  Hf
  O17      1.0000 0.03457  0.66416  0.16692  Biso   1.000  O
  O18      1.0000 0.03499  0.58473  0.66618  Biso   1.000  O
  O19      1.0000 0.46789  0.91597  0.16901  Biso   1.000  O
  O20      1.0000 0.46569  0.82997  0.67253  Biso   1.000  O
  O21      1.0000 0.27782  0.62240  0.58978  Biso   1.000  O
  O22      1.0000 0.27796  0.62564  0.08946  Biso   1.000  O
  O23      1.0000 0.22525  0.87327  0.59139  Biso   1.000  O
  O24      1.0000 0.22416  0.87465  0.09186  Biso   1.000  O
  O25      1.0000 0.53575  0.67048  0.33358  Biso   1.000  O
  O26      1.0000 0.53613  0.58271  0.83391  Biso   1.000  O
  O27      1.0000 0.96988  0.91426  0.33220  Biso   1.000  O
  O28      1.0000 0.96921  0.83270  0.83374  Biso   1.000  O
  O29      1.0000 0.77886  0.62370  0.91342  Biso   1.000  O
  O30      1.0000 0.77910  0.62853  0.41472  Biso   1.000  O
  O31      1.0000 0.72557  0.87181  0.91256  Biso   1.000  O
  O32      1.0000 0.72578  0.87604  0.41066  Biso   1.000  O
  Ni1      1.0000 0.59023  0.28480  0.12530  Biso   1.000  Ni
