data_image0
_cell_length_a       10.0537
_cell_length_b       5.14841
_cell_length_c       10.0537
_cell_angle_alpha    90.0001
_cell_angle_beta     89.9998
_cell_angle_gamma    90.0002

_symmetry_space_group_name_H-M    "P 1"
_symmetry_int_tables_number       1

loop_
  _symmetry_equiv_pos_as_xyz
  'x, y, z'

loop_
  _atom_site_label
  _atom_site_occupancy
  _atom_site_fract_x
  _atom_site_fract_y
  _atom_site_fract_z
  _atom_site_thermal_displace_type
  _atom_site_B_iso_or_equiv
  _atom_site_type_symbol
  Hf1      1.0000 0.12491  0.00012  0.12491  Biso   1.000  Hf
  Hf2      1.0000 0.12491  0.50011  0.38348  Biso   1.000  Hf
  Hf3      1.0000 0.38348  0.50011  0.12491  Biso   1.000  Hf
  Hf4      1.0000 0.37629  0.00459  0.37628  Biso   1.000  Hf
  Hf5      1.0000 0.99725  0.31439  0.99725  Biso   1.000  Hf
  Hf6      1.0000 0.99715  0.18426  0.25266  Biso   1.000  Hf
  Hf7      1.0000 0.99725  0.68585  0.25257  Biso   1.000  Hf
  Hf8      1.0000 0.99716  0.81598  0.99716  Biso   1.000  Hf
  Hf9      1.0000 0.25256  0.31437  0.25256  Biso   1.000  Hf
  Hf10     1.0000 0.25265  0.18424  0.99715  Biso   1.000  Hf
  Hf11     1.0000 0.25257  0.68584  0.99725  Biso   1.000  Hf
  Hf12     1.0000 0.25266  0.81597  0.25266  Biso   1.000  Hf
  Hf13     1.0000 0.12491  0.00011  0.62491  Biso   1.000  Hf
  Hf14     1.0000 0.12491  0.50010  0.86633  Biso   1.000  Hf
  Hf15     1.0000 0.37553  0.50010  0.62491  Biso   1.000  Hf
  Hf16     1.0000 0.37628  0.99562  0.87354  Biso   1.000  Hf
  Hf17     1.0000 0.99807  0.29291  0.50221  Biso   1.000  Hf
  Hf18     1.0000 0.00119  0.20535  0.74981  Biso   1.000  Hf
  Hf19     1.0000 0.99807  0.70731  0.74761  Biso   1.000  Hf
  Hf20     1.0000 0.00119  0.79487  0.50001  Biso   1.000  Hf
  Hf21     1.0000 0.25175  0.29290  0.74760  Biso   1.000  Hf
  Hf22     1.0000 0.24863  0.20534  0.50000  Biso   1.000  Hf
  Hf23     1.0000 0.25175  0.70730  0.50221  Biso   1.000  Hf
  Hf24     1.0000 0.24863  0.79486  0.74981  Biso   1.000  Hf
  Hf25     1.0000 0.62491  0.00011  0.12491  Biso   1.000  Hf
  Hf26     1.0000 0.62491  0.50010  0.37554  Biso   1.000  Hf
  Hf27     1.0000 0.86633  0.50011  0.12492  Biso   1.000  Hf
  Hf28     1.0000 0.87353  0.99563  0.37629  Biso   1.000  Hf
  Hf29     1.0000 0.50221  0.29291  0.99807  Biso   1.000  Hf
  Hf30     1.0000 0.50000  0.20535  0.24863  Biso   1.000  Hf
  Hf31     1.0000 0.50221  0.70730  0.25175  Biso   1.000  Hf
  Hf32     1.0000 0.50001  0.79486  0.00119  Biso   1.000  Hf
  Hf33     1.0000 0.74760  0.29291  0.25175  Biso   1.000  Hf
  Hf34     1.0000 0.74981  0.20535  0.00119  Biso   1.000  Hf
  Hf35     1.0000 0.74761  0.70730  0.99807  Biso   1.000  Hf
  Hf36     1.0000 0.74981  0.79486  0.24864  Biso   1.000  Hf
  Hf37     1.0000 0.62491  0.00011  0.62491  Biso   1.000  Hf
  Hf38     1.0000 0.62491  0.50010  0.87429  Biso   1.000  Hf
  Hf39     1.0000 0.87428  0.50010  0.62491  Biso   1.000  Hf
  Hf40     1.0000 0.87353  0.00459  0.87354  Biso   1.000  Hf
  Hf41     1.0000 0.49922  0.30031  0.49922  Biso   1.000  Hf
  Hf42     1.0000 0.50083  0.20075  0.74899  Biso   1.000  Hf
  Hf43     1.0000 0.49922  0.69990  0.75060  Biso   1.000  Hf
  Hf44     1.0000 0.50083  0.79946  0.50083  Biso   1.000  Hf
  Hf45     1.0000 0.75060  0.30031  0.75060  Biso   1.000  Hf
  Hf46     1.0000 0.74898  0.20075  0.50083  Biso   1.000  Hf
  Hf47     1.0000 0.75060  0.69990  0.49922  Biso   1.000  Hf
  Hf48     1.0000 0.74899  0.79946  0.74899  Biso   1.000  Hf
  Ni1      1.0000 0.12491  0.50013  0.12489  Biso   1.000  Ni
