data_image0
_cell_length_a       5.04947
_cell_length_b       10.2439
_cell_length_c       10.425
_cell_angle_alpha    89.8199
_cell_angle_beta     80.0421
_cell_angle_gamma    89.9967

_symmetry_space_group_name_H-M    "P 1"
_symmetry_int_tables_number       1

loop_
  _symmetry_equiv_pos_as_xyz
  'x, y, z'

loop_
  _atom_site_label
  _atom_site_occupancy
  _atom_site_fract_x
  _atom_site_fract_y
  _atom_site_fract_z
  _atom_site_thermal_displace_type
  _atom_site_B_iso_or_equiv
  _atom_site_type_symbol
  Os1      1.0000 0.28261  0.02170  0.15119  Biso   1.000  Os
  Hf1      1.0000 0.27960  0.23023  0.39502  Biso   1.000  Hf
  Hf2      1.0000 0.72578  0.26919  0.10578  Biso   1.000  Hf
  Hf3      1.0000 0.72337  0.47963  0.35353  Biso   1.000  Hf
  O1       1.0000 0.06958  0.16530  0.08043  Biso   1.000  O
  O2       1.0000 0.07721  0.08437  0.31954  Biso   1.000  O
  O3       1.0000 0.92908  0.42007  0.16961  Biso   1.000  O
  O4       1.0000 0.92837  0.33127  0.41986  Biso   1.000  O
  O5       1.0000 0.55553  0.12675  0.24160  Biso   1.000  O
  O6       1.0000 0.55690  0.12097  0.49010  Biso   1.000  O
  O7       1.0000 0.44652  0.37849  0.01024  Biso   1.000  O
  O8       1.0000 0.44830  0.37139  0.25959  Biso   1.000  O
  Hf4      1.0000 0.27654  0.02086  0.64603  Biso   1.000  Hf
  Hf5      1.0000 0.27283  0.22560  0.89931  Biso   1.000  Hf
  Hf6      1.0000 0.72113  0.27149  0.60485  Biso   1.000  Hf
  Hf7      1.0000 0.71964  0.47789  0.85524  Biso   1.000  Hf
  O9       1.0000 0.06922  0.16621  0.57623  Biso   1.000  O
  O10      1.0000 0.06613  0.08145  0.82817  Biso   1.000  O
  O11      1.0000 0.92911  0.41770  0.67070  Biso   1.000  O
  O12      1.0000 0.92541  0.32785  0.92060  Biso   1.000  O
  O13      1.0000 0.55210  0.12854  0.74320  Biso   1.000  O
  O14      1.0000 0.54299  0.11573  0.99980  Biso   1.000  O
  O15      1.0000 0.44614  0.37854  0.50971  Biso   1.000  O
  O16      1.0000 0.44497  0.37022  0.76035  Biso   1.000  O
  Hf8      1.0000 0.27922  0.52234  0.14545  Biso   1.000  Hf
  Hf9      1.0000 0.27873  0.72921  0.39533  Biso   1.000  Hf
  Hf10     1.0000 0.72371  0.77626  0.10312  Biso   1.000  Hf
  Hf11     1.0000 0.72244  0.97960  0.35191  Biso   1.000  Hf
  O17      1.0000 0.06898  0.66864  0.07995  Biso   1.000  O
  O18      1.0000 0.07290  0.58118  0.33046  Biso   1.000  O
  O19      1.0000 0.94636  0.92038  0.16770  Biso   1.000  O
  O20      1.0000 0.93217  0.83323  0.41894  Biso   1.000  O
  O21      1.0000 0.55419  0.63216  0.24065  Biso   1.000  O
  O22      1.0000 0.55420  0.62119  0.49066  Biso   1.000  O
  O23      1.0000 0.43812  0.88142  0.00942  Biso   1.000  O
  O24      1.0000 0.44962  0.87514  0.25619  Biso   1.000  O
  Hf12     1.0000 0.27776  0.52108  0.64688  Biso   1.000  Hf
  Hf13     1.0000 0.27617  0.72884  0.89688  Biso   1.000  Hf
  Hf14     1.0000 0.72229  0.77135  0.60360  Biso   1.000  Hf
  Hf15     1.0000 0.71759  0.97814  0.85490  Biso   1.000  Hf
  O25      1.0000 0.07149  0.66869  0.57939  Biso   1.000  O
  O26      1.0000 0.07037  0.58012  0.83089  Biso   1.000  O
  O27      1.0000 0.92840  0.91813  0.66987  Biso   1.000  O
  O28      1.0000 0.92523  0.83059  0.91883  Biso   1.000  O
  O29      1.0000 0.55358  0.62868  0.74108  Biso   1.000  O
  O30      1.0000 0.55436  0.62250  0.99106  Biso   1.000  O
  O31      1.0000 0.44752  0.87911  0.50773  Biso   1.000  O
  O32      1.0000 0.44554  0.87055  0.75845  Biso   1.000  O
