data_image0
_cell_length_a       5.0194
_cell_length_b       10.6008
_cell_length_c       10.0559
_cell_angle_alpha    89.4166
_cell_angle_beta     89.9759
_cell_angle_gamma    90.0289

_symmetry_space_group_name_H-M    "P 1"
_symmetry_int_tables_number       1

loop_
  _symmetry_equiv_pos_as_xyz
  'x, y, z'

loop_
  _atom_site_label
  _atom_site_occupancy
  _atom_site_fract_x
  _atom_site_fract_y
  _atom_site_fract_z
  _atom_site_thermal_displace_type
  _atom_site_B_iso_or_equiv
  _atom_site_type_symbol
  Hf1      1.0000 0.26160  0.01478  0.11795  Biso   1.000  Hf
  Hf2      1.0000 0.26067  0.22821  0.38413  Biso   1.000  Hf
  Hf3      1.0000 0.69739  0.24545  0.11345  Biso   1.000  Hf
  Hf4      1.0000 0.73899  0.48284  0.37770  Biso   1.000  Hf
  Hf5      1.0000 0.01194  0.17617  0.22189  Biso   1.000  Hf
  Hf6      1.0000 0.06859  0.06154  0.44984  Biso   1.000  Hf
  Hf7      1.0000 0.94610  0.45274  0.20949  Biso   1.000  Hf
  Hf8      1.0000 0.93785  0.32076  0.45504  Biso   1.000  Hf
  Hf9      1.0000 0.50856  0.10472  0.24890  Biso   1.000  Hf
  Hf10     1.0000 0.54575  0.13335  0.49724  Biso   1.000  Hf
  Hf11     1.0000 0.46252  0.38326  0.50632  Biso   1.000  Hf
  Hf12     1.0000 0.48001  0.34730  0.25961  Biso   1.000  Hf
  Hf13     1.0000 0.27074  0.01106  0.62112  Biso   1.000  Hf
  Hf14     1.0000 0.27586  0.21362  0.86696  Biso   1.000  Hf
  Hf15     1.0000 0.73313  0.26556  0.62726  Biso   1.000  Hf
  Hf16     1.0000 0.73596  0.48739  0.87393  Biso   1.000  Hf
  Hf17     1.0000 0.06642  0.17569  0.69073  Biso   1.000  Hf
  Hf18     1.0000 0.08130  0.05614  0.93606  Biso   1.000  Hf
  Hf19     1.0000 0.93716  0.42889  0.70185  Biso   1.000  Hf
  Hf20     1.0000 0.94605  0.31189  0.94812  Biso   1.000  Hf
  Hf21     1.0000 0.54236  0.10742  0.74162  Biso   1.000  Hf
  Hf22     1.0000 0.57764  0.11432  0.98383  Biso   1.000  Hf
  Hf23     1.0000 0.49522  0.41058  0.01654  Biso   1.000  Hf
  Hf24     1.0000 0.47264  0.35904  0.76092  Biso   1.000  Hf
  Hf25     1.0000 0.25860  0.54660  0.11983  Biso   1.000  Hf
  Hf26     1.0000 0.27000  0.73567  0.37761  Biso   1.000  Hf
  Hf27     1.0000 0.72586  0.77144  0.12603  Biso   1.000  Hf
  Hf28     1.0000 0.73244  0.98495  0.37152  Biso   1.000  Hf
  Hf29     1.0000 0.06379  0.69840  0.20126  Biso   1.000  Hf
  Hf30     1.0000 0.06245  0.57112  0.45312  Biso   1.000  Hf
  Hf31     1.0000 0.92353  0.93803  0.19152  Biso   1.000  Hf
  Hf32     1.0000 0.93099  0.81785  0.44319  Biso   1.000  Hf
  Hf33     1.0000 0.53907  0.61912  0.25161  Biso   1.000  Hf
  Hf34     1.0000 0.53596  0.63299  0.49996  Biso   1.000  Hf
  Hf35     1.0000 0.46576  0.88327  0.49658  Biso   1.000  Hf
  Hf36     1.0000 0.45906  0.86520  0.24856  Biso   1.000  Hf
  Hf37     1.0000 0.26622  0.51357  0.62584  Biso   1.000  Hf
  Hf38     1.0000 0.26694  0.73844  0.86897  Biso   1.000  Hf
  Hf39     1.0000 0.74095  0.76157  0.61890  Biso   1.000  Hf
  Hf40     1.0000 0.74058  0.97282  0.86859  Biso   1.000  Hf
  Hf41     1.0000 0.06997  0.67994  0.69473  Biso   1.000  Hf
  Hf42     1.0000 0.06611  0.57418  0.94288  Biso   1.000  Hf
  Hf43     1.0000 0.94609  0.92340  0.69387  Biso   1.000  Hf
  Hf44     1.0000 0.93667  0.81634  0.94813  Biso   1.000  Hf
  Hf45     1.0000 0.53693  0.61030  0.74821  Biso   1.000  Hf
  Hf46     1.0000 0.53974  0.64915  0.99348  Biso   1.000  Hf
  Hf47     1.0000 0.45875  0.88405  0.99685  Biso   1.000  Hf
  Hf48     1.0000 0.47574  0.85968  0.74421  Biso   1.000  Hf
  Os1      1.0000 0.20388  0.31035  0.11077  Biso   1.000  Os
