data_image0
_cell_length_a       9.99559
_cell_length_b       10.158
_cell_length_c       9.99557
_cell_angle_alpha    89.9999
_cell_angle_beta     90
_cell_angle_gamma    90

_symmetry_space_group_name_H-M    "P 1"
_symmetry_int_tables_number       1

loop_
  _symmetry_equiv_pos_as_xyz
  'x, y, z'

loop_
  _atom_site_label
  _atom_site_occupancy
  _atom_site_fract_x
  _atom_site_fract_y
  _atom_site_fract_z
  _atom_site_thermal_displace_type
  _atom_site_B_iso_or_equiv
  _atom_site_type_symbol
  Os1      1.0000 0.12491  0.00005  0.12491  Biso   1.000  Os
  Hf1      1.0000 0.12481  0.24871  0.37295  Biso   1.000  Hf
  Hf2      1.0000 0.37295  0.24871  0.12481  Biso   1.000  Hf
  Hf3      1.0000 0.37362  0.99852  0.37362  Biso   1.000  Hf
  Hf4      1.0000 0.00120  0.13791  0.00120  Biso   1.000  Hf
  Hf5      1.0000 0.00425  0.10642  0.24557  Biso   1.000  Hf
  Hf6      1.0000 0.99773  0.35561  0.25209  Biso   1.000  Hf
  Hf7      1.0000 0.00137  0.39318  0.00137  Biso   1.000  Hf
  Hf8      1.0000 0.24862  0.13791  0.24862  Biso   1.000  Hf
  Hf9      1.0000 0.24557  0.10642  0.00425  Biso   1.000  Hf
  Hf10     1.0000 0.25209  0.35561  0.99773  Biso   1.000  Hf
  Hf11     1.0000 0.24845  0.39318  0.24845  Biso   1.000  Hf
  Hf12     1.0000 0.12491  0.00005  0.62491  Biso   1.000  Hf
  Hf13     1.0000 0.12501  0.24871  0.87686  Biso   1.000  Hf
  Hf14     1.0000 0.37525  0.25023  0.62480  Biso   1.000  Hf
  Hf15     1.0000 0.37362  0.00159  0.87620  Biso   1.000  Hf
  Hf16     1.0000 0.99668  0.14731  0.49594  Biso   1.000  Hf
  Hf17     1.0000 0.00151  0.10307  0.74883  Biso   1.000  Hf
  Hf18     1.0000 0.99814  0.35229  0.75236  Biso   1.000  Hf
  Hf19     1.0000 0.00059  0.39718  0.50108  Biso   1.000  Hf
  Hf20     1.0000 0.25314  0.14731  0.75387  Biso   1.000  Hf
  Hf21     1.0000 0.24831  0.10307  0.50098  Biso   1.000  Hf
  Hf22     1.0000 0.25167  0.35229  0.49746  Biso   1.000  Hf
  Hf23     1.0000 0.24923  0.39718  0.74873  Biso   1.000  Hf
  Hf24     1.0000 0.12491  0.50006  0.12491  Biso   1.000  Hf
  Hf25     1.0000 0.12500  0.75140  0.37296  Biso   1.000  Hf
  Hf26     1.0000 0.37295  0.75140  0.12501  Biso   1.000  Hf
  Hf27     1.0000 0.37485  0.49927  0.37485  Biso   1.000  Hf
  Hf28     1.0000 0.99772  0.64450  0.99773  Biso   1.000  Hf
  Hf29     1.0000 0.00137  0.60693  0.24845  Biso   1.000  Hf
  Hf30     1.0000 0.00120  0.86220  0.24862  Biso   1.000  Hf
  Hf31     1.0000 0.00425  0.89369  0.00424  Biso   1.000  Hf
  Hf32     1.0000 0.25209  0.64450  0.25209  Biso   1.000  Hf
  Hf33     1.0000 0.24845  0.60692  0.00137  Biso   1.000  Hf
  Hf34     1.0000 0.24862  0.86220  0.00120  Biso   1.000  Hf
  Hf35     1.0000 0.24557  0.89369  0.24557  Biso   1.000  Hf
  Hf36     1.0000 0.12491  0.50005  0.62491  Biso   1.000  Hf
  Hf37     1.0000 0.12481  0.75139  0.87686  Biso   1.000  Hf
  Hf38     1.0000 0.37524  0.74988  0.62502  Biso   1.000  Hf
  Hf39     1.0000 0.37484  0.50083  0.87497  Biso   1.000  Hf
  Hf40     1.0000 0.99814  0.64782  0.49746  Biso   1.000  Hf
  Hf41     1.0000 0.00059  0.60293  0.74874  Biso   1.000  Hf
  Hf42     1.0000 0.99668  0.85280  0.75387  Biso   1.000  Hf
  Hf43     1.0000 0.00151  0.89704  0.50098  Biso   1.000  Hf
  Hf44     1.0000 0.25168  0.64782  0.75236  Biso   1.000  Hf
  Hf45     1.0000 0.24922  0.60293  0.50108  Biso   1.000  Hf
  Hf46     1.0000 0.25314  0.85280  0.49595  Biso   1.000  Hf
  Hf47     1.0000 0.24831  0.89704  0.74883  Biso   1.000  Hf
  Hf48     1.0000 0.62491  0.00005  0.12491  Biso   1.000  Hf
  Hf49     1.0000 0.62480  0.25023  0.37525  Biso   1.000  Hf
  Hf50     1.0000 0.87687  0.24871  0.12501  Biso   1.000  Hf
  Hf51     1.0000 0.87620  0.00159  0.37362  Biso   1.000  Hf
  Hf52     1.0000 0.49595  0.14731  0.99668  Biso   1.000  Hf
  Hf53     1.0000 0.50099  0.10307  0.24831  Biso   1.000  Hf
  Hf54     1.0000 0.49746  0.35229  0.25167  Biso   1.000  Hf
  Hf55     1.0000 0.50108  0.39718  0.00059  Biso   1.000  Hf
  Hf56     1.0000 0.75387  0.14731  0.25314  Biso   1.000  Hf
  Hf57     1.0000 0.74884  0.10307  0.00150  Biso   1.000  Hf
  Hf58     1.0000 0.75236  0.35229  0.99814  Biso   1.000  Hf
  Hf59     1.0000 0.74873  0.39718  0.24923  Biso   1.000  Hf
  Hf60     1.0000 0.62491  0.00005  0.62491  Biso   1.000  Hf
  Hf61     1.0000 0.62502  0.25023  0.87457  Biso   1.000  Hf
  Hf62     1.0000 0.87457  0.25023  0.62502  Biso   1.000  Hf
  Hf63     1.0000 0.87620  0.99852  0.87620  Biso   1.000  Hf
  Hf64     1.0000 0.49702  0.14656  0.49702  Biso   1.000  Hf
  Hf65     1.0000 0.50130  0.10365  0.74851  Biso   1.000  Hf
  Hf66     1.0000 0.49844  0.35381  0.75138  Biso   1.000  Hf
  Hf67     1.0000 0.50093  0.39649  0.50093  Biso   1.000  Hf
  Hf68     1.0000 0.75280  0.14656  0.75280  Biso   1.000  Hf
  Hf69     1.0000 0.74851  0.10364  0.50130  Biso   1.000  Hf
  Hf70     1.0000 0.75138  0.35381  0.49844  Biso   1.000  Hf
  Hf71     1.0000 0.74889  0.39649  0.74889  Biso   1.000  Hf
  Hf72     1.0000 0.62491  0.50005  0.12491  Biso   1.000  Hf
  Hf73     1.0000 0.62502  0.74988  0.37525  Biso   1.000  Hf
  Hf74     1.0000 0.87686  0.75140  0.12481  Biso   1.000  Hf
  Hf75     1.0000 0.87497  0.50083  0.37485  Biso   1.000  Hf
  Hf76     1.0000 0.49745  0.64782  0.99814  Biso   1.000  Hf
  Hf77     1.0000 0.50108  0.60293  0.24923  Biso   1.000  Hf
  Hf78     1.0000 0.49595  0.85280  0.25314  Biso   1.000  Hf
  Hf79     1.0000 0.50098  0.89704  0.00150  Biso   1.000  Hf
  Hf80     1.0000 0.75236  0.64782  0.25168  Biso   1.000  Hf
  Hf81     1.0000 0.74873  0.60293  0.00059  Biso   1.000  Hf
  Hf82     1.0000 0.75387  0.85280  0.99668  Biso   1.000  Hf
  Hf83     1.0000 0.74883  0.89704  0.24831  Biso   1.000  Hf
  Hf84     1.0000 0.62491  0.50005  0.62491  Biso   1.000  Hf
  Hf85     1.0000 0.62480  0.74988  0.87457  Biso   1.000  Hf
  Hf86     1.0000 0.87457  0.74988  0.62480  Biso   1.000  Hf
  Hf87     1.0000 0.87497  0.49927  0.87497  Biso   1.000  Hf
  Hf88     1.0000 0.49844  0.64630  0.49844  Biso   1.000  Hf
  Hf89     1.0000 0.50093  0.60362  0.74889  Biso   1.000  Hf
  Hf90     1.0000 0.49702  0.85355  0.75280  Biso   1.000  Hf
  Hf91     1.0000 0.50131  0.89646  0.50130  Biso   1.000  Hf
  Hf92     1.0000 0.75138  0.64630  0.75138  Biso   1.000  Hf
  Hf93     1.0000 0.74888  0.60362  0.50093  Biso   1.000  Hf
  Hf94     1.0000 0.75280  0.85355  0.49702  Biso   1.000  Hf
  Hf95     1.0000 0.74851  0.89646  0.74851  Biso   1.000  Hf
