data_image0
_cell_length_a       5.00512
_cell_length_b       10.402
_cell_length_c       10.1238
_cell_angle_alpha    89.5198
_cell_angle_beta     91.3202
_cell_angle_gamma    90.8785

_symmetry_space_group_name_H-M    "P 1"
_symmetry_int_tables_number       1

loop_
  _symmetry_equiv_pos_as_xyz
  'x, y, z'

loop_
  _atom_site_label
  _atom_site_occupancy
  _atom_site_fract_x
  _atom_site_fract_y
  _atom_site_fract_z
  _atom_site_thermal_displace_type
  _atom_site_B_iso_or_equiv
  _atom_site_type_symbol
  Hf1      1.0000 0.28005  0.00902  0.11832  Biso   1.000  Hf
  Hf2      1.0000 0.26899  0.23106  0.40520  Biso   1.000  Hf
  Hf3      1.0000 0.65343  0.26790  0.14004  Biso   1.000  Hf
  Hf4      1.0000 0.73333  0.48452  0.38651  Biso   1.000  Hf
  Hf5      1.0000 0.01637  0.18631  0.22222  Biso   1.000  Hf
  Hf6      1.0000 0.08557  0.05790  0.44571  Biso   1.000  Hf
  Hf7      1.0000 0.88891  0.44150  0.20583  Biso   1.000  Hf
  Hf8      1.0000 0.92918  0.31702  0.45160  Biso   1.000  Hf
  Hf9      1.0000 0.50103  0.11716  0.26005  Biso   1.000  Hf
  Hf10     1.0000 0.56868  0.12864  0.50808  Biso   1.000  Hf
  Hf11     1.0000 0.46611  0.37976  0.50999  Biso   1.000  Hf
  Hf12     1.0000 0.42135  0.37237  0.26922  Biso   1.000  Hf
  Hf13     1.0000 0.28597  0.00865  0.62591  Biso   1.000  Hf
  Hf14     1.0000 0.28222  0.22738  0.85837  Biso   1.000  Hf
  Hf15     1.0000 0.75740  0.27190  0.63937  Biso   1.000  Hf
  Hf16     1.0000 0.73956  0.48388  0.86441  Biso   1.000  Hf
  Hf17     1.0000 0.11600  0.18306  0.66560  Biso   1.000  Hf
  Hf18     1.0000 0.10506  0.05660  0.93201  Biso   1.000  Hf
  Hf19     1.0000 0.90492  0.45714  0.66699  Biso   1.000  Hf
  Hf20     1.0000 0.91107  0.30415  0.84745  Biso   1.000  Hf
  Hf21     1.0000 0.55430  0.11452  0.75336  Biso   1.000  Hf
  Hf22     1.0000 0.59375  0.12132  0.00391  Biso   1.000  Hf
  Hf23     1.0000 0.49214  0.38592  0.99515  Biso   1.000  Hf
  Hf24     1.0000 0.44318  0.37561  0.74813  Biso   1.000  Hf
  Hf25     1.0000 0.25130  0.51964  0.13121  Biso   1.000  Hf
  Hf26     1.0000 0.27325  0.73560  0.37631  Biso   1.000  Hf
  Hf27     1.0000 0.73038  0.76352  0.12914  Biso   1.000  Hf
  Hf28     1.0000 0.73882  0.98473  0.37703  Biso   1.000  Hf
  Hf29     1.0000 0.07296  0.68489  0.19532  Biso   1.000  Hf
  Hf30     1.0000 0.08259  0.56934  0.44082  Biso   1.000  Hf
  Hf31     1.0000 0.93438  0.93833  0.19254  Biso   1.000  Hf
  Hf32     1.0000 0.93371  0.81594  0.44543  Biso   1.000  Hf
  Hf33     1.0000 0.53691  0.61962  0.25579  Biso   1.000  Hf
  Hf34     1.0000 0.54390  0.63479  0.50343  Biso   1.000  Hf
  Hf35     1.0000 0.47176  0.88138  0.49956  Biso   1.000  Hf
  Hf36     1.0000 0.46843  0.86787  0.24884  Biso   1.000  Hf
  Hf37     1.0000 0.27317  0.52021  0.62363  Biso   1.000  Hf
  Hf38     1.0000 0.27301  0.73219  0.87828  Biso   1.000  Hf
  Hf39     1.0000 0.74360  0.76742  0.62840  Biso   1.000  Hf
  Hf40     1.0000 0.74566  0.97984  0.87898  Biso   1.000  Hf
  Hf41     1.0000 0.08155  0.68675  0.69820  Biso   1.000  Hf
  Hf42     1.0000 0.07240  0.55916  0.94773  Biso   1.000  Hf
  Hf43     1.0000 0.94049  0.93428  0.69699  Biso   1.000  Hf
  Hf44     1.0000 0.93658  0.81138  0.94977  Biso   1.000  Hf
  Hf45     1.0000 0.54563  0.62193  0.75311  Biso   1.000  Hf
  Hf46     1.0000 0.53482  0.63253  0.00479  Biso   1.000  Hf
  Hf47     1.0000 0.46745  0.87866  0.00150  Biso   1.000  Hf
  Hf48     1.0000 0.47462  0.86510  0.75288  Biso   1.000  Hf
  P1       1.0000 0.14231  0.26816  0.09890  Biso   1.000  P 
