data_image0
_cell_length_a       9.98275
_cell_length_b       5.19753
_cell_length_c       10.0303
_cell_angle_alpha    90.0588
_cell_angle_beta     89.9332
_cell_angle_gamma    89.9346

_symmetry_space_group_name_H-M    "P 1"
_symmetry_int_tables_number       1

loop_
  _symmetry_equiv_pos_as_xyz
  'x, y, z'

loop_
  _atom_site_label
  _atom_site_occupancy
  _atom_site_fract_x
  _atom_site_fract_y
  _atom_site_fract_z
  _atom_site_thermal_displace_type
  _atom_site_B_iso_or_equiv
  _atom_site_type_symbol
  Pb1      1.0000 0.12975  0.03159  0.12251  Biso   1.000  Pb
  Hf1      1.0000 0.13350  0.03371  0.62647  Biso   1.000  Hf
  Hf2      1.0000 0.63440  0.03131  0.12679  Biso   1.000  Hf
  Hf3      1.0000 0.63368  0.03349  0.62548  Biso   1.000  Hf
  Hf4      1.0000 0.13485  0.46696  0.37831  Biso   1.000  Hf
  Hf5      1.0000 0.13383  0.47141  0.87313  Biso   1.000  Hf
  Hf6      1.0000 0.63384  0.46683  0.37619  Biso   1.000  Hf
  Hf7      1.0000 0.63385  0.46549  0.87560  Biso   1.000  Hf
  Hf8      1.0000 0.36839  0.53135  0.12650  Biso   1.000  Hf
  Hf9      1.0000 0.36618  0.53289  0.62584  Biso   1.000  Hf
  Hf10     1.0000 0.86258  0.53020  0.12524  Biso   1.000  Hf
  Hf11     1.0000 0.86615  0.53329  0.62493  Biso   1.000  Hf
  Hf12     1.0000 0.36621  0.96596  0.37673  Biso   1.000  Hf
  Hf13     1.0000 0.36826  0.97003  0.87422  Biso   1.000  Hf
  Hf14     1.0000 0.86524  0.96835  0.37836  Biso   1.000  Hf
  Hf15     1.0000 0.86348  0.96357  0.87415  Biso   1.000  Hf
  Hf16     1.0000 0.03398  0.38081  0.19761  Biso   1.000  Hf
  Hf17     1.0000 0.03776  0.37353  0.69059  Biso   1.000  Hf
  Hf18     1.0000 0.53822  0.36837  0.19401  Biso   1.000  Hf
  Hf19     1.0000 0.53584  0.36768  0.69486  Biso   1.000  Hf
  Hf20     1.0000 0.03630  0.13004  0.44430  Biso   1.000  Hf
  Hf21     1.0000 0.03466  0.13557  0.93017  Biso   1.000  Hf
  Hf22     1.0000 0.53666  0.13135  0.44443  Biso   1.000  Hf
  Hf23     1.0000 0.53742  0.13118  0.94445  Biso   1.000  Hf
  Hf24     1.0000 0.46522  0.86797  0.19464  Biso   1.000  Hf
  Hf25     1.0000 0.46437  0.86844  0.69361  Biso   1.000  Hf
  Hf26     1.0000 0.95390  0.86812  0.19448  Biso   1.000  Hf
  Hf27     1.0000 0.96253  0.86898  0.69276  Biso   1.000  Hf
  Hf28     1.0000 0.46426  0.63095  0.44527  Biso   1.000  Hf
  Hf29     1.0000 0.46386  0.63205  0.94283  Biso   1.000  Hf
  Hf30     1.0000 0.96355  0.63257  0.44457  Biso   1.000  Hf
  Hf31     1.0000 0.96440  0.63436  0.94561  Biso   1.000  Hf
  Hf32     1.0000 0.27413  0.23773  0.25207  Biso   1.000  Hf
  Hf33     1.0000 0.27110  0.23636  0.74844  Biso   1.000  Hf
  Hf34     1.0000 0.76936  0.23466  0.25088  Biso   1.000  Hf
  Hf35     1.0000 0.77027  0.23511  0.74915  Biso   1.000  Hf
  Hf36     1.0000 0.27098  0.26411  0.50046  Biso   1.000  Hf
  Hf37     1.0000 0.27305  0.26976  0.99579  Biso   1.000  Hf
  Hf38     1.0000 0.77010  0.26553  0.50002  Biso   1.000  Hf
  Hf39     1.0000 0.77106  0.26107  0.99940  Biso   1.000  Hf
  Hf40     1.0000 0.22960  0.76545  0.50116  Biso   1.000  Hf
  Hf41     1.0000 0.23333  0.76141  0.99833  Biso   1.000  Hf
  Hf42     1.0000 0.72912  0.76478  0.50027  Biso   1.000  Hf
  Hf43     1.0000 0.72771  0.76099  0.99977  Biso   1.000  Hf
  Hf44     1.0000 0.23527  0.72479  0.25377  Biso   1.000  Hf
  Hf45     1.0000 0.23031  0.73743  0.74938  Biso   1.000  Hf
  Hf46     1.0000 0.72890  0.73509  0.25070  Biso   1.000  Hf
  Hf47     1.0000 0.72902  0.73417  0.74949  Biso   1.000  Hf
