data_image0
_cell_length_a       4.99014
_cell_length_b       10.3977
_cell_length_c       10.0308
_cell_angle_alpha    90.0593
_cell_angle_beta     89.9387
_cell_angle_gamma    89.9339

_symmetry_space_group_name_H-M    "P 1"
_symmetry_int_tables_number       1

loop_
  _symmetry_equiv_pos_as_xyz
  'x, y, z'

loop_
  _atom_site_label
  _atom_site_occupancy
  _atom_site_fract_x
  _atom_site_fract_y
  _atom_site_fract_z
  _atom_site_thermal_displace_type
  _atom_site_B_iso_or_equiv
  _atom_site_type_symbol
  Pb1      1.0000 0.26081  0.01546  0.12283  Biso   1.000  Pb
  Hf1      1.0000 0.26672  0.01695  0.62662  Biso   1.000  Hf
  Hf2      1.0000 0.26784  0.51599  0.12667  Biso   1.000  Hf
  Hf3      1.0000 0.26752  0.51660  0.62573  Biso   1.000  Hf
  Hf4      1.0000 0.26901  0.23364  0.37761  Biso   1.000  Hf
  Hf5      1.0000 0.26916  0.23603  0.87324  Biso   1.000  Hf
  Hf6      1.0000 0.26794  0.73312  0.37733  Biso   1.000  Hf
  Hf7      1.0000 0.26593  0.73232  0.87570  Biso   1.000  Hf
  Hf8      1.0000 0.72868  0.26844  0.12618  Biso   1.000  Hf
  Hf9      1.0000 0.73327  0.26689  0.62513  Biso   1.000  Hf
  Hf10     1.0000 0.73354  0.76215  0.12596  Biso   1.000  Hf
  Hf11     1.0000 0.73119  0.76610  0.62585  Biso   1.000  Hf
  Hf12     1.0000 0.73209  0.48345  0.37632  Biso   1.000  Hf
  Hf13     1.0000 0.73250  0.48361  0.87576  Biso   1.000  Hf
  Hf14     1.0000 0.73062  0.98355  0.37899  Biso   1.000  Hf
  Hf15     1.0000 0.73061  0.98293  0.87286  Biso   1.000  Hf
  Hf16     1.0000 0.06944  0.19033  0.19671  Biso   1.000  Hf
  Hf17     1.0000 0.07645  0.18686  0.69058  Biso   1.000  Hf
  Hf18     1.0000 0.07537  0.68421  0.19543  Biso   1.000  Hf
  Hf19     1.0000 0.07094  0.68383  0.69493  Biso   1.000  Hf
  Hf20     1.0000 0.07349  0.06541  0.44410  Biso   1.000  Hf
  Hf21     1.0000 0.07426  0.06680  0.92875  Biso   1.000  Hf
  Hf22     1.0000 0.07207  0.56519  0.44505  Biso   1.000  Hf
  Hf23     1.0000 0.06966  0.56655  0.94584  Biso   1.000  Hf
  Hf24     1.0000 0.92654  0.43516  0.19450  Biso   1.000  Hf
  Hf25     1.0000 0.92915  0.43436  0.69511  Biso   1.000  Hf
  Hf26     1.0000 0.91233  0.93239  0.19545  Biso   1.000  Hf
  Hf27     1.0000 0.92463  0.93423  0.69172  Biso   1.000  Hf
  Hf28     1.0000 0.92672  0.31614  0.44426  Biso   1.000  Hf
  Hf29     1.0000 0.92873  0.31656  0.94434  Biso   1.000  Hf
  Hf30     1.0000 0.92859  0.81551  0.44602  Biso   1.000  Hf
  Hf31     1.0000 0.92806  0.81655  0.94458  Biso   1.000  Hf
  Hf32     1.0000 0.54610  0.12087  0.25328  Biso   1.000  Hf
  Hf33     1.0000 0.54325  0.11839  0.74823  Biso   1.000  Hf
  Hf34     1.0000 0.54123  0.61530  0.24987  Biso   1.000  Hf
  Hf35     1.0000 0.53982  0.61729  0.74976  Biso   1.000  Hf
  Hf36     1.0000 0.54121  0.13233  0.50081  Biso   1.000  Hf
  Hf37     1.0000 0.54804  0.13404  0.99644  Biso   1.000  Hf
  Hf38     1.0000 0.54073  0.63240  0.50001  Biso   1.000  Hf
  Hf39     1.0000 0.53925  0.63115  0.99933  Biso   1.000  Hf
  Hf40     1.0000 0.45925  0.38260  0.50010  Biso   1.000  Hf
  Hf41     1.0000 0.45873  0.38307  0.99939  Biso   1.000  Hf
  Hf42     1.0000 0.45784  0.88254  0.50164  Biso   1.000  Hf
  Hf43     1.0000 0.46347  0.87794  0.99895  Biso   1.000  Hf
  Hf44     1.0000 0.45772  0.36849  0.25055  Biso   1.000  Hf
  Hf45     1.0000 0.46108  0.36850  0.74905  Biso   1.000  Hf
  Hf46     1.0000 0.47089  0.86107  0.25422  Biso   1.000  Hf
  Hf47     1.0000 0.45756  0.86718  0.75013  Biso   1.000  Hf
