data_image0
_cell_length_a       4.99837
_cell_length_b       10.4487
_cell_length_c       10.1184
_cell_angle_alpha    89.4227
_cell_angle_beta     91.5071
_cell_angle_gamma    89.9764

_symmetry_space_group_name_H-M    "P 1"
_symmetry_int_tables_number       1

loop_
  _symmetry_equiv_pos_as_xyz
  'x, y, z'

loop_
  _atom_site_label
  _atom_site_occupancy
  _atom_site_fract_x
  _atom_site_fract_y
  _atom_site_fract_z
  _atom_site_thermal_displace_type
  _atom_site_B_iso_or_equiv
  _atom_site_type_symbol
  Hf1      1.0000 0.25916  0.01459  0.12539  Biso   1.000  Hf
  Hf2      1.0000 0.26124  0.22997  0.39178  Biso   1.000  Hf
  Hf3      1.0000 0.67605  0.26223  0.14812  Biso   1.000  Hf
  Hf4      1.0000 0.73745  0.48189  0.38646  Biso   1.000  Hf
  Hf5      1.0000 0.03710  0.17615  0.21318  Biso   1.000  Hf
  Hf6      1.0000 0.08252  0.05715  0.44439  Biso   1.000  Hf
  Hf7      1.0000 0.91982  0.43697  0.20816  Biso   1.000  Hf
  Hf8      1.0000 0.92247  0.31184  0.44943  Biso   1.000  Hf
  Hf9      1.0000 0.51007  0.11450  0.25791  Biso   1.000  Hf
  Hf10     1.0000 0.55705  0.12935  0.50410  Biso   1.000  Hf
  Hf11     1.0000 0.45899  0.37823  0.50832  Biso   1.000  Hf
  Hf12     1.0000 0.44117  0.37126  0.26677  Biso   1.000  Hf
  Hf13     1.0000 0.27783  0.00542  0.62257  Biso   1.000  Hf
  Hf14     1.0000 0.28629  0.21791  0.84975  Biso   1.000  Hf
  Hf15     1.0000 0.74639  0.27015  0.63391  Biso   1.000  Hf
  Hf16     1.0000 0.74238  0.48442  0.87029  Biso   1.000  Hf
  Hf17     1.0000 0.09980  0.17678  0.66993  Biso   1.000  Hf
  Hf18     1.0000 0.08461  0.06067  0.93938  Biso   1.000  Hf
  Hf19     1.0000 0.90919  0.44955  0.66780  Biso   1.000  Hf
  Hf20     1.0000 0.92561  0.30901  0.86224  Biso   1.000  Hf
  Hf21     1.0000 0.55908  0.10880  0.74739  Biso   1.000  Hf
  Hf22     1.0000 0.56084  0.12982  0.00274  Biso   1.000  Hf
  Hf23     1.0000 0.51426  0.39304  0.01118  Biso   1.000  Hf
  Hf24     1.0000 0.45106  0.37100  0.75190  Biso   1.000  Hf
  Hf25     1.0000 0.27051  0.52608  0.13462  Biso   1.000  Hf
  Hf26     1.0000 0.27322  0.73457  0.37871  Biso   1.000  Hf
  Hf27     1.0000 0.72818  0.76656  0.13077  Biso   1.000  Hf
  Hf28     1.0000 0.73606  0.98290  0.37788  Biso   1.000  Hf
  Hf29     1.0000 0.07657  0.68714  0.19779  Biso   1.000  Hf
  Hf30     1.0000 0.08375  0.56802  0.44220  Biso   1.000  Hf
  Hf31     1.0000 0.92426  0.93472  0.19590  Biso   1.000  Hf
  Hf32     1.0000 0.93726  0.81561  0.45001  Biso   1.000  Hf
  Hf33     1.0000 0.55039  0.62074  0.25797  Biso   1.000  Hf
  Hf34     1.0000 0.54565  0.63238  0.50549  Biso   1.000  Hf
  Hf35     1.0000 0.47314  0.87955  0.50046  Biso   1.000  Hf
  Hf36     1.0000 0.45928  0.86807  0.25129  Biso   1.000  Hf
  Hf37     1.0000 0.27376  0.51779  0.62526  Biso   1.000  Hf
  Hf38     1.0000 0.27049  0.73461  0.87892  Biso   1.000  Hf
  Hf39     1.0000 0.74165  0.76479  0.63058  Biso   1.000  Hf
  Hf40     1.0000 0.73892  0.97861  0.88153  Biso   1.000  Hf
  Hf41     1.0000 0.07978  0.68268  0.69971  Biso   1.000  Hf
  Hf42     1.0000 0.07506  0.56409  0.94886  Biso   1.000  Hf
  Hf43     1.0000 0.94318  0.92950  0.70120  Biso   1.000  Hf
  Hf44     1.0000 0.93329  0.81301  0.95200  Biso   1.000  Hf
  Hf45     1.0000 0.54546  0.61896  0.75485  Biso   1.000  Hf
  Hf46     1.0000 0.53590  0.63804  0.00587  Biso   1.000  Hf
  Hf47     1.0000 0.46097  0.88362  0.00308  Biso   1.000  Hf
  Hf48     1.0000 0.47322  0.86310  0.75297  Biso   1.000  Hf
  Pd1      1.0000 0.12017  0.30530  0.05571  Biso   1.000  Pd
