data_image0
_cell_length_a       10.1932
_cell_length_b       10.3249
_cell_length_c       10.0675
_cell_angle_alpha    93.4175
_cell_angle_beta     90.1137
_cell_angle_gamma    91.538

_symmetry_space_group_name_H-M    "P 1"
_symmetry_int_tables_number       1

loop_
  _symmetry_equiv_pos_as_xyz
  'x, y, z'

loop_
  _atom_site_label
  _atom_site_occupancy
  _atom_site_fract_x
  _atom_site_fract_y
  _atom_site_fract_z
  _atom_site_thermal_displace_type
  _atom_site_B_iso_or_equiv
  _atom_site_type_symbol
  Hf1      1.0000 0.15468  0.95003  0.12847  Biso   1.000  Hf
  Hf2      1.0000 0.08835  0.27458  0.36169  Biso   1.000  Hf
  Hf3      1.0000 0.35648  0.22117  0.12775  Biso   1.000  Hf
  Hf4      1.0000 0.39400  0.98626  0.39612  Biso   1.000  Hf
  Hf5      1.0000 0.95011  0.20422  0.95997  Biso   1.000  Hf
  Hf6      1.0000 0.93337  0.15347  0.29152  Biso   1.000  Hf
  Hf7      1.0000 0.97426  0.39088  0.23222  Biso   1.000  Hf
  Hf8      1.0000 0.05786  0.42348  0.96823  Biso   1.000  Hf
  Hf9      1.0000 0.20246  0.13756  0.24522  Biso   1.000  Hf
  Hf10     1.0000 0.28206  0.05294  0.01789  Biso   1.000  Hf
  Hf11     1.0000 0.29677  0.31621  0.97037  Biso   1.000  Hf
  Hf12     1.0000 0.22420  0.39482  0.25047  Biso   1.000  Hf
  Hf13     1.0000 0.14836  0.00452  0.62892  Biso   1.000  Hf
  Hf14     1.0000 0.13190  0.26116  0.85478  Biso   1.000  Hf
  Hf15     1.0000 0.36389  0.26028  0.60961  Biso   1.000  Hf
  Hf16     1.0000 0.39606  0.00372  0.86313  Biso   1.000  Hf
  Hf17     1.0000 0.01918  0.15434  0.52109  Biso   1.000  Hf
  Hf18     1.0000 0.03900  0.09169  0.77178  Biso   1.000  Hf
  Hf19     1.0000 0.00463  0.35508  0.73360  Biso   1.000  Hf
  Hf20     1.0000 0.97585  0.40579  0.48831  Biso   1.000  Hf
  Hf21     1.0000 0.28024  0.14485  0.75206  Biso   1.000  Hf
  Hf22     1.0000 0.27052  0.09813  0.50356  Biso   1.000  Hf
  Hf23     1.0000 0.22572  0.34974  0.50082  Biso   1.000  Hf
  Hf24     1.0000 0.25405  0.39723  0.74302  Biso   1.000  Hf
  Hf25     1.0000 0.12591  0.51806  0.13552  Biso   1.000  Hf
  Hf26     1.0000 0.12943  0.75136  0.38878  Biso   1.000  Hf
  Hf27     1.0000 0.38489  0.73411  0.12709  Biso   1.000  Hf
  Hf28     1.0000 0.36931  0.50186  0.36675  Biso   1.000  Hf
  Hf29     1.0000 0.00979  0.65453  0.00726  Biso   1.000  Hf
  Hf30     1.0000 0.00996  0.62737  0.25865  Biso   1.000  Hf
  Hf31     1.0000 0.01579  0.86583  0.25191  Biso   1.000  Hf
  Hf32     1.0000 0.99546  0.90469  0.99691  Biso   1.000  Hf
  Hf33     1.0000 0.26017  0.64464  0.26196  Biso   1.000  Hf
  Hf34     1.0000 0.28745  0.56811  0.02736  Biso   1.000  Hf
  Hf35     1.0000 0.23319  0.80358  0.01764  Biso   1.000  Hf
  Hf36     1.0000 0.27515  0.88039  0.26425  Biso   1.000  Hf
  Hf37     1.0000 0.11988  0.49530  0.62913  Biso   1.000  Hf
  Hf38     1.0000 0.10234  0.75680  0.86249  Biso   1.000  Hf
  Hf39     1.0000 0.35976  0.72939  0.64172  Biso   1.000  Hf
  Hf40     1.0000 0.39277  0.47552  0.88739  Biso   1.000  Hf
  Hf41     1.0000 0.98707  0.65641  0.50080  Biso   1.000  Hf
  Hf42     1.0000 0.97864  0.60723  0.74744  Biso   1.000  Hf
  Hf43     1.0000 0.98698  0.85628  0.74454  Biso   1.000  Hf
  Hf44     1.0000 0.03213  0.90315  0.49512  Biso   1.000  Hf
  Hf45     1.0000 0.22313  0.64002  0.75288  Biso   1.000  Hf
  Hf46     1.0000 0.23261  0.59876  0.50081  Biso   1.000  Hf
  Hf47     1.0000 0.27233  0.85044  0.51491  Biso   1.000  Hf
  Hf48     1.0000 0.24389  0.89099  0.76778  Biso   1.000  Hf
  Hf49     1.0000 0.61855  0.99731  0.12686  Biso   1.000  Hf
  Hf50     1.0000 0.59534  0.26389  0.37285  Biso   1.000  Hf
  Hf51     1.0000 0.83595  0.25192  0.14171  Biso   1.000  Hf
  Hf52     1.0000 0.89465  0.99273  0.38913  Biso   1.000  Hf
  Hf53     1.0000 0.50619  0.14890  0.00459  Biso   1.000  Hf
  Hf54     1.0000 0.46303  0.08749  0.24672  Biso   1.000  Hf
  Hf55     1.0000 0.46140  0.34334  0.25992  Biso   1.000  Hf
  Hf56     1.0000 0.53554  0.39718  0.99228  Biso   1.000  Hf
  Hf57     1.0000 0.69080  0.16114  0.23499  Biso   1.000  Hf
  Hf58     1.0000 0.74307  0.10397  0.99959  Biso   1.000  Hf
  Hf59     1.0000 0.77143  0.37425  0.00534  Biso   1.000  Hf
  Hf60     1.0000 0.72667  0.40624  0.25912  Biso   1.000  Hf
  Hf61     1.0000 0.64773  0.00714  0.62169  Biso   1.000  Hf
  Hf62     1.0000 0.63242  0.24825  0.87792  Biso   1.000  Hf
  Hf63     1.0000 0.86596  0.26046  0.60835  Biso   1.000  Hf
  Hf64     1.0000 0.88193  0.01581  0.87075  Biso   1.000  Hf
  Hf65     1.0000 0.50960  0.14864  0.50799  Biso   1.000  Hf
  Hf66     1.0000 0.53907  0.09556  0.76327  Biso   1.000  Hf
  Hf67     1.0000 0.50847  0.34077  0.74556  Biso   1.000  Hf
  Hf68     1.0000 0.47806  0.40502  0.50516  Biso   1.000  Hf
  Hf69     1.0000 0.77924  0.15389  0.75107  Biso   1.000  Hf
  Hf70     1.0000 0.76643  0.10162  0.50006  Biso   1.000  Hf
  Hf71     1.0000 0.72124  0.34683  0.51149  Biso   1.000  Hf
  Hf72     1.0000 0.75685  0.40428  0.75484  Biso   1.000  Hf
  Hf73     1.0000 0.64716  0.51794  0.11129  Biso   1.000  Hf
  Hf74     1.0000 0.61906  0.73978  0.38399  Biso   1.000  Hf
  Hf75     1.0000 0.86995  0.77363  0.11681  Biso   1.000  Hf
  Hf76     1.0000 0.87461  0.52549  0.36314  Biso   1.000  Hf
  Hf77     1.0000 0.52078  0.64304  0.99988  Biso   1.000  Hf
  Hf78     1.0000 0.50747  0.59243  0.24798  Biso   1.000  Hf
  Hf79     1.0000 0.52838  0.84132  0.24124  Biso   1.000  Hf
  Hf80     1.0000 0.48734  0.88873  0.99608  Biso   1.000  Hf
  Hf81     1.0000 0.76037  0.66163  0.24685  Biso   1.000  Hf
  Hf82     1.0000 0.77039  0.61754  0.99329  Biso   1.000  Hf
  Hf83     1.0000 0.73855  0.85908  0.99795  Biso   1.000  Hf
  Hf84     1.0000 0.77648  0.92428  0.23478  Biso   1.000  Hf
  Hf85     1.0000 0.62473  0.49050  0.63606  Biso   1.000  Hf
  Hf86     1.0000 0.61373  0.75845  0.87035  Biso   1.000  Hf
  Hf87     1.0000 0.85841  0.74435  0.63122  Biso   1.000  Hf
  Hf88     1.0000 0.89616  0.49338  0.88694  Biso   1.000  Hf
  Hf89     1.0000 0.47715  0.65445  0.49166  Biso   1.000  Hf
  Hf90     1.0000 0.47813  0.59377  0.74600  Biso   1.000  Hf
  Hf91     1.0000 0.49270  0.84925  0.74421  Biso   1.000  Hf
  Hf92     1.0000 0.53430  0.89895  0.49154  Biso   1.000  Hf
  Hf93     1.0000 0.72122  0.65301  0.73648  Biso   1.000  Hf
  Hf94     1.0000 0.73077  0.59741  0.49302  Biso   1.000  Hf
  Hf95     1.0000 0.77262  0.84896  0.48946  Biso   1.000  Hf
  Hf96     1.0000 0.74823  0.90156  0.74885  Biso   1.000  Hf
  Pt1      1.0000 0.07877  0.17915  0.09600  Biso   1.000  Pt
