data_image0
_cell_length_a       10.1594
_cell_length_b       10.3239
_cell_length_c       10.5061
_cell_angle_alpha    89.7441
_cell_angle_beta     80.4108
_cell_angle_gamma    90.2113

_symmetry_space_group_name_H-M    "P 1"
_symmetry_int_tables_number       1

loop_
  _symmetry_equiv_pos_as_xyz
  'x, y, z'

loop_
  _atom_site_label
  _atom_site_occupancy
  _atom_site_fract_x
  _atom_site_fract_y
  _atom_site_fract_z
  _atom_site_thermal_displace_type
  _atom_site_B_iso_or_equiv
  _atom_site_type_symbol
  Rb1      1.0000 0.08827  0.98526  0.13341  Biso   1.000  Rb
  Hf1      1.0000 0.14052  0.02308  0.64471  Biso   1.000  Hf
  Hf2      1.0000 0.14399  0.51907  0.14313  Biso   1.000  Hf
  Hf3      1.0000 0.14242  0.52302  0.64498  Biso   1.000  Hf
  Hf4      1.0000 0.64092  0.02652  0.14302  Biso   1.000  Hf
  Hf5      1.0000 0.63774  0.02323  0.65131  Biso   1.000  Hf
  Hf6      1.0000 0.63169  0.51451  0.14677  Biso   1.000  Hf
  Hf7      1.0000 0.64015  0.52048  0.64445  Biso   1.000  Hf
  Hf8      1.0000 0.14153  0.22774  0.39502  Biso   1.000  Hf
  Hf9      1.0000 0.13956  0.22981  0.89678  Biso   1.000  Hf
  Hf10     1.0000 0.14139  0.72797  0.39432  Biso   1.000  Hf
  Hf11     1.0000 0.15210  0.72883  0.88915  Biso   1.000  Hf
  Hf12     1.0000 0.63641  0.23139  0.39687  Biso   1.000  Hf
  Hf13     1.0000 0.64032  0.23074  0.89688  Biso   1.000  Hf
  Hf14     1.0000 0.63442  0.72189  0.39925  Biso   1.000  Hf
  Hf15     1.0000 0.63767  0.72960  0.89215  Biso   1.000  Hf
  Hf16     1.0000 0.35288  0.26072  0.10405  Biso   1.000  Hf
  Hf17     1.0000 0.36015  0.27079  0.60379  Biso   1.000  Hf
  Hf18     1.0000 0.36673  0.77163  0.10421  Biso   1.000  Hf
  Hf19     1.0000 0.36256  0.77574  0.60061  Biso   1.000  Hf
  Hf20     1.0000 0.86177  0.27540  0.10429  Biso   1.000  Hf
  Hf21     1.0000 0.86383  0.27428  0.60452  Biso   1.000  Hf
  Hf22     1.0000 0.86636  0.74003  0.07751  Biso   1.000  Hf
  Hf23     1.0000 0.86499  0.77150  0.60489  Biso   1.000  Hf
  Hf24     1.0000 0.35702  0.47650  0.35229  Biso   1.000  Hf
  Hf25     1.0000 0.36430  0.47540  0.85346  Biso   1.000  Hf
  Hf26     1.0000 0.35885  0.98225  0.34843  Biso   1.000  Hf
  Hf27     1.0000 0.36128  0.98218  0.85435  Biso   1.000  Hf
  Hf28     1.0000 0.86338  0.48061  0.35283  Biso   1.000  Hf
  Hf29     1.0000 0.86437  0.47567  0.84821  Biso   1.000  Hf
  Hf30     1.0000 0.86044  0.99077  0.37991  Biso   1.000  Hf
  Hf31     1.0000 0.86251  0.97958  0.85489  Biso   1.000  Hf
  O1       1.0000 0.04117  0.20442  0.08274  Biso   1.000  O
  O2       1.0000 0.03874  0.17769  0.58875  Biso   1.000  O
  O3       1.0000 0.04874  0.67986  0.08108  Biso   1.000  O
  O4       1.0000 0.03887  0.67061  0.58121  Biso   1.000  O
  O5       1.0000 0.53549  0.16783  0.07727  Biso   1.000  O
  O6       1.0000 0.53216  0.16606  0.57872  Biso   1.000  O
  O7       1.0000 0.53790  0.66430  0.07568  Biso   1.000  O
  O8       1.0000 0.53380  0.66468  0.57667  Biso   1.000  O
  O9       1.0000 0.02822  0.07997  0.36362  Biso   1.000  O
  O10      1.0000 0.03822  0.07872  0.83432  Biso   1.000  O
  O11      1.0000 0.03704  0.58254  0.32756  Biso   1.000  O
  O12      1.0000 0.03694  0.58174  0.83102  Biso   1.000  O
  O13      1.0000 0.53797  0.08614  0.32481  Biso   1.000  O
  O14      1.0000 0.53822  0.08383  0.82956  Biso   1.000  O
  O15      1.0000 0.53145  0.58047  0.32861  Biso   1.000  O
  O16      1.0000 0.53531  0.58418  0.82498  Biso   1.000  O
  O17      1.0000 0.46201  0.41123  0.17245  Biso   1.000  O
  O18      1.0000 0.46746  0.41555  0.67036  Biso   1.000  O
  O19      1.0000 0.47323  0.91703  0.16985  Biso   1.000  O
  O20      1.0000 0.46834  0.91554  0.67349  Biso   1.000  O
  O21      1.0000 0.95736  0.43520  0.16324  Biso   1.000  O
  O22      1.0000 0.96590  0.42423  0.66615  Biso   1.000  O
  O23      1.0000 0.84916  0.88610  0.21145  Biso   1.000  O
  O24      1.0000 0.96475  0.92163  0.67013  Biso   1.000  O
  O25      1.0000 0.46452  0.33329  0.42162  Biso   1.000  O
  O26      1.0000 0.46949  0.33446  0.92084  Biso   1.000  O
  O27      1.0000 0.47250  0.83782  0.42162  Biso   1.000  O
  O28      1.0000 0.47887  0.84150  0.92189  Biso   1.000  O
  O29      1.0000 0.96399  0.33326  0.41866  Biso   1.000  O
  O30      1.0000 0.96074  0.32871  0.91201  Biso   1.000  O
  O31      1.0000 0.96689  0.83172  0.42039  Biso   1.000  O
  O32      1.0000 0.97511  0.83515  0.92124  Biso   1.000  O
  O33      1.0000 0.28364  0.13484  0.25040  Biso   1.000  O
  O34      1.0000 0.27685  0.12846  0.73748  Biso   1.000  O
  O35      1.0000 0.27925  0.62200  0.23641  Biso   1.000  O
  O36      1.0000 0.28026  0.63047  0.73689  Biso   1.000  O
  O37      1.0000 0.78243  0.13090  0.24495  Biso   1.000  O
  O38      1.0000 0.77950  0.13049  0.74354  Biso   1.000  O
  O39      1.0000 0.76885  0.63382  0.23758  Biso   1.000  O
  O40      1.0000 0.77703  0.62957  0.73706  Biso   1.000  O
  O41      1.0000 0.27618  0.12174  0.49264  Biso   1.000  O
  O42      1.0000 0.28569  0.12812  0.97800  Biso   1.000  O
  O43      1.0000 0.27785  0.62199  0.48812  Biso   1.000  O
  O44      1.0000 0.28079  0.61550  0.98736  Biso   1.000  O
  O45      1.0000 0.76995  0.12808  0.50053  Biso   1.000  O
  O46      1.0000 0.77898  0.12049  0.99257  Biso   1.000  O
  O47      1.0000 0.77704  0.62204  0.48838  Biso   1.000  O
  O48      1.0000 0.77332  0.61205  0.98337  Biso   1.000  O
  O49      1.0000 0.22647  0.37998  0.00723  Biso   1.000  O
  O50      1.0000 0.22395  0.38075  0.50859  Biso   1.000  O
  O51      1.0000 0.24775  0.86115  0.98996  Biso   1.000  O
  O52      1.0000 0.22676  0.88141  0.50810  Biso   1.000  O
  O53      1.0000 0.72256  0.37846  0.00864  Biso   1.000  O
  O54      1.0000 0.72444  0.38122  0.50912  Biso   1.000  O
  O55      1.0000 0.72969  0.87352  0.00970  Biso   1.000  O
  O56      1.0000 0.72640  0.88079  0.51716  Biso   1.000  O
  O57      1.0000 0.21813  0.37154  0.25721  Biso   1.000  O
  O58      1.0000 0.22506  0.37210  0.75857  Biso   1.000  O
  O59      1.0000 0.24092  0.85635  0.26318  Biso   1.000  O
  O60      1.0000 0.22544  0.87271  0.75335  Biso   1.000  O
  O61      1.0000 0.72309  0.37306  0.26078  Biso   1.000  O
  O62      1.0000 0.72530  0.37131  0.75709  Biso   1.000  O
  O63      1.0000 0.70991  0.88525  0.27280  Biso   1.000  O
  O64      1.0000 0.72793  0.87150  0.76102  Biso   1.000  O
