data_image0
_cell_length_a       5.07321
_cell_length_b       10.2941
_cell_length_c       10.1692
_cell_angle_alpha    91.2586
_cell_angle_beta     92.7079
_cell_angle_gamma    86.5395

_symmetry_space_group_name_H-M    "P 1"
_symmetry_int_tables_number       1

loop_
  _symmetry_equiv_pos_as_xyz
  'x, y, z'

loop_
  _atom_site_label
  _atom_site_occupancy
  _atom_site_fract_x
  _atom_site_fract_y
  _atom_site_fract_z
  _atom_site_thermal_displace_type
  _atom_site_B_iso_or_equiv
  _atom_site_type_symbol
  Rb1      1.0000 0.28717  0.97268  0.14857  Biso   1.000  Rb
  Hf1      1.0000 0.25474  0.00303  0.63571  Biso   1.000  Hf
  Hf2      1.0000 0.25091  0.49678  0.12048  Biso   1.000  Hf
  Hf3      1.0000 0.30411  0.51404  0.60177  Biso   1.000  Hf
  Hf4      1.0000 0.24794  0.24451  0.39358  Biso   1.000  Hf
  Hf5      1.0000 0.22226  0.23779  0.89829  Biso   1.000  Hf
  Hf6      1.0000 0.18088  0.74329  0.35976  Biso   1.000  Hf
  Hf7      1.0000 0.25957  0.72657  0.87931  Biso   1.000  Hf
  Hf8      1.0000 0.75371  0.25913  0.13146  Biso   1.000  Hf
  Hf9      1.0000 0.72494  0.23966  0.64784  Biso   1.000  Hf
  Hf10     1.0000 0.74978  0.73332  0.10227  Biso   1.000  Hf
  Hf11     1.0000 0.80477  0.76486  0.63528  Biso   1.000  Hf
  Hf12     1.0000 0.77738  0.02887  0.38001  Biso   1.000  Hf
  Hf13     1.0000 0.75398  0.00154  0.89129  Biso   1.000  Hf
  Hf14     1.0000 0.78758  0.49034  0.38151  Biso   1.000  Hf
  Hf15     1.0000 0.78331  0.49736  0.85247  Biso   1.000  Hf
  Hf16     1.0000 0.98986  0.13814  0.00530  Biso   1.000  Hf
  Hf17     1.0000 0.00625  0.14563  0.51650  Biso   1.000  Hf
  Hf18     1.0000 0.01495  0.62256  0.98939  Biso   1.000  Hf
  Hf19     1.0000 0.97861  0.64241  0.49465  Biso   1.000  Hf
  Hf20     1.0000 0.00122  0.13364  0.27148  Biso   1.000  Hf
  Hf21     1.0000 0.97825  0.09185  0.75805  Biso   1.000  Hf
  Hf22     1.0000 0.95809  0.60898  0.24354  Biso   1.000  Hf
  Hf23     1.0000 0.03518  0.59969  0.74166  Biso   1.000  Hf
  Hf24     1.0000 0.06283  0.36735  0.25359  Biso   1.000  Hf
  Hf25     1.0000 0.98972  0.34120  0.76113  Biso   1.000  Hf
  Hf26     1.0000 0.88003  0.86220  0.24853  Biso   1.000  Hf
  Hf27     1.0000 0.11611  0.84219  0.72929  Biso   1.000  Hf
  Hf28     1.0000 0.95936  0.38780  0.00708  Biso   1.000  Hf
  Hf29     1.0000 0.05485  0.39447  0.50526  Biso   1.000  Hf
  Hf30     1.0000 0.99188  0.85762  0.97638  Biso   1.000  Hf
  Hf31     1.0000 0.97009  0.89580  0.50088  Biso   1.000  Hf
  Hf32     1.0000 0.52793  0.16908  0.27041  Biso   1.000  Hf
  Hf33     1.0000 0.46128  0.15098  0.75628  Biso   1.000  Hf
  Hf34     1.0000 0.40283  0.69430  0.19707  Biso   1.000  Hf
  Hf35     1.0000 0.53626  0.65114  0.72686  Biso   1.000  Hf
  Hf36     1.0000 0.52561  0.11761  0.00428  Biso   1.000  Hf
  Hf37     1.0000 0.50620  0.10441  0.51422  Biso   1.000  Hf
  Hf38     1.0000 0.51964  0.59067  0.98177  Biso   1.000  Hf
  Hf39     1.0000 0.46245  0.59935  0.44821  Biso   1.000  Hf
  Hf40     1.0000 0.45063  0.35157  0.00947  Biso   1.000  Hf
  Hf41     1.0000 0.55534  0.35713  0.49388  Biso   1.000  Hf
  Hf42     1.0000 0.52277  0.84629  0.96631  Biso   1.000  Hf
  Hf43     1.0000 0.44892  0.84316  0.51126  Biso   1.000  Hf
  Hf44     1.0000 0.56793  0.42530  0.23068  Biso   1.000  Hf
  Hf45     1.0000 0.50694  0.40142  0.73914  Biso   1.000  Hf
  Hf46     1.0000 0.45091  0.89092  0.38056  Biso   1.000  Hf
  Hf47     1.0000 0.59862  0.91527  0.72528  Biso   1.000  Hf
