data_image0
_cell_length_a       10.1555
_cell_length_b       10.2731
_cell_length_c       10.5337
_cell_angle_alpha    89.8679
_cell_angle_beta     79.9061
_cell_angle_gamma    90.2411

_symmetry_space_group_name_H-M    "P 1"
_symmetry_int_tables_number       1

loop_
  _symmetry_equiv_pos_as_xyz
  'x, y, z'

loop_
  _atom_site_label
  _atom_site_occupancy
  _atom_site_fract_x
  _atom_site_fract_y
  _atom_site_fract_z
  _atom_site_thermal_displace_type
  _atom_site_B_iso_or_equiv
  _atom_site_type_symbol
  Hf1      1.0000 0.13595  0.02213  0.14558  Biso   1.000  Hf
  Hf2      1.0000 0.14047  0.23422  0.39513  Biso   1.000  Hf
  Hf3      1.0000 0.35603  0.26867  0.09206  Biso   1.000  Hf
  Hf4      1.0000 0.35139  0.48498  0.35722  Biso   1.000  Hf
  O1       1.0000 0.03443  0.16756  0.07595  Biso   1.000  O
  O2       1.0000 0.03598  0.08566  0.32589  Biso   1.000  O
  O3       1.0000 0.47352  0.38619  0.19459  Biso   1.000  O
  O4       1.0000 0.48827  0.36492  0.43899  Biso   1.000  O
  O5       1.0000 0.28178  0.12246  0.23426  Biso   1.000  O
  O6       1.0000 0.28983  0.12098  0.47790  Biso   1.000  O
  O7       1.0000 0.22103  0.38094  0.00327  Biso   1.000  O
  O8       1.0000 0.21363  0.37630  0.24983  Biso   1.000  O
  Hf5      1.0000 0.13759  0.02076  0.64612  Biso   1.000  Hf
  Hf6      1.0000 0.13601  0.22914  0.89140  Biso   1.000  Hf
  Hf7      1.0000 0.36244  0.27709  0.60097  Biso   1.000  Hf
  Hf8      1.0000 0.35977  0.47985  0.85328  Biso   1.000  Hf
  O9       1.0000 0.04071  0.16777  0.57699  Biso   1.000  O
  O10      1.0000 0.03275  0.08265  0.82639  Biso   1.000  O
  O11      1.0000 0.46785  0.41302  0.68039  Biso   1.000  O
  O12      1.0000 0.47093  0.34304  0.92734  Biso   1.000  O
  O13      1.0000 0.27489  0.12932  0.73554  Biso   1.000  O
  O14      1.0000 0.27278  0.12208  0.98393  Biso   1.000  O
  O15      1.0000 0.21691  0.38542  0.51569  Biso   1.000  O
  O16      1.0000 0.22364  0.37251  0.75812  Biso   1.000  O
  Hf9      1.0000 0.13796  0.52245  0.14318  Biso   1.000  Hf
  Hf10     1.0000 0.13384  0.72873  0.39733  Biso   1.000  Hf
  Hf11     1.0000 0.35961  0.77035  0.10278  Biso   1.000  Hf
  Hf12     1.0000 0.36043  0.96436  0.35408  Biso   1.000  Hf
  O17      1.0000 0.03202  0.66974  0.07851  Biso   1.000  O
  O18      1.0000 0.03305  0.58682  0.32544  Biso   1.000  O
  O19      1.0000 0.46809  0.90881  0.17532  Biso   1.000  O
  O20      1.0000 0.46374  0.82686  0.42561  Biso   1.000  O
  O21      1.0000 0.27537  0.62815  0.24058  Biso   1.000  O
  O22      1.0000 0.27000  0.62566  0.49410  Biso   1.000  O
  O23      1.0000 0.22368  0.87982  0.01007  Biso   1.000  O
  O24      1.0000 0.22072  0.86731  0.25862  Biso   1.000  O
  Hf13     1.0000 0.13542  0.52515  0.64897  Biso   1.000  Hf
  Hf14     1.0000 0.13611  0.73016  0.89757  Biso   1.000  Hf
  Hf15     1.0000 0.36103  0.77006  0.60629  Biso   1.000  Hf
  Hf16     1.0000 0.36120  0.97881  0.85228  Biso   1.000  Hf
  O25      1.0000 0.02856  0.66646  0.57828  Biso   1.000  O
  O26      1.0000 0.03147  0.58524  0.83102  Biso   1.000  O
  O27      1.0000 0.46600  0.91504  0.67269  Biso   1.000  O
  O28      1.0000 0.46637  0.83672  0.92442  Biso   1.000  O
  O29      1.0000 0.27455  0.62940  0.74227  Biso   1.000  O
  O30      1.0000 0.27406  0.62312  0.99000  Biso   1.000  O
  O31      1.0000 0.22225  0.87882  0.51139  Biso   1.000  O
  O32      1.0000 0.22275  0.87182  0.76054  Biso   1.000  O
  Hf17     1.0000 0.63885  0.02065  0.14648  Biso   1.000  Hf
  Hf18     1.0000 0.64737  0.23291  0.40213  Biso   1.000  Hf
  Hf19     1.0000 0.86140  0.27248  0.10526  Biso   1.000  Hf
  Hf20     1.0000 0.86291  0.47933  0.35508  Biso   1.000  Hf
  O33      1.0000 0.52853  0.15388  0.06846  Biso   1.000  O
  O34      1.0000 0.54133  0.06761  0.33949  Biso   1.000  O
  O35      1.0000 0.96453  0.41893  0.17050  Biso   1.000  O
  O36      1.0000 0.96793  0.33794  0.42463  Biso   1.000  O
  O37      1.0000 0.77629  0.12924  0.23996  Biso   1.000  O
  O38      1.0000 0.78220  0.11990  0.49324  Biso   1.000  O
  O39      1.0000 0.72220  0.37751  0.01333  Biso   1.000  O
  O40      1.0000 0.72822  0.37347  0.26239  Biso   1.000  O
  Hf21     1.0000 0.63816  0.02339  0.64499  Biso   1.000  Hf
  Hf22     1.0000 0.63900  0.22732  0.89651  Biso   1.000  Hf
  Hf23     1.0000 0.86495  0.27218  0.60693  Biso   1.000  Hf
  Hf24     1.0000 0.85858  0.47883  0.85703  Biso   1.000  Hf
  O41      1.0000 0.53528  0.16870  0.57853  Biso   1.000  O
  O42      1.0000 0.53181  0.08796  0.82339  Biso   1.000  O
  O43      1.0000 0.96463  0.41733  0.67622  Biso   1.000  O
  O44      1.0000 0.96313  0.33296  0.92146  Biso   1.000  O
  O45      1.0000 0.77638  0.12894  0.74136  Biso   1.000  O
  O46      1.0000 0.77545  0.12132  0.99091  Biso   1.000  O
  O47      1.0000 0.73058  0.37865  0.51491  Biso   1.000  O
  O48      1.0000 0.72389  0.37170  0.76255  Biso   1.000  O
  Hf25     1.0000 0.63713  0.51988  0.15026  Biso   1.000  Hf
  Hf26     1.0000 0.63784  0.72618  0.39603  Biso   1.000  Hf
  Hf27     1.0000 0.85946  0.77185  0.10493  Biso   1.000  Hf
  Hf28     1.0000 0.86063  0.98005  0.35439  Biso   1.000  Hf
  O49      1.0000 0.52691  0.65428  0.07358  Biso   1.000  O
  O50      1.0000 0.52822  0.59042  0.32132  Biso   1.000  O
  O51      1.0000 0.96450  0.91776  0.17192  Biso   1.000  O
  O52      1.0000 0.96402  0.83622  0.42373  Biso   1.000  O
  O53      1.0000 0.77355  0.62749  0.23989  Biso   1.000  O
  O54      1.0000 0.77472  0.62158  0.48991  Biso   1.000  O
  O55      1.0000 0.72143  0.87872  0.01200  Biso   1.000  O
  O56      1.0000 0.72439  0.87003  0.26083  Biso   1.000  O
  Hf29     1.0000 0.63876  0.52100  0.64744  Biso   1.000  Hf
  Hf30     1.0000 0.63670  0.72709  0.89697  Biso   1.000  Hf
  Hf31     1.0000 0.85777  0.77320  0.60503  Biso   1.000  Hf
  Hf32     1.0000 0.85879  0.97831  0.85490  Biso   1.000  Hf
  O57      1.0000 0.53199  0.66178  0.57679  Biso   1.000  O
  O58      1.0000 0.53150  0.58876  0.82457  Biso   1.000  O
  O59      1.0000 0.96470  0.91635  0.67339  Biso   1.000  O
  O60      1.0000 0.96329  0.83477  0.92299  Biso   1.000  O
  O61      1.0000 0.77470  0.62922  0.74142  Biso   1.000  O
  O62      1.0000 0.77298  0.62155  0.99233  Biso   1.000  O
  O63      1.0000 0.72148  0.87862  0.51027  Biso   1.000  O
  O64      1.0000 0.72203  0.87192  0.76109  Biso   1.000  O
  Re1      1.0000 0.41334  0.23231  0.32511  Biso   1.000  Re
