data_image0
_cell_length_a       10.0135
_cell_length_b       10.4277
_cell_length_c       10.0498
_cell_angle_alpha    89.987
_cell_angle_beta     89.9343
_cell_angle_gamma    90.035

_symmetry_space_group_name_H-M    "P 1"
_symmetry_int_tables_number       1

loop_
  _symmetry_equiv_pos_as_xyz
  'x, y, z'

loop_
  _atom_site_label
  _atom_site_occupancy
  _atom_site_fract_x
  _atom_site_fract_y
  _atom_site_fract_z
  _atom_site_thermal_displace_type
  _atom_site_B_iso_or_equiv
  _atom_site_type_symbol
  Hf1      1.0000 0.13241  0.02062  0.11966  Biso   1.000  Hf
  Hf2      1.0000 0.13396  0.22770  0.38309  Biso   1.000  Hf
  Hf3      1.0000 0.37593  0.26285  0.12080  Biso   1.000  Hf
  Hf4      1.0000 0.36714  0.48185  0.37449  Biso   1.000  Hf
  Hf5      1.0000 0.00309  0.17307  0.22965  Biso   1.000  Hf
  Hf6      1.0000 0.03591  0.06118  0.45418  Biso   1.000  Hf
  Hf7      1.0000 0.46787  0.43241  0.19629  Biso   1.000  Hf
  Hf8      1.0000 0.46692  0.31748  0.44921  Biso   1.000  Hf
  Hf9      1.0000 0.26441  0.10855  0.25027  Biso   1.000  Hf
  Hf10     1.0000 0.27355  0.13028  0.50072  Biso   1.000  Hf
  Hf11     1.0000 0.23226  0.38333  0.50289  Biso   1.000  Hf
  Hf12     1.0000 0.24493  0.35122  0.25950  Biso   1.000  Hf
  Hf13     1.0000 0.13514  0.01269  0.62633  Biso   1.000  Hf
  Hf14     1.0000 0.13862  0.22560  0.86706  Biso   1.000  Hf
  Hf15     1.0000 0.36785  0.26650  0.62559  Biso   1.000  Hf
  Hf16     1.0000 0.36900  0.48740  0.87275  Biso   1.000  Hf
  Hf17     1.0000 0.03441  0.17914  0.69298  Biso   1.000  Hf
  Hf18     1.0000 0.03646  0.06219  0.93888  Biso   1.000  Hf
  Hf19     1.0000 0.46738  0.43292  0.69616  Biso   1.000  Hf
  Hf20     1.0000 0.46796  0.31806  0.94148  Biso   1.000  Hf
  Hf21     1.0000 0.27221  0.11379  0.74600  Biso   1.000  Hf
  Hf22     1.0000 0.28285  0.12964  0.99082  Biso   1.000  Hf
  Hf23     1.0000 0.24036  0.39784  0.00369  Biso   1.000  Hf
  Hf24     1.0000 0.23313  0.36605  0.75117  Biso   1.000  Hf
  Hf25     1.0000 0.12832  0.54489  0.11273  Biso   1.000  Hf
  Hf26     1.0000 0.13496  0.73426  0.37777  Biso   1.000  Hf
  Hf27     1.0000 0.36638  0.76800  0.12567  Biso   1.000  Hf
  Hf28     1.0000 0.36482  0.98257  0.37534  Biso   1.000  Hf
  Hf29     1.0000 0.02808  0.69105  0.20315  Biso   1.000  Hf
  Hf30     1.0000 0.03518  0.56700  0.44664  Biso   1.000  Hf
  Hf31     1.0000 0.46362  0.93256  0.19592  Biso   1.000  Hf
  Hf32     1.0000 0.46602  0.81517  0.44443  Biso   1.000  Hf
  Hf33     1.0000 0.27053  0.61664  0.24668  Biso   1.000  Hf
  Hf34     1.0000 0.27168  0.63138  0.49729  Biso   1.000  Hf
  Hf35     1.0000 0.23140  0.88086  0.49948  Biso   1.000  Hf
  Hf36     1.0000 0.22981  0.86404  0.24903  Biso   1.000  Hf
  Hf37     1.0000 0.13375  0.51454  0.62530  Biso   1.000  Hf
  Hf38     1.0000 0.13181  0.74086  0.86769  Biso   1.000  Hf
  Hf39     1.0000 0.36934  0.76369  0.62275  Biso   1.000  Hf
  Hf40     1.0000 0.36996  0.98136  0.87393  Biso   1.000  Hf
  Hf41     1.0000 0.03721  0.68437  0.68944  Biso   1.000  Hf
  Hf42     1.0000 0.03262  0.57315  0.93723  Biso   1.000  Hf
  Hf43     1.0000 0.46858  0.93060  0.69372  Biso   1.000  Hf
  Hf44     1.0000 0.46856  0.81826  0.94715  Biso   1.000  Hf
  Hf45     1.0000 0.26972  0.61570  0.74599  Biso   1.000  Hf
  Hf46     1.0000 0.26971  0.64576  0.99099  Biso   1.000  Hf
  Hf47     1.0000 0.23039  0.88708  0.99850  Biso   1.000  Hf
  Hf48     1.0000 0.23563  0.86570  0.74698  Biso   1.000  Hf
  Hf49     1.0000 0.63085  0.01162  0.12443  Biso   1.000  Hf
  Hf50     1.0000 0.63191  0.23103  0.37851  Biso   1.000  Hf
  Hf51     1.0000 0.84696  0.26079  0.12709  Biso   1.000  Hf
  Hf52     1.0000 0.86715  0.48302  0.37762  Biso   1.000  Hf
  Hf53     1.0000 0.53429  0.17849  0.19946  Biso   1.000  Hf
  Hf54     1.0000 0.53455  0.06492  0.44681  Biso   1.000  Hf
  Hf55     1.0000 0.96214  0.43694  0.19506  Biso   1.000  Hf
  Hf56     1.0000 0.96870  0.32078  0.45220  Biso   1.000  Hf
  Hf57     1.0000 0.75841  0.11114  0.25017  Biso   1.000  Hf
  Hf58     1.0000 0.77175  0.13391  0.49781  Biso   1.000  Hf
  Hf59     1.0000 0.73190  0.38257  0.50148  Biso   1.000  Hf
  Hf60     1.0000 0.72608  0.36705  0.25362  Biso   1.000  Hf
  Hf61     1.0000 0.63540  0.01458  0.62336  Biso   1.000  Hf
  Hf62     1.0000 0.63311  0.23126  0.87227  Biso   1.000  Hf
  Hf63     1.0000 0.86749  0.26596  0.62529  Biso   1.000  Hf
  Hf64     1.0000 0.86319  0.48256  0.87609  Biso   1.000  Hf
  Hf65     1.0000 0.53704  0.18230  0.69390  Biso   1.000  Hf
  Hf66     1.0000 0.53758  0.06628  0.94435  Biso   1.000  Hf
  Hf67     1.0000 0.96742  0.43092  0.70198  Biso   1.000  Hf
  Hf68     1.0000 0.96968  0.31679  0.95448  Biso   1.000  Hf
  Hf69     1.0000 0.77113  0.11481  0.74755  Biso   1.000  Hf
  Hf70     1.0000 0.76916  0.12946  0.99736  Biso   1.000  Hf
  Hf71     1.0000 0.72626  0.38161  0.99980  Biso   1.000  Hf
  Hf72     1.0000 0.73270  0.36574  0.75080  Biso   1.000  Hf
  Hf73     1.0000 0.63316  0.51741  0.12721  Biso   1.000  Hf
  Hf74     1.0000 0.63447  0.73282  0.37519  Biso   1.000  Hf
  Hf75     1.0000 0.86253  0.76816  0.12542  Biso   1.000  Hf
  Hf76     1.0000 0.86960  0.98596  0.37204  Biso   1.000  Hf
  Hf77     1.0000 0.53514  0.68353  0.19591  Biso   1.000  Hf
  Hf78     1.0000 0.53553  0.56586  0.44594  Biso   1.000  Hf
  Hf79     1.0000 0.96287  0.93510  0.19121  Biso   1.000  Hf
  Hf80     1.0000 0.96521  0.81764  0.44449  Biso   1.000  Hf
  Hf81     1.0000 0.76939  0.61576  0.25005  Biso   1.000  Hf
  Hf82     1.0000 0.76964  0.63276  0.49937  Biso   1.000  Hf
  Hf83     1.0000 0.73290  0.88416  0.49712  Biso   1.000  Hf
  Hf84     1.0000 0.72898  0.86529  0.24848  Biso   1.000  Hf
  Hf85     1.0000 0.63488  0.51534  0.62460  Biso   1.000  Hf
  Hf86     1.0000 0.63493  0.73295  0.87495  Biso   1.000  Hf
  Hf87     1.0000 0.86738  0.76615  0.62252  Biso   1.000  Hf
  Hf88     1.0000 0.86577  0.98123  0.87388  Biso   1.000  Hf
  Hf89     1.0000 0.53618  0.68146  0.69652  Biso   1.000  Hf
  Hf90     1.0000 0.53525  0.56848  0.94724  Biso   1.000  Hf
  Hf91     1.0000 0.96854  0.92836  0.69918  Biso   1.000  Hf
  Hf92     1.0000 0.96409  0.81600  0.94651  Biso   1.000  Hf
  Hf93     1.0000 0.77121  0.61503  0.74913  Biso   1.000  Hf
  Hf94     1.0000 0.77034  0.63190  0.99913  Biso   1.000  Hf
  Hf95     1.0000 0.72954  0.88135  0.99789  Biso   1.000  Hf
  Hf96     1.0000 0.73186  0.86490  0.74764  Biso   1.000  Hf
  Re1      1.0000 0.10347  0.30647  0.11608  Biso   1.000  Re
