data_image0
_cell_length_a       10.073
_cell_length_b       5.19723
_cell_length_c       10.4922
_cell_angle_alpha    90.1635
_cell_angle_beta     90.6416
_cell_angle_gamma    90.0338

_symmetry_space_group_name_H-M    "P 1"
_symmetry_int_tables_number       1

loop_
  _symmetry_equiv_pos_as_xyz
  'x, y, z'

loop_
  _atom_site_label
  _atom_site_occupancy
  _atom_site_fract_x
  _atom_site_fract_y
  _atom_site_fract_z
  _atom_site_thermal_displace_type
  _atom_site_B_iso_or_equiv
  _atom_site_type_symbol
  Hf1      1.0000 0.14166  0.03862  0.16987  Biso   1.000  Hf
  Hf2      1.0000 0.13658  0.45719  0.42089  Biso   1.000  Hf
  Hf3      1.0000 0.35730  0.53813  0.17608  Biso   1.000  Hf
  Hf4      1.0000 0.35752  0.95603  0.42565  Biso   1.000  Hf
  Hf5      1.0000 0.64224  0.07899  0.06554  Biso   1.000  Hf
  Hf6      1.0000 0.62866  0.45083  0.35004  Biso   1.000  Hf
  Hf7      1.0000 0.87959  0.54664  0.06969  Biso   1.000  Hf
  Hf8      1.0000 0.86487  0.95347  0.33428  Biso   1.000  Hf
  O1       1.0000 0.04105  0.32349  0.07731  Biso   1.000  O
  O2       1.0000 0.02820  0.17919  0.32730  Biso   1.000  O
  O3       1.0000 0.46660  0.83650  0.07900  Biso   1.000  O
  O4       1.0000 0.45565  0.65337  0.34834  Biso   1.000  O
  O5       1.0000 0.27004  0.24714  0.29628  Biso   1.000  O
  O6       1.0000 0.28108  0.24349  0.04191  Biso   1.000  O
  O7       1.0000 0.21971  0.74990  0.29533  Biso   1.000  O
  O8       1.0000 0.22437  0.74692  0.04299  Biso   1.000  O
  O9       1.0000 0.51302  0.27718  0.18728  Biso   1.000  O
  O10      1.0000 0.53132  0.15234  0.42581  Biso   1.000  O
  O11      1.0000 0.97012  0.83049  0.16887  Biso   1.000  O
  O12      1.0000 0.96408  0.66867  0.41798  Biso   1.000  O
  O13      1.0000 0.77777  0.23423  0.45760  Biso   1.000  O
  O14      1.0000 0.76007  0.33061  0.19880  Biso   1.000  O
  O15      1.0000 0.72248  0.73775  0.46381  Biso   1.000  O
  O16      1.0000 0.72223  0.83075  0.20973  Biso   1.000  O
  Hf9      1.0000 0.13906  0.03829  0.66833  Biso   1.000  Hf
  Hf10     1.0000 0.14760  0.45142  0.91717  Biso   1.000  Hf
  Hf11     1.0000 0.36460  0.53623  0.66998  Biso   1.000  Hf
  Hf12     1.0000 0.36057  0.95095  0.91504  Biso   1.000  Hf
  Hf13     1.0000 0.63903  0.03425  0.58612  Biso   1.000  Hf
  Hf14     1.0000 0.63908  0.45329  0.83421  Biso   1.000  Hf
  Hf15     1.0000 0.86079  0.53440  0.58283  Biso   1.000  Hf
  Hf16     1.0000 0.86742  0.95693  0.82668  Biso   1.000  Hf
  O17      1.0000 0.03290  0.32693  0.58085  Biso   1.000  O
  O18      1.0000 0.03915  0.16562  0.82938  Biso   1.000  O
  O19      1.0000 0.46337  0.83832  0.59285  Biso   1.000  O
  O20      1.0000 0.46367  0.64883  0.83691  Biso   1.000  O
  O21      1.0000 0.27934  0.24221  0.79120  Biso   1.000  O
  O22      1.0000 0.27352  0.24963  0.54388  Biso   1.000  O
  O23      1.0000 0.22568  0.74362  0.79139  Biso   1.000  O
  O24      1.0000 0.22304  0.74763  0.54413  Biso   1.000  O
  O25      1.0000 0.53774  0.33997  0.66236  Biso   1.000  O
  O26      1.0000 0.53874  0.13117  0.89528  Biso   1.000  O
  O27      1.0000 0.96784  0.82970  0.66195  Biso   1.000  O
  O28      1.0000 0.97684  0.66742  0.90924  Biso   1.000  O
  O29      1.0000 0.79467  0.24134  0.94722  Biso   1.000  O
  O30      1.0000 0.77828  0.24493  0.70502  Biso   1.000  O
  O31      1.0000 0.73083  0.75431  0.96185  Biso   1.000  O
  O32      1.0000 0.72702  0.74434  0.71194  Biso   1.000  O
  Re1      1.0000 0.61187  0.56695  0.10910  Biso   1.000  Re
