data_image0
_cell_length_a       9.99137
_cell_length_b       5.06184
_cell_length_c       9.99136
_cell_angle_alpha    89.9998
_cell_angle_beta     90
_cell_angle_gamma    90.0001

_symmetry_space_group_name_H-M    "P 1"
_symmetry_int_tables_number       1

loop_
  _symmetry_equiv_pos_as_xyz
  'x, y, z'

loop_
  _atom_site_label
  _atom_site_occupancy
  _atom_site_fract_x
  _atom_site_fract_y
  _atom_site_fract_z
  _atom_site_thermal_displace_type
  _atom_site_B_iso_or_equiv
  _atom_site_type_symbol
  Re1      1.0000 0.12491  0.00011  0.12491  Biso   1.000  Re
  Hf1      1.0000 0.12491  0.50011  0.37219  Biso   1.000  Hf
  Hf2      1.0000 0.37220  0.50011  0.12491  Biso   1.000  Hf
  Hf3      1.0000 0.37407  0.99769  0.37407  Biso   1.000  Hf
  Hf4      1.0000 0.99789  0.27708  0.99789  Biso   1.000  Hf
  Hf5      1.0000 0.00556  0.21552  0.24425  Biso   1.000  Hf
  Hf6      1.0000 0.99790  0.72313  0.25193  Biso   1.000  Hf
  Hf7      1.0000 0.00556  0.78469  0.00557  Biso   1.000  Hf
  Hf8      1.0000 0.25192  0.27708  0.25193  Biso   1.000  Hf
  Hf9      1.0000 0.24426  0.21552  0.00557  Biso   1.000  Hf
  Hf10     1.0000 0.25192  0.72313  0.99789  Biso   1.000  Hf
  Hf11     1.0000 0.24425  0.78469  0.24425  Biso   1.000  Hf
  Hf12     1.0000 0.12491  0.00011  0.62491  Biso   1.000  Hf
  Hf13     1.0000 0.12491  0.50011  0.87762  Biso   1.000  Hf
  Hf14     1.0000 0.37533  0.50011  0.62491  Biso   1.000  Hf
  Hf15     1.0000 0.37407  0.00253  0.87575  Biso   1.000  Hf
  Hf16     1.0000 0.99452  0.29302  0.49317  Biso   1.000  Hf
  Hf17     1.0000 0.00262  0.20930  0.74697  Biso   1.000  Hf
  Hf18     1.0000 0.99452  0.70720  0.75665  Biso   1.000  Hf
  Hf19     1.0000 0.00262  0.79092  0.50285  Biso   1.000  Hf
  Hf20     1.0000 0.25530  0.29302  0.75665  Biso   1.000  Hf
  Hf21     1.0000 0.24719  0.20930  0.50285  Biso   1.000  Hf
  Hf22     1.0000 0.25530  0.70720  0.49317  Biso   1.000  Hf
  Hf23     1.0000 0.24719  0.79092  0.74697  Biso   1.000  Hf
  Hf24     1.0000 0.62491  0.00011  0.12491  Biso   1.000  Hf
  Hf25     1.0000 0.62491  0.50011  0.37532  Biso   1.000  Hf
  Hf26     1.0000 0.87762  0.50011  0.12491  Biso   1.000  Hf
  Hf27     1.0000 0.87575  0.00253  0.37407  Biso   1.000  Hf
  Hf28     1.0000 0.49317  0.29301  0.99451  Biso   1.000  Hf
  Hf29     1.0000 0.50284  0.20930  0.24719  Biso   1.000  Hf
  Hf30     1.0000 0.49318  0.70720  0.25531  Biso   1.000  Hf
  Hf31     1.0000 0.50284  0.79092  0.00263  Biso   1.000  Hf
  Hf32     1.0000 0.75664  0.29302  0.25531  Biso   1.000  Hf
  Hf33     1.0000 0.74697  0.20930  0.00263  Biso   1.000  Hf
  Hf34     1.0000 0.75664  0.70720  0.99451  Biso   1.000  Hf
  Hf35     1.0000 0.74697  0.79092  0.24719  Biso   1.000  Hf
  Hf36     1.0000 0.62491  0.00011  0.62491  Biso   1.000  Hf
  Hf37     1.0000 0.62491  0.50011  0.87449  Biso   1.000  Hf
  Hf38     1.0000 0.87449  0.50011  0.62491  Biso   1.000  Hf
  Hf39     1.0000 0.87575  0.99768  0.87575  Biso   1.000  Hf
  Hf40     1.0000 0.49513  0.29017  0.49512  Biso   1.000  Hf
  Hf41     1.0000 0.50271  0.21045  0.74710  Biso   1.000  Hf
  Hf42     1.0000 0.49513  0.71005  0.75469  Biso   1.000  Hf
  Hf43     1.0000 0.50271  0.78976  0.50271  Biso   1.000  Hf
  Hf44     1.0000 0.75469  0.29017  0.75470  Biso   1.000  Hf
  Hf45     1.0000 0.74711  0.21045  0.50272  Biso   1.000  Hf
  Hf46     1.0000 0.75469  0.71005  0.49512  Biso   1.000  Hf
  Hf47     1.0000 0.74710  0.78976  0.74710  Biso   1.000  Hf
