data_image0
_cell_length_a       10.0977
_cell_length_b       10.2636
_cell_length_c       10.4244
_cell_angle_alpha    89.8993
_cell_angle_beta     80.2311
_cell_angle_gamma    90.0078

_symmetry_space_group_name_H-M    "P 1"
_symmetry_int_tables_number       1

loop_
  _symmetry_equiv_pos_as_xyz
  'x, y, z'

loop_
  _atom_site_label
  _atom_site_occupancy
  _atom_site_fract_x
  _atom_site_fract_y
  _atom_site_fract_z
  _atom_site_thermal_displace_type
  _atom_site_B_iso_or_equiv
  _atom_site_type_symbol
  Ru1      1.0000 0.14101  0.02168  0.15155  Biso   1.000  Ru
  Hf1      1.0000 0.14020  0.22973  0.39492  Biso   1.000  Hf
  Hf2      1.0000 0.36003  0.27116  0.10548  Biso   1.000  Hf
  Hf3      1.0000 0.36191  0.47956  0.35429  Biso   1.000  Hf
  O1       1.0000 0.03589  0.16554  0.08016  Biso   1.000  O
  O2       1.0000 0.03923  0.08400  0.31919  Biso   1.000  O
  O3       1.0000 0.46367  0.42045  0.16893  Biso   1.000  O
  O4       1.0000 0.46328  0.32989  0.41951  Biso   1.000  O
  O5       1.0000 0.27787  0.12702  0.24123  Biso   1.000  O
  O6       1.0000 0.27734  0.12132  0.49144  Biso   1.000  O
  O7       1.0000 0.22295  0.37868  0.01031  Biso   1.000  O
  O8       1.0000 0.22387  0.37142  0.25966  Biso   1.000  O
  Hf4      1.0000 0.13894  0.02115  0.64582  Biso   1.000  Hf
  Hf5      1.0000 0.13694  0.22561  0.89917  Biso   1.000  Hf
  Hf6      1.0000 0.36078  0.27149  0.60544  Biso   1.000  Hf
  Hf7      1.0000 0.35992  0.47823  0.85455  Biso   1.000  Hf
  O9       1.0000 0.03433  0.16579  0.57553  Biso   1.000  O
  O10      1.0000 0.03430  0.08175  0.82739  Biso   1.000  O
  O11      1.0000 0.46347  0.42052  0.66915  Biso   1.000  O
  O12      1.0000 0.46074  0.32668  0.91872  Biso   1.000  O
  O13      1.0000 0.27707  0.12874  0.74396  Biso   1.000  O
  O14      1.0000 0.27147  0.11520  0.00076  Biso   1.000  O
  O15      1.0000 0.22298  0.37883  0.50952  Biso   1.000  O
  O16      1.0000 0.22262  0.37015  0.76008  Biso   1.000  O
  Hf8      1.0000 0.13920  0.52180  0.14594  Biso   1.000  Hf
  Hf9      1.0000 0.13844  0.72938  0.39535  Biso   1.000  Hf
  Hf10     1.0000 0.35880  0.77447  0.10409  Biso   1.000  Hf
  Hf11     1.0000 0.36053  0.97855  0.35337  Biso   1.000  Hf
  O17      1.0000 0.03609  0.66890  0.08001  Biso   1.000  O
  O18      1.0000 0.03586  0.58102  0.33038  Biso   1.000  O
  O19      1.0000 0.46516  0.91896  0.17008  Biso   1.000  O
  O20      1.0000 0.46441  0.82947  0.41836  Biso   1.000  O
  O21      1.0000 0.27678  0.63118  0.24115  Biso   1.000  O
  O22      1.0000 0.27670  0.62100  0.49075  Biso   1.000  O
  O23      1.0000 0.22006  0.88163  0.00960  Biso   1.000  O
  O24      1.0000 0.22043  0.87374  0.25663  Biso   1.000  O
  Hf12     1.0000 0.13882  0.52121  0.64625  Biso   1.000  Hf
  Hf13     1.0000 0.13873  0.72937  0.89595  Biso   1.000  Hf
  Hf14     1.0000 0.36153  0.77117  0.60369  Biso   1.000  Hf
  Hf15     1.0000 0.35931  0.97784  0.85560  Biso   1.000  Hf
  O25      1.0000 0.03543  0.66911  0.57963  Biso   1.000  O
  O26      1.0000 0.03578  0.58049  0.83055  Biso   1.000  O
  O27      1.0000 0.46321  0.91992  0.66949  Biso   1.000  O
  O28      1.0000 0.46221  0.82906  0.91877  Biso   1.000  O
  O29      1.0000 0.27686  0.62902  0.74072  Biso   1.000  O
  O30      1.0000 0.27656  0.62148  0.99073  Biso   1.000  O
  O31      1.0000 0.22352  0.87903  0.50827  Biso   1.000  O
  O32      1.0000 0.22301  0.87065  0.75857  Biso   1.000  O
  Hf16     1.0000 0.63872  0.02195  0.14549  Biso   1.000  Hf
  Hf17     1.0000 0.63854  0.22875  0.39574  Biso   1.000  Hf
  Hf18     1.0000 0.86388  0.26932  0.10480  Biso   1.000  Hf
  Hf19     1.0000 0.86093  0.47884  0.35359  Biso   1.000  Hf
  O33      1.0000 0.53595  0.17083  0.08192  Biso   1.000  O
  O34      1.0000 0.53603  0.07976  0.33138  Biso   1.000  O
  O35      1.0000 0.96430  0.42021  0.16941  Biso   1.000  O
  O36      1.0000 0.96442  0.33055  0.41887  Biso   1.000  O
  O37      1.0000 0.77598  0.12912  0.24068  Biso   1.000  O
  O38      1.0000 0.77783  0.12049  0.48925  Biso   1.000  O
  O39      1.0000 0.72350  0.37910  0.00935  Biso   1.000  O
  O40      1.0000 0.72360  0.37072  0.25936  Biso   1.000  O
  Hf20     1.0000 0.63818  0.02092  0.64603  Biso   1.000  Hf
  Hf21     1.0000 0.63828  0.22858  0.89616  Biso   1.000  Hf
  Hf22     1.0000 0.86083  0.27124  0.60355  Biso   1.000  Hf
  Hf23     1.0000 0.86094  0.47823  0.85487  Biso   1.000  Hf
  O41      1.0000 0.53667  0.17070  0.58174  Biso   1.000  O
  O42      1.0000 0.53511  0.07898  0.83246  Biso   1.000  O
  O43      1.0000 0.96452  0.41780  0.67019  Biso   1.000  O
  O44      1.0000 0.96483  0.32976  0.92060  Biso   1.000  O
  O45      1.0000 0.77575  0.12900  0.74020  Biso   1.000  O
  O46      1.0000 0.77585  0.12099  0.99013  Biso   1.000  O
  O47      1.0000 0.72338  0.37906  0.50949  Biso   1.000  O
  O48      1.0000 0.72302  0.37075  0.75956  Biso   1.000  O
  Hf24     1.0000 0.63940  0.52195  0.14547  Biso   1.000  Hf
  Hf25     1.0000 0.63992  0.72911  0.39557  Biso   1.000  Hf
  Hf26     1.0000 0.86409  0.77318  0.10327  Biso   1.000  Hf
  Hf27     1.0000 0.86236  0.98002  0.35161  Biso   1.000  Hf
  O49      1.0000 0.53512  0.67030  0.08122  Biso   1.000  O
  O50      1.0000 0.53729  0.57960  0.33148  Biso   1.000  O
  O51      1.0000 0.97203  0.92211  0.16608  Biso   1.000  O
  O52      1.0000 0.96500  0.83323  0.41914  Biso   1.000  O
  O53      1.0000 0.77721  0.63033  0.24028  Biso   1.000  O
  O54      1.0000 0.77720  0.62108  0.49057  Biso   1.000  O
  O55      1.0000 0.72293  0.87923  0.00950  Biso   1.000  O
  O56      1.0000 0.72857  0.87233  0.25836  Biso   1.000  O
  Hf28     1.0000 0.63899  0.52130  0.64630  Biso   1.000  Hf
  Hf29     1.0000 0.63819  0.72804  0.89691  Biso   1.000  Hf
  Hf30     1.0000 0.86068  0.77169  0.60400  Biso   1.000  Hf
  Hf31     1.0000 0.86024  0.97879  0.85384  Biso   1.000  Hf
  O57      1.0000 0.53696  0.67045  0.58098  Biso   1.000  O
  O58      1.0000 0.53619  0.57857  0.83184  Biso   1.000  O
  O59      1.0000 0.96428  0.91885  0.66926  Biso   1.000  O
  O60      1.0000 0.96367  0.83044  0.91856  Biso   1.000  O
  O61      1.0000 0.77680  0.62893  0.74113  Biso   1.000  O
  O62      1.0000 0.77755  0.62161  0.99111  Biso   1.000  O
  O63      1.0000 0.72334  0.87952  0.50867  Biso   1.000  O
  O64      1.0000 0.72272  0.87062  0.75932  Biso   1.000  O
