data_image0
_cell_length_a       10.0255
_cell_length_b       10.5912
_cell_length_c       5.02426
_cell_angle_alpha    89.8547
_cell_angle_beta     90.2172
_cell_angle_gamma    90.4193

_symmetry_space_group_name_H-M    "P 1"
_symmetry_int_tables_number       1

loop_
  _symmetry_equiv_pos_as_xyz
  'x, y, z'

loop_
  _atom_site_label
  _atom_site_occupancy
  _atom_site_fract_x
  _atom_site_fract_y
  _atom_site_fract_z
  _atom_site_thermal_displace_type
  _atom_site_B_iso_or_equiv
  _atom_site_type_symbol
  Hf1      1.0000 0.13550  0.01075  0.24311  Biso   1.000  Hf
  Hf2      1.0000 0.13942  0.20962  0.75310  Biso   1.000  Hf
  Hf3      1.0000 0.37021  0.26173  0.23535  Biso   1.000  Hf
  Hf4      1.0000 0.36982  0.48485  0.74057  Biso   1.000  Hf
  Hf5      1.0000 0.01329  0.16992  0.42530  Biso   1.000  Hf
  Hf6      1.0000 0.03273  0.05809  0.90285  Biso   1.000  Hf
  Hf7      1.0000 0.47176  0.42864  0.39869  Biso   1.000  Hf
  Hf8      1.0000 0.46948  0.31688  0.89107  Biso   1.000  Hf
  Hf9      1.0000 0.26587  0.10081  0.49159  Biso   1.000  Hf
  Hf10     1.0000 0.29056  0.11878  0.97946  Biso   1.000  Hf
  Hf11     1.0000 0.25098  0.41341  0.03842  Biso   1.000  Hf
  Hf12     1.0000 0.24665  0.34369  0.53655  Biso   1.000  Hf
  Hf13     1.0000 0.12487  0.54416  0.22868  Biso   1.000  Hf
  Hf14     1.0000 0.13125  0.74312  0.74270  Biso   1.000  Hf
  Hf15     1.0000 0.36966  0.76381  0.24446  Biso   1.000  Hf
  Hf16     1.0000 0.37137  0.97759  0.74319  Biso   1.000  Hf
  Hf17     1.0000 0.02887  0.69453  0.39311  Biso   1.000  Hf
  Hf18     1.0000 0.03047  0.57539  0.87711  Biso   1.000  Hf
  Hf19     1.0000 0.46834  0.92803  0.38172  Biso   1.000  Hf
  Hf20     1.0000 0.46865  0.81466  0.88903  Biso   1.000  Hf
  Hf21     1.0000 0.26852  0.61364  0.49110  Biso   1.000  Hf
  Hf22     1.0000 0.26583  0.64881  0.98333  Biso   1.000  Hf
  Hf23     1.0000 0.23086  0.88476  0.99082  Biso   1.000  Hf
  Hf24     1.0000 0.23496  0.86036  0.48830  Biso   1.000  Hf
  Hf25     1.0000 0.63219  0.01406  0.24543  Biso   1.000  Hf
  Hf26     1.0000 0.62990  0.22950  0.74639  Biso   1.000  Hf
  Hf27     1.0000 0.85353  0.26430  0.25248  Biso   1.000  Hf
  Hf28     1.0000 0.86458  0.48425  0.75077  Biso   1.000  Hf
  Hf29     1.0000 0.53236  0.17569  0.39479  Biso   1.000  Hf
  Hf30     1.0000 0.54084  0.06206  0.88442  Biso   1.000  Hf
  Hf31     1.0000 0.95810  0.44405  0.39761  Biso   1.000  Hf
  Hf32     1.0000 0.97874  0.31564  0.91376  Biso   1.000  Hf
  Hf33     1.0000 0.76393  0.11240  0.49601  Biso   1.000  Hf
  Hf34     1.0000 0.77030  0.13465  0.99401  Biso   1.000  Hf
  Hf35     1.0000 0.73191  0.38316  0.00136  Biso   1.000  Hf
  Hf36     1.0000 0.72969  0.36340  0.50602  Biso   1.000  Hf
  Hf37     1.0000 0.63355  0.51462  0.25188  Biso   1.000  Hf
  Hf38     1.0000 0.63433  0.73129  0.75017  Biso   1.000  Hf
  Hf39     1.0000 0.86143  0.76965  0.24814  Biso   1.000  Hf
  Hf40     1.0000 0.86419  0.98288  0.74552  Biso   1.000  Hf
  Hf41     1.0000 0.53414  0.67897  0.39563  Biso   1.000  Hf
  Hf42     1.0000 0.53318  0.56735  0.89951  Biso   1.000  Hf
  Hf43     1.0000 0.96677  0.93132  0.39990  Biso   1.000  Hf
  Hf44     1.0000 0.96343  0.81869  0.89643  Biso   1.000  Hf
  Hf45     1.0000 0.76690  0.61452  0.50454  Biso   1.000  Hf
  Hf46     1.0000 0.76832  0.63417  0.00187  Biso   1.000  Hf
  Hf47     1.0000 0.73097  0.88403  0.99717  Biso   1.000  Hf
  Hf48     1.0000 0.72953  0.86437  0.49863  Biso   1.000  Hf
  Ru1      1.0000 0.11253  0.31011  0.23140  Biso   1.000  Ru
