data_image0
_cell_length_a       5.02126
_cell_length_b       10.5038
_cell_length_c       10.0518
_cell_angle_alpha    89.4559
_cell_angle_beta     90.2205
_cell_angle_gamma    90.0807

_symmetry_space_group_name_H-M    "P 1"
_symmetry_int_tables_number       1

loop_
  _symmetry_equiv_pos_as_xyz
  'x, y, z'

loop_
  _atom_site_label
  _atom_site_occupancy
  _atom_site_fract_x
  _atom_site_fract_y
  _atom_site_fract_z
  _atom_site_thermal_displace_type
  _atom_site_B_iso_or_equiv
  _atom_site_type_symbol
  Hf1      1.0000 0.26109  0.01714  0.11814  Biso   1.000  Hf
  Hf2      1.0000 0.26191  0.22819  0.38487  Biso   1.000  Hf
  Hf3      1.0000 0.69398  0.25209  0.12002  Biso   1.000  Hf
  Hf4      1.0000 0.73922  0.48397  0.37640  Biso   1.000  Hf
  Hf5      1.0000 0.00961  0.17198  0.22294  Biso   1.000  Hf
  Hf6      1.0000 0.06983  0.06231  0.45261  Biso   1.000  Hf
  Hf7      1.0000 0.92116  0.44646  0.20024  Biso   1.000  Hf
  Hf8      1.0000 0.93668  0.32040  0.45215  Biso   1.000  Hf
  Hf9      1.0000 0.50822  0.10976  0.25095  Biso   1.000  Hf
  Hf10     1.0000 0.54719  0.13302  0.49865  Biso   1.000  Hf
  Hf11     1.0000 0.46491  0.38318  0.50230  Biso   1.000  Hf
  Hf12     1.0000 0.45490  0.35695  0.25498  Biso   1.000  Hf
  Hf13     1.0000 0.27421  0.01222  0.62482  Biso   1.000  Hf
  Hf14     1.0000 0.28325  0.22074  0.86819  Biso   1.000  Hf
  Hf15     1.0000 0.73847  0.26577  0.62634  Biso   1.000  Hf
  Hf16     1.0000 0.73803  0.48526  0.87444  Biso   1.000  Hf
  Hf17     1.0000 0.07567  0.17891  0.69115  Biso   1.000  Hf
  Hf18     1.0000 0.08926  0.05717  0.93403  Biso   1.000  Hf
  Hf19     1.0000 0.93947  0.43059  0.70108  Biso   1.000  Hf
  Hf20     1.0000 0.93983  0.30897  0.94564  Biso   1.000  Hf
  Hf21     1.0000 0.54935  0.11106  0.74464  Biso   1.000  Hf
  Hf22     1.0000 0.57987  0.11714  0.98924  Biso   1.000  Hf
  Hf23     1.0000 0.47544  0.39732  0.00286  Biso   1.000  Hf
  Hf24     1.0000 0.47264  0.36291  0.75241  Biso   1.000  Hf
  Hf25     1.0000 0.26105  0.53933  0.12359  Biso   1.000  Hf
  Hf26     1.0000 0.27114  0.73662  0.37791  Biso   1.000  Hf
  Hf27     1.0000 0.72636  0.77006  0.12705  Biso   1.000  Hf
  Hf28     1.0000 0.73509  0.98564  0.37190  Biso   1.000  Hf
  Hf29     1.0000 0.06570  0.69290  0.20069  Biso   1.000  Hf
  Hf30     1.0000 0.06715  0.56922  0.44947  Biso   1.000  Hf
  Hf31     1.0000 0.92497  0.93562  0.19182  Biso   1.000  Hf
  Hf32     1.0000 0.93095  0.81753  0.44347  Biso   1.000  Hf
  Hf33     1.0000 0.53978  0.62108  0.25244  Biso   1.000  Hf
  Hf34     1.0000 0.53849  0.63321  0.50051  Biso   1.000  Hf
  Hf35     1.0000 0.46750  0.88406  0.49781  Biso   1.000  Hf
  Hf36     1.0000 0.45902  0.86716  0.24898  Biso   1.000  Hf
  Hf37     1.0000 0.27204  0.51374  0.62575  Biso   1.000  Hf
  Hf38     1.0000 0.26960  0.73668  0.87160  Biso   1.000  Hf
  Hf39     1.0000 0.74174  0.76329  0.62149  Biso   1.000  Hf
  Hf40     1.0000 0.74315  0.97509  0.87169  Biso   1.000  Hf
  Hf41     1.0000 0.07486  0.68056  0.69432  Biso   1.000  Hf
  Hf42     1.0000 0.06864  0.57147  0.94509  Biso   1.000  Hf
  Hf43     1.0000 0.94457  0.92575  0.69493  Biso   1.000  Hf
  Hf44     1.0000 0.93592  0.81454  0.94811  Biso   1.000  Hf
  Hf45     1.0000 0.54233  0.61267  0.74946  Biso   1.000  Hf
  Hf46     1.0000 0.54006  0.64173  0.99698  Biso   1.000  Hf
  Hf47     1.0000 0.46039  0.88218  0.99824  Biso   1.000  Hf
  Hf48     1.0000 0.47478  0.86183  0.74648  Biso   1.000  Hf
  Ru1      1.0000 0.19109  0.30571  0.10786  Biso   1.000  Ru
