data_image0
_cell_length_a       10.0252
_cell_length_b       5.10971
_cell_length_c       10.0251
_cell_angle_alpha    89.9999
_cell_angle_beta     90
_cell_angle_gamma    90

_symmetry_space_group_name_H-M    "P 1"
_symmetry_int_tables_number       1

loop_
  _symmetry_equiv_pos_as_xyz
  'x, y, z'

loop_
  _atom_site_label
  _atom_site_occupancy
  _atom_site_fract_x
  _atom_site_fract_y
  _atom_site_fract_z
  _atom_site_thermal_displace_type
  _atom_site_B_iso_or_equiv
  _atom_site_type_symbol
  Sb1      1.0000 0.12491  0.00011  0.12491  Biso   1.000  Sb
  Hf1      1.0000 0.12491  0.50010  0.37569  Biso   1.000  Hf
  Hf2      1.0000 0.37568  0.50011  0.12491  Biso   1.000  Hf
  Hf3      1.0000 0.37603  0.00231  0.37603  Biso   1.000  Hf
  Hf4      1.0000 0.99781  0.29673  0.99782  Biso   1.000  Hf
  Hf5      1.0000 0.99821  0.21106  0.25160  Biso   1.000  Hf
  Hf6      1.0000 0.99781  0.70349  0.25200  Biso   1.000  Hf
  Hf7      1.0000 0.99821  0.78916  0.99821  Biso   1.000  Hf
  Hf8      1.0000 0.25201  0.29673  0.25201  Biso   1.000  Hf
  Hf9      1.0000 0.25160  0.21106  0.99821  Biso   1.000  Hf
  Hf10     1.0000 0.25200  0.70348  0.99781  Biso   1.000  Hf
  Hf11     1.0000 0.25160  0.78915  0.25160  Biso   1.000  Hf
  Hf12     1.0000 0.12491  0.00011  0.62491  Biso   1.000  Hf
  Hf13     1.0000 0.12491  0.50011  0.87413  Biso   1.000  Hf
  Hf14     1.0000 0.37438  0.50011  0.62491  Biso   1.000  Hf
  Hf15     1.0000 0.37603  0.99790  0.87379  Biso   1.000  Hf
  Hf16     1.0000 0.00035  0.29515  0.50109  Biso   1.000  Hf
  Hf17     1.0000 0.99963  0.20433  0.74973  Biso   1.000  Hf
  Hf18     1.0000 0.00035  0.70506  0.74873  Biso   1.000  Hf
  Hf19     1.0000 0.99963  0.79589  0.50009  Biso   1.000  Hf
  Hf20     1.0000 0.24947  0.29516  0.74873  Biso   1.000  Hf
  Hf21     1.0000 0.25019  0.20433  0.50009  Biso   1.000  Hf
  Hf22     1.0000 0.24947  0.70506  0.50108  Biso   1.000  Hf
  Hf23     1.0000 0.25019  0.79588  0.74973  Biso   1.000  Hf
  Hf24     1.0000 0.62491  0.00011  0.12491  Biso   1.000  Hf
  Hf25     1.0000 0.62491  0.50011  0.37438  Biso   1.000  Hf
  Hf26     1.0000 0.87413  0.50011  0.12491  Biso   1.000  Hf
  Hf27     1.0000 0.87379  0.99790  0.37603  Biso   1.000  Hf
  Hf28     1.0000 0.50108  0.29516  0.00035  Biso   1.000  Hf
  Hf29     1.0000 0.50009  0.20432  0.25019  Biso   1.000  Hf
  Hf30     1.0000 0.50108  0.70506  0.24947  Biso   1.000  Hf
  Hf31     1.0000 0.50009  0.79589  0.99963  Biso   1.000  Hf
  Hf32     1.0000 0.74873  0.29516  0.24947  Biso   1.000  Hf
  Hf33     1.0000 0.74973  0.20433  0.99963  Biso   1.000  Hf
  Hf34     1.0000 0.74873  0.70506  0.00035  Biso   1.000  Hf
  Hf35     1.0000 0.74973  0.79589  0.25019  Biso   1.000  Hf
  Hf36     1.0000 0.62491  0.00011  0.62491  Biso   1.000  Hf
  Hf37     1.0000 0.62491  0.50011  0.87543  Biso   1.000  Hf
  Hf38     1.0000 0.87543  0.50011  0.62491  Biso   1.000  Hf
  Hf39     1.0000 0.87379  0.00231  0.87379  Biso   1.000  Hf
  Hf40     1.0000 0.49966  0.29653  0.49966  Biso   1.000  Hf
  Hf41     1.0000 0.50020  0.20400  0.74962  Biso   1.000  Hf
  Hf42     1.0000 0.49966  0.70368  0.75016  Biso   1.000  Hf
  Hf43     1.0000 0.50020  0.79622  0.50020  Biso   1.000  Hf
  Hf44     1.0000 0.75016  0.29654  0.75016  Biso   1.000  Hf
  Hf45     1.0000 0.74962  0.20400  0.50020  Biso   1.000  Hf
  Hf46     1.0000 0.75016  0.70368  0.49966  Biso   1.000  Hf
  Hf47     1.0000 0.74962  0.79621  0.74962  Biso   1.000  Hf
