data_image0
_cell_length_a       9.99661
_cell_length_b       5.082
_cell_length_c       9.99662
_cell_angle_alpha    89.9991
_cell_angle_beta     89.9942
_cell_angle_gamma    89.999

_symmetry_space_group_name_H-M    "P 1"
_symmetry_int_tables_number       1

loop_
  _symmetry_equiv_pos_as_xyz
  'x, y, z'

loop_
  _atom_site_label
  _atom_site_occupancy
  _atom_site_fract_x
  _atom_site_fract_y
  _atom_site_fract_z
  _atom_site_thermal_displace_type
  _atom_site_B_iso_or_equiv
  _atom_site_type_symbol
  Sc1      1.0000 0.12489  0.99950  0.12489  Biso   1.000  Sc
  Hf1      1.0000 0.12489  0.49953  0.37157  Biso   1.000  Hf
  Hf2      1.0000 0.37157  0.49953  0.12489  Biso   1.000  Hf
  Hf3      1.0000 0.37257  0.99663  0.37257  Biso   1.000  Hf
  Hf4      1.0000 0.99751  0.28284  0.99751  Biso   1.000  Hf
  Hf5      1.0000 0.99972  0.22047  0.25007  Biso   1.000  Hf
  Hf6      1.0000 0.99752  0.71620  0.25225  Biso   1.000  Hf
  Hf7      1.0000 0.99971  0.77861  0.99970  Biso   1.000  Hf
  Hf8      1.0000 0.25227  0.28285  0.25227  Biso   1.000  Hf
  Hf9      1.0000 0.25007  0.22047  0.99972  Biso   1.000  Hf
  Hf10     1.0000 0.25226  0.71620  0.99752  Biso   1.000  Hf
  Hf11     1.0000 0.25008  0.77860  0.25008  Biso   1.000  Hf
  Hf12     1.0000 0.12488  0.99951  0.62489  Biso   1.000  Hf
  Hf13     1.0000 0.12489  0.49953  0.87821  Biso   1.000  Hf
  Hf14     1.0000 0.37465  0.49953  0.62489  Biso   1.000  Hf
  Hf15     1.0000 0.37256  0.00243  0.87721  Biso   1.000  Hf
  Hf16     1.0000 0.00120  0.29040  0.50027  Biso   1.000  Hf
  Hf17     1.0000 0.99864  0.20831  0.74917  Biso   1.000  Hf
  Hf18     1.0000 0.00120  0.70863  0.74950  Biso   1.000  Hf
  Hf19     1.0000 0.99864  0.79075  0.50060  Biso   1.000  Hf
  Hf20     1.0000 0.24859  0.29039  0.74951  Biso   1.000  Hf
  Hf21     1.0000 0.25114  0.20832  0.50061  Biso   1.000  Hf
  Hf22     1.0000 0.24858  0.70863  0.50028  Biso   1.000  Hf
  Hf23     1.0000 0.25114  0.79074  0.74918  Biso   1.000  Hf
  Hf24     1.0000 0.62489  0.99952  0.12488  Biso   1.000  Hf
  Hf25     1.0000 0.62489  0.49953  0.37465  Biso   1.000  Hf
  Hf26     1.0000 0.87821  0.49953  0.12489  Biso   1.000  Hf
  Hf27     1.0000 0.87722  0.00243  0.37256  Biso   1.000  Hf
  Hf28     1.0000 0.50027  0.29040  0.00120  Biso   1.000  Hf
  Hf29     1.0000 0.50062  0.20832  0.25114  Biso   1.000  Hf
  Hf30     1.0000 0.50028  0.70864  0.24857  Biso   1.000  Hf
  Hf31     1.0000 0.50061  0.79075  0.99863  Biso   1.000  Hf
  Hf32     1.0000 0.74952  0.29039  0.24858  Biso   1.000  Hf
  Hf33     1.0000 0.74917  0.20831  0.99863  Biso   1.000  Hf
  Hf34     1.0000 0.74951  0.70863  0.00120  Biso   1.000  Hf
  Hf35     1.0000 0.74918  0.79074  0.25114  Biso   1.000  Hf
  Hf36     1.0000 0.62489  0.99952  0.62488  Biso   1.000  Hf
  Hf37     1.0000 0.62489  0.49953  0.87512  Biso   1.000  Hf
  Hf38     1.0000 0.87512  0.49953  0.62489  Biso   1.000  Hf
  Hf39     1.0000 0.87721  0.99662  0.87721  Biso   1.000  Hf
  Hf40     1.0000 0.50118  0.29139  0.50118  Biso   1.000  Hf
  Hf41     1.0000 0.49904  0.20780  0.75075  Biso   1.000  Hf
  Hf42     1.0000 0.50118  0.70765  0.74859  Biso   1.000  Hf
  Hf43     1.0000 0.49904  0.79126  0.49903  Biso   1.000  Hf
  Hf44     1.0000 0.74860  0.29139  0.74859  Biso   1.000  Hf
  Hf45     1.0000 0.75075  0.20780  0.49903  Biso   1.000  Hf
  Hf46     1.0000 0.74860  0.70764  0.50118  Biso   1.000  Hf
  Hf47     1.0000 0.75074  0.79126  0.75074  Biso   1.000  Hf
