data_image0
_cell_length_a       4.99291
_cell_length_b       10.1027
_cell_length_c       10.0046
_cell_angle_alpha    90
_cell_angle_beta     90.0002
_cell_angle_gamma    90.0027

_symmetry_space_group_name_H-M    "P 1"
_symmetry_int_tables_number       1

loop_
  _symmetry_equiv_pos_as_xyz
  'x, y, z'

loop_
  _atom_site_label
  _atom_site_occupancy
  _atom_site_fract_x
  _atom_site_fract_y
  _atom_site_fract_z
  _atom_site_thermal_displace_type
  _atom_site_B_iso_or_equiv
  _atom_site_type_symbol
  Si1      1.0000 0.24982  0.00005  0.12523  Biso   1.000  Si
  Hf1      1.0000 0.26255  0.24764  0.37269  Biso   1.000  Hf
  Hf2      1.0000 0.74983  0.25245  0.12522  Biso   1.000  Hf
  Hf3      1.0000 0.74982  0.00005  0.37419  Biso   1.000  Hf
  Hf4      1.0000 0.93263  0.15447  0.97436  Biso   1.000  Hf
  Hf5      1.0000 0.05755  0.09305  0.22382  Biso   1.000  Hf
  Hf6      1.0000 0.00071  0.35054  0.25598  Biso   1.000  Hf
  Hf7      1.0000 0.99616  0.39775  0.00648  Biso   1.000  Hf
  Hf8      1.0000 0.56705  0.15448  0.27610  Biso   1.000  Hf
  Hf9      1.0000 0.44211  0.09305  0.02664  Biso   1.000  Hf
  Hf10     1.0000 0.49901  0.35054  0.99447  Biso   1.000  Hf
  Hf11     1.0000 0.50355  0.39775  0.24397  Biso   1.000  Hf
  Hf12     1.0000 0.24982  0.00005  0.62524  Biso   1.000  Hf
  Hf13     1.0000 0.23710  0.24766  0.87775  Biso   1.000  Hf
  Hf14     1.0000 0.74981  0.24949  0.62523  Biso   1.000  Hf
  Hf15     1.0000 0.74982  0.00005  0.87627  Biso   1.000  Hf
  Hf16     1.0000 0.98812  0.14088  0.47956  Biso   1.000  Hf
  Hf17     1.0000 0.00061  0.10974  0.73436  Biso   1.000  Hf
  Hf18     1.0000 0.99757  0.35863  0.75699  Biso   1.000  Hf
  Hf19     1.0000 0.99639  0.39100  0.50771  Biso   1.000  Hf
  Hf20     1.0000 0.51150  0.14086  0.77090  Biso   1.000  Hf
  Hf21     1.0000 0.49901  0.10973  0.51610  Biso   1.000  Hf
  Hf22     1.0000 0.50203  0.35862  0.49347  Biso   1.000  Hf
  Hf23     1.0000 0.50321  0.39099  0.74275  Biso   1.000  Hf
  Hf24     1.0000 0.24982  0.50005  0.12525  Biso   1.000  Hf
  Hf25     1.0000 0.23709  0.75247  0.37269  Biso   1.000  Hf
  Hf26     1.0000 0.74980  0.74765  0.12522  Biso   1.000  Hf
  Hf27     1.0000 0.74982  0.50005  0.37824  Biso   1.000  Hf
  Hf28     1.0000 0.00063  0.64956  0.99447  Biso   1.000  Hf
  Hf29     1.0000 0.99609  0.60235  0.24397  Biso   1.000  Hf
  Hf30     1.0000 0.93258  0.84562  0.27610  Biso   1.000  Hf
  Hf31     1.0000 0.05753  0.90705  0.02664  Biso   1.000  Hf
  Hf32     1.0000 0.49892  0.64956  0.25597  Biso   1.000  Hf
  Hf33     1.0000 0.50347  0.60235  0.00648  Biso   1.000  Hf
  Hf34     1.0000 0.56701  0.84563  0.97436  Biso   1.000  Hf
  Hf35     1.0000 0.44209  0.90705  0.22382  Biso   1.000  Hf
  Hf36     1.0000 0.24982  0.50005  0.62523  Biso   1.000  Hf
  Hf37     1.0000 0.26253  0.75245  0.87776  Biso   1.000  Hf
  Hf38     1.0000 0.74982  0.75061  0.62523  Biso   1.000  Hf
  Hf39     1.0000 0.74982  0.50005  0.87224  Biso   1.000  Hf
  Hf40     1.0000 0.99761  0.64149  0.49347  Biso   1.000  Hf
  Hf41     1.0000 0.99643  0.60911  0.74275  Biso   1.000  Hf
  Hf42     1.0000 0.98813  0.85924  0.77090  Biso   1.000  Hf
  Hf43     1.0000 0.00062  0.89037  0.51610  Biso   1.000  Hf
  Hf44     1.0000 0.50205  0.64148  0.75699  Biso   1.000  Hf
  Hf45     1.0000 0.50324  0.60910  0.50771  Biso   1.000  Hf
  Hf46     1.0000 0.51152  0.85923  0.47956  Biso   1.000  Hf
  Hf47     1.0000 0.49902  0.89036  0.73436  Biso   1.000  Hf
