data_image0
_cell_length_a       10.1758
_cell_length_b       10.3889
_cell_length_c       5.2573
_cell_angle_alpha    89.7016
_cell_angle_beta     79.7619
_cell_angle_gamma    89.4444

_symmetry_space_group_name_H-M    "P 1"
_symmetry_int_tables_number       1

loop_
  _symmetry_equiv_pos_as_xyz
  'x, y, z'

loop_
  _atom_site_label
  _atom_site_occupancy
  _atom_site_fract_x
  _atom_site_fract_y
  _atom_site_fract_z
  _atom_site_thermal_displace_type
  _atom_site_B_iso_or_equiv
  _atom_site_type_symbol
  Hf1      1.0000 0.12458  0.01485  0.30148  Biso   1.000  Hf
  Hf2      1.0000 0.14200  0.23228  0.77682  Biso   1.000  Hf
  Hf3      1.0000 0.36214  0.27731  0.23897  Biso   1.000  Hf
  Hf4      1.0000 0.35413  0.48104  0.70745  Biso   1.000  Hf
  O1       1.0000 0.04855  0.16889  0.14723  Biso   1.000  O
  O2       1.0000 0.02968  0.08093  0.66231  Biso   1.000  O
  O3       1.0000 0.46079  0.43246  0.34489  Biso   1.000  O
  O4       1.0000 0.47130  0.35309  0.88405  Biso   1.000  O
  O5       1.0000 0.26444  0.11929  0.45338  Biso   1.000  O
  O6       1.0000 0.31586  0.14358  0.91461  Biso   1.000  O
  O7       1.0000 0.21955  0.38056  0.01487  Biso   1.000  O
  O8       1.0000 0.20822  0.37895  0.51158  Biso   1.000  O
  Hf5      1.0000 0.13720  0.52253  0.28509  Biso   1.000  Hf
  Hf6      1.0000 0.13122  0.72709  0.79214  Biso   1.000  Hf
  Hf7      1.0000 0.35717  0.76838  0.20444  Biso   1.000  Hf
  Hf8      1.0000 0.35449  0.96351  0.69561  Biso   1.000  Hf
  O9       1.0000 0.02898  0.67010  0.15962  Biso   1.000  O
  O10      1.0000 0.03168  0.58493  0.65707  Biso   1.000  O
  O11      1.0000 0.45944  0.91517  0.32881  Biso   1.000  O
  O12      1.0000 0.45542  0.82046  0.83413  Biso   1.000  O
  O13      1.0000 0.27175  0.62902  0.47966  Biso   1.000  O
  O14      1.0000 0.26937  0.62437  0.97993  Biso   1.000  O
  O15      1.0000 0.21889  0.88704  0.01620  Biso   1.000  O
  O16      1.0000 0.21593  0.86462  0.51402  Biso   1.000  O
  Hf9      1.0000 0.63603  0.01871  0.29113  Biso   1.000  Hf
  Hf10     1.0000 0.66249  0.23698  0.81271  Biso   1.000  Hf
  Hf11     1.0000 0.86718  0.27139  0.21892  Biso   1.000  Hf
  Hf12     1.0000 0.86277  0.48107  0.71488  Biso   1.000  Hf
  O17      1.0000 0.53817  0.16605  0.15068  Biso   1.000  O
  O18      1.0000 0.52776  0.05962  0.65844  Biso   1.000  O
  O19      1.0000 0.96473  0.41984  0.34281  Biso   1.000  O
  O20      1.0000 0.96309  0.33020  0.84339  Biso   1.000  O
  O21      1.0000 0.77403  0.12985  0.49114  Biso   1.000  O
  O22      1.0000 0.78614  0.11534  0.00046  Biso   1.000  O
  O23      1.0000 0.72919  0.38159  0.04060  Biso   1.000  O
  O24      1.0000 0.72975  0.37516  0.53147  Biso   1.000  O
  Hf13     1.0000 0.63633  0.52441  0.30338  Biso   1.000  Hf
  Hf14     1.0000 0.63479  0.72657  0.79441  Biso   1.000  Hf
  Hf15     1.0000 0.85413  0.77039  0.21199  Biso   1.000  Hf
  Hf16     1.0000 0.85488  0.97741  0.71614  Biso   1.000  Hf
  O25      1.0000 0.53366  0.67113  0.16426  Biso   1.000  O
  O26      1.0000 0.53286  0.58242  0.66543  Biso   1.000  O
  O27      1.0000 0.95566  0.91587  0.34996  Biso   1.000  O
  O28      1.0000 0.95965  0.83296  0.84762  Biso   1.000  O
  O29      1.0000 0.77408  0.63018  0.48692  Biso   1.000  O
  O30      1.0000 0.77327  0.62154  0.98586  Biso   1.000  O
  O31      1.0000 0.71721  0.87764  0.02101  Biso   1.000  O
  O32      1.0000 0.71824  0.87038  0.52376  Biso   1.000  O
  Si1      1.0000 0.44246  0.22284  0.67824  Biso   1.000  Si
