data_image0
_cell_length_a       10.1373
_cell_length_b       10.4046
_cell_length_c       5.26743
_cell_angle_alpha    90.5498
_cell_angle_beta     92.7457
_cell_angle_gamma    89.3649

_symmetry_space_group_name_H-M    "P 1"
_symmetry_int_tables_number       1

loop_
  _symmetry_equiv_pos_as_xyz
  'x, y, z'

loop_
  _atom_site_label
  _atom_site_occupancy
  _atom_site_fract_x
  _atom_site_fract_y
  _atom_site_fract_z
  _atom_site_thermal_displace_type
  _atom_site_B_iso_or_equiv
  _atom_site_type_symbol
  Hf1      1.0000 0.13484  0.01710  0.35899  Biso   1.000  Hf
  Hf2      1.0000 0.14192  0.22781  0.86913  Biso   1.000  Hf
  Hf3      1.0000 0.34288  0.26349  0.38714  Biso   1.000  Hf
  Hf4      1.0000 0.36254  0.48853  0.85424  Biso   1.000  Hf
  Hf5      1.0000 0.64312  0.01148  0.15599  Biso   1.000  Hf
  Hf6      1.0000 0.66279  0.23652  0.62307  Biso   1.000  Hf
  Hf7      1.0000 0.86374  0.27220  0.14108  Biso   1.000  Hf
  Hf8      1.0000 0.87082  0.48291  0.65123  Biso   1.000  Hf
  O1       1.0000 0.03375  0.16815  0.18049  Biso   1.000  O
  O2       1.0000 0.03727  0.08201  0.67944  Biso   1.000  O
  O3       1.0000 0.47445  0.44454  0.17906  Biso   1.000  O
  O4       1.0000 0.47899  0.35113  0.63263  Biso   1.000  O
  O5       1.0000 0.27388  0.12309  0.61758  Biso   1.000  O
  O6       1.0000 0.26438  0.10830  0.12023  Biso   1.000  O
  O7       1.0000 0.22290  0.37604  0.62334  Biso   1.000  O
  O8       1.0000 0.21965  0.37570  0.12611  Biso   1.000  O
  O9       1.0000 0.52668  0.14888  0.37760  Biso   1.000  O
  O10      1.0000 0.53121  0.05549  0.83120  Biso   1.000  O
  O11      1.0000 0.96839  0.41799  0.33077  Biso   1.000  O
  O12      1.0000 0.97192  0.33186  0.82972  Biso   1.000  O
  O13      1.0000 0.78602  0.12432  0.88409  Biso   1.000  O
  O14      1.0000 0.78277  0.12398  0.38687  Biso   1.000  O
  O15      1.0000 0.74129  0.39172  0.88999  Biso   1.000  O
  O16      1.0000 0.73178  0.37692  0.39263  Biso   1.000  O
  Hf9      1.0000 0.13888  0.52066  0.34851  Biso   1.000  Hf
  Hf10     1.0000 0.13948  0.72989  0.84951  Biso   1.000  Hf
  Hf11     1.0000 0.36390  0.76831  0.35568  Biso   1.000  Hf
  Hf12     1.0000 0.35822  0.96862  0.86584  Biso   1.000  Hf
  Hf13     1.0000 0.64744  0.53140  0.14439  Biso   1.000  Hf
  Hf14     1.0000 0.64176  0.73171  0.65456  Biso   1.000  Hf
  Hf15     1.0000 0.86619  0.77012  0.16072  Biso   1.000  Hf
  Hf16     1.0000 0.86679  0.97934  0.66172  Biso   1.000  Hf
  O17      1.0000 0.03686  0.66616  0.17153  Biso   1.000  O
  O18      1.0000 0.03896  0.58373  0.67482  Biso   1.000  O
  O19      1.0000 0.46947  0.91177  0.18749  Biso   1.000  O
  O20      1.0000 0.46534  0.82545  0.68399  Biso   1.000  O
  O21      1.0000 0.27683  0.62544  0.59279  Biso   1.000  O
  O22      1.0000 0.27531  0.62360  0.09328  Biso   1.000  O
  O23      1.0000 0.22336  0.87173  0.60486  Biso   1.000  O
  O24      1.0000 0.22468  0.86809  0.10864  Biso   1.000  O
  O25      1.0000 0.54032  0.67457  0.32624  Biso   1.000  O
  O26      1.0000 0.53620  0.58825  0.82275  Biso   1.000  O
  O27      1.0000 0.96671  0.91628  0.33541  Biso   1.000  O
  O28      1.0000 0.96881  0.83384  0.83870  Biso   1.000  O
  O29      1.0000 0.78099  0.63193  0.90159  Biso   1.000  O
  O30      1.0000 0.78230  0.62828  0.40537  Biso   1.000  O
  O31      1.0000 0.73036  0.87642  0.91695  Biso   1.000  O
  O32      1.0000 0.72884  0.87457  0.41745  Biso   1.000  O
  Sn1      1.0000 0.50285  0.25002  0.00513  Biso   1.000  Sn
