data_image0
_cell_length_a       5.00403
_cell_length_b       10.1693
_cell_length_c       10.0056
_cell_angle_alpha    90
_cell_angle_beta     90
_cell_angle_gamma    90.0001

_symmetry_space_group_name_H-M    "P 1"
_symmetry_int_tables_number       1

loop_
  _symmetry_equiv_pos_as_xyz
  'x, y, z'

loop_
  _atom_site_label
  _atom_site_occupancy
  _atom_site_fract_x
  _atom_site_fract_y
  _atom_site_fract_z
  _atom_site_thermal_displace_type
  _atom_site_B_iso_or_equiv
  _atom_site_type_symbol
  Ta1      1.0000 0.24982  0.00005  0.12491  Biso   1.000  Ta
  Hf1      1.0000 0.25223  0.24975  0.37461  Biso   1.000  Hf
  Hf2      1.0000 0.74982  0.25002  0.12491  Biso   1.000  Hf
  Hf3      1.0000 0.74982  0.00005  0.37578  Biso   1.000  Hf
  Hf4      1.0000 0.98847  0.14620  0.99557  Biso   1.000  Hf
  Hf5      1.0000 0.00937  0.09975  0.24564  Biso   1.000  Hf
  Hf6      1.0000 0.99672  0.35152  0.25166  Biso   1.000  Hf
  Hf7      1.0000 0.00154  0.39738  0.00092  Biso   1.000  Hf
  Hf8      1.0000 0.51117  0.14620  0.25425  Biso   1.000  Hf
  Hf9      1.0000 0.49026  0.09975  0.00418  Biso   1.000  Hf
  Hf10     1.0000 0.50291  0.35152  0.99816  Biso   1.000  Hf
  Hf11     1.0000 0.49809  0.39738  0.24890  Biso   1.000  Hf
  Hf12     1.0000 0.24982  0.00005  0.62491  Biso   1.000  Hf
  Hf13     1.0000 0.24740  0.24975  0.87521  Biso   1.000  Hf
  Hf14     1.0000 0.74982  0.24980  0.62491  Biso   1.000  Hf
  Hf15     1.0000 0.74982  0.00005  0.87404  Biso   1.000  Hf
  Hf16     1.0000 0.99055  0.14685  0.49395  Biso   1.000  Hf
  Hf17     1.0000 0.00427  0.10388  0.74665  Biso   1.000  Hf
  Hf18     1.0000 0.99648  0.35330  0.75172  Biso   1.000  Hf
  Hf19     1.0000 0.00162  0.39676  0.50109  Biso   1.000  Hf
  Hf20     1.0000 0.50908  0.14685  0.75587  Biso   1.000  Hf
  Hf21     1.0000 0.49537  0.10388  0.50317  Biso   1.000  Hf
  Hf22     1.0000 0.50316  0.35330  0.49810  Biso   1.000  Hf
  Hf23     1.0000 0.49800  0.39676  0.74873  Biso   1.000  Hf
  Hf24     1.0000 0.24982  0.50005  0.12491  Biso   1.000  Hf
  Hf25     1.0000 0.24740  0.75035  0.37461  Biso   1.000  Hf
  Hf26     1.0000 0.74982  0.75009  0.12491  Biso   1.000  Hf
  Hf27     1.0000 0.74982  0.50006  0.37568  Biso   1.000  Hf
  Hf28     1.0000 0.99672  0.64858  0.99816  Biso   1.000  Hf
  Hf29     1.0000 0.00154  0.60273  0.24889  Biso   1.000  Hf
  Hf30     1.0000 0.98847  0.85391  0.25425  Biso   1.000  Hf
  Hf31     1.0000 0.00938  0.90035  0.00418  Biso   1.000  Hf
  Hf32     1.0000 0.50291  0.64858  0.25166  Biso   1.000  Hf
  Hf33     1.0000 0.49810  0.60273  0.00092  Biso   1.000  Hf
  Hf34     1.0000 0.51117  0.85391  0.99557  Biso   1.000  Hf
  Hf35     1.0000 0.49026  0.90035  0.24563  Biso   1.000  Hf
  Hf36     1.0000 0.24981  0.50006  0.62491  Biso   1.000  Hf
  Hf37     1.0000 0.25223  0.75035  0.87521  Biso   1.000  Hf
  Hf38     1.0000 0.74982  0.75030  0.62491  Biso   1.000  Hf
  Hf39     1.0000 0.74982  0.50005  0.87414  Biso   1.000  Hf
  Hf40     1.0000 0.99647  0.64681  0.49810  Biso   1.000  Hf
  Hf41     1.0000 0.00162  0.60335  0.74873  Biso   1.000  Hf
  Hf42     1.0000 0.99055  0.85326  0.75587  Biso   1.000  Hf
  Hf43     1.0000 0.00427  0.89623  0.50317  Biso   1.000  Hf
  Hf44     1.0000 0.50316  0.64681  0.75172  Biso   1.000  Hf
  Hf45     1.0000 0.49801  0.60335  0.50109  Biso   1.000  Hf
  Hf46     1.0000 0.50908  0.85326  0.49395  Biso   1.000  Hf
  Hf47     1.0000 0.49536  0.89623  0.74665  Biso   1.000  Hf
