data_image0
_cell_length_a       4.9656
_cell_length_b       10.3551
_cell_length_c       9.99447
_cell_angle_alpha    89.9067
_cell_angle_beta     89.9271
_cell_angle_gamma    90.0163

_symmetry_space_group_name_H-M    "P 1"
_symmetry_int_tables_number       1

loop_
  _symmetry_equiv_pos_as_xyz
  'x, y, z'

loop_
  _atom_site_label
  _atom_site_occupancy
  _atom_site_fract_x
  _atom_site_fract_y
  _atom_site_fract_z
  _atom_site_thermal_displace_type
  _atom_site_B_iso_or_equiv
  _atom_site_type_symbol
  Ta1      1.0000 0.27610  0.01896  0.12469  Biso   1.000  Ta
  Hf1      1.0000 0.26680  0.23315  0.37586  Biso   1.000  Hf
  Hf2      1.0000 0.73245  0.26685  0.12569  Biso   1.000  Hf
  Hf3      1.0000 0.73167  0.48387  0.37608  Biso   1.000  Hf
  Hf4      1.0000 0.07644  0.18215  0.19328  Biso   1.000  Hf
  Hf5      1.0000 0.06915  0.06707  0.44704  Biso   1.000  Hf
  Hf6      1.0000 0.92824  0.43350  0.19426  Biso   1.000  Hf
  Hf7      1.0000 0.92730  0.31615  0.44472  Biso   1.000  Hf
  Hf8      1.0000 0.54159  0.11833  0.24864  Biso   1.000  Hf
  Hf9      1.0000 0.54121  0.13213  0.49918  Biso   1.000  Hf
  Hf10     1.0000 0.45801  0.38201  0.50020  Biso   1.000  Hf
  Hf11     1.0000 0.45891  0.36854  0.25050  Biso   1.000  Hf
  Hf12     1.0000 0.26816  0.01630  0.62610  Biso   1.000  Hf
  Hf13     1.0000 0.26741  0.23302  0.87682  Biso   1.000  Hf
  Hf14     1.0000 0.73134  0.26609  0.62628  Biso   1.000  Hf
  Hf15     1.0000 0.73061  0.48342  0.87597  Biso   1.000  Hf
  Hf16     1.0000 0.07085  0.18326  0.69715  Biso   1.000  Hf
  Hf17     1.0000 0.07372  0.06408  0.95186  Biso   1.000  Hf
  Hf18     1.0000 0.92581  0.43418  0.69371  Biso   1.000  Hf
  Hf19     1.0000 0.92555  0.31467  0.94357  Biso   1.000  Hf
  Hf20     1.0000 0.54039  0.11730  0.75033  Biso   1.000  Hf
  Hf21     1.0000 0.54415  0.12980  0.00017  Biso   1.000  Hf
  Hf22     1.0000 0.45716  0.38109  0.00057  Biso   1.000  Hf
  Hf23     1.0000 0.45727  0.36714  0.75038  Biso   1.000  Hf
  Hf24     1.0000 0.26949  0.51713  0.12664  Biso   1.000  Hf
  Hf25     1.0000 0.27013  0.73442  0.37492  Biso   1.000  Hf
  Hf26     1.0000 0.73327  0.76859  0.12450  Biso   1.000  Hf
  Hf27     1.0000 0.73381  0.98389  0.37466  Biso   1.000  Hf
  Hf28     1.0000 0.07327  0.68505  0.19319  Biso   1.000  Hf
  Hf29     1.0000 0.07388  0.56638  0.44319  Biso   1.000  Hf
  Hf30     1.0000 0.94084  0.93642  0.19166  Biso   1.000  Hf
  Hf31     1.0000 0.92909  0.81666  0.44378  Biso   1.000  Hf
  Hf32     1.0000 0.54311  0.61945  0.25000  Biso   1.000  Hf
  Hf33     1.0000 0.54215  0.63253  0.49981  Biso   1.000  Hf
  Hf34     1.0000 0.45960  0.88282  0.49895  Biso   1.000  Hf
  Hf35     1.0000 0.45811  0.87163  0.24785  Biso   1.000  Hf
  Hf36     1.0000 0.26748  0.51635  0.62551  Biso   1.000  Hf
  Hf37     1.0000 0.26620  0.73242  0.87565  Biso   1.000  Hf
  Hf38     1.0000 0.73201  0.76671  0.62571  Biso   1.000  Hf
  Hf39     1.0000 0.73108  0.98254  0.87651  Biso   1.000  Hf
  Hf40     1.0000 0.07209  0.68403  0.69368  Biso   1.000  Hf
  Hf41     1.0000 0.07297  0.56442  0.94408  Biso   1.000  Hf
  Hf42     1.0000 0.92761  0.93427  0.69541  Biso   1.000  Hf
  Hf43     1.0000 0.92016  0.81413  0.94199  Biso   1.000  Hf
  Hf44     1.0000 0.54053  0.61744  0.74979  Biso   1.000  Hf
  Hf45     1.0000 0.54188  0.63161  0.00025  Biso   1.000  Hf
  Hf46     1.0000 0.44486  0.88183  0.00011  Biso   1.000  Hf
  Hf47     1.0000 0.45872  0.86728  0.74988  Biso   1.000  Hf
