data_image0
_cell_length_a       5.10998
_cell_length_b       10.2868
_cell_length_c       10.6118
_cell_angle_alpha    89.5602
_cell_angle_beta     79.7165
_cell_angle_gamma    89.9392

_symmetry_space_group_name_H-M    "P 1"
_symmetry_int_tables_number       1

loop_
  _symmetry_equiv_pos_as_xyz
  'x, y, z'

loop_
  _atom_site_label
  _atom_site_occupancy
  _atom_site_fract_x
  _atom_site_fract_y
  _atom_site_fract_z
  _atom_site_thermal_displace_type
  _atom_site_B_iso_or_equiv
  _atom_site_type_symbol
  Hf1      1.0000 0.27373  0.01948  0.14491  Biso   1.000  Hf
  Hf2      1.0000 0.26882  0.23563  0.40653  Biso   1.000  Hf
  Hf3      1.0000 0.71412  0.26703  0.08826  Biso   1.000  Hf
  Hf4      1.0000 0.72083  0.49613  0.35856  Biso   1.000  Hf
  O1       1.0000 0.05818  0.15582  0.06986  Biso   1.000  O
  O2       1.0000 0.06409  0.07952  0.33218  Biso   1.000  O
  O3       1.0000 0.95990  0.39337  0.18935  Biso   1.000  O
  O4       1.0000 0.96169  0.36903  0.44160  Biso   1.000  O
  O5       1.0000 0.55437  0.11797  0.23005  Biso   1.000  O
  O6       1.0000 0.57077  0.11836  0.48293  Biso   1.000  O
  O7       1.0000 0.43874  0.38020  0.00690  Biso   1.000  O
  O8       1.0000 0.48796  0.36674  0.26196  Biso   1.000  O
  Hf5      1.0000 0.27556  0.02262  0.64539  Biso   1.000  Hf
  Hf6      1.0000 0.27215  0.22737  0.89196  Biso   1.000  Hf
  Hf7      1.0000 0.72395  0.27760  0.60760  Biso   1.000  Hf
  Hf8      1.0000 0.71717  0.48069  0.85507  Biso   1.000  Hf
  O9       1.0000 0.06721  0.16731  0.58195  Biso   1.000  O
  O10      1.0000 0.06048  0.08656  0.82341  Biso   1.000  O
  O11      1.0000 0.93354  0.41411  0.68299  Biso   1.000  O
  O12      1.0000 0.93923  0.34181  0.92331  Biso   1.000  O
  O13      1.0000 0.54660  0.12846  0.73734  Biso   1.000  O
  O14      1.0000 0.54301  0.12070  0.98278  Biso   1.000  O
  O15      1.0000 0.45092  0.38469  0.51798  Biso   1.000  O
  O16      1.0000 0.44717  0.37294  0.76177  Biso   1.000  O
  Hf9      1.0000 0.27702  0.51866  0.14770  Biso   1.000  Hf
  Hf10     1.0000 0.26780  0.72957  0.39873  Biso   1.000  Hf
  Hf11     1.0000 0.72100  0.76982  0.10344  Biso   1.000  Hf
  Hf12     1.0000 0.71067  0.96630  0.35368  Biso   1.000  Hf
  O17      1.0000 0.05797  0.65451  0.07321  Biso   1.000  O
  O18      1.0000 0.06625  0.59597  0.31824  Biso   1.000  O
  O19      1.0000 0.93443  0.90680  0.17751  Biso   1.000  O
  O20      1.0000 0.92811  0.83448  0.42974  Biso   1.000  O
  O21      1.0000 0.55124  0.62684  0.23960  Biso   1.000  O
  O22      1.0000 0.53907  0.62820  0.49467  Biso   1.000  O
  O23      1.0000 0.44736  0.87808  0.01162  Biso   1.000  O
  O24      1.0000 0.43957  0.86578  0.25925  Biso   1.000  O
  Hf13     1.0000 0.27061  0.52377  0.64937  Biso   1.000  Hf
  Hf14     1.0000 0.27253  0.72724  0.89789  Biso   1.000  Hf
  Hf15     1.0000 0.71789  0.77273  0.60784  Biso   1.000  Hf
  Hf16     1.0000 0.72101  0.97737  0.85303  Biso   1.000  Hf
  O25      1.0000 0.05224  0.66028  0.57539  Biso   1.000  O
  O26      1.0000 0.05820  0.59128  0.82577  Biso   1.000  O
  O27      1.0000 0.93451  0.91274  0.67614  Biso   1.000  O
  O28      1.0000 0.93375  0.83791  0.92725  Biso   1.000  O
  O29      1.0000 0.54552  0.62916  0.74249  Biso   1.000  O
  O30      1.0000 0.54784  0.62287  0.99151  Biso   1.000  O
  O31      1.0000 0.43982  0.87744  0.51254  Biso   1.000  O
  O32      1.0000 0.44628  0.87223  0.76192  Biso   1.000  O
  Ta1      1.0000 0.79700  0.23756  0.32374  Biso   1.000  Ta
