data_image0
_cell_length_a       5.1134
_cell_length_b       10.0953
_cell_length_c       10.0631
_cell_angle_alpha    90
_cell_angle_beta     90.0001
_cell_angle_gamma    89.9992

_symmetry_space_group_name_H-M    "P 1"
_symmetry_int_tables_number       1

loop_
  _symmetry_equiv_pos_as_xyz
  'x, y, z'

loop_
  _atom_site_label
  _atom_site_occupancy
  _atom_site_fract_x
  _atom_site_fract_y
  _atom_site_fract_z
  _atom_site_thermal_displace_type
  _atom_site_B_iso_or_equiv
  _atom_site_type_symbol
  Hf1      1.0000 0.24984  0.98283  0.12492  Biso   1.000  Hf
  Hf2      1.0000 0.24984  0.25000  0.39871  Biso   1.000  Hf
  Hf3      1.0000 0.74984  0.25000  0.12493  Biso   1.000  Hf
  Hf4      1.0000 0.74972  0.00041  0.37212  Biso   1.000  Hf
  Hf5      1.0000 0.98582  0.13057  0.00324  Biso   1.000  Hf
  Hf6      1.0000 0.02490  0.11993  0.25169  Biso   1.000  Hf
  Hf7      1.0000 0.98582  0.36942  0.24660  Biso   1.000  Hf
  Hf8      1.0000 0.02489  0.38006  0.99815  Biso   1.000  Hf
  Hf9      1.0000 0.51387  0.13057  0.24660  Biso   1.000  Hf
  Hf10     1.0000 0.47479  0.11993  0.99815  Biso   1.000  Hf
  Hf11     1.0000 0.51386  0.36943  0.00324  Biso   1.000  Hf
  Hf12     1.0000 0.47479  0.38006  0.25169  Biso   1.000  Hf
  Hf13     1.0000 0.24984  0.00189  0.62492  Biso   1.000  Hf
  Hf14     1.0000 0.24984  0.24999  0.85114  Biso   1.000  Hf
  Hf15     1.0000 0.74984  0.24999  0.62492  Biso   1.000  Hf
  Hf16     1.0000 0.74996  0.00042  0.87772  Biso   1.000  Hf
  Hf17     1.0000 0.96372  0.13191  0.49966  Biso   1.000  Hf
  Hf18     1.0000 0.02198  0.10919  0.75484  Biso   1.000  Hf
  Hf19     1.0000 0.96371  0.36809  0.75017  Biso   1.000  Hf
  Hf20     1.0000 0.02198  0.39080  0.49500  Biso   1.000  Hf
  Hf21     1.0000 0.53596  0.13190  0.75017  Biso   1.000  Hf
  Hf22     1.0000 0.47770  0.10919  0.49500  Biso   1.000  Hf
  Hf23     1.0000 0.53596  0.36808  0.49966  Biso   1.000  Hf
  Hf24     1.0000 0.47770  0.39079  0.75484  Biso   1.000  Hf
  Hf25     1.0000 0.24984  0.51717  0.12492  Biso   1.000  Hf
  Hf26     1.0000 0.24984  0.75000  0.38063  Biso   1.000  Hf
  Hf27     1.0000 0.74984  0.75000  0.12492  Biso   1.000  Hf
  Hf28     1.0000 0.74996  0.49959  0.37212  Biso   1.000  Hf
  Hf29     1.0000 0.96826  0.63039  0.00560  Biso   1.000  Hf
  Hf30     1.0000 0.02942  0.62152  0.25968  Biso   1.000  Hf
  Hf31     1.0000 0.96825  0.86960  0.24423  Biso   1.000  Hf
  Hf32     1.0000 0.02940  0.87847  0.99016  Biso   1.000  Hf
  Hf33     1.0000 0.53143  0.63039  0.24423  Biso   1.000  Hf
  Hf34     1.0000 0.47028  0.62152  0.99016  Biso   1.000  Hf
  Hf35     1.0000 0.53141  0.86961  0.00560  Biso   1.000  Hf
  Hf36     1.0000 0.47026  0.87848  0.25968  Biso   1.000  Hf
  Hf37     1.0000 0.24984  0.49809  0.62492  Biso   1.000  Hf
  Hf38     1.0000 0.24984  0.74999  0.86921  Biso   1.000  Hf
  Hf39     1.0000 0.74984  0.74999  0.62493  Biso   1.000  Hf
  Hf40     1.0000 0.74972  0.49958  0.87772  Biso   1.000  Hf
  Hf41     1.0000 0.96259  0.63480  0.50305  Biso   1.000  Hf
  Hf42     1.0000 0.03901  0.61225  0.75914  Biso   1.000  Hf
  Hf43     1.0000 0.96258  0.86520  0.74678  Biso   1.000  Hf
  Hf44     1.0000 0.03901  0.88775  0.49069  Biso   1.000  Hf
  Hf45     1.0000 0.53710  0.63479  0.74678  Biso   1.000  Hf
  Hf46     1.0000 0.46068  0.61224  0.49069  Biso   1.000  Hf
  Hf47     1.0000 0.53710  0.86519  0.50306  Biso   1.000  Hf
  Hf48     1.0000 0.46067  0.88774  0.75914  Biso   1.000  Hf
  Ta1      1.0000 0.24984  0.25000  0.12492  Biso   1.000  Ta
