data_image0
_cell_length_a       4.99624
_cell_length_b       10.1312
_cell_length_c       9.98971
_cell_angle_alpha    90
_cell_angle_beta     90
_cell_angle_gamma    90.0001

_symmetry_space_group_name_H-M    "P 1"
_symmetry_int_tables_number       1

loop_
  _symmetry_equiv_pos_as_xyz
  'x, y, z'

loop_
  _atom_site_label
  _atom_site_occupancy
  _atom_site_fract_x
  _atom_site_fract_y
  _atom_site_fract_z
  _atom_site_thermal_displace_type
  _atom_site_B_iso_or_equiv
  _atom_site_type_symbol
  Tc1      1.0000 0.24982  0.00005  0.12491  Biso   1.000  Tc
  Hf1      1.0000 0.25143  0.24897  0.37333  Biso   1.000  Hf
  Hf2      1.0000 0.74982  0.24843  0.12491  Biso   1.000  Hf
  Hf3      1.0000 0.74982  0.00005  0.37343  Biso   1.000  Hf
  Hf4      1.0000 0.98588  0.14206  0.99450  Biso   1.000  Hf
  Hf5      1.0000 0.01474  0.10369  0.24274  Biso   1.000  Hf
  Hf6      1.0000 0.99079  0.35369  0.25422  Biso   1.000  Hf
  Hf7      1.0000 0.00513  0.39461  0.00240  Biso   1.000  Hf
  Hf8      1.0000 0.51376  0.14206  0.25532  Biso   1.000  Hf
  Hf9      1.0000 0.48489  0.10369  0.00708  Biso   1.000  Hf
  Hf10     1.0000 0.50884  0.35369  0.99560  Biso   1.000  Hf
  Hf11     1.0000 0.49451  0.39461  0.24742  Biso   1.000  Hf
  Hf12     1.0000 0.24982  0.00005  0.62491  Biso   1.000  Hf
  Hf13     1.0000 0.24820  0.24897  0.87648  Biso   1.000  Hf
  Hf14     1.0000 0.74982  0.25018  0.62491  Biso   1.000  Hf
  Hf15     1.0000 0.74981  0.00006  0.87639  Biso   1.000  Hf
  Hf16     1.0000 0.98542  0.14586  0.49084  Biso   1.000  Hf
  Hf17     1.0000 0.00677  0.10524  0.74529  Biso   1.000  Hf
  Hf18     1.0000 0.99284  0.35423  0.75425  Biso   1.000  Hf
  Hf19     1.0000 0.00335  0.39534  0.50281  Biso   1.000  Hf
  Hf20     1.0000 0.51421  0.14586  0.75898  Biso   1.000  Hf
  Hf21     1.0000 0.49286  0.10524  0.50452  Biso   1.000  Hf
  Hf22     1.0000 0.50680  0.35423  0.49557  Biso   1.000  Hf
  Hf23     1.0000 0.49628  0.39534  0.74700  Biso   1.000  Hf
  Hf24     1.0000 0.24982  0.50006  0.12491  Biso   1.000  Hf
  Hf25     1.0000 0.24821  0.75114  0.37333  Biso   1.000  Hf
  Hf26     1.0000 0.74982  0.75168  0.12491  Biso   1.000  Hf
  Hf27     1.0000 0.74982  0.50005  0.37553  Biso   1.000  Hf
  Hf28     1.0000 0.99079  0.64641  0.99560  Biso   1.000  Hf
  Hf29     1.0000 0.00513  0.60549  0.24742  Biso   1.000  Hf
  Hf30     1.0000 0.98588  0.85805  0.25532  Biso   1.000  Hf
  Hf31     1.0000 0.01474  0.89641  0.00708  Biso   1.000  Hf
  Hf32     1.0000 0.50884  0.64641  0.25422  Biso   1.000  Hf
  Hf33     1.0000 0.49451  0.60549  0.00240  Biso   1.000  Hf
  Hf34     1.0000 0.51375  0.85804  0.99450  Biso   1.000  Hf
  Hf35     1.0000 0.48490  0.89641  0.24274  Biso   1.000  Hf
  Hf36     1.0000 0.24982  0.50005  0.62491  Biso   1.000  Hf
  Hf37     1.0000 0.25143  0.75114  0.87648  Biso   1.000  Hf
  Hf38     1.0000 0.74982  0.74992  0.62491  Biso   1.000  Hf
  Hf39     1.0000 0.74982  0.50005  0.87428  Biso   1.000  Hf
  Hf40     1.0000 0.99284  0.64588  0.49557  Biso   1.000  Hf
  Hf41     1.0000 0.00335  0.60477  0.74700  Biso   1.000  Hf
  Hf42     1.0000 0.98542  0.85425  0.75897  Biso   1.000  Hf
  Hf43     1.0000 0.00677  0.89487  0.50452  Biso   1.000  Hf
  Hf44     1.0000 0.50680  0.64587  0.75425  Biso   1.000  Hf
  Hf45     1.0000 0.49628  0.60477  0.50281  Biso   1.000  Hf
  Hf46     1.0000 0.51421  0.85425  0.49084  Biso   1.000  Hf
  Hf47     1.0000 0.49286  0.89487  0.74530  Biso   1.000  Hf
