data_image0
_cell_length_a       10.1977
_cell_length_b       10.2367
_cell_length_c       10.5395
_cell_angle_alpha    89.792
_cell_angle_beta     79.7413
_cell_angle_gamma    89.7723

_symmetry_space_group_name_H-M    "P 1"
_symmetry_int_tables_number       1

loop_
  _symmetry_equiv_pos_as_xyz
  'x, y, z'

loop_
  _atom_site_label
  _atom_site_occupancy
  _atom_site_fract_x
  _atom_site_fract_y
  _atom_site_fract_z
  _atom_site_thermal_displace_type
  _atom_site_B_iso_or_equiv
  _atom_site_type_symbol
  Hf1      1.0000 0.13621  0.02005  0.14506  Biso   1.000  Hf
  Hf2      1.0000 0.12372  0.22293  0.39694  Biso   1.000  Hf
  Hf3      1.0000 0.35725  0.26938  0.09473  Biso   1.000  Hf
  Hf4      1.0000 0.36449  0.49432  0.35446  Biso   1.000  Hf
  O1       1.0000 0.03165  0.16211  0.07297  Biso   1.000  O
  O2       1.0000 0.02517  0.08387  0.32094  Biso   1.000  O
  O3       1.0000 0.47631  0.39396  0.19116  Biso   1.000  O
  O4       1.0000 0.48671  0.36359  0.44015  Biso   1.000  O
  O5       1.0000 0.27273  0.12307  0.23744  Biso   1.000  O
  O6       1.0000 0.27553  0.12116  0.48434  Biso   1.000  O
  O7       1.0000 0.22100  0.37964  0.00592  Biso   1.000  O
  O8       1.0000 0.23566  0.36573  0.26018  Biso   1.000  O
  Hf5      1.0000 0.13878  0.02210  0.64485  Biso   1.000  Hf
  Hf6      1.0000 0.13690  0.22786  0.89309  Biso   1.000  Hf
  Hf7      1.0000 0.36641  0.27387  0.60682  Biso   1.000  Hf
  Hf8      1.0000 0.36114  0.48010  0.85431  Biso   1.000  Hf
  O9       1.0000 0.02924  0.16230  0.57744  Biso   1.000  O
  O10      1.0000 0.03189  0.08553  0.82460  Biso   1.000  O
  O11      1.0000 0.47072  0.41142  0.68350  Biso   1.000  O
  O12      1.0000 0.47221  0.34528  0.92886  Biso   1.000  O
  O13      1.0000 0.27452  0.12745  0.73887  Biso   1.000  O
  O14      1.0000 0.27305  0.12129  0.98635  Biso   1.000  O
  O15      1.0000 0.23767  0.37138  0.50055  Biso   1.000  O
  O16      1.0000 0.22395  0.37298  0.75837  Biso   1.000  O
  Hf9      1.0000 0.14009  0.51959  0.14691  Biso   1.000  Hf
  Hf10     1.0000 0.13467  0.72857  0.39739  Biso   1.000  Hf
  Hf11     1.0000 0.36106  0.77162  0.10292  Biso   1.000  Hf
  Hf12     1.0000 0.35697  0.97142  0.35315  Biso   1.000  Hf
  O17      1.0000 0.03307  0.66084  0.07500  Biso   1.000  O
  O18      1.0000 0.03406  0.58588  0.32515  Biso   1.000  O
  O19      1.0000 0.46781  0.91003  0.17703  Biso   1.000  O
  O20      1.0000 0.46803  0.83864  0.42848  Biso   1.000  O
  O21      1.0000 0.27543  0.62949  0.24016  Biso   1.000  O
  O22      1.0000 0.27114  0.62505  0.49441  Biso   1.000  O
  O23      1.0000 0.22382  0.87775  0.00930  Biso   1.000  O
  O24      1.0000 0.22039  0.86861  0.25880  Biso   1.000  O
  Hf13     1.0000 0.13963  0.51902  0.64510  Biso   1.000  Hf
  Hf14     1.0000 0.13816  0.72707  0.89579  Biso   1.000  Hf
  Hf15     1.0000 0.36106  0.77233  0.60562  Biso   1.000  Hf
  Hf16     1.0000 0.36102  0.97840  0.85323  Biso   1.000  Hf
  O25      1.0000 0.02992  0.66167  0.57625  Biso   1.000  O
  O26      1.0000 0.03388  0.58547  0.82356  Biso   1.000  O
  O27      1.0000 0.46815  0.91222  0.67639  Biso   1.000  O
  O28      1.0000 0.46864  0.83957  0.92688  Biso   1.000  O
  O29      1.0000 0.27529  0.62774  0.74018  Biso   1.000  O
  O30      1.0000 0.27598  0.62258  0.99089  Biso   1.000  O
  O31      1.0000 0.22249  0.87699  0.51071  Biso   1.000  O
  O32      1.0000 0.22407  0.87152  0.76027  Biso   1.000  O
  Hf17     1.0000 0.63766  0.02185  0.14572  Biso   1.000  Hf
  Hf18     1.0000 0.64357  0.23429  0.39920  Biso   1.000  Hf
  Hf19     1.0000 0.86243  0.27187  0.10488  Biso   1.000  Hf
  Hf20     1.0000 0.86155  0.48131  0.35483  Biso   1.000  Hf
  O33      1.0000 0.52879  0.15716  0.07208  Biso   1.000  O
  O34      1.0000 0.52538  0.09417  0.32879  Biso   1.000  O
  O35      1.0000 0.97086  0.41100  0.17583  Biso   1.000  O
  O36      1.0000 0.96436  0.34138  0.42817  Biso   1.000  O
  O37      1.0000 0.77223  0.12866  0.23935  Biso   1.000  O
  O38      1.0000 0.77793  0.12173  0.49124  Biso   1.000  O
  O39      1.0000 0.72505  0.37699  0.01174  Biso   1.000  O
  O40      1.0000 0.72987  0.37411  0.26144  Biso   1.000  O
  Hf21     1.0000 0.63837  0.02225  0.64692  Biso   1.000  Hf
  Hf22     1.0000 0.63836  0.22818  0.89740  Biso   1.000  Hf
  Hf23     1.0000 0.85921  0.27286  0.60773  Biso   1.000  Hf
  Hf24     1.0000 0.86178  0.47868  0.85448  Biso   1.000  Hf
  O41      1.0000 0.53376  0.16208  0.57372  Biso   1.000  O
  O42      1.0000 0.53003  0.09054  0.82389  Biso   1.000  O
  O43      1.0000 0.96898  0.41226  0.67476  Biso   1.000  O
  O44      1.0000 0.96620  0.33601  0.92416  Biso   1.000  O
  O45      1.0000 0.77405  0.12827  0.74156  Biso   1.000  O
  O46      1.0000 0.77470  0.12103  0.99047  Biso   1.000  O
  O47      1.0000 0.72653  0.37984  0.51401  Biso   1.000  O
  O48      1.0000 0.72554  0.37250  0.76263  Biso   1.000  O
  Hf25     1.0000 0.63810  0.51920  0.14720  Biso   1.000  Hf
  Hf26     1.0000 0.63923  0.73048  0.39698  Biso   1.000  Hf
  Hf27     1.0000 0.86136  0.77021  0.10382  Biso   1.000  Hf
  Hf28     1.0000 0.85695  0.97742  0.35389  Biso   1.000  Hf
  O49      1.0000 0.52900  0.65615  0.07244  Biso   1.000  O
  O50      1.0000 0.53476  0.59769  0.31839  Biso   1.000  O
  O51      1.0000 0.96463  0.91172  0.17330  Biso   1.000  O
  O52      1.0000 0.96468  0.83630  0.42466  Biso   1.000  O
  O53      1.0000 0.77691  0.62826  0.23875  Biso   1.000  O
  O54      1.0000 0.77503  0.62326  0.49009  Biso   1.000  O
  O55      1.0000 0.72347  0.87826  0.01183  Biso   1.000  O
  O56      1.0000 0.72149  0.87269  0.26102  Biso   1.000  O
  Hf29     1.0000 0.63758  0.52301  0.64724  Biso   1.000  Hf
  Hf30     1.0000 0.63797  0.72768  0.89672  Biso   1.000  Hf
  Hf31     1.0000 0.86105  0.77219  0.60559  Biso   1.000  Hf
  Hf32     1.0000 0.86124  0.97775  0.85445  Biso   1.000  Hf
  O57      1.0000 0.53044  0.66081  0.57354  Biso   1.000  O
  O58      1.0000 0.53058  0.59209  0.82352  Biso   1.000  O
  O59      1.0000 0.96737  0.91358  0.67445  Biso   1.000  O
  O60      1.0000 0.96624  0.83411  0.92350  Biso   1.000  O
  O61      1.0000 0.77491  0.62830  0.74022  Biso   1.000  O
  O62      1.0000 0.77490  0.62086  0.98982  Biso   1.000  O
  O63      1.0000 0.72310  0.87875  0.51195  Biso   1.000  O
  O64      1.0000 0.72447  0.87204  0.76167  Biso   1.000  O
  Ti1      1.0000 0.38097  0.24469  0.33947  Biso   1.000  Ti
