data_image0
_cell_length_a       10.0357
_cell_length_b       10.1834
_cell_length_c       10.0357
_cell_angle_alpha    90
_cell_angle_beta     90
_cell_angle_gamma    90

_symmetry_space_group_name_H-M    "P 1"
_symmetry_int_tables_number       1

loop_
  _symmetry_equiv_pos_as_xyz
  'x, y, z'

loop_
  _atom_site_label
  _atom_site_occupancy
  _atom_site_fract_x
  _atom_site_fract_y
  _atom_site_fract_z
  _atom_site_thermal_displace_type
  _atom_site_B_iso_or_equiv
  _atom_site_type_symbol
  Hf1      1.0000 0.12491  0.98795  0.12491  Biso   1.000  Hf
  Hf2      1.0000 0.12491  0.25005  0.38700  Biso   1.000  Hf
  Hf3      1.0000 0.38700  0.25005  0.12490  Biso   1.000  Hf
  Hf4      1.0000 0.37333  0.00271  0.37332  Biso   1.000  Hf
  Hf5      1.0000 0.99675  0.14415  0.99675  Biso   1.000  Hf
  Hf6      1.0000 0.00438  0.11092  0.24543  Biso   1.000  Hf
  Hf7      1.0000 0.99675  0.35596  0.25306  Biso   1.000  Hf
  Hf8      1.0000 0.00438  0.38919  0.00438  Biso   1.000  Hf
  Hf9      1.0000 0.25306  0.14415  0.25306  Biso   1.000  Hf
  Hf10     1.0000 0.24543  0.11092  0.00438  Biso   1.000  Hf
  Hf11     1.0000 0.25306  0.35595  0.99675  Biso   1.000  Hf
  Hf12     1.0000 0.24543  0.38918  0.24543  Biso   1.000  Hf
  Hf13     1.0000 0.12491  0.99605  0.62491  Biso   1.000  Hf
  Hf14     1.0000 0.12491  0.25005  0.86282  Biso   1.000  Hf
  Hf15     1.0000 0.37737  0.25005  0.62491  Biso   1.000  Hf
  Hf16     1.0000 0.37221  0.00437  0.87761  Biso   1.000  Hf
  Hf17     1.0000 0.99440  0.14373  0.50032  Biso   1.000  Hf
  Hf18     1.0000 0.00230  0.10376  0.74822  Biso   1.000  Hf
  Hf19     1.0000 0.99440  0.35638  0.74949  Biso   1.000  Hf
  Hf20     1.0000 0.00230  0.39634  0.50160  Biso   1.000  Hf
  Hf21     1.0000 0.25542  0.14373  0.74949  Biso   1.000  Hf
  Hf22     1.0000 0.24752  0.10376  0.50159  Biso   1.000  Hf
  Hf23     1.0000 0.25542  0.35638  0.50032  Biso   1.000  Hf
  Hf24     1.0000 0.24752  0.39634  0.74822  Biso   1.000  Hf
  Hf25     1.0000 0.12491  0.51216  0.12491  Biso   1.000  Hf
  Hf26     1.0000 0.12491  0.75005  0.37663  Biso   1.000  Hf
  Hf27     1.0000 0.37663  0.75005  0.12491  Biso   1.000  Hf
  Hf28     1.0000 0.37221  0.49574  0.37221  Biso   1.000  Hf
  Hf29     1.0000 0.00033  0.64407  0.00033  Biso   1.000  Hf
  Hf30     1.0000 0.99742  0.60934  0.25240  Biso   1.000  Hf
  Hf31     1.0000 0.00033  0.85604  0.24949  Biso   1.000  Hf
  Hf32     1.0000 0.99742  0.89077  0.99742  Biso   1.000  Hf
  Hf33     1.0000 0.24949  0.64407  0.24949  Biso   1.000  Hf
  Hf34     1.0000 0.25240  0.60934  0.99741  Biso   1.000  Hf
  Hf35     1.0000 0.24949  0.85604  0.00032  Biso   1.000  Hf
  Hf36     1.0000 0.25240  0.89077  0.25240  Biso   1.000  Hf
  Hf37     1.0000 0.12491  0.50406  0.62491  Biso   1.000  Hf
  Hf38     1.0000 0.12491  0.75005  0.87319  Biso   1.000  Hf
  Hf39     1.0000 0.37597  0.75005  0.62491  Biso   1.000  Hf
  Hf40     1.0000 0.37333  0.49740  0.87649  Biso   1.000  Hf
  Hf41     1.0000 0.00032  0.64648  0.50224  Biso   1.000  Hf
  Hf42     1.0000 0.00075  0.60385  0.75247  Biso   1.000  Hf
  Hf43     1.0000 0.00032  0.85363  0.74758  Biso   1.000  Hf
  Hf44     1.0000 0.00075  0.89626  0.49735  Biso   1.000  Hf
  Hf45     1.0000 0.24950  0.64648  0.74758  Biso   1.000  Hf
  Hf46     1.0000 0.24906  0.60385  0.49735  Biso   1.000  Hf
  Hf47     1.0000 0.24950  0.85363  0.50223  Biso   1.000  Hf
  Hf48     1.0000 0.24906  0.89626  0.75247  Biso   1.000  Hf
  Hf49     1.0000 0.62491  0.99605  0.12491  Biso   1.000  Hf
  Hf50     1.0000 0.62491  0.25005  0.37737  Biso   1.000  Hf
  Hf51     1.0000 0.86282  0.25005  0.12491  Biso   1.000  Hf
  Hf52     1.0000 0.87761  0.00437  0.37221  Biso   1.000  Hf
  Hf53     1.0000 0.50032  0.14373  0.99440  Biso   1.000  Hf
  Hf54     1.0000 0.50160  0.10376  0.24752  Biso   1.000  Hf
  Hf55     1.0000 0.50032  0.35637  0.25542  Biso   1.000  Hf
  Hf56     1.0000 0.50160  0.39635  0.00230  Biso   1.000  Hf
  Hf57     1.0000 0.74949  0.14373  0.25542  Biso   1.000  Hf
  Hf58     1.0000 0.74822  0.10376  0.00230  Biso   1.000  Hf
  Hf59     1.0000 0.74949  0.35638  0.99440  Biso   1.000  Hf
  Hf60     1.0000 0.74822  0.39634  0.24752  Biso   1.000  Hf
  Hf61     1.0000 0.62491  0.99757  0.62491  Biso   1.000  Hf
  Hf62     1.0000 0.62491  0.25005  0.87245  Biso   1.000  Hf
  Hf63     1.0000 0.87245  0.25005  0.62491  Biso   1.000  Hf
  Hf64     1.0000 0.87649  0.00271  0.87649  Biso   1.000  Hf
  Hf65     1.0000 0.49723  0.14744  0.49723  Biso   1.000  Hf
  Hf66     1.0000 0.50174  0.10223  0.74808  Biso   1.000  Hf
  Hf67     1.0000 0.49723  0.35266  0.75259  Biso   1.000  Hf
  Hf68     1.0000 0.50174  0.39788  0.50174  Biso   1.000  Hf
  Hf69     1.0000 0.75259  0.14744  0.75259  Biso   1.000  Hf
  Hf70     1.0000 0.74808  0.10222  0.50174  Biso   1.000  Hf
  Hf71     1.0000 0.75259  0.35267  0.49723  Biso   1.000  Hf
  Hf72     1.0000 0.74808  0.39788  0.74808  Biso   1.000  Hf
  Hf73     1.0000 0.62491  0.50406  0.12491  Biso   1.000  Hf
  Hf74     1.0000 0.62491  0.75005  0.37597  Biso   1.000  Hf
  Hf75     1.0000 0.87319  0.75005  0.12491  Biso   1.000  Hf
  Hf76     1.0000 0.87649  0.49740  0.37333  Biso   1.000  Hf
  Hf77     1.0000 0.50223  0.64648  0.00032  Biso   1.000  Hf
  Hf78     1.0000 0.49735  0.60385  0.24907  Biso   1.000  Hf
  Hf79     1.0000 0.50224  0.85363  0.24950  Biso   1.000  Hf
  Hf80     1.0000 0.49735  0.89626  0.00075  Biso   1.000  Hf
  Hf81     1.0000 0.74758  0.64648  0.24950  Biso   1.000  Hf
  Hf82     1.0000 0.75247  0.60385  0.00076  Biso   1.000  Hf
  Hf83     1.0000 0.74758  0.85363  0.00032  Biso   1.000  Hf
  Hf84     1.0000 0.75247  0.89626  0.24907  Biso   1.000  Hf
  Hf85     1.0000 0.62491  0.50254  0.62491  Biso   1.000  Hf
  Hf86     1.0000 0.62491  0.75005  0.87385  Biso   1.000  Hf
  Hf87     1.0000 0.87385  0.75005  0.62491  Biso   1.000  Hf
  Hf88     1.0000 0.87761  0.49574  0.87761  Biso   1.000  Hf
  Hf89     1.0000 0.49988  0.64744  0.49988  Biso   1.000  Hf
  Hf90     1.0000 0.49921  0.60213  0.75061  Biso   1.000  Hf
  Hf91     1.0000 0.49988  0.85266  0.74994  Biso   1.000  Hf
  Hf92     1.0000 0.49921  0.89798  0.49921  Biso   1.000  Hf
  Hf93     1.0000 0.74994  0.64745  0.74994  Biso   1.000  Hf
  Hf94     1.0000 0.75061  0.60213  0.49921  Biso   1.000  Hf
  Hf95     1.0000 0.74994  0.85266  0.49988  Biso   1.000  Hf
  Hf96     1.0000 0.75061  0.89798  0.75061  Biso   1.000  Hf
  Ti1      1.0000 0.12491  0.25005  0.12491  Biso   1.000  Ti
