data_image0
_cell_length_a       10.24
_cell_length_b       5.13335
_cell_length_c       10.5645
_cell_angle_alpha    89.5461
_cell_angle_beta     79.4335
_cell_angle_gamma    89.5522

_symmetry_space_group_name_H-M    "P 1"
_symmetry_int_tables_number       1

loop_
  _symmetry_equiv_pos_as_xyz
  'x, y, z'

loop_
  _atom_site_label
  _atom_site_occupancy
  _atom_site_fract_x
  _atom_site_fract_y
  _atom_site_fract_z
  _atom_site_thermal_displace_type
  _atom_site_B_iso_or_equiv
  _atom_site_type_symbol
  Hf1      1.0000 0.13751  0.03664  0.14601  Biso   1.000  Hf
  Hf2      1.0000 0.12114  0.44608  0.39809  Biso   1.000  Hf
  Hf3      1.0000 0.35753  0.53855  0.09474  Biso   1.000  Hf
  Hf4      1.0000 0.36049  0.97493  0.35438  Biso   1.000  Hf
  O1       1.0000 0.03051  0.31382  0.07071  Biso   1.000  O
  O2       1.0000 0.02483  0.17264  0.31858  Biso   1.000  O
  O3       1.0000 0.47618  0.78458  0.19261  Biso   1.000  O
  O4       1.0000 0.48547  0.72517  0.44088  Biso   1.000  O
  O5       1.0000 0.27200  0.24738  0.23795  Biso   1.000  O
  O6       1.0000 0.27120  0.25174  0.48975  Biso   1.000  O
  O7       1.0000 0.22114  0.75701  0.00592  Biso   1.000  O
  O8       1.0000 0.23292  0.72777  0.25966  Biso   1.000  O
  Hf5      1.0000 0.13991  0.03992  0.64400  Biso   1.000  Hf
  Hf6      1.0000 0.13668  0.45310  0.89321  Biso   1.000  Hf
  Hf7      1.0000 0.36569  0.54873  0.60811  Biso   1.000  Hf
  Hf8      1.0000 0.36096  0.95956  0.85353  Biso   1.000  Hf
  O9       1.0000 0.02572  0.31784  0.57684  Biso   1.000  O
  O10      1.0000 0.03195  0.17385  0.82135  Biso   1.000  O
  O11      1.0000 0.47211  0.81974  0.68462  Biso   1.000  O
  O12      1.0000 0.47360  0.69608  0.93147  Biso   1.000  O
  O13      1.0000 0.27393  0.25378  0.73955  Biso   1.000  O
  O14      1.0000 0.27309  0.24426  0.98777  Biso   1.000  O
  O15      1.0000 0.23576  0.74305  0.50194  Biso   1.000  O
  O16      1.0000 0.22420  0.74633  0.75875  Biso   1.000  O
  Hf9      1.0000 0.63701  0.03793  0.14668  Biso   1.000  Hf
  Hf10     1.0000 0.64428  0.46964  0.39998  Biso   1.000  Hf
  Hf11     1.0000 0.86252  0.54043  0.10461  Biso   1.000  Hf
  Hf12     1.0000 0.85771  0.95926  0.35454  Biso   1.000  Hf
  O17      1.0000 0.52596  0.30112  0.06949  Biso   1.000  O
  O18      1.0000 0.52721  0.20835  0.32166  Biso   1.000  O
  O19      1.0000 0.96972  0.81265  0.17686  Biso   1.000  O
  O20      1.0000 0.96362  0.68733  0.43018  Biso   1.000  O
  O21      1.0000 0.77230  0.25526  0.23843  Biso   1.000  O
  O22      1.0000 0.77688  0.24671  0.49143  Biso   1.000  O
  O23      1.0000 0.72478  0.75415  0.01326  Biso   1.000  O
  O24      1.0000 0.72724  0.74815  0.26181  Biso   1.000  O
  Hf13     1.0000 0.63741  0.04743  0.64813  Biso   1.000  Hf
  Hf14     1.0000 0.63751  0.45514  0.89794  Biso   1.000  Hf
  Hf15     1.0000 0.85945  0.54769  0.60887  Biso   1.000  Hf
  Hf16     1.0000 0.86203  0.95657  0.85474  Biso   1.000  Hf
  O25      1.0000 0.53088  0.31801  0.57080  Biso   1.000  O
  O26      1.0000 0.52761  0.19276  0.82146  Biso   1.000  O
  O27      1.0000 0.97032  0.82114  0.67643  Biso   1.000  O
  O28      1.0000 0.96657  0.67209  0.92523  Biso   1.000  O
  O29      1.0000 0.77286  0.25695  0.74179  Biso   1.000  O
  O30      1.0000 0.77358  0.24115  0.99029  Biso   1.000  O
  O31      1.0000 0.72468  0.75899  0.51495  Biso   1.000  O
  O32      1.0000 0.72619  0.74645  0.76378  Biso   1.000  O
  Ti1      1.0000 0.37847  0.49203  0.34121  Biso   1.000  Ti
