data_image0
_cell_length_a       5.12504
_cell_length_b       10.6667
_cell_length_c       10.2892
_cell_angle_alpha    96.5361
_cell_angle_beta     91.634
_cell_angle_gamma    91.9272

_symmetry_space_group_name_H-M    "P 1"
_symmetry_int_tables_number       1

loop_
  _symmetry_equiv_pos_as_xyz
  'x, y, z'

loop_
  _atom_site_label
  _atom_site_occupancy
  _atom_site_fract_x
  _atom_site_fract_y
  _atom_site_fract_z
  _atom_site_thermal_displace_type
  _atom_site_B_iso_or_equiv
  _atom_site_type_symbol
  Hf1      1.0000 0.32101  0.97963  0.13571  Biso   1.000  Hf
  Hf2      1.0000 0.14932  0.30328  0.37338  Biso   1.000  Hf
  Hf3      1.0000 0.78349  0.20539  0.11030  Biso   1.000  Hf
  Hf4      1.0000 0.80193  0.02088  0.35824  Biso   1.000  Hf
  Hf5      1.0000 0.02488  0.16236  0.95420  Biso   1.000  Hf
  Hf6      1.0000 0.04996  0.11258  0.22831  Biso   1.000  Hf
  Hf7      1.0000 0.83061  0.36155  0.25394  Biso   1.000  Hf
  Hf8      1.0000 0.11028  0.42731  0.95580  Biso   1.000  Hf
  Hf9      1.0000 0.55517  0.12264  0.24939  Biso   1.000  Hf
  Hf10     1.0000 0.58144  0.05117  0.00699  Biso   1.000  Hf
  Hf11     1.0000 0.62435  0.31757  0.95762  Biso   1.000  Hf
  Hf12     1.0000 0.35519  0.45479  0.29986  Biso   1.000  Hf
  Hf13     1.0000 0.30533  0.97379  0.63401  Biso   1.000  Hf
  Hf14     1.0000 0.24153  0.25505  0.83086  Biso   1.000  Hf
  Hf15     1.0000 0.69715  0.22870  0.61583  Biso   1.000  Hf
  Hf16     1.0000 0.81876  0.00461  0.85122  Biso   1.000  Hf
  Hf17     1.0000 0.93298  0.18848  0.46769  Biso   1.000  Hf
  Hf18     1.0000 0.02417  0.09983  0.71392  Biso   1.000  Hf
  Hf19     1.0000 0.99201  0.34463  0.71909  Biso   1.000  Hf
  Hf20     1.0000 0.98748  0.44299  0.48950  Biso   1.000  Hf
  Hf21     1.0000 0.51653  0.12927  0.75580  Biso   1.000  Hf
  Hf22     1.0000 0.56121  0.05318  0.51905  Biso   1.000  Hf
  Hf23     1.0000 0.42574  0.31225  0.51370  Biso   1.000  Hf
  Hf24     1.0000 0.49844  0.38484  0.74692  Biso   1.000  Hf
  Hf25     1.0000 0.22545  0.54507  0.12881  Biso   1.000  Hf
  Hf26     1.0000 0.19002  0.77202  0.38032  Biso   1.000  Hf
  Hf27     1.0000 0.72187  0.74322  0.14537  Biso   1.000  Hf
  Hf28     1.0000 0.71500  0.52553  0.37236  Biso   1.000  Hf
  Hf29     1.0000 0.01463  0.66440  0.00964  Biso   1.000  Hf
  Hf30     1.0000 0.95955  0.62486  0.25355  Biso   1.000  Hf
  Hf31     1.0000 0.01418  0.86798  0.23116  Biso   1.000  Hf
  Hf32     1.0000 0.05226  0.92060  0.97528  Biso   1.000  Hf
  Hf33     1.0000 0.47028  0.66623  0.27071  Biso   1.000  Hf
  Hf34     1.0000 0.57027  0.56585  0.04354  Biso   1.000  Hf
  Hf35     1.0000 0.46806  0.81231  0.02651  Biso   1.000  Hf
  Hf36     1.0000 0.52145  0.89111  0.27227  Biso   1.000  Hf
  Hf37     1.0000 0.24560  0.48822  0.64816  Biso   1.000  Hf
  Hf38     1.0000 0.21002  0.75921  0.87196  Biso   1.000  Hf
  Hf39     1.0000 0.69739  0.72219  0.65036  Biso   1.000  Hf
  Hf40     1.0000 0.75916  0.48453  0.88583  Biso   1.000  Hf
  Hf41     1.0000 0.92225  0.68922  0.48852  Biso   1.000  Hf
  Hf42     1.0000 0.97239  0.60243  0.75025  Biso   1.000  Hf
  Hf43     1.0000 0.00330  0.85113  0.73126  Biso   1.000  Hf
  Hf44     1.0000 0.06159  0.93839  0.47447  Biso   1.000  Hf
  Hf45     1.0000 0.47263  0.63035  0.78561  Biso   1.000  Hf
  Hf46     1.0000 0.51193  0.56530  0.54008  Biso   1.000  Hf
  Hf47     1.0000 0.44069  0.80635  0.53568  Biso   1.000  Hf
  Hf48     1.0000 0.51258  0.87801  0.77474  Biso   1.000  Hf
  Tl1      1.0000 0.31343  0.29070  0.11647  Biso   1.000  Tl
