data_image0
_cell_length_a       10.0938
_cell_length_b       5.1679
_cell_length_c       10.6444
_cell_angle_alpha    89.6641
_cell_angle_beta     92.0388
_cell_angle_gamma    90.1566

_symmetry_space_group_name_H-M    "P 1"
_symmetry_int_tables_number       1

loop_
  _symmetry_equiv_pos_as_xyz
  'x, y, z'

loop_
  _atom_site_label
  _atom_site_occupancy
  _atom_site_fract_x
  _atom_site_fract_y
  _atom_site_fract_z
  _atom_site_thermal_displace_type
  _atom_site_B_iso_or_equiv
  _atom_site_type_symbol
  Hf1      1.0000 0.13334  0.03602  0.17331  Biso   1.000  Hf
  Hf2      1.0000 0.13180  0.45328  0.42815  Biso   1.000  Hf
  Hf3      1.0000 0.34129  0.53424  0.19678  Biso   1.000  Hf
  Hf4      1.0000 0.36086  0.95964  0.43082  Biso   1.000  Hf
  Hf5      1.0000 0.65502  0.04362  0.06866  Biso   1.000  Hf
  Hf6      1.0000 0.63495  0.45726  0.33444  Biso   1.000  Hf
  Hf7      1.0000 0.86410  0.53884  0.07665  Biso   1.000  Hf
  Hf8      1.0000 0.85819  0.95914  0.32826  Biso   1.000  Hf
  O1       1.0000 0.03395  0.33011  0.08494  Biso   1.000  O
  O2       1.0000 0.02618  0.17388  0.33297  Biso   1.000  O
  O3       1.0000 0.46977  0.89718  0.08813  Biso   1.000  O
  O4       1.0000 0.46560  0.69185  0.33482  Biso   1.000  O
  O5       1.0000 0.26326  0.24810  0.30347  Biso   1.000  O
  O6       1.0000 0.26903  0.23528  0.04923  Biso   1.000  O
  O7       1.0000 0.21514  0.75179  0.30756  Biso   1.000  O
  O8       1.0000 0.22409  0.74571  0.05787  Biso   1.000  O
  O9       1.0000 0.50973  0.29552  0.21039  Biso   1.000  O
  O10      1.0000 0.52678  0.18654  0.43358  Biso   1.000  O
  O11      1.0000 0.96221  0.83007  0.16995  Biso   1.000  O
  O12      1.0000 0.96521  0.67338  0.42004  Biso   1.000  O
  O13      1.0000 0.77494  0.24892  0.45191  Biso   1.000  O
  O14      1.0000 0.77318  0.25664  0.20214  Biso   1.000  O
  O15      1.0000 0.72492  0.75405  0.45681  Biso   1.000  O
  O16      1.0000 0.72102  0.75025  0.20522  Biso   1.000  O
  Hf9      1.0000 0.14382  0.04058  0.67565  Biso   1.000  Hf
  Hf10     1.0000 0.14528  0.46089  0.92716  Biso   1.000  Hf
  Hf11     1.0000 0.36512  0.54005  0.67372  Biso   1.000  Hf
  Hf12     1.0000 0.36703  0.96756  0.92097  Biso   1.000  Hf
  Hf13     1.0000 0.64175  0.03945  0.57745  Biso   1.000  Hf
  Hf14     1.0000 0.65326  0.44669  0.81096  Biso   1.000  Hf
  Hf15     1.0000 0.86545  0.54446  0.57744  Biso   1.000  Hf
  Hf16     1.0000 0.87450  0.95846  0.82721  Biso   1.000  Hf
  O17      1.0000 0.03302  0.32374  0.58387  Biso   1.000  O
  O18      1.0000 0.04365  0.17234  0.83275  Biso   1.000  O
  O19      1.0000 0.47225  0.82111  0.58263  Biso   1.000  O
  O20      1.0000 0.47702  0.66892  0.82258  Biso   1.000  O
  O21      1.0000 0.28347  0.25294  0.79802  Biso   1.000  O
  O22      1.0000 0.27433  0.24800  0.54961  Biso   1.000  O
  O23      1.0000 0.23130  0.74916  0.80165  Biso   1.000  O
  O24      1.0000 0.22625  0.74956  0.55197  Biso   1.000  O
  O25      1.0000 0.53698  0.32822  0.66322  Biso   1.000  O
  O26      1.0000 0.54929  0.11785  0.88823  Biso   1.000  O
  O27      1.0000 0.97598  0.82299  0.66891  Biso   1.000  O
  O28      1.0000 0.97755  0.67285  0.92065  Biso   1.000  O
  O29      1.0000 0.79414  0.25294  0.94289  Biso   1.000  O
  O30      1.0000 0.78497  0.24326  0.69652  Biso   1.000  O
  O31      1.0000 0.74606  0.77462  0.95292  Biso   1.000  O
  O32      1.0000 0.73526  0.74402  0.70331  Biso   1.000  O
  Tl1      1.0000 0.53656  0.50864  0.02887  Biso   1.000  Tl
