data_image0
_cell_length_a       10.0623
_cell_length_b       10.1991
_cell_length_c       10.528
_cell_angle_alpha    90.0902
_cell_angle_beta     90.445
_cell_angle_gamma    89.9584

_symmetry_space_group_name_H-M    "P 1"
_symmetry_int_tables_number       1

loop_
  _symmetry_equiv_pos_as_xyz
  'x, y, z'

loop_
  _atom_site_label
  _atom_site_occupancy
  _atom_site_fract_x
  _atom_site_fract_y
  _atom_site_fract_z
  _atom_site_thermal_displace_type
  _atom_site_B_iso_or_equiv
  _atom_site_type_symbol
  Hf1      1.0000 0.13901  0.02098  0.17297  Biso   1.000  Hf
  Hf2      1.0000 0.13771  0.22899  0.42308  Biso   1.000  Hf
  Hf3      1.0000 0.36105  0.26642  0.17616  Biso   1.000  Hf
  Hf4      1.0000 0.36067  0.47878  0.42334  Biso   1.000  Hf
  Hf5      1.0000 0.63830  0.00544  0.07864  Biso   1.000  Hf
  Hf6      1.0000 0.63331  0.22757  0.33145  Biso   1.000  Hf
  Hf7      1.0000 0.87309  0.27428  0.07418  Biso   1.000  Hf
  Hf8      1.0000 0.86088  0.47843  0.32727  Biso   1.000  Hf
  O1       1.0000 0.03449  0.15885  0.07704  Biso   1.000  O
  O2       1.0000 0.02692  0.09203  0.32717  Biso   1.000  O
  O3       1.0000 0.47603  0.40344  0.07564  Biso   1.000  O
  O4       1.0000 0.46756  0.34075  0.32995  Biso   1.000  O
  O5       1.0000 0.27109  0.12368  0.29952  Biso   1.000  O
  O6       1.0000 0.27512  0.12346  0.04764  Biso   1.000  O
  O7       1.0000 0.22240  0.37390  0.29768  Biso   1.000  O
  O8       1.0000 0.22660  0.37625  0.04534  Biso   1.000  O
  O9       1.0000 0.51441  0.13132  0.19142  Biso   1.000  O
  O10      1.0000 0.52580  0.09463  0.43332  Biso   1.000  O
  O11      1.0000 0.97076  0.41443  0.17131  Biso   1.000  O
  O12      1.0000 0.96832  0.33877  0.41935  Biso   1.000  O
  O13      1.0000 0.77585  0.12238  0.45178  Biso   1.000  O
  O14      1.0000 0.76034  0.13549  0.19265  Biso   1.000  O
  O15      1.0000 0.72497  0.37503  0.45560  Biso   1.000  O
  O16      1.0000 0.71982  0.37870  0.20184  Biso   1.000  O
  Hf9      1.0000 0.13893  0.02170  0.67257  Biso   1.000  Hf
  Hf10     1.0000 0.14290  0.22782  0.92149  Biso   1.000  Hf
  Hf11     1.0000 0.36259  0.27122  0.67261  Biso   1.000  Hf
  Hf12     1.0000 0.36179  0.47882  0.92091  Biso   1.000  Hf
  Hf13     1.0000 0.63874  0.02035  0.57864  Biso   1.000  Hf
  Hf14     1.0000 0.64057  0.22974  0.82371  Biso   1.000  Hf
  Hf15     1.0000 0.86199  0.27162  0.57673  Biso   1.000  Hf
  Hf16     1.0000 0.86315  0.47902  0.82743  Biso   1.000  Hf
  O17      1.0000 0.03116  0.16180  0.57996  Biso   1.000  O
  O18      1.0000 0.03304  0.08831  0.82982  Biso   1.000  O
  O19      1.0000 0.47179  0.40677  0.57715  Biso   1.000  O
  O20      1.0000 0.47276  0.34648  0.82409  Biso   1.000  O
  O21      1.0000 0.27696  0.12499  0.79703  Biso   1.000  O
  O22      1.0000 0.27474  0.12576  0.54754  Biso   1.000  O
  O23      1.0000 0.22595  0.37396  0.79515  Biso   1.000  O
  O24      1.0000 0.22450  0.37675  0.54664  Biso   1.000  O
  O25      1.0000 0.52598  0.15039  0.68034  Biso   1.000  O
  O26      1.0000 0.52370  0.11273  0.94464  Biso   1.000  O
  O27      1.0000 0.96879  0.41353  0.66804  Biso   1.000  O
  O28      1.0000 0.97340  0.33870  0.91564  Biso   1.000  O
  O29      1.0000 0.77481  0.12240  0.94989  Biso   1.000  O
  O30      1.0000 0.77717  0.12608  0.70066  Biso   1.000  O
  O31      1.0000 0.72538  0.37429  0.95721  Biso   1.000  O
  O32      1.0000 0.72595  0.37646  0.70438  Biso   1.000  O
  Hf17     1.0000 0.14122  0.52049  0.17360  Biso   1.000  Hf
  Hf18     1.0000 0.13767  0.72915  0.42263  Biso   1.000  Hf
  Hf19     1.0000 0.36013  0.76990  0.17363  Biso   1.000  Hf
  Hf20     1.0000 0.36193  0.97874  0.42390  Biso   1.000  Hf
  Hf21     1.0000 0.64150  0.52900  0.07656  Biso   1.000  Hf
  Hf22     1.0000 0.63832  0.72835  0.32947  Biso   1.000  Hf
  Hf23     1.0000 0.86603  0.77034  0.07811  Biso   1.000  Hf
  Hf24     1.0000 0.86119  0.97954  0.32762  Biso   1.000  Hf
  O33      1.0000 0.03462  0.66247  0.08118  Biso   1.000  O
  O34      1.0000 0.03087  0.58846  0.33151  Biso   1.000  O
  O35      1.0000 0.46994  0.89750  0.07175  Biso   1.000  O
  O36      1.0000 0.47122  0.84336  0.32642  Biso   1.000  O
  O37      1.0000 0.27511  0.62432  0.29732  Biso   1.000  O
  O38      1.0000 0.27752  0.62462  0.04667  Biso   1.000  O
  O39      1.0000 0.22358  0.87288  0.29651  Biso   1.000  O
  O40      1.0000 0.22453  0.87668  0.04617  Biso   1.000  O
  O41      1.0000 0.52874  0.65716  0.17534  Biso   1.000  O
  O42      1.0000 0.52929  0.59139  0.42345  Biso   1.000  O
  O43      1.0000 0.96786  0.91439  0.16841  Biso   1.000  O
  O44      1.0000 0.96743  0.84037  0.41873  Biso   1.000  O
  O45      1.0000 0.77594  0.62373  0.45385  Biso   1.000  O
  O46      1.0000 0.77747  0.62802  0.20387  Biso   1.000  O
  O47      1.0000 0.72375  0.87409  0.45531  Biso   1.000  O
  O48      1.0000 0.72847  0.87226  0.20730  Biso   1.000  O
  Hf25     1.0000 0.13872  0.52196  0.67173  Biso   1.000  Hf
  Hf26     1.0000 0.14029  0.72920  0.92216  Biso   1.000  Hf
  Hf27     1.0000 0.36233  0.77252  0.67290  Biso   1.000  Hf
  Hf28     1.0000 0.36312  0.98036  0.92462  Biso   1.000  Hf
  Hf29     1.0000 0.63885  0.52105  0.57748  Biso   1.000  Hf
  Hf30     1.0000 0.63934  0.72892  0.82615  Biso   1.000  Hf
  Hf31     1.0000 0.86150  0.77213  0.57825  Biso   1.000  Hf
  Hf32     1.0000 0.86303  0.97981  0.82807  Biso   1.000  Hf
  O49      1.0000 0.03164  0.66371  0.58073  Biso   1.000  O
  O50      1.0000 0.03250  0.58829  0.83024  Biso   1.000  O
  O51      1.0000 0.47155  0.90502  0.57625  Biso   1.000  O
  O52      1.0000 0.47511  0.84885  0.82449  Biso   1.000  O
  O53      1.0000 0.27677  0.62439  0.79656  Biso   1.000  O
  O54      1.0000 0.27524  0.62643  0.54653  Biso   1.000  O
  O55      1.0000 0.22645  0.87419  0.79710  Biso   1.000  O
  O56      1.0000 0.22467  0.87676  0.54658  Biso   1.000  O
  O57      1.0000 0.52935  0.65802  0.67323  Biso   1.000  O
  O58      1.0000 0.52933  0.59442  0.92299  Biso   1.000  O
  O59      1.0000 0.96956  0.91271  0.66869  Biso   1.000  O
  O60      1.0000 0.97059  0.83789  0.91913  Biso   1.000  O
  O61      1.0000 0.77832  0.62441  0.95237  Biso   1.000  O
  O62      1.0000 0.77630  0.62656  0.70343  Biso   1.000  O
  O63      1.0000 0.72706  0.87125  0.95403  Biso   1.000  O
  O64      1.0000 0.72616  0.87541  0.70508  Biso   1.000  O
  V1       1.0000 0.61544  0.25513  0.08054  Biso   1.000  V
