data_image0
_cell_length_a       9.91198
_cell_length_b       10.3398
_cell_length_c       4.97881
_cell_angle_alpha    90.1355
_cell_angle_beta     89.7385
_cell_angle_gamma    90.0847

_symmetry_space_group_name_H-M    "P 1"
_symmetry_int_tables_number       1

loop_
  _symmetry_equiv_pos_as_xyz
  'x, y, z'

loop_
  _atom_site_label
  _atom_site_occupancy
  _atom_site_fract_x
  _atom_site_fract_y
  _atom_site_fract_z
  _atom_site_thermal_displace_type
  _atom_site_B_iso_or_equiv
  _atom_site_type_symbol
  V1       1.0000 0.12856  0.02323  0.24791  Biso   1.000  V 
  Hf1      1.0000 0.13387  0.23087  0.75097  Biso   1.000  Hf
  Hf2      1.0000 0.36463  0.26453  0.24936  Biso   1.000  Hf
  Hf3      1.0000 0.36635  0.48380  0.75226  Biso   1.000  Hf
  Hf4      1.0000 0.03549  0.17766  0.39350  Biso   1.000  Hf
  Hf5      1.0000 0.03715  0.06505  0.92008  Biso   1.000  Hf
  Hf6      1.0000 0.46247  0.43446  0.38508  Biso   1.000  Hf
  Hf7      1.0000 0.46278  0.31545  0.88684  Biso   1.000  Hf
  Hf8      1.0000 0.26303  0.11082  0.48423  Biso   1.000  Hf
  Hf9      1.0000 0.26904  0.13159  0.99545  Biso   1.000  Hf
  Hf10     1.0000 0.22846  0.38176  0.99937  Biso   1.000  Hf
  Hf11     1.0000 0.22960  0.36521  0.50057  Biso   1.000  Hf
  Hf12     1.0000 0.13512  0.51612  0.25315  Biso   1.000  Hf
  Hf13     1.0000 0.13531  0.73522  0.75695  Biso   1.000  Hf
  Hf14     1.0000 0.36337  0.76928  0.25820  Biso   1.000  Hf
  Hf15     1.0000 0.36005  0.98309  0.75644  Biso   1.000  Hf
  Hf16     1.0000 0.03731  0.68437  0.38880  Biso   1.000  Hf
  Hf17     1.0000 0.03579  0.56547  0.89116  Biso   1.000  Hf
  Hf18     1.0000 0.46658  0.93317  0.39749  Biso   1.000  Hf
  Hf19     1.0000 0.46095  0.81703  0.89223  Biso   1.000  Hf
  Hf20     1.0000 0.27047  0.61707  0.50261  Biso   1.000  Hf
  Hf21     1.0000 0.27146  0.63316  0.00255  Biso   1.000  Hf
  Hf22     1.0000 0.22240  0.88769  0.02080  Biso   1.000  Hf
  Hf23     1.0000 0.23076  0.86666  0.51234  Biso   1.000  Hf
  Hf24     1.0000 0.63281  0.01573  0.24870  Biso   1.000  Hf
  Hf25     1.0000 0.63326  0.23285  0.75092  Biso   1.000  Hf
  Hf26     1.0000 0.86635  0.26526  0.25033  Biso   1.000  Hf
  Hf27     1.0000 0.86572  0.48383  0.75072  Biso   1.000  Hf
  Hf28     1.0000 0.53508  0.18411  0.38884  Biso   1.000  Hf
  Hf29     1.0000 0.53446  0.06616  0.88953  Biso   1.000  Hf
  Hf30     1.0000 0.96500  0.43165  0.38864  Biso   1.000  Hf
  Hf31     1.0000 0.96345  0.31396  0.88592  Biso   1.000  Hf
  Hf32     1.0000 0.77103  0.11643  0.49503  Biso   1.000  Hf
  Hf33     1.0000 0.77134  0.13226  0.99473  Biso   1.000  Hf
  Hf34     1.0000 0.72949  0.38227  0.99933  Biso   1.000  Hf
  Hf35     1.0000 0.72903  0.36716  0.49804  Biso   1.000  Hf
  Hf36     1.0000 0.63365  0.51735  0.25167  Biso   1.000  Hf
  Hf37     1.0000 0.63343  0.73592  0.74870  Biso   1.000  Hf
  Hf38     1.0000 0.87011  0.76635  0.24507  Biso   1.000  Hf
  Hf39     1.0000 0.86969  0.98616  0.74936  Biso   1.000  Hf
  Hf40     1.0000 0.53657  0.68572  0.38804  Biso   1.000  Hf
  Hf41     1.0000 0.53790  0.56634  0.88456  Biso   1.000  Hf
  Hf42     1.0000 0.97979  0.93751  0.37603  Biso   1.000  Hf
  Hf43     1.0000 0.96166  0.81611  0.87633  Biso   1.000  Hf
  Hf44     1.0000 0.77161  0.61768  0.49777  Biso   1.000  Hf
  Hf45     1.0000 0.77053  0.63434  0.99824  Biso   1.000  Hf
  Hf46     1.0000 0.73055  0.88475  0.99303  Biso   1.000  Hf
  Hf47     1.0000 0.73779  0.86837  0.49364  Biso   1.000  Hf
