data_image0
_cell_length_a       10.0977
_cell_length_b       10.2621
_cell_length_c       10.4431
_cell_angle_alpha    89.9822
_cell_angle_beta     80.1842
_cell_angle_gamma    89.9243

_symmetry_space_group_name_H-M    "P 1"
_symmetry_int_tables_number       1

loop_
  _symmetry_equiv_pos_as_xyz
  'x, y, z'

loop_
  _atom_site_label
  _atom_site_occupancy
  _atom_site_fract_x
  _atom_site_fract_y
  _atom_site_fract_z
  _atom_site_thermal_displace_type
  _atom_site_B_iso_or_equiv
  _atom_site_type_symbol
  W1       1.0000 0.14080  0.02299  0.14825  Biso   1.000  W
  Hf1      1.0000 0.14029  0.22929  0.39532  Biso   1.000  Hf
  Hf2      1.0000 0.36050  0.27141  0.10471  Biso   1.000  Hf
  Hf3      1.0000 0.36169  0.47926  0.35398  Biso   1.000  Hf
  O1       1.0000 0.03722  0.16497  0.08091  Biso   1.000  O
  O2       1.0000 0.04185  0.07852  0.32271  Biso   1.000  O
  O3       1.0000 0.46375  0.42021  0.16904  Biso   1.000  O
  O4       1.0000 0.46409  0.33068  0.41959  Biso   1.000  O
  O5       1.0000 0.27844  0.12683  0.24084  Biso   1.000  O
  O6       1.0000 0.27778  0.12125  0.49116  Biso   1.000  O
  O7       1.0000 0.22266  0.37866  0.00979  Biso   1.000  O
  O8       1.0000 0.22417  0.37094  0.25960  Biso   1.000  O
  Hf4      1.0000 0.13884  0.02112  0.64557  Biso   1.000  Hf
  Hf5      1.0000 0.13839  0.22739  0.89615  Biso   1.000  Hf
  Hf6      1.0000 0.36126  0.27163  0.60441  Biso   1.000  Hf
  Hf7      1.0000 0.36036  0.47865  0.85456  Biso   1.000  Hf
  O9       1.0000 0.03498  0.16690  0.57689  Biso   1.000  O
  O10      1.0000 0.03471  0.08148  0.82838  Biso   1.000  O
  O11      1.0000 0.46391  0.41995  0.66973  Biso   1.000  O
  O12      1.0000 0.46253  0.32919  0.91956  Biso   1.000  O
  O13      1.0000 0.27673  0.12901  0.74171  Biso   1.000  O
  O14      1.0000 0.27370  0.11882  0.99513  Biso   1.000  O
  O15      1.0000 0.22293  0.37882  0.50918  Biso   1.000  O
  O16      1.0000 0.22290  0.37057  0.75960  Biso   1.000  O
  Hf8      1.0000 0.13920  0.52166  0.14585  Biso   1.000  Hf
  Hf9      1.0000 0.13886  0.72877  0.39576  Biso   1.000  Hf
  Hf10     1.0000 0.35789  0.77576  0.10467  Biso   1.000  Hf
  Hf11     1.0000 0.36117  0.97823  0.35397  Biso   1.000  Hf
  O17      1.0000 0.03550  0.66782  0.07978  Biso   1.000  O
  O18      1.0000 0.03580  0.58040  0.33051  Biso   1.000  O
  O19      1.0000 0.46551  0.91881  0.17166  Biso   1.000  O
  O20      1.0000 0.46519  0.83050  0.42000  Biso   1.000  O
  O21      1.0000 0.27618  0.63118  0.24078  Biso   1.000  O
  O22      1.0000 0.27715  0.62091  0.49077  Biso   1.000  O
  O23      1.0000 0.21513  0.88126  0.01013  Biso   1.000  O
  O24      1.0000 0.21881  0.87408  0.25864  Biso   1.000  O
  Hf12     1.0000 0.13877  0.52138  0.64597  Biso   1.000  Hf
  Hf13     1.0000 0.13864  0.72860  0.89586  Biso   1.000  Hf
  Hf14     1.0000 0.36145  0.77129  0.60416  Biso   1.000  Hf
  Hf15     1.0000 0.35955  0.97881  0.85492  Biso   1.000  Hf
  O25      1.0000 0.03552  0.66896  0.57983  Biso   1.000  O
  O26      1.0000 0.03527  0.58043  0.83003  Biso   1.000  O
  O27      1.0000 0.46359  0.91967  0.67027  Biso   1.000  O
  O28      1.0000 0.46162  0.83151  0.92080  Biso   1.000  O
  O29      1.0000 0.27663  0.62891  0.74056  Biso   1.000  O
  O30      1.0000 0.27663  0.62166  0.99081  Biso   1.000  O
  O31      1.0000 0.22370  0.87868  0.50906  Biso   1.000  O
  O32      1.0000 0.22305  0.87083  0.75918  Biso   1.000  O
  Hf16     1.0000 0.63909  0.02195  0.14617  Biso   1.000  Hf
  Hf17     1.0000 0.63938  0.22870  0.39566  Biso   1.000  Hf
  Hf18     1.0000 0.86214  0.27072  0.10418  Biso   1.000  Hf
  Hf19     1.0000 0.86111  0.47843  0.35351  Biso   1.000  Hf
  O33      1.0000 0.53576  0.16977  0.08091  Biso   1.000  O
  O34      1.0000 0.53683  0.08045  0.33122  Biso   1.000  O
  O35      1.0000 0.96504  0.41850  0.16968  Biso   1.000  O
  O36      1.0000 0.96387  0.32899  0.41829  Biso   1.000  O
  O37      1.0000 0.77823  0.12884  0.24058  Biso   1.000  O
  O38      1.0000 0.77817  0.12014  0.48959  Biso   1.000  O
  O39      1.0000 0.72325  0.37925  0.00947  Biso   1.000  O
  O40      1.0000 0.72339  0.37068  0.25894  Biso   1.000  O
  Hf20     1.0000 0.63847  0.02122  0.64604  Biso   1.000  Hf
  Hf21     1.0000 0.63854  0.22854  0.89596  Biso   1.000  Hf
  Hf22     1.0000 0.86092  0.27111  0.60367  Biso   1.000  Hf
  Hf23     1.0000 0.86071  0.47839  0.85447  Biso   1.000  Hf
  O41      1.0000 0.53682  0.17031  0.58084  Biso   1.000  O
  O42      1.0000 0.53484  0.08043  0.83107  Biso   1.000  O
  O43      1.0000 0.96446  0.41800  0.66985  Biso   1.000  O
  O44      1.0000 0.96453  0.32993  0.92065  Biso   1.000  O
  O45      1.0000 0.77605  0.12901  0.74018  Biso   1.000  O
  O46      1.0000 0.77631  0.12121  0.99019  Biso   1.000  O
  O47      1.0000 0.72354  0.37908  0.50944  Biso   1.000  O
  O48      1.0000 0.72303  0.37089  0.75960  Biso   1.000  O
  Hf24     1.0000 0.63853  0.52268  0.14538  Biso   1.000  Hf
  Hf25     1.0000 0.63989  0.72859  0.39580  Biso   1.000  Hf
  Hf26     1.0000 0.86291  0.77282  0.10352  Biso   1.000  Hf
  Hf27     1.0000 0.86177  0.97863  0.35293  Biso   1.000  Hf
  O49      1.0000 0.53385  0.67072  0.08114  Biso   1.000  O
  O50      1.0000 0.53651  0.58045  0.33075  Biso   1.000  O
  O51      1.0000 0.97233  0.91939  0.16719  Biso   1.000  O
  O52      1.0000 0.96475  0.83207  0.41986  Biso   1.000  O
  O53      1.0000 0.77708  0.62954  0.24015  Biso   1.000  O
  O54      1.0000 0.77734  0.62085  0.49060  Biso   1.000  O
  O55      1.0000 0.72212  0.87952  0.00969  Biso   1.000  O
  O56      1.0000 0.72750  0.87178  0.25918  Biso   1.000  O
  Hf28     1.0000 0.63903  0.52144  0.64631  Biso   1.000  Hf
  Hf29     1.0000 0.63757  0.72877  0.89720  Biso   1.000  Hf
  Hf30     1.0000 0.86063  0.77143  0.60441  Biso   1.000  Hf
  Hf31     1.0000 0.86045  0.97846  0.85413  Biso   1.000  Hf
  O57      1.0000 0.53672  0.66977  0.58057  Biso   1.000  O
  O58      1.0000 0.53540  0.58045  0.83105  Biso   1.000  O
  O59      1.0000 0.96410  0.91886  0.66959  Biso   1.000  O
  O60      1.0000 0.96306  0.82996  0.91892  Biso   1.000  O
  O61      1.0000 0.77649  0.62901  0.74114  Biso   1.000  O
  O62      1.0000 0.77627  0.62150  0.99082  Biso   1.000  O
  O63      1.0000 0.72349  0.87926  0.50910  Biso   1.000  O
  O64      1.0000 0.72243  0.87085  0.75969  Biso   1.000  O
