data_image0
_cell_length_a       10.0895
_cell_length_b       5.1887
_cell_length_c       10.1082
_cell_angle_alpha    89.5337
_cell_angle_beta     91.0165
_cell_angle_gamma    92.2589

_symmetry_space_group_name_H-M    "P 1"
_symmetry_int_tables_number       1

loop_
  _symmetry_equiv_pos_as_xyz
  'x, y, z'

loop_
  _atom_site_label
  _atom_site_occupancy
  _atom_site_fract_x
  _atom_site_fract_y
  _atom_site_fract_z
  _atom_site_thermal_displace_type
  _atom_site_B_iso_or_equiv
  _atom_site_type_symbol
  Hf1      1.0000 0.12178  0.07611  0.12490  Biso   1.000  Hf
  Hf2      1.0000 0.13642  0.51395  0.39831  Biso   1.000  Hf
  Hf3      1.0000 0.39829  0.49722  0.11413  Biso   1.000  Hf
  Hf4      1.0000 0.37882  0.96739  0.39059  Biso   1.000  Hf
  Hf5      1.0000 0.99732  0.34025  0.00778  Biso   1.000  Hf
  Hf6      1.0000 0.00243  0.30799  0.25114  Biso   1.000  Hf
  Hf7      1.0000 0.97484  0.79229  0.21179  Biso   1.000  Hf
  Hf8      1.0000 0.03482  0.83470  0.97241  Biso   1.000  Hf
  Hf9      1.0000 0.24368  0.35724  0.24189  Biso   1.000  Hf
  Hf10     1.0000 0.23761  0.33862  0.00009  Biso   1.000  Hf
  Hf11     1.0000 0.27791  0.81874  0.03925  Biso   1.000  Hf
  Hf12     1.0000 0.21942  0.83908  0.27538  Biso   1.000  Hf
  Hf13     1.0000 0.12184  0.01918  0.62740  Biso   1.000  Hf
  Hf14     1.0000 0.11161  0.51054  0.84912  Biso   1.000  Hf
  Hf15     1.0000 0.39268  0.45538  0.61714  Biso   1.000  Hf
  Hf16     1.0000 0.38822  0.94618  0.87823  Biso   1.000  Hf
  Hf17     1.0000 0.01408  0.31578  0.52144  Biso   1.000  Hf
  Hf18     1.0000 0.99567  0.20849  0.75849  Biso   1.000  Hf
  Hf19     1.0000 0.98539  0.71667  0.72293  Biso   1.000  Hf
  Hf20     1.0000 0.02908  0.82695  0.47021  Biso   1.000  Hf
  Hf21     1.0000 0.23987  0.32392  0.72955  Biso   1.000  Hf
  Hf22     1.0000 0.25856  0.21960  0.48911  Biso   1.000  Hf
  Hf23     1.0000 0.27012  0.72173  0.52543  Biso   1.000  Hf
  Hf24     1.0000 0.22637  0.82872  0.77646  Biso   1.000  Hf
  Hf25     1.0000 0.61010  0.03812  0.13709  Biso   1.000  Hf
  Hf26     1.0000 0.61231  0.49864  0.35099  Biso   1.000  Hf
  Hf27     1.0000 0.84220  0.47226  0.13649  Biso   1.000  Hf
  Hf28     1.0000 0.86747  0.94910  0.37073  Biso   1.000  Hf
  Hf29     1.0000 0.48435  0.23561  0.99089  Biso   1.000  Hf
  Hf30     1.0000 0.47658  0.22514  0.25552  Biso   1.000  Hf
  Hf31     1.0000 0.48214  0.74496  0.25418  Biso   1.000  Hf
  Hf32     1.0000 0.52624  0.75407  0.99801  Biso   1.000  Hf
  Hf33     1.0000 0.74605  0.23280  0.27757  Biso   1.000  Hf
  Hf34     1.0000 0.75271  0.15661  0.00592  Biso   1.000  Hf
  Hf35     1.0000 0.78748  0.65730  0.97146  Biso   1.000  Hf
  Hf36     1.0000 0.73213  0.76046  0.23669  Biso   1.000  Hf
  Hf37     1.0000 0.61920  0.97872  0.63611  Biso   1.000  Hf
  Hf38     1.0000 0.63088  0.46487  0.89108  Biso   1.000  Hf
  Hf39     1.0000 0.85949  0.44644  0.62668  Biso   1.000  Hf
  Hf40     1.0000 0.86923  0.95830  0.86589  Biso   1.000  Hf
  Hf41     1.0000 0.51636  0.24449  0.49970  Biso   1.000  Hf
  Hf42     1.0000 0.49278  0.18798  0.74532  Biso   1.000  Hf
  Hf43     1.0000 0.48629  0.68966  0.75815  Biso   1.000  Hf
  Hf44     1.0000 0.51797  0.74123  0.49879  Biso   1.000  Hf
  Hf45     1.0000 0.74321  0.23931  0.76178  Biso   1.000  Hf
  Hf46     1.0000 0.77440  0.11298  0.52895  Biso   1.000  Hf
  Hf47     1.0000 0.77752  0.62564  0.46815  Biso   1.000  Hf
  Hf48     1.0000 0.73787  0.73281  0.73764  Biso   1.000  Hf
  W1       1.0000 0.12315  0.57952  0.12369  Biso   1.000  W 
