data_image0
_cell_length_a       10.1546
_cell_length_b       10.28
_cell_length_c       10.462
_cell_angle_alpha    90.0201
_cell_angle_beta     80.2444
_cell_angle_gamma    90.0689

_symmetry_space_group_name_H-M    "P 1"
_symmetry_int_tables_number       1

loop_
  _symmetry_equiv_pos_as_xyz
  'x, y, z'

loop_
  _atom_site_label
  _atom_site_occupancy
  _atom_site_fract_x
  _atom_site_fract_y
  _atom_site_fract_z
  _atom_site_thermal_displace_type
  _atom_site_B_iso_or_equiv
  _atom_site_type_symbol
  Y1       1.0000 0.13940  0.01786  0.14508  Biso   1.000  Y
  Hf1      1.0000 0.13929  0.22787  0.39639  Biso   1.000  Hf
  Hf2      1.0000 0.35990  0.26936  0.10432  Biso   1.000  Hf
  Hf3      1.0000 0.35994  0.47773  0.35344  Biso   1.000  Hf
  O1       1.0000 0.03390  0.17834  0.07682  Biso   1.000  O
  O2       1.0000 0.02922  0.08404  0.33976  Biso   1.000  O
  O3       1.0000 0.46488  0.41651  0.17105  Biso   1.000  O
  O4       1.0000 0.46464  0.33178  0.42077  Biso   1.000  O
  O5       1.0000 0.28210  0.13330  0.24661  Biso   1.000  O
  O6       1.0000 0.27558  0.12050  0.49253  Biso   1.000  O
  O7       1.0000 0.22430  0.37925  0.00890  Biso   1.000  O
  O8       1.0000 0.22164  0.37162  0.25901  Biso   1.000  O
  Hf4      1.0000 0.13934  0.02142  0.64610  Biso   1.000  Hf
  Hf5      1.0000 0.13861  0.22957  0.89616  Biso   1.000  Hf
  Hf6      1.0000 0.36042  0.27084  0.60428  Biso   1.000  Hf
  Hf7      1.0000 0.36147  0.47817  0.85424  Biso   1.000  Hf
  O9       1.0000 0.03590  0.17115  0.58333  Biso   1.000  O
  O10      1.0000 0.03583  0.08035  0.83117  Biso   1.000  O
  O11      1.0000 0.46544  0.41741  0.67053  Biso   1.000  O
  O12      1.0000 0.46689  0.33373  0.92084  Biso   1.000  O
  O13      1.0000 0.27604  0.12875  0.73973  Biso   1.000  O
  O14      1.0000 0.28221  0.12535  0.98448  Biso   1.000  O
  O15      1.0000 0.22393  0.37909  0.50956  Biso   1.000  O
  O16      1.0000 0.22416  0.37182  0.75908  Biso   1.000  O
  Hf8      1.0000 0.13918  0.52079  0.14506  Biso   1.000  Hf
  Hf9      1.0000 0.14010  0.72780  0.39585  Biso   1.000  Hf
  Hf10     1.0000 0.36275  0.76995  0.10352  Biso   1.000  Hf
  Hf11     1.0000 0.36081  0.97927  0.35427  Biso   1.000  Hf
  O17      1.0000 0.03536  0.66885  0.07950  Biso   1.000  O
  O18      1.0000 0.03456  0.58242  0.32929  Biso   1.000  O
  O19      1.0000 0.46524  0.91889  0.16956  Biso   1.000  O
  O20      1.0000 0.46462  0.83203  0.42173  Biso   1.000  O
  O21      1.0000 0.27652  0.62576  0.23945  Biso   1.000  O
  O22      1.0000 0.27615  0.62078  0.49036  Biso   1.000  O
  O23      1.0000 0.23184  0.87124  0.00226  Biso   1.000  O
  O24      1.0000 0.23079  0.86431  0.26242  Biso   1.000  O
  Hf12     1.0000 0.13919  0.52127  0.64605  Biso   1.000  Hf
  Hf13     1.0000 0.14019  0.72910  0.89562  Biso   1.000  Hf
  Hf14     1.0000 0.36059  0.77178  0.60406  Biso   1.000  Hf
  Hf15     1.0000 0.36158  0.97876  0.85399  Biso   1.000  Hf
  O25      1.0000 0.03536  0.66853  0.58038  Biso   1.000  O
  O26      1.0000 0.03511  0.58133  0.82943  Biso   1.000  O
  O27      1.0000 0.46586  0.91743  0.67068  Biso   1.000  O
  O28      1.0000 0.47027  0.83409  0.92049  Biso   1.000  O
  O29      1.0000 0.27640  0.62921  0.74048  Biso   1.000  O
  O30      1.0000 0.27680  0.61922  0.99021  Biso   1.000  O
  O31      1.0000 0.22342  0.87898  0.51020  Biso   1.000  O
  O32      1.0000 0.22378  0.87151  0.75796  Biso   1.000  O
  Hf16     1.0000 0.63939  0.02069  0.14622  Biso   1.000  Hf
  Hf17     1.0000 0.63861  0.22879  0.39600  Biso   1.000  Hf
  Hf18     1.0000 0.86069  0.27165  0.10295  Biso   1.000  Hf
  Hf19     1.0000 0.86055  0.47896  0.35403  Biso   1.000  Hf
  O33      1.0000 0.53557  0.16803  0.07936  Biso   1.000  O
  O34      1.0000 0.53584  0.08134  0.33017  Biso   1.000  O
  O35      1.0000 0.96277  0.42101  0.16953  Biso   1.000  O
  O36      1.0000 0.96503  0.33334  0.42072  Biso   1.000  O
  O37      1.0000 0.77554  0.12964  0.24092  Biso   1.000  O
  O38      1.0000 0.77424  0.12216  0.49183  Biso   1.000  O
  O39      1.0000 0.72300  0.37913  0.00883  Biso   1.000  O
  O40      1.0000 0.72294  0.37150  0.26008  Biso   1.000  O
  Hf20     1.0000 0.63944  0.02170  0.64607  Biso   1.000  Hf
  Hf21     1.0000 0.63919  0.22888  0.89610  Biso   1.000  Hf
  Hf22     1.0000 0.86102  0.27146  0.60399  Biso   1.000  Hf
  Hf23     1.0000 0.86050  0.47929  0.85317  Biso   1.000  Hf
  O41      1.0000 0.53404  0.16762  0.57980  Biso   1.000  O
  O42      1.0000 0.53626  0.08228  0.82879  Biso   1.000  O
  O43      1.0000 0.96430  0.42007  0.66866  Biso   1.000  O
  O44      1.0000 0.96340  0.33272  0.91677  Biso   1.000  O
  O45      1.0000 0.77710  0.12902  0.74068  Biso   1.000  O
  O46      1.0000 0.77613  0.12082  0.99037  Biso   1.000  O
  O47      1.0000 0.72344  0.37929  0.50932  Biso   1.000  O
  O48      1.0000 0.72380  0.37107  0.75869  Biso   1.000  O
  Hf24     1.0000 0.63856  0.51991  0.14586  Biso   1.000  Hf
  Hf25     1.0000 0.63765  0.72839  0.39592  Biso   1.000  Hf
  Hf26     1.0000 0.85876  0.77001  0.10460  Biso   1.000  Hf
  Hf27     1.0000 0.85940  0.97847  0.35482  Biso   1.000  Hf
  O49      1.0000 0.53593  0.66669  0.07864  Biso   1.000  O
  O50      1.0000 0.53362  0.58193  0.32903  Biso   1.000  O
  O51      1.0000 0.95233  0.91593  0.17428  Biso   1.000  O
  O52      1.0000 0.96566  0.83155  0.42050  Biso   1.000  O
  O53      1.0000 0.77495  0.62830  0.24066  Biso   1.000  O
  O54      1.0000 0.77585  0.62143  0.49016  Biso   1.000  O
  O55      1.0000 0.72432  0.87852  0.00908  Biso   1.000  O
  O56      1.0000 0.71636  0.86985  0.26094  Biso   1.000  O
  Hf28     1.0000 0.63891  0.52134  0.64539  Biso   1.000  Hf
  Hf29     1.0000 0.64017  0.72873  0.89513  Biso   1.000  Hf
  Hf30     1.0000 0.86151  0.77153  0.60365  Biso   1.000  Hf
  Hf31     1.0000 0.86137  0.97857  0.85453  Biso   1.000  Hf
  O57      1.0000 0.53414  0.66734  0.57966  Biso   1.000  O
  O58      1.0000 0.53512  0.58258  0.82870  Biso   1.000  O
  O59      1.0000 0.96480  0.91881  0.67013  Biso   1.000  O
  O60      1.0000 0.96538  0.83154  0.92035  Biso   1.000  O
  O61      1.0000 0.77623  0.62917  0.73936  Biso   1.000  O
  O62      1.0000 0.77578  0.61995  0.98969  Biso   1.000  O
  O63      1.0000 0.72397  0.87872  0.50987  Biso   1.000  O
  O64      1.0000 0.72492  0.87118  0.75901  Biso   1.000  O
