data_image0
_cell_length_a       5.11636
_cell_length_b       10.3978
_cell_length_c       10.1329
_cell_angle_alpha    90.108
_cell_angle_beta     90.1952
_cell_angle_gamma    93.6303

_symmetry_space_group_name_H-M    "P 1"
_symmetry_int_tables_number       1

loop_
  _symmetry_equiv_pos_as_xyz
  'x, y, z'

loop_
  _atom_site_label
  _atom_site_occupancy
  _atom_site_fract_x
  _atom_site_fract_y
  _atom_site_fract_z
  _atom_site_thermal_displace_type
  _atom_site_B_iso_or_equiv
  _atom_site_type_symbol
  Hf1      1.0000 0.27121  0.97530  0.08278  Biso   1.000  Hf
  Hf2      1.0000 0.23008  0.23413  0.38928  Biso   1.000  Hf
  Hf3      1.0000 0.68019  0.26820  0.11772  Biso   1.000  Hf
  Hf4      1.0000 0.74763  0.48432  0.36918  Biso   1.000  Hf
  Hf5      1.0000 0.89959  0.18315  0.26430  Biso   1.000  Hf
  Hf6      1.0000 0.03178  0.06982  0.46631  Biso   1.000  Hf
  Hf7      1.0000 0.94082  0.42753  0.19692  Biso   1.000  Hf
  Hf8      1.0000 0.93930  0.33424  0.46919  Biso   1.000  Hf
  Hf9      1.0000 0.41863  0.11521  0.23152  Biso   1.000  Hf
  Hf10     1.0000 0.52000  0.13363  0.48578  Biso   1.000  Hf
  Hf11     1.0000 0.46321  0.38670  0.49631  Biso   1.000  Hf
  Hf12     1.0000 0.44420  0.37303  0.25010  Biso   1.000  Hf
  Hf13     1.0000 0.26838  0.97813  0.58988  Biso   1.000  Hf
  Hf14     1.0000 0.21170  0.24475  0.83736  Biso   1.000  Hf
  Hf15     1.0000 0.70306  0.26674  0.61735  Biso   1.000  Hf
  Hf16     1.0000 0.74796  0.48537  0.87808  Biso   1.000  Hf
  Hf17     1.0000 0.93044  0.15898  0.72506  Biso   1.000  Hf
  Hf18     1.0000 0.00804  0.08109  0.96863  Biso   1.000  Hf
  Hf19     1.0000 0.98310  0.40893  0.71952  Biso   1.000  Hf
  Hf20     1.0000 0.90801  0.32235  0.95060  Biso   1.000  Hf
  Hf21     1.0000 0.43709  0.11207  0.72945  Biso   1.000  Hf
  Hf22     1.0000 0.48090  0.13971  0.97924  Biso   1.000  Hf
  Hf23     1.0000 0.44925  0.39553  0.99519  Biso   1.000  Hf
  Hf24     1.0000 0.48304  0.36869  0.74329  Biso   1.000  Hf
  Hf25     1.0000 0.27930  0.53202  0.12593  Biso   1.000  Hf
  Hf26     1.0000 0.31517  0.73437  0.37641  Biso   1.000  Hf
  Hf27     1.0000 0.77622  0.76933  0.12688  Biso   1.000  Hf
  Hf28     1.0000 0.71385  0.01934  0.33722  Biso   1.000  Hf
  Hf29     1.0000 0.08094  0.68079  0.21427  Biso   1.000  Hf
  Hf30     1.0000 0.08340  0.57240  0.45160  Biso   1.000  Hf
  Hf31     1.0000 0.96592  0.93195  0.21261  Biso   1.000  Hf
  Hf32     1.0000 0.06205  0.82121  0.49346  Biso   1.000  Hf
  Hf33     1.0000 0.56884  0.62259  0.24914  Biso   1.000  Hf
  Hf34     1.0000 0.56717  0.63429  0.49716  Biso   1.000  Hf
  Hf35     1.0000 0.55419  0.88553  0.48193  Biso   1.000  Hf
  Hf36     1.0000 0.48500  0.86579  0.23202  Biso   1.000  Hf
  Hf37     1.0000 0.27367  0.51531  0.62190  Biso   1.000  Hf
  Hf38     1.0000 0.30957  0.73140  0.87045  Biso   1.000  Hf
  Hf39     1.0000 0.77540  0.76303  0.62727  Biso   1.000  Hf
  Hf40     1.0000 0.72088  0.01778  0.83919  Biso   1.000  Hf
  Hf41     1.0000 0.07484  0.66598  0.71031  Biso   1.000  Hf
  Hf42     1.0000 0.07976  0.57507  0.95556  Biso   1.000  Hf
  Hf43     1.0000 0.97372  0.91836  0.72243  Biso   1.000  Hf
  Hf44     1.0000 0.06255  0.82315  0.98796  Biso   1.000  Hf
  Hf45     1.0000 0.55575  0.61173  0.74618  Biso   1.000  Hf
  Hf46     1.0000 0.56853  0.64036  0.99561  Biso   1.000  Hf
  Hf47     1.0000 0.55876  0.88567  0.97858  Biso   1.000  Hf
  Hf48     1.0000 0.48795  0.86047  0.73114  Biso   1.000  Hf
  Y1       1.0000 0.18010  0.25144  0.10914  Biso   1.000  Y 
