data_image0
_cell_length_a       5.13624
_cell_length_b       10.3202
_cell_length_c       10.0821
_cell_angle_alpha    88.5884
_cell_angle_beta     89.8757
_cell_angle_gamma    93.1462

_symmetry_space_group_name_H-M    "P 1"
_symmetry_int_tables_number       1

loop_
  _symmetry_equiv_pos_as_xyz
  'x, y, z'

loop_
  _atom_site_label
  _atom_site_occupancy
  _atom_site_fract_x
  _atom_site_fract_y
  _atom_site_fract_z
  _atom_site_thermal_displace_type
  _atom_site_B_iso_or_equiv
  _atom_site_type_symbol
  Hf1      1.0000 0.26422  0.96436  0.13867  Biso   1.000  Hf
  Hf2      1.0000 0.28971  0.26031  0.41032  Biso   1.000  Hf
  Hf3      1.0000 0.71007  0.24087  0.13130  Biso   1.000  Hf
  Hf4      1.0000 0.71888  0.00668  0.37855  Biso   1.000  Hf
  Hf5      1.0000 0.93164  0.17597  0.96802  Biso   1.000  Hf
  Hf6      1.0000 0.93409  0.06670  0.21327  Biso   1.000  Hf
  Hf7      1.0000 0.93644  0.31126  0.29357  Biso   1.000  Hf
  Hf8      1.0000 0.97329  0.40891  0.04193  Biso   1.000  Hf
  Hf9      1.0000 0.44353  0.11833  0.26659  Biso   1.000  Hf
  Hf10     1.0000 0.44604  0.10916  0.00580  Biso   1.000  Hf
  Hf11     1.0000 0.48098  0.36598  0.00183  Biso   1.000  Hf
  Hf12     1.0000 0.47359  0.37995  0.25478  Biso   1.000  Hf
  Hf13     1.0000 0.21100  0.98531  0.60669  Biso   1.000  Hf
  Hf14     1.0000 0.26395  0.25682  0.84885  Biso   1.000  Hf
  Hf15     1.0000 0.80616  0.24332  0.61900  Biso   1.000  Hf
  Hf16     1.0000 0.72841  0.02382  0.87906  Biso   1.000  Hf
  Hf17     1.0000 0.00491  0.12925  0.48688  Biso   1.000  Hf
  Hf18     1.0000 0.04163  0.11281  0.73749  Biso   1.000  Hf
  Hf19     1.0000 0.98313  0.37025  0.76075  Biso   1.000  Hf
  Hf20     1.0000 0.07130  0.38916  0.51358  Biso   1.000  Hf
  Hf21     1.0000 0.56974  0.17873  0.76607  Biso   1.000  Hf
  Hf22     1.0000 0.50759  0.11023  0.51808  Biso   1.000  Hf
  Hf23     1.0000 0.58092  0.35638  0.50814  Biso   1.000  Hf
  Hf24     1.0000 0.46933  0.42946  0.76446  Biso   1.000  Hf
  Hf25     1.0000 0.29875  0.52179  0.11029  Biso   1.000  Hf
  Hf26     1.0000 0.30222  0.71814  0.36154  Biso   1.000  Hf
  Hf27     1.0000 0.76278  0.75877  0.10267  Biso   1.000  Hf
  Hf28     1.0000 0.78105  0.48139  0.37124  Biso   1.000  Hf
  Hf29     1.0000 0.05288  0.65486  0.00706  Biso   1.000  Hf
  Hf30     1.0000 0.09834  0.56293  0.27271  Biso   1.000  Hf
  Hf31     1.0000 0.05974  0.81091  0.23142  Biso   1.000  Hf
  Hf32     1.0000 0.99536  0.90747  0.98879  Biso   1.000  Hf
  Hf33     1.0000 0.58647  0.62766  0.24289  Biso   1.000  Hf
  Hf34     1.0000 0.55460  0.62363  0.98250  Biso   1.000  Hf
  Hf35     1.0000 0.49639  0.86493  0.99799  Biso   1.000  Hf
  Hf36     1.0000 0.54564  0.86966  0.25021  Biso   1.000  Hf
  Hf37     1.0000 0.22665  0.52539  0.64435  Biso   1.000  Hf
  Hf38     1.0000 0.22596  0.77898  0.85846  Biso   1.000  Hf
  Hf39     1.0000 0.74769  0.74290  0.60403  Biso   1.000  Hf
  Hf40     1.0000 0.76602  0.48935  0.89162  Biso   1.000  Hf
  Hf41     1.0000 0.00721  0.63945  0.49877  Biso   1.000  Hf
  Hf42     1.0000 0.94742  0.61826  0.75222  Biso   1.000  Hf
  Hf43     1.0000 0.95488  0.86341  0.73677  Biso   1.000  Hf
  Hf44     1.0000 0.94959  0.88678  0.48597  Biso   1.000  Hf
  Hf45     1.0000 0.43227  0.68678  0.72369  Biso   1.000  Hf
  Hf46     1.0000 0.51079  0.59719  0.49455  Biso   1.000  Hf
  Hf47     1.0000 0.45730  0.85526  0.50094  Biso   1.000  Hf
  Hf48     1.0000 0.44110  0.93525  0.76162  Biso   1.000  Hf
  Y1       1.0000 0.20389  0.24231  0.13205  Biso   1.000  Y 
