data_image0
_cell_length_a       10.1377
_cell_length_b       10.2803
_cell_length_c       10.4548
_cell_angle_alpha    90.007
_cell_angle_beta     80.2782
_cell_angle_gamma    90.0167

_symmetry_space_group_name_H-M    "P 1"
_symmetry_int_tables_number       1

loop_
  _symmetry_equiv_pos_as_xyz
  'x, y, z'

loop_
  _atom_site_label
  _atom_site_occupancy
  _atom_site_fract_x
  _atom_site_fract_y
  _atom_site_fract_z
  _atom_site_thermal_displace_type
  _atom_site_B_iso_or_equiv
  _atom_site_type_symbol
  Yb1      1.0000 0.13847  0.01733  0.14822  Biso   1.000  Yb
  Hf1      1.0000 0.13991  0.22895  0.39630  Biso   1.000  Hf
  Hf2      1.0000 0.35978  0.26940  0.10420  Biso   1.000  Hf
  Hf3      1.0000 0.36061  0.47784  0.35351  Biso   1.000  Hf
  O1       1.0000 0.03495  0.17625  0.07850  Biso   1.000  O
  O2       1.0000 0.03076  0.08394  0.33747  Biso   1.000  O
  O3       1.0000 0.46391  0.41796  0.17017  Biso   1.000  O
  O4       1.0000 0.46380  0.33044  0.42006  Biso   1.000  O
  O5       1.0000 0.28152  0.13258  0.24644  Biso   1.000  O
  O6       1.0000 0.27599  0.12050  0.49261  Biso   1.000  O
  O7       1.0000 0.22384  0.37973  0.00915  Biso   1.000  O
  O8       1.0000 0.22189  0.37156  0.25905  Biso   1.000  O
  Hf4      1.0000 0.13967  0.02094  0.64614  Biso   1.000  Hf
  Hf5      1.0000 0.13962  0.22880  0.89647  Biso   1.000  Hf
  Hf6      1.0000 0.36101  0.27113  0.60449  Biso   1.000  Hf
  Hf7      1.0000 0.36175  0.47826  0.85432  Biso   1.000  Hf
  O9       1.0000 0.03516  0.16931  0.58134  Biso   1.000  O
  O10      1.0000 0.03533  0.08124  0.83047  Biso   1.000  O
  O11      1.0000 0.46452  0.41895  0.66984  Biso   1.000  O
  O12      1.0000 0.46568  0.33225  0.92008  Biso   1.000  O
  O13      1.0000 0.27615  0.12888  0.74009  Biso   1.000  O
  O14      1.0000 0.28174  0.12505  0.98583  Biso   1.000  O
  O15      1.0000 0.22359  0.37898  0.50976  Biso   1.000  O
  O16      1.0000 0.22393  0.37148  0.75947  Biso   1.000  O
  Hf8      1.0000 0.13917  0.52140  0.14525  Biso   1.000  Hf
  Hf9      1.0000 0.13967  0.72765  0.39597  Biso   1.000  Hf
  Hf10     1.0000 0.36262  0.77096  0.10368  Biso   1.000  Hf
  Hf11     1.0000 0.36121  0.97903  0.35442  Biso   1.000  Hf
  O17      1.0000 0.03518  0.66932  0.07976  Biso   1.000  O
  O18      1.0000 0.03487  0.58202  0.32934  Biso   1.000  O
  O19      1.0000 0.46473  0.91970  0.16954  Biso   1.000  O
  O20      1.0000 0.46423  0.83073  0.42077  Biso   1.000  O
  O21      1.0000 0.27667  0.62701  0.23992  Biso   1.000  O
  O22      1.0000 0.27631  0.62056  0.49063  Biso   1.000  O
  O23      1.0000 0.22966  0.87388  0.00413  Biso   1.000  O
  O24      1.0000 0.22905  0.86577  0.26172  Biso   1.000  O
  Hf12     1.0000 0.13959  0.52138  0.64621  Biso   1.000  Hf
  Hf13     1.0000 0.14011  0.72935  0.89579  Biso   1.000  Hf
  Hf14     1.0000 0.36117  0.77187  0.60418  Biso   1.000  Hf
  Hf15     1.0000 0.36135  0.97906  0.85474  Biso   1.000  Hf
  O25      1.0000 0.03514  0.66830  0.58004  Biso   1.000  O
  O26      1.0000 0.03511  0.58182  0.82953  Biso   1.000  O
  O27      1.0000 0.46460  0.91897  0.67009  Biso   1.000  O
  O28      1.0000 0.46797  0.83234  0.91981  Biso   1.000  O
  O29      1.0000 0.27649  0.62941  0.74063  Biso   1.000  O
  O30      1.0000 0.27676  0.62009  0.99039  Biso   1.000  O
  O31      1.0000 0.22336  0.87886  0.50997  Biso   1.000  O
  O32      1.0000 0.22347  0.87147  0.75851  Biso   1.000  O
  Hf16     1.0000 0.63866  0.02118  0.14574  Biso   1.000  Hf
  Hf17     1.0000 0.63822  0.22882  0.39584  Biso   1.000  Hf
  Hf18     1.0000 0.86009  0.27146  0.10330  Biso   1.000  Hf
  Hf19     1.0000 0.86096  0.47877  0.35393  Biso   1.000  Hf
  O33      1.0000 0.53624  0.16935  0.08005  Biso   1.000  O
  O34      1.0000 0.53671  0.08011  0.33072  Biso   1.000  O
  O35      1.0000 0.96364  0.41994  0.16930  Biso   1.000  O
  O36      1.0000 0.96484  0.33291  0.42071  Biso   1.000  O
  O37      1.0000 0.77606  0.12922  0.24065  Biso   1.000  O
  O38      1.0000 0.77530  0.12147  0.49096  Biso   1.000  O
  O39      1.0000 0.72316  0.37926  0.00875  Biso   1.000  O
  O40      1.0000 0.72316  0.37095  0.25958  Biso   1.000  O
  Hf20     1.0000 0.63864  0.02155  0.64613  Biso   1.000  Hf
  Hf21     1.0000 0.63853  0.22876  0.89582  Biso   1.000  Hf
  Hf22     1.0000 0.86064  0.27164  0.60376  Biso   1.000  Hf
  Hf23     1.0000 0.86072  0.47886  0.85350  Biso   1.000  Hf
  O41      1.0000 0.53551  0.16924  0.58044  Biso   1.000  O
  O42      1.0000 0.53686  0.08075  0.82979  Biso   1.000  O
  O43      1.0000 0.96506  0.41859  0.66977  Biso   1.000  O
  O44      1.0000 0.96427  0.33238  0.91847  Biso   1.000  O
  O45      1.0000 0.77696  0.12906  0.74024  Biso   1.000  O
  O46      1.0000 0.77649  0.12105  0.99023  Biso   1.000  O
  O47      1.0000 0.72327  0.37925  0.50916  Biso   1.000  O
  O48      1.0000 0.72383  0.37101  0.75875  Biso   1.000  O
  Hf24     1.0000 0.63776  0.52018  0.14573  Biso   1.000  Hf
  Hf25     1.0000 0.63758  0.72782  0.39590  Biso   1.000  Hf
  Hf26     1.0000 0.85842  0.76959  0.10382  Biso   1.000  Hf
  Hf27     1.0000 0.85864  0.97850  0.35457  Biso   1.000  Hf
  O49      1.0000 0.53656  0.66842  0.07946  Biso   1.000  O
  O50      1.0000 0.53475  0.58042  0.32987  Biso   1.000  O
  O51      1.0000 0.95499  0.91743  0.17115  Biso   1.000  O
  O52      1.0000 0.96530  0.83188  0.41968  Biso   1.000  O
  O53      1.0000 0.77532  0.62814  0.24031  Biso   1.000  O
  O54      1.0000 0.77630  0.62116  0.49008  Biso   1.000  O
  O55      1.0000 0.72362  0.87890  0.00884  Biso   1.000  O
  O56      1.0000 0.71898  0.86988  0.26041  Biso   1.000  O
  Hf28     1.0000 0.63860  0.52141  0.64554  Biso   1.000  Hf
  Hf29     1.0000 0.63929  0.72858  0.89502  Biso   1.000  Hf
  Hf30     1.0000 0.86108  0.77147  0.60351  Biso   1.000  Hf
  Hf31     1.0000 0.86090  0.97880  0.85417  Biso   1.000  Hf
  O57      1.0000 0.53533  0.66878  0.58023  Biso   1.000  O
  O58      1.0000 0.53593  0.58124  0.82944  Biso   1.000  O
  O59      1.0000 0.96493  0.91839  0.67025  Biso   1.000  O
  O60      1.0000 0.96487  0.83167  0.92023  Biso   1.000  O
  O61      1.0000 0.77674  0.62903  0.73941  Biso   1.000  O
  O62      1.0000 0.77612  0.62017  0.98965  Biso   1.000  O
  O63      1.0000 0.72363  0.87894  0.50940  Biso   1.000  O
  O64      1.0000 0.72447  0.87090  0.75876  Biso   1.000  O
