data_image0
_cell_length_a       5.08047
_cell_length_b       10.2865
_cell_length_c       10.4714
_cell_angle_alpha    90.008
_cell_angle_beta     80.1952
_cell_angle_gamma    90.0326

_symmetry_space_group_name_H-M    "P 1"
_symmetry_int_tables_number       1

loop_
  _symmetry_equiv_pos_as_xyz
  'x, y, z'

loop_
  _atom_site_label
  _atom_site_occupancy
  _atom_site_fract_x
  _atom_site_fract_y
  _atom_site_fract_z
  _atom_site_thermal_displace_type
  _atom_site_B_iso_or_equiv
  _atom_site_type_symbol
  Yb1      1.0000 0.27656  0.01749  0.14812  Biso   1.000  Yb
  Hf1      1.0000 0.27889  0.22941  0.39655  Biso   1.000  Hf
  Hf2      1.0000 0.71734  0.26972  0.10328  Biso   1.000  Hf
  Hf3      1.0000 0.72101  0.47794  0.35331  Biso   1.000  Hf
  O1       1.0000 0.06933  0.17571  0.07784  Biso   1.000  O
  O2       1.0000 0.06407  0.08338  0.33774  Biso   1.000  O
  O3       1.0000 0.92690  0.41825  0.16997  Biso   1.000  O
  O4       1.0000 0.92927  0.33266  0.42111  Biso   1.000  O
  O5       1.0000 0.56190  0.13290  0.24655  Biso   1.000  O
  O6       1.0000 0.54993  0.12097  0.49296  Biso   1.000  O
  O7       1.0000 0.44680  0.37974  0.00853  Biso   1.000  O
  O8       1.0000 0.44317  0.37176  0.25924  Biso   1.000  O
  Hf4      1.0000 0.27872  0.02117  0.64648  Biso   1.000  Hf
  Hf5      1.0000 0.27847  0.22891  0.89613  Biso   1.000  Hf
  Hf6      1.0000 0.72153  0.27136  0.60417  Biso   1.000  Hf
  Hf7      1.0000 0.72269  0.47853  0.85356  Biso   1.000  Hf
  O9       1.0000 0.06992  0.16919  0.58154  Biso   1.000  O
  O10      1.0000 0.07235  0.08156  0.82974  Biso   1.000  O
  O11      1.0000 0.93098  0.41808  0.67003  Biso   1.000  O
  O12      1.0000 0.93174  0.33426  0.91896  Biso   1.000  O
  O13      1.0000 0.55296  0.12882  0.73975  Biso   1.000  O
  O14      1.0000 0.56267  0.12526  0.98550  Biso   1.000  O
  O15      1.0000 0.44723  0.37906  0.50951  Biso   1.000  O
  O16      1.0000 0.44875  0.37162  0.75877  Biso   1.000  O
  Hf8      1.0000 0.27595  0.52021  0.14515  Biso   1.000  Hf
  Hf9      1.0000 0.27666  0.72662  0.39619  Biso   1.000  Hf
  Hf10     1.0000 0.71971  0.76892  0.10319  Biso   1.000  Hf
  Hf11     1.0000 0.71766  0.97890  0.35525  Biso   1.000  Hf
  O17      1.0000 0.07125  0.66801  0.07862  Biso   1.000  O
  O18      1.0000 0.06721  0.58199  0.32875  Biso   1.000  O
  O19      1.0000 0.91148  0.91740  0.17109  Biso   1.000  O
  O20      1.0000 0.93138  0.83227  0.42085  Biso   1.000  O
  O21      1.0000 0.55042  0.62620  0.23969  Biso   1.000  O
  O22      1.0000 0.55201  0.62080  0.49013  Biso   1.000  O
  O23      1.0000 0.45936  0.87346  0.00362  Biso   1.000  O
  O24      1.0000 0.45019  0.86529  0.26262  Biso   1.000  O
  Hf12     1.0000 0.27860  0.52143  0.64594  Biso   1.000  Hf
  Hf13     1.0000 0.28083  0.72924  0.89496  Biso   1.000  Hf
  Hf14     1.0000 0.72229  0.77200  0.60361  Biso   1.000  Hf
  Hf15     1.0000 0.72221  0.97916  0.85475  Biso   1.000  Hf
  O25      1.0000 0.06907  0.66748  0.57963  Biso   1.000  O
  O26      1.0000 0.07005  0.58270  0.82836  Biso   1.000  O
  O27      1.0000 0.93097  0.91772  0.67089  Biso   1.000  O
  O28      1.0000 0.93744  0.83362  0.92057  Biso   1.000  O
  O29      1.0000 0.55320  0.62937  0.73946  Biso   1.000  O
  O30      1.0000 0.55235  0.61931  0.98951  Biso   1.000  O
  O31      1.0000 0.44747  0.87866  0.50996  Biso   1.000  O
  O32      1.0000 0.44907  0.87151  0.75787  Biso   1.000  O
