data_image0
_cell_length_a       10.1193
_cell_length_b       10.4098
_cell_length_c       5.10115
_cell_angle_alpha    93.6895
_cell_angle_beta     89.6846
_cell_angle_gamma    89.9719

_symmetry_space_group_name_H-M    "P 1"
_symmetry_int_tables_number       1

loop_
  _symmetry_equiv_pos_as_xyz
  'x, y, z'

loop_
  _atom_site_label
  _atom_site_occupancy
  _atom_site_fract_x
  _atom_site_fract_y
  _atom_site_fract_z
  _atom_site_thermal_displace_type
  _atom_site_B_iso_or_equiv
  _atom_site_type_symbol
  Hf1      1.0000 0.15054  0.97404  0.27313  Biso   1.000  Hf
  Hf2      1.0000 0.11434  0.26758  0.67497  Biso   1.000  Hf
  Hf3      1.0000 0.39106  0.24361  0.21309  Biso   1.000  Hf
  Hf4      1.0000 0.39385  0.01690  0.72321  Biso   1.000  Hf
  Hf5      1.0000 0.96749  0.18648  0.89629  Biso   1.000  Hf
  Hf6      1.0000 0.00284  0.11337  0.41329  Biso   1.000  Hf
  Hf7      1.0000 0.98201  0.37191  0.44101  Biso   1.000  Hf
  Hf8      1.0000 0.03533  0.42906  0.94141  Biso   1.000  Hf
  Hf9      1.0000 0.25410  0.14007  0.48049  Biso   1.000  Hf
  Hf10     1.0000 0.26143  0.07851  0.00954  Biso   1.000  Hf
  Hf11     1.0000 0.27921  0.31969  0.90658  Biso   1.000  Hf
  Hf12     1.0000 0.23585  0.39399  0.43847  Biso   1.000  Hf
  Hf13     1.0000 0.10499  0.53156  0.27754  Biso   1.000  Hf
  Hf14     1.0000 0.10535  0.76900  0.77645  Biso   1.000  Hf
  Hf15     1.0000 0.36244  0.73030  0.30916  Biso   1.000  Hf
  Hf16     1.0000 0.35251  0.48290  0.74444  Biso   1.000  Hf
  Hf17     1.0000 0.01852  0.68094  0.08298  Biso   1.000  Hf
  Hf18     1.0000 0.98273  0.62150  0.56861  Biso   1.000  Hf
  Hf19     1.0000 0.00056  0.86484  0.48525  Biso   1.000  Hf
  Hf20     1.0000 0.02055  0.93220  0.96597  Biso   1.000  Hf
  Hf21     1.0000 0.23496  0.63946  0.56486  Biso   1.000  Hf
  Hf22     1.0000 0.27649  0.57435  0.07676  Biso   1.000  Hf
  Hf23     1.0000 0.24441  0.82188  0.06316  Biso   1.000  Hf
  Hf24     1.0000 0.25378  0.88499  0.56032  Biso   1.000  Hf
  Hf25     1.0000 0.64336  0.97876  0.27010  Biso   1.000  Hf
  Hf26     1.0000 0.61386  0.26616  0.70126  Biso   1.000  Hf
  Hf27     1.0000 0.84371  0.23440  0.22751  Biso   1.000  Hf
  Hf28     1.0000 0.89619  0.02002  0.71319  Biso   1.000  Hf
  Hf29     1.0000 0.50574  0.15928  0.93156  Biso   1.000  Hf
  Hf30     1.0000 0.50315  0.11168  0.43869  Biso   1.000  Hf
  Hf31     1.0000 0.48781  0.36769  0.48015  Biso   1.000  Hf
  Hf32     1.0000 0.51174  0.41019  0.97821  Biso   1.000  Hf
  Hf33     1.0000 0.74757  0.13365  0.52167  Biso   1.000  Hf
  Hf34     1.0000 0.76724  0.06854  0.03159  Biso   1.000  Hf
  Hf35     1.0000 0.76151  0.33455  0.94018  Biso   1.000  Hf
  Hf36     1.0000 0.73537  0.38728  0.46465  Biso   1.000  Hf
  Hf37     1.0000 0.60960  0.51377  0.27227  Biso   1.000  Hf
  Hf38     1.0000 0.60488  0.76284  0.77633  Biso   1.000  Hf
  Hf39     1.0000 0.85523  0.73449  0.31659  Biso   1.000  Hf
  Hf40     1.0000 0.86158  0.48400  0.74813  Biso   1.000  Hf
  Hf41     1.0000 0.52280  0.66613  0.07670  Biso   1.000  Hf
  Hf42     1.0000 0.48495  0.61063  0.55631  Biso   1.000  Hf
  Hf43     1.0000 0.50099  0.86006  0.48939  Biso   1.000  Hf
  Hf44     1.0000 0.50997  0.91849  0.97599  Biso   1.000  Hf
  Hf45     1.0000 0.73460  0.63429  0.56868  Biso   1.000  Hf
  Hf46     1.0000 0.78107  0.57215  0.08452  Biso   1.000  Hf
  Hf47     1.0000 0.73881  0.82073  0.06297  Biso   1.000  Hf
  Hf48     1.0000 0.75085  0.88578  0.55575  Biso   1.000  Hf
  Yb1      1.0000 0.12228  0.24818  0.17312  Biso   1.000  Yb
