data_image0
_cell_length_a       10.115
_cell_length_b       5.3045
_cell_length_c       10.132
_cell_angle_alpha    84.2601
_cell_angle_beta     89.8342
_cell_angle_gamma    89.7713

_symmetry_space_group_name_H-M    "P 1"
_symmetry_int_tables_number       1

loop_
  _symmetry_equiv_pos_as_xyz
  'x, y, z'

loop_
  _atom_site_label
  _atom_site_occupancy
  _atom_site_fract_x
  _atom_site_fract_y
  _atom_site_fract_z
  _atom_site_thermal_displace_type
  _atom_site_B_iso_or_equiv
  _atom_site_type_symbol
  Hf1      1.0000 0.15312  0.12012  0.13197  Biso   1.000  Hf
  Hf2      1.0000 0.14140  0.46693  0.38377  Biso   1.000  Hf
  Hf3      1.0000 0.37592  0.56793  0.11596  Biso   1.000  Hf
  Hf4      1.0000 0.36328  0.95112  0.38059  Biso   1.000  Hf
  Hf5      1.0000 0.02833  0.38834  0.20656  Biso   1.000  Hf
  Hf6      1.0000 0.04819  0.11743  0.44058  Biso   1.000  Hf
  Hf7      1.0000 0.48646  0.81407  0.22700  Biso   1.000  Hf
  Hf8      1.0000 0.45859  0.61380  0.46153  Biso   1.000  Hf
  Hf9      1.0000 0.28815  0.26283  0.25851  Biso   1.000  Hf
  Hf10     1.0000 0.27296  0.24877  0.50950  Biso   1.000  Hf
  Hf11     1.0000 0.22593  0.74552  0.50593  Biso   1.000  Hf
  Hf12     1.0000 0.22820  0.75051  0.24775  Biso   1.000  Hf
  Hf13     1.0000 0.13532  0.00122  0.62792  Biso   1.000  Hf
  Hf14     1.0000 0.10152  0.40921  0.83806  Biso   1.000  Hf
  Hf15     1.0000 0.36104  0.51089  0.63757  Biso   1.000  Hf
  Hf16     1.0000 0.40284  0.97120  0.85020  Biso   1.000  Hf
  Hf17     1.0000 0.01978  0.31652  0.66593  Biso   1.000  Hf
  Hf18     1.0000 0.04035  0.07789  0.94059  Biso   1.000  Hf
  Hf19     1.0000 0.47117  0.83003  0.67982  Biso   1.000  Hf
  Hf20     1.0000 0.47689  0.62529  0.93719  Biso   1.000  Hf
  Hf21     1.0000 0.25575  0.19910  0.75506  Biso   1.000  Hf
  Hf22     1.0000 0.24105  0.39019  0.00149  Biso   1.000  Hf
  Hf23     1.0000 0.29242  0.90407  0.01819  Biso   1.000  Hf
  Hf24     1.0000 0.23362  0.70223  0.76012  Biso   1.000  Hf
  Hf25     1.0000 0.64185  0.01885  0.13863  Biso   1.000  Hf
  Hf26     1.0000 0.60049  0.46935  0.35494  Biso   1.000  Hf
  Hf27     1.0000 0.84565  0.51251  0.13168  Biso   1.000  Hf
  Hf28     1.0000 0.89736  0.95691  0.35459  Biso   1.000  Hf
  Hf29     1.0000 0.53649  0.34206  0.18118  Biso   1.000  Hf
  Hf30     1.0000 0.52903  0.11741  0.44015  Biso   1.000  Hf
  Hf31     1.0000 0.96947  0.88067  0.18058  Biso   1.000  Hf
  Hf32     1.0000 0.96963  0.61563  0.44341  Biso   1.000  Hf
  Hf33     1.0000 0.76377  0.22150  0.26516  Biso   1.000  Hf
  Hf34     1.0000 0.71631  0.37851  0.51474  Biso   1.000  Hf
  Hf35     1.0000 0.77380  0.87307  0.51186  Biso   1.000  Hf
  Hf36     1.0000 0.73945  0.71956  0.26299  Biso   1.000  Hf
  Hf37     1.0000 0.63897  0.04340  0.61607  Biso   1.000  Hf
  Hf38     1.0000 0.63775  0.43942  0.87876  Biso   1.000  Hf
  Hf39     1.0000 0.85537  0.54483  0.61953  Biso   1.000  Hf
  Hf40     1.0000 0.86381  0.93460  0.87229  Biso   1.000  Hf
  Hf41     1.0000 0.51141  0.29824  0.72702  Biso   1.000  Hf
  Hf42     1.0000 0.54038  0.11353  0.96222  Biso   1.000  Hf
  Hf43     1.0000 0.97463  0.81455  0.70811  Biso   1.000  Hf
  Hf44     1.0000 0.93863  0.57521  0.93174  Biso   1.000  Hf
  Hf45     1.0000 0.76478  0.22211  0.75183  Biso   1.000  Hf
  Hf46     1.0000 0.76961  0.24847  0.01115  Biso   1.000  Hf
  Hf47     1.0000 0.72670  0.75720  0.00919  Biso   1.000  Hf
  Hf48     1.0000 0.72390  0.72488  0.75075  Biso   1.000  Hf
  Yb1      1.0000 0.10375  0.69464  0.04637  Biso   1.000  Yb
