data_image0
_cell_length_a       10.1331
_cell_length_b       10.2508
_cell_length_c       10.4493
_cell_angle_alpha    90.0863
_cell_angle_beta     80.2643
_cell_angle_gamma    89.909

_symmetry_space_group_name_H-M    "P 1"
_symmetry_int_tables_number       1

loop_
  _symmetry_equiv_pos_as_xyz
  'x, y, z'

loop_
  _atom_site_label
  _atom_site_occupancy
  _atom_site_fract_x
  _atom_site_fract_y
  _atom_site_fract_z
  _atom_site_thermal_displace_type
  _atom_site_B_iso_or_equiv
  _atom_site_type_symbol
  Zn1      1.0000 0.12780  0.01223  0.15358  Biso   1.000  Zn
  Hf1      1.0000 0.13894  0.02093  0.64433  Biso   1.000  Hf
  Hf2      1.0000 0.14007  0.52172  0.14508  Biso   1.000  Hf
  Hf3      1.0000 0.14011  0.52136  0.64667  Biso   1.000  Hf
  Hf4      1.0000 0.63930  0.02180  0.14616  Biso   1.000  Hf
  Hf5      1.0000 0.63884  0.02159  0.64618  Biso   1.000  Hf
  Hf6      1.0000 0.63817  0.51968  0.14549  Biso   1.000  Hf
  Hf7      1.0000 0.63891  0.52143  0.64619  Biso   1.000  Hf
  Hf8      1.0000 0.14010  0.22736  0.39182  Biso   1.000  Hf
  Hf9      1.0000 0.14081  0.22561  0.89805  Biso   1.000  Hf
  Hf10     1.0000 0.14002  0.72796  0.39531  Biso   1.000  Hf
  Hf11     1.0000 0.14067  0.73251  0.89701  Biso   1.000  Hf
  Hf12     1.0000 0.63895  0.22857  0.39540  Biso   1.000  Hf
  Hf13     1.0000 0.63969  0.23006  0.89671  Biso   1.000  Hf
  Hf14     1.0000 0.63803  0.72890  0.39576  Biso   1.000  Hf
  Hf15     1.0000 0.63797  0.72909  0.89684  Biso   1.000  Hf
  Hf16     1.0000 0.35692  0.26621  0.10349  Biso   1.000  Hf
  Hf17     1.0000 0.35993  0.27123  0.60379  Biso   1.000  Hf
  Hf18     1.0000 0.35772  0.77465  0.10517  Biso   1.000  Hf
  Hf19     1.0000 0.36096  0.77256  0.60430  Biso   1.000  Hf
  Hf20     1.0000 0.86625  0.26781  0.10393  Biso   1.000  Hf
  Hf21     1.0000 0.86037  0.27167  0.60344  Biso   1.000  Hf
  Hf22     1.0000 0.86045  0.77149  0.10438  Biso   1.000  Hf
  Hf23     1.0000 0.86066  0.77035  0.60443  Biso   1.000  Hf
  Hf24     1.0000 0.36048  0.47792  0.35305  Biso   1.000  Hf
  Hf25     1.0000 0.36056  0.47891  0.85474  Biso   1.000  Hf
  Hf26     1.0000 0.35725  0.97917  0.35106  Biso   1.000  Hf
  Hf27     1.0000 0.35987  0.98187  0.85617  Biso   1.000  Hf
  Hf28     1.0000 0.86055  0.47875  0.35372  Biso   1.000  Hf
  Hf29     1.0000 0.86222  0.47846  0.85507  Biso   1.000  Hf
  Hf30     1.0000 0.86098  0.97784  0.35449  Biso   1.000  Hf
  Hf31     1.0000 0.86029  0.97904  0.85407  Biso   1.000  Hf
  O1       1.0000 0.03952  0.16731  0.07942  Biso   1.000  O
  O2       1.0000 0.03403  0.16708  0.57721  Biso   1.000  O
  O3       1.0000 0.03499  0.66884  0.07975  Biso   1.000  O
  O4       1.0000 0.03496  0.66745  0.58090  Biso   1.000  O
  O5       1.0000 0.53573  0.16821  0.07924  Biso   1.000  O
  O6       1.0000 0.53425  0.16777  0.57920  Biso   1.000  O
  O7       1.0000 0.53366  0.66711  0.07927  Biso   1.000  O
  O8       1.0000 0.53459  0.66787  0.57937  Biso   1.000  O
  O9       1.0000 0.03336  0.07947  0.33728  Biso   1.000  O
  O10      1.0000 0.03385  0.08304  0.82730  Biso   1.000  O
  O11      1.0000 0.03489  0.58173  0.32927  Biso   1.000  O
  O12      1.0000 0.03573  0.58301  0.83065  Biso   1.000  O
  O13      1.0000 0.53335  0.08325  0.32871  Biso   1.000  O
  O14      1.0000 0.53751  0.08241  0.82920  Biso   1.000  O
  O15      1.0000 0.53438  0.58177  0.32928  Biso   1.000  O
  O16      1.0000 0.53410  0.58378  0.82862  Biso   1.000  O
  O17      1.0000 0.46522  0.41525  0.17095  Biso   1.000  O
  O18      1.0000 0.46520  0.41767  0.67074  Biso   1.000  O
  O19      1.0000 0.46738  0.91684  0.17072  Biso   1.000  O
  O20      1.0000 0.46540  0.91814  0.67107  Biso   1.000  O
  O21      1.0000 0.96549  0.41877  0.17002  Biso   1.000  O
  O22      1.0000 0.96632  0.41698  0.67098  Biso   1.000  O
  O23      1.0000 0.95917  0.91783  0.17241  Biso   1.000  O
  O24      1.0000 0.96434  0.91781  0.67009  Biso   1.000  O
  O25      1.0000 0.46534  0.33278  0.42113  Biso   1.000  O
  O26      1.0000 0.46840  0.33632  0.92140  Biso   1.000  O
  O27      1.0000 0.46479  0.83317  0.42097  Biso   1.000  O
  O28      1.0000 0.46511  0.83417  0.92144  Biso   1.000  O
  O29      1.0000 0.96459  0.33212  0.41961  Biso   1.000  O
  O30      1.0000 0.96666  0.33237  0.92112  Biso   1.000  O
  O31      1.0000 0.96430  0.82964  0.42078  Biso   1.000  O
  O32      1.0000 0.96444  0.83242  0.92043  Biso   1.000  O
  O33      1.0000 0.27616  0.12707  0.24017  Biso   1.000  O
  O34      1.0000 0.27526  0.12759  0.73683  Biso   1.000  O
  O35      1.0000 0.27688  0.62623  0.23966  Biso   1.000  O
  O36      1.0000 0.27655  0.63017  0.74087  Biso   1.000  O
  O37      1.0000 0.77594  0.12828  0.24137  Biso   1.000  O
  O38      1.0000 0.77736  0.12963  0.74016  Biso   1.000  O
  O39      1.0000 0.77566  0.62858  0.24032  Biso   1.000  O
  O40      1.0000 0.77623  0.62868  0.74090  Biso   1.000  O
  O41      1.0000 0.27592  0.12180  0.48922  Biso   1.000  O
  O42      1.0000 0.28975  0.13211  0.97797  Biso   1.000  O
  O43      1.0000 0.27679  0.62088  0.49070  Biso   1.000  O
  O44      1.0000 0.27641  0.62310  0.99043  Biso   1.000  O
  O45      1.0000 0.77528  0.12155  0.49103  Biso   1.000  O
  O46      1.0000 0.77721  0.12104  0.99063  Biso   1.000  O
  O47      1.0000 0.77577  0.62083  0.49073  Biso   1.000  O
  O48      1.0000 0.77562  0.62095  0.99044  Biso   1.000  O
  O49      1.0000 0.22403  0.38126  0.00895  Biso   1.000  O
  O50      1.0000 0.22307  0.37878  0.50877  Biso   1.000  O
  O51      1.0000 0.22478  0.88311  0.00965  Biso   1.000  O
  O52      1.0000 0.22299  0.87868  0.50993  Biso   1.000  O
  O53      1.0000 0.72585  0.37846  0.00965  Biso   1.000  O
  O54      1.0000 0.72323  0.37905  0.50973  Biso   1.000  O
  O55      1.0000 0.72332  0.87898  0.00942  Biso   1.000  O
  O56      1.0000 0.72338  0.87844  0.50988  Biso   1.000  O
  O57      1.0000 0.22293  0.37067  0.25831  Biso   1.000  O
  O58      1.0000 0.22467  0.37089  0.75964  Biso   1.000  O
  O59      1.0000 0.22666  0.86524  0.26199  Biso   1.000  O
  O60      1.0000 0.22333  0.87253  0.75914  Biso   1.000  O
  O61      1.0000 0.72450  0.37059  0.25979  Biso   1.000  O
  O62      1.0000 0.72454  0.37196  0.75938  Biso   1.000  O
  O63      1.0000 0.72147  0.87068  0.26015  Biso   1.000  O
  O64      1.0000 0.72353  0.87109  0.75977  Biso   1.000  O
