data_image0
_cell_length_a       10.1502
_cell_length_b       5.16071
_cell_length_c       10.6318
_cell_angle_alpha    90.3854
_cell_angle_beta     78.6872
_cell_angle_gamma    91.1665

_symmetry_space_group_name_H-M    "P 1"
_symmetry_int_tables_number       1

loop_
  _symmetry_equiv_pos_as_xyz
  'x, y, z'

loop_
  _atom_site_label
  _atom_site_occupancy
  _atom_site_fract_x
  _atom_site_fract_y
  _atom_site_fract_z
  _atom_site_thermal_displace_type
  _atom_site_B_iso_or_equiv
  _atom_site_type_symbol
  Hf1      1.0000 0.13245  0.04956  0.14763  Biso   1.000  Hf
  Hf2      1.0000 0.14203  0.46440  0.39628  Biso   1.000  Hf
  Hf3      1.0000 0.34103  0.55633  0.08718  Biso   1.000  Hf
  Hf4      1.0000 0.35217  0.95593  0.35319  Biso   1.000  Hf
  O1       1.0000 0.02831  0.33820  0.07973  Biso   1.000  O
  O2       1.0000 0.03715  0.16405  0.33109  Biso   1.000  O
  O3       1.0000 0.45763  0.85807  0.16463  Biso   1.000  O
  O4       1.0000 0.47542  0.67463  0.43551  Biso   1.000  O
  O5       1.0000 0.28675  0.27029  0.24278  Biso   1.000  O
  O6       1.0000 0.27704  0.24644  0.49127  Biso   1.000  O
  O7       1.0000 0.20953  0.77511  0.00266  Biso   1.000  O
  O8       1.0000 0.20720  0.75161  0.25229  Biso   1.000  O
  Hf5      1.0000 0.13833  0.04578  0.64579  Biso   1.000  Hf
  Hf6      1.0000 0.12886  0.45902  0.89531  Biso   1.000  Hf
  Hf7      1.0000 0.36130  0.54361  0.60675  Biso   1.000  Hf
  Hf8      1.0000 0.35435  0.96244  0.85152  Biso   1.000  Hf
  O9       1.0000 0.03626  0.33462  0.58071  Biso   1.000  O
  O10      1.0000 0.02986  0.16596  0.82834  Biso   1.000  O
  O11      1.0000 0.46519  0.82946  0.67656  Biso   1.000  O
  O12      1.0000 0.46046  0.67530  0.91775  Biso   1.000  O
  O13      1.0000 0.27360  0.25669  0.74070  Biso   1.000  O
  O14      1.0000 0.26627  0.25024  0.98756  Biso   1.000  O
  O15      1.0000 0.22257  0.75665  0.50953  Biso   1.000  O
  O16      1.0000 0.21950  0.74083  0.75683  Biso   1.000  O
  Hf9      1.0000 0.64213  0.04408  0.15190  Biso   1.000  Hf
  Hf10     1.0000 0.65326  0.44367  0.41791  Biso   1.000  Hf
  Hf11     1.0000 0.85226  0.53561  0.10880  Biso   1.000  Hf
  Hf12     1.0000 0.86184  0.95044  0.35746  Biso   1.000  Hf
  O17      1.0000 0.51887  0.32536  0.06957  Biso   1.000  O
  O18      1.0000 0.53667  0.14191  0.34046  Biso   1.000  O
  O19      1.0000 0.95715  0.83595  0.17399  Biso   1.000  O
  O20      1.0000 0.96598  0.66180  0.42535  Biso   1.000  O
  O21      1.0000 0.78710  0.24839  0.25279  Biso   1.000  O
  O22      1.0000 0.78476  0.22490  0.50242  Biso   1.000  O
  O23      1.0000 0.71725  0.75357  0.01381  Biso   1.000  O
  O24      1.0000 0.70757  0.72973  0.26231  Biso   1.000  O
  Hf13     1.0000 0.63994  0.03757  0.65357  Biso   1.000  Hf
  Hf14     1.0000 0.63300  0.45640  0.89834  Biso   1.000  Hf
  Hf15     1.0000 0.86543  0.54099  0.60977  Biso   1.000  Hf
  Hf16     1.0000 0.85597  0.95422  0.85929  Biso   1.000  Hf
  O25      1.0000 0.53384  0.32471  0.58733  Biso   1.000  O
  O26      1.0000 0.52910  0.17054  0.82852  Biso   1.000  O
  O27      1.0000 0.96443  0.83404  0.67674  Biso   1.000  O
  O28      1.0000 0.95803  0.66538  0.92437  Biso   1.000  O
  O29      1.0000 0.77480  0.25919  0.74826  Biso   1.000  O
  O30      1.0000 0.77173  0.24336  0.99555  Biso   1.000  O
  O31      1.0000 0.72802  0.74976  0.51753  Biso   1.000  O
  O32      1.0000 0.72069  0.74332  0.76438  Biso   1.000  O
  Zr1      1.0000 0.49714  0.49998  0.25254  Biso   1.000  Zr
