data_image0
_cell_length_a       10.0087
_cell_length_b       10.2042
_cell_length_c       10.0087
_cell_angle_alpha    89.9999
_cell_angle_beta     90.0001
_cell_angle_gamma    90

_symmetry_space_group_name_H-M    "P 1"
_symmetry_int_tables_number       1

loop_
  _symmetry_equiv_pos_as_xyz
  'x, y, z'

loop_
  _atom_site_label
  _atom_site_occupancy
  _atom_site_fract_x
  _atom_site_fract_y
  _atom_site_fract_z
  _atom_site_thermal_displace_type
  _atom_site_B_iso_or_equiv
  _atom_site_type_symbol
  Zr1      1.0000 0.12491  0.00005  0.12491  Biso   1.000  Zr
  Hf1      1.0000 0.12488  0.25017  0.37499  Biso   1.000  Hf
  Hf2      1.0000 0.37499  0.25017  0.12488  Biso   1.000  Hf
  Hf3      1.0000 0.37504  0.00021  0.37504  Biso   1.000  Hf
  Hf4      1.0000 0.99970  0.14805  0.99970  Biso   1.000  Hf
  Hf5      1.0000 0.99925  0.10288  0.25057  Biso   1.000  Hf
  Hf6      1.0000 0.00017  0.35234  0.24965  Biso   1.000  Hf
  Hf7      1.0000 0.99978  0.39789  0.99978  Biso   1.000  Hf
  Hf8      1.0000 0.25012  0.14805  0.25012  Biso   1.000  Hf
  Hf9      1.0000 0.25057  0.10288  0.99925  Biso   1.000  Hf
  Hf10     1.0000 0.24965  0.35234  0.00017  Biso   1.000  Hf
  Hf11     1.0000 0.25003  0.39789  0.25003  Biso   1.000  Hf
  Hf12     1.0000 0.12491  0.00005  0.62491  Biso   1.000  Hf
  Hf13     1.0000 0.12494  0.25017  0.87482  Biso   1.000  Hf
  Hf14     1.0000 0.37488  0.25003  0.62492  Biso   1.000  Hf
  Hf15     1.0000 0.37504  0.99989  0.87478  Biso   1.000  Hf
  Hf16     1.0000 0.00026  0.14794  0.50034  Biso   1.000  Hf
  Hf17     1.0000 0.99975  0.10217  0.74999  Biso   1.000  Hf
  Hf18     1.0000 0.00001  0.35223  0.74969  Biso   1.000  Hf
  Hf19     1.0000 0.99992  0.39792  0.49973  Biso   1.000  Hf
  Hf20     1.0000 0.24955  0.14794  0.74948  Biso   1.000  Hf
  Hf21     1.0000 0.25007  0.10217  0.49982  Biso   1.000  Hf
  Hf22     1.0000 0.24980  0.35223  0.50013  Biso   1.000  Hf
  Hf23     1.0000 0.24990  0.39792  0.75008  Biso   1.000  Hf
  Hf24     1.0000 0.12491  0.50004  0.12491  Biso   1.000  Hf
  Hf25     1.0000 0.12494  0.74994  0.37499  Biso   1.000  Hf
  Hf26     1.0000 0.37499  0.74994  0.12494  Biso   1.000  Hf
  Hf27     1.0000 0.37491  0.50004  0.37491  Biso   1.000  Hf
  Hf28     1.0000 0.00015  0.64776  0.00015  Biso   1.000  Hf
  Hf29     1.0000 0.99980  0.60222  0.25002  Biso   1.000  Hf
  Hf30     1.0000 0.99970  0.85205  0.25012  Biso   1.000  Hf
  Hf31     1.0000 0.99925  0.89722  0.99925  Biso   1.000  Hf
  Hf32     1.0000 0.24967  0.64776  0.24967  Biso   1.000  Hf
  Hf33     1.0000 0.25002  0.60222  0.99980  Biso   1.000  Hf
  Hf34     1.0000 0.25012  0.85205  0.99970  Biso   1.000  Hf
  Hf35     1.0000 0.25057  0.89722  0.25057  Biso   1.000  Hf
  Hf36     1.0000 0.12491  0.50004  0.62491  Biso   1.000  Hf
  Hf37     1.0000 0.12488  0.74994  0.87482  Biso   1.000  Hf
  Hf38     1.0000 0.37488  0.75007  0.62489  Biso   1.000  Hf
  Hf39     1.0000 0.37491  0.50009  0.87491  Biso   1.000  Hf
  Hf40     1.0000 0.99999  0.64787  0.50010  Biso   1.000  Hf
  Hf41     1.0000 0.99993  0.60218  0.75007  Biso   1.000  Hf
  Hf42     1.0000 0.00026  0.85217  0.74948  Biso   1.000  Hf
  Hf43     1.0000 0.99975  0.89793  0.49983  Biso   1.000  Hf
  Hf44     1.0000 0.24983  0.64787  0.74971  Biso   1.000  Hf
  Hf45     1.0000 0.24989  0.60218  0.49975  Biso   1.000  Hf
  Hf46     1.0000 0.24956  0.85217  0.50033  Biso   1.000  Hf
  Hf47     1.0000 0.25007  0.89793  0.74999  Biso   1.000  Hf
  Hf48     1.0000 0.62491  0.00005  0.12491  Biso   1.000  Hf
  Hf49     1.0000 0.62492  0.25003  0.37488  Biso   1.000  Hf
  Hf50     1.0000 0.87482  0.25017  0.12494  Biso   1.000  Hf
  Hf51     1.0000 0.87478  0.99989  0.37504  Biso   1.000  Hf
  Hf52     1.0000 0.50034  0.14794  0.00026  Biso   1.000  Hf
  Hf53     1.0000 0.49982  0.10217  0.25007  Biso   1.000  Hf
  Hf54     1.0000 0.50013  0.35223  0.24980  Biso   1.000  Hf
  Hf55     1.0000 0.49973  0.39792  0.99992  Biso   1.000  Hf
  Hf56     1.0000 0.74948  0.14794  0.24955  Biso   1.000  Hf
  Hf57     1.0000 0.74999  0.10217  0.99975  Biso   1.000  Hf
  Hf58     1.0000 0.74969  0.35223  0.00001  Biso   1.000  Hf
  Hf59     1.0000 0.75008  0.39792  0.24990  Biso   1.000  Hf
  Hf60     1.0000 0.62491  0.00005  0.62491  Biso   1.000  Hf
  Hf61     1.0000 0.62489  0.25003  0.87494  Biso   1.000  Hf
  Hf62     1.0000 0.87494  0.25003  0.62489  Biso   1.000  Hf
  Hf63     1.0000 0.87478  0.00021  0.87478  Biso   1.000  Hf
  Hf64     1.0000 0.50013  0.14795  0.50013  Biso   1.000  Hf
  Hf65     1.0000 0.49982  0.10216  0.75000  Biso   1.000  Hf
  Hf66     1.0000 0.49996  0.35214  0.74986  Biso   1.000  Hf
  Hf67     1.0000 0.49986  0.39795  0.49986  Biso   1.000  Hf
  Hf68     1.0000 0.74969  0.14795  0.74969  Biso   1.000  Hf
  Hf69     1.0000 0.75000  0.10216  0.49982  Biso   1.000  Hf
  Hf70     1.0000 0.74986  0.35214  0.49995  Biso   1.000  Hf
  Hf71     1.0000 0.74996  0.39795  0.74995  Biso   1.000  Hf
  Hf72     1.0000 0.62491  0.50004  0.12491  Biso   1.000  Hf
  Hf73     1.0000 0.62489  0.75007  0.37488  Biso   1.000  Hf
  Hf74     1.0000 0.87482  0.74994  0.12488  Biso   1.000  Hf
  Hf75     1.0000 0.87491  0.50008  0.37491  Biso   1.000  Hf
  Hf76     1.0000 0.50010  0.64787  0.99999  Biso   1.000  Hf
  Hf77     1.0000 0.49975  0.60218  0.24989  Biso   1.000  Hf
  Hf78     1.0000 0.50033  0.85217  0.24956  Biso   1.000  Hf
  Hf79     1.0000 0.49983  0.89793  0.99975  Biso   1.000  Hf
  Hf80     1.0000 0.74971  0.64787  0.24983  Biso   1.000  Hf
  Hf81     1.0000 0.75007  0.60218  0.99993  Biso   1.000  Hf
  Hf82     1.0000 0.74948  0.85217  0.00026  Biso   1.000  Hf
  Hf83     1.0000 0.74999  0.89793  0.25007  Biso   1.000  Hf
  Hf84     1.0000 0.62491  0.50004  0.62491  Biso   1.000  Hf
  Hf85     1.0000 0.62492  0.75007  0.87494  Biso   1.000  Hf
  Hf86     1.0000 0.87494  0.75007  0.62492  Biso   1.000  Hf
  Hf87     1.0000 0.87491  0.50004  0.87491  Biso   1.000  Hf
  Hf88     1.0000 0.49994  0.64796  0.49994  Biso   1.000  Hf
  Hf89     1.0000 0.49988  0.60216  0.74994  Biso   1.000  Hf
  Hf90     1.0000 0.50012  0.85215  0.74969  Biso   1.000  Hf
  Hf91     1.0000 0.49982  0.89794  0.49982  Biso   1.000  Hf
  Hf92     1.0000 0.74988  0.64796  0.74988  Biso   1.000  Hf
  Hf93     1.0000 0.74994  0.60216  0.49988  Biso   1.000  Hf
  Hf94     1.0000 0.74969  0.85215  0.50013  Biso   1.000  Hf
  Hf95     1.0000 0.75000  0.89794  0.75000  Biso   1.000  Hf
