data_image0
_cell_length_a       10.1129
_cell_length_b       10.0108
_cell_length_c       5.00107
_cell_angle_alpha    90
_cell_angle_beta     89.9999
_cell_angle_gamma    89.9999

_symmetry_space_group_name_H-M    "P 1"
_symmetry_int_tables_number       1

loop_
  _symmetry_equiv_pos_as_xyz
  'x, y, z'

loop_
  _atom_site_label
  _atom_site_occupancy
  _atom_site_fract_x
  _atom_site_fract_y
  _atom_site_fract_z
  _atom_site_thermal_displace_type
  _atom_site_B_iso_or_equiv
  _atom_site_type_symbol
  Al1      1.0000 0.12491  0.00014  0.24982  Biso   1.000  Al
  Hf1      1.0000 0.12491  0.24557  0.74981  Biso   1.000  Hf
  Hf2      1.0000 0.37275  0.24980  0.25397  Biso   1.000  Hf
  Hf3      1.0000 0.37426  0.00015  0.74985  Biso   1.000  Hf
  O1       1.0000 0.97167  0.14511  0.95261  Biso   1.000  O
  O2       1.0000 0.02927  0.10911  0.46224  Biso   1.000  O
  O3       1.0000 0.98057  0.36066  0.51785  Biso   1.000  O
  O4       1.0000 0.01838  0.38502  0.00678  Biso   1.000  O
  O5       1.0000 0.27815  0.14510  0.54701  Biso   1.000  O
  O6       1.0000 0.22056  0.10910  0.03738  Biso   1.000  O
  O7       1.0000 0.26926  0.36066  0.98177  Biso   1.000  O
  O8       1.0000 0.23145  0.38501  0.49284  Biso   1.000  O
  Hf4      1.0000 0.12491  0.50014  0.24981  Biso   1.000  Hf
  Hf5      1.0000 0.12491  0.75471  0.74981  Biso   1.000  Hf
  Hf6      1.0000 0.37276  0.75049  0.24568  Biso   1.000  Hf
  Hf7      1.0000 0.37270  0.50014  0.74982  Biso   1.000  Hf
  O9       1.0000 0.98056  0.63962  0.98179  Biso   1.000  O
  O10      1.0000 0.01837  0.61526  0.49287  Biso   1.000  O
  O11      1.0000 0.97166  0.85518  0.54702  Biso   1.000  O
  O12      1.0000 0.02927  0.89118  0.03739  Biso   1.000  O
  O13      1.0000 0.26925  0.63961  0.51783  Biso   1.000  O
  O14      1.0000 0.23144  0.61526  0.00675  Biso   1.000  O
  O15      1.0000 0.27816  0.85516  0.95259  Biso   1.000  O
  O16      1.0000 0.22055  0.89116  0.46223  Biso   1.000  O
  Hf8      1.0000 0.62491  0.00015  0.24982  Biso   1.000  Hf
  Hf9      1.0000 0.62492  0.25348  0.74983  Biso   1.000  Hf
  Hf10     1.0000 0.87707  0.24980  0.24567  Biso   1.000  Hf
  Hf11     1.0000 0.87556  0.00015  0.74981  Biso   1.000  Hf
  O17      1.0000 0.47527  0.12858  0.99759  Biso   1.000  O
  O18      1.0000 0.52373  0.12213  0.49978  Biso   1.000  O
  O19      1.0000 0.48058  0.37133  0.50615  Biso   1.000  O
  O20      1.0000 0.51847  0.37841  0.00327  Biso   1.000  O
  O21      1.0000 0.77456  0.12859  0.50208  Biso   1.000  O
  O22      1.0000 0.72609  0.12213  0.99989  Biso   1.000  O
  O23      1.0000 0.76924  0.37133  0.99350  Biso   1.000  O
  O24      1.0000 0.73136  0.37841  0.49640  Biso   1.000  O
  Hf12     1.0000 0.62491  0.50014  0.24983  Biso   1.000  Hf
  Hf13     1.0000 0.62491  0.74681  0.74983  Biso   1.000  Hf
  Hf14     1.0000 0.87706  0.75049  0.25396  Biso   1.000  Hf
  Hf15     1.0000 0.87712  0.50014  0.74982  Biso   1.000  Hf
  O25      1.0000 0.48058  0.62895  0.99349  Biso   1.000  O
  O26      1.0000 0.51846  0.62187  0.49640  Biso   1.000  O
  O27      1.0000 0.47526  0.87170  0.50210  Biso   1.000  O
  O28      1.0000 0.52373  0.87816  0.99992  Biso   1.000  O
  O29      1.0000 0.76924  0.62896  0.50616  Biso   1.000  O
  O30      1.0000 0.73135  0.62188  0.00327  Biso   1.000  O
  O31      1.0000 0.77456  0.87170  0.99756  Biso   1.000  O
  O32      1.0000 0.72608  0.87816  0.49975  Biso   1.000  O
