data_image0
_cell_length_a       10.045
_cell_length_b       5.17076
_cell_length_c       10.4909
_cell_angle_alpha    89.9134
_cell_angle_beta     91.0826
_cell_angle_gamma    90.2444

_symmetry_space_group_name_H-M    "P 1"
_symmetry_int_tables_number       1

loop_
  _symmetry_equiv_pos_as_xyz
  'x, y, z'

loop_
  _atom_site_label
  _atom_site_occupancy
  _atom_site_fract_x
  _atom_site_fract_y
  _atom_site_fract_z
  _atom_site_thermal_displace_type
  _atom_site_B_iso_or_equiv
  _atom_site_type_symbol
  Hf1      1.0000 0.13512  0.03847  0.17434  Biso   1.000  Hf
  Hf2      1.0000 0.13390  0.45073  0.42661  Biso   1.000  Hf
  Hf3      1.0000 0.34322  0.53950  0.18420  Biso   1.000  Hf
  Hf4      1.0000 0.35908  0.95198  0.42859  Biso   1.000  Hf
  Hf5      1.0000 0.65103  0.10848  0.06309  Biso   1.000  Hf
  Hf6      1.0000 0.63696  0.45294  0.33956  Biso   1.000  Hf
  Hf7      1.0000 0.86761  0.53657  0.07542  Biso   1.000  Hf
  Hf8      1.0000 0.85754  0.95252  0.32696  Biso   1.000  Hf
  O1       1.0000 0.03855  0.33208  0.08624  Biso   1.000  O
  O2       1.0000 0.03024  0.15795  0.33733  Biso   1.000  O
  O3       1.0000 0.47241  0.83255  0.08617  Biso   1.000  O
  O4       1.0000 0.46145  0.66161  0.34051  Biso   1.000  O
  O5       1.0000 0.27168  0.24501  0.29945  Biso   1.000  O
  O6       1.0000 0.27955  0.24637  0.04819  Biso   1.000  O
  O7       1.0000 0.21642  0.74665  0.30238  Biso   1.000  O
  O8       1.0000 0.22438  0.75130  0.05124  Biso   1.000  O
  O9       1.0000 0.52451  0.35099  0.17005  Biso   1.000  O
  O10      1.0000 0.53102  0.16077  0.41664  Biso   1.000  O
  O11      1.0000 0.96053  0.83677  0.16626  Biso   1.000  O
  O12      1.0000 0.96327  0.65954  0.41611  Biso   1.000  O
  O13      1.0000 0.77552  0.24141  0.45594  Biso   1.000  O
  O14      1.0000 0.78025  0.25975  0.21050  Biso   1.000  O
  O15      1.0000 0.72126  0.74437  0.45436  Biso   1.000  O
  O16      1.0000 0.71000  0.74398  0.19771  Biso   1.000  O
  Hf9      1.0000 0.14191  0.03674  0.67254  Biso   1.000  Hf
  Hf10     1.0000 0.14234  0.45218  0.92242  Biso   1.000  Hf
  Hf11     1.0000 0.36433  0.53621  0.67559  Biso   1.000  Hf
  Hf12     1.0000 0.36134  0.95578  0.92116  Biso   1.000  Hf
  Hf13     1.0000 0.64022  0.03819  0.58067  Biso   1.000  Hf
  Hf14     1.0000 0.64542  0.45236  0.82520  Biso   1.000  Hf
  Hf15     1.0000 0.86234  0.53717  0.57924  Biso   1.000  Hf
  Hf16     1.0000 0.86836  0.95180  0.82507  Biso   1.000  Hf
  O17      1.0000 0.03368  0.32743  0.58702  Biso   1.000  O
  O18      1.0000 0.04134  0.16042  0.83438  Biso   1.000  O
  O19      1.0000 0.46667  0.83217  0.59007  Biso   1.000  O
  O20      1.0000 0.46922  0.65484  0.84285  Biso   1.000  O
  O21      1.0000 0.28070  0.24421  0.79697  Biso   1.000  O
  O22      1.0000 0.27641  0.24649  0.54848  Biso   1.000  O
  O23      1.0000 0.22675  0.74339  0.79893  Biso   1.000  O
  O24      1.0000 0.22415  0.74339  0.54994  Biso   1.000  O
  O25      1.0000 0.53609  0.33384  0.66250  Biso   1.000  O
  O26      1.0000 0.53552  0.14715  0.90170  Biso   1.000  O
  O27      1.0000 0.97089  0.82646  0.66390  Biso   1.000  O
  O28      1.0000 0.97196  0.66431  0.91561  Biso   1.000  O
  O29      1.0000 0.80114  0.24456  0.94352  Biso   1.000  O
  O30      1.0000 0.78019  0.24411  0.70139  Biso   1.000  O
  O31      1.0000 0.72618  0.77428  0.95568  Biso   1.000  O
  O32      1.0000 0.72648  0.74644  0.70364  Biso   1.000  O
  Al1      1.0000 0.59969  0.60442  0.06895  Biso   1.000  Al
