data_image0
_cell_length_a       5.00108
_cell_length_b       10.0107
_cell_length_c       10.1129
_cell_angle_alpha    90.0005
_cell_angle_beta     89.9988
_cell_angle_gamma    90.0002

_symmetry_space_group_name_H-M    "P 1"
_symmetry_int_tables_number       1

loop_
  _symmetry_equiv_pos_as_xyz
  'x, y, z'

loop_
  _atom_site_label
  _atom_site_occupancy
  _atom_site_fract_x
  _atom_site_fract_y
  _atom_site_fract_z
  _atom_site_thermal_displace_type
  _atom_site_B_iso_or_equiv
  _atom_site_type_symbol
  Al1      1.0000 0.24981  0.00006  0.12491  Biso   1.000  Al
  Hf1      1.0000 0.25394  0.24972  0.37275  Biso   1.000  Hf
  Hf2      1.0000 0.74981  0.24550  0.12491  Biso   1.000  Hf
  Hf3      1.0000 0.74979  0.00006  0.37428  Biso   1.000  Hf
  O1       1.0000 0.95262  0.14502  0.97166  Biso   1.000  O
  O2       1.0000 0.03738  0.10903  0.22054  Biso   1.000  O
  O3       1.0000 0.98174  0.36058  0.26925  Biso   1.000  O
  O4       1.0000 0.00680  0.38494  0.01837  Biso   1.000  O
  O5       1.0000 0.54700  0.14502  0.27816  Biso   1.000  O
  O6       1.0000 0.46223  0.10903  0.02927  Biso   1.000  O
  O7       1.0000 0.51787  0.36058  0.98057  Biso   1.000  O
  O8       1.0000 0.49282  0.38493  0.23145  Biso   1.000  O
  Hf4      1.0000 0.24982  0.00004  0.62491  Biso   1.000  Hf
  Hf5      1.0000 0.24568  0.24971  0.87708  Biso   1.000  Hf
  Hf6      1.0000 0.74982  0.25339  0.62491  Biso   1.000  Hf
  Hf7      1.0000 0.74984  0.00005  0.87554  Biso   1.000  Hf
  O9       1.0000 0.99757  0.12850  0.47525  Biso   1.000  O
  O10      1.0000 0.99988  0.12203  0.72608  Biso   1.000  O
  O11      1.0000 0.99353  0.37124  0.76923  Biso   1.000  O
  O12      1.0000 0.00324  0.37832  0.51846  Biso   1.000  O
  O13      1.0000 0.50208  0.12850  0.77456  Biso   1.000  O
  O14      1.0000 0.49977  0.12204  0.52374  Biso   1.000  O
  O15      1.0000 0.50613  0.37124  0.48059  Biso   1.000  O
  O16      1.0000 0.49643  0.37833  0.73136  Biso   1.000  O
  Hf8      1.0000 0.24981  0.50006  0.12491  Biso   1.000  Hf
  Hf9      1.0000 0.24565  0.75041  0.37273  Biso   1.000  Hf
  Hf10     1.0000 0.74980  0.75463  0.12490  Biso   1.000  Hf
  Hf11     1.0000 0.74980  0.50007  0.37271  Biso   1.000  Hf
  O17      1.0000 0.98178  0.63954  0.98057  Biso   1.000  O
  O18      1.0000 0.00676  0.61518  0.23145  Biso   1.000  O
  O19      1.0000 0.95258  0.85509  0.27815  Biso   1.000  O
  O20      1.0000 0.03741  0.89109  0.02926  Biso   1.000  O
  O21      1.0000 0.51784  0.63953  0.26925  Biso   1.000  O
  O22      1.0000 0.49284  0.61518  0.01837  Biso   1.000  O
  O23      1.0000 0.54704  0.85510  0.97166  Biso   1.000  O
  O24      1.0000 0.46221  0.89109  0.22055  Biso   1.000  O
  Hf12     1.0000 0.24983  0.50006  0.62491  Biso   1.000  Hf
  Hf13     1.0000 0.25397  0.75041  0.87708  Biso   1.000  Hf
  Hf14     1.0000 0.74982  0.74673  0.62491  Biso   1.000  Hf
  Hf15     1.0000 0.74983  0.50006  0.87711  Biso   1.000  Hf
  O25      1.0000 0.99356  0.62886  0.48058  Biso   1.000  O
  O26      1.0000 0.00321  0.62178  0.73136  Biso   1.000  O
  O27      1.0000 0.99760  0.87161  0.77454  Biso   1.000  O
  O28      1.0000 0.99985  0.87808  0.52372  Biso   1.000  O
  O29      1.0000 0.50610  0.62887  0.76923  Biso   1.000  O
  O30      1.0000 0.49646  0.62177  0.51846  Biso   1.000  O
  O31      1.0000 0.50203  0.87161  0.47527  Biso   1.000  O
  O32      1.0000 0.49979  0.87808  0.72609  Biso   1.000  O
