data_image0
_cell_length_a       10.1526
_cell_length_b       10.3037
_cell_length_c       10.4888
_cell_angle_alpha    90.2693
_cell_angle_beta     79.6151
_cell_angle_gamma    90.2296

_symmetry_space_group_name_H-M    "P 1"
_symmetry_int_tables_number       1

loop_
  _symmetry_equiv_pos_as_xyz
  'x, y, z'

loop_
  _atom_site_label
  _atom_site_occupancy
  _atom_site_fract_x
  _atom_site_fract_y
  _atom_site_fract_z
  _atom_site_thermal_displace_type
  _atom_site_B_iso_or_equiv
  _atom_site_type_symbol
  Hf1      1.0000 0.13775  0.02292  0.14495  Biso   1.000  Hf
  Hf2      1.0000 0.13565  0.23544  0.39284  Biso   1.000  Hf
  Hf3      1.0000 0.35326  0.27751  0.10277  Biso   1.000  Hf
  Hf4      1.0000 0.35625  0.47358  0.34370  Biso   1.000  Hf
  O1       1.0000 0.03270  0.16995  0.07942  Biso   1.000  O
  O2       1.0000 0.03739  0.08281  0.32822  Biso   1.000  O
  O3       1.0000 0.45899  0.43225  0.15814  Biso   1.000  O
  O4       1.0000 0.47881  0.32970  0.42600  Biso   1.000  O
  O5       1.0000 0.28321  0.11750  0.23833  Biso   1.000  O
  O6       1.0000 0.29432  0.12739  0.47615  Biso   1.000  O
  O7       1.0000 0.21865  0.38299  0.00411  Biso   1.000  O
  O8       1.0000 0.19783  0.37803  0.25011  Biso   1.000  O
  Hf5      1.0000 0.13783  0.02209  0.64572  Biso   1.000  Hf
  Hf6      1.0000 0.13679  0.22952  0.89584  Biso   1.000  Hf
  Hf7      1.0000 0.36403  0.27309  0.61185  Biso   1.000  Hf
  Hf8      1.0000 0.36023  0.48012  0.85497  Biso   1.000  Hf
  O9       1.0000 0.04254  0.17141  0.57816  Biso   1.000  O
  O10      1.0000 0.03525  0.08164  0.82843  Biso   1.000  O
  O11      1.0000 0.46717  0.41874  0.67308  Biso   1.000  O
  O12      1.0000 0.46291  0.33226  0.91994  Biso   1.000  O
  O13      1.0000 0.27755  0.12817  0.73823  Biso   1.000  O
  O14      1.0000 0.27362  0.12332  0.98897  Biso   1.000  O
  O15      1.0000 0.22862  0.37760  0.50986  Biso   1.000  O
  O16      1.0000 0.22433  0.37135  0.75923  Biso   1.000  O
  Hf9      1.0000 0.13424  0.52458  0.14151  Biso   1.000  Hf
  Hf10     1.0000 0.13745  0.72330  0.39674  Biso   1.000  Hf
  Hf11     1.0000 0.35930  0.76947  0.10226  Biso   1.000  Hf
  Hf12     1.0000 0.35368  0.95710  0.35219  Biso   1.000  Hf
  O17      1.0000 0.03187  0.67381  0.07837  Biso   1.000  O
  O18      1.0000 0.03075  0.58456  0.32719  Biso   1.000  O
  O19      1.0000 0.46503  0.91434  0.17302  Biso   1.000  O
  O20      1.0000 0.46649  0.82856  0.42331  Biso   1.000  O
  O21      1.0000 0.27409  0.62651  0.23914  Biso   1.000  O
  O22      1.0000 0.27547  0.61958  0.48959  Biso   1.000  O
  O23      1.0000 0.22307  0.88027  0.00859  Biso   1.000  O
  O24      1.0000 0.21596  0.86471  0.25645  Biso   1.000  O
  Hf13     1.0000 0.14102  0.52185  0.64524  Biso   1.000  Hf
  Hf14     1.0000 0.13634  0.73076  0.89579  Biso   1.000  Hf
  Hf15     1.0000 0.36166  0.76944  0.60584  Biso   1.000  Hf
  Hf16     1.0000 0.36053  0.97828  0.85498  Biso   1.000  Hf
  O25      1.0000 0.03371  0.66608  0.58058  Biso   1.000  O
  O26      1.0000 0.03586  0.58171  0.83019  Biso   1.000  O
  O27      1.0000 0.46540  0.91733  0.67202  Biso   1.000  O
  O28      1.0000 0.46449  0.83223  0.92061  Biso   1.000  O
  O29      1.0000 0.27704  0.62861  0.74062  Biso   1.000  O
  O30      1.0000 0.27469  0.62381  0.98920  Biso   1.000  O
  O31      1.0000 0.22203  0.87784  0.51187  Biso   1.000  O
  O32      1.0000 0.22324  0.87150  0.75930  Biso   1.000  O
  Hf17     1.0000 0.63918  0.02153  0.14606  Biso   1.000  Hf
  Hf18     1.0000 0.65937  0.22879  0.40587  Biso   1.000  Hf
  Hf19     1.0000 0.85895  0.27249  0.10533  Biso   1.000  Hf
  Hf20     1.0000 0.85992  0.48094  0.35306  Biso   1.000  Hf
  O33      1.0000 0.53105  0.17193  0.08771  Biso   1.000  O
  O34      1.0000 0.52876  0.08863  0.33095  Biso   1.000  O
  O35      1.0000 0.95710  0.42483  0.16633  Biso   1.000  O
  O36      1.0000 0.96106  0.33384  0.42143  Biso   1.000  O
  O37      1.0000 0.77522  0.12789  0.24395  Biso   1.000  O
  O38      1.0000 0.78646  0.11744  0.49590  Biso   1.000  O
  O39      1.0000 0.72177  0.37959  0.01229  Biso   1.000  O
  O40      1.0000 0.72174  0.36995  0.26285  Biso   1.000  O
  Hf21     1.0000 0.64010  0.01999  0.64923  Biso   1.000  Hf
  Hf22     1.0000 0.63610  0.23032  0.89976  Biso   1.000  Hf
  Hf23     1.0000 0.86450  0.27210  0.60883  Biso   1.000  Hf
  Hf24     1.0000 0.86127  0.47916  0.85631  Biso   1.000  Hf
  O41      1.0000 0.54025  0.16752  0.58241  Biso   1.000  O
  O42      1.0000 0.53511  0.08113  0.83305  Biso   1.000  O
  O43      1.0000 0.96719  0.41821  0.67264  Biso   1.000  O
  O44      1.0000 0.96215  0.33039  0.92026  Biso   1.000  O
  O45      1.0000 0.77707  0.13007  0.74412  Biso   1.000  O
  O46      1.0000 0.77288  0.12187  0.99305  Biso   1.000  O
  O47      1.0000 0.72629  0.37870  0.51455  Biso   1.000  O
  O48      1.0000 0.72421  0.37153  0.76286  Biso   1.000  O
  Hf25     1.0000 0.63668  0.52379  0.14671  Biso   1.000  Hf
  Hf26     1.0000 0.63875  0.72563  0.39747  Biso   1.000  Hf
  Hf27     1.0000 0.85803  0.77369  0.10468  Biso   1.000  Hf
  Hf28     1.0000 0.86348  0.97485  0.35467  Biso   1.000  Hf
  O49      1.0000 0.53624  0.67251  0.08046  Biso   1.000  O
  O50      1.0000 0.53332  0.57802  0.33104  Biso   1.000  O
  O51      1.0000 0.96275  0.92005  0.17019  Biso   1.000  O
  O52      1.0000 0.96649  0.83196  0.42267  Biso   1.000  O
  O53      1.0000 0.77446  0.63132  0.24147  Biso   1.000  O
  O54      1.0000 0.77652  0.62088  0.49186  Biso   1.000  O
  O55      1.0000 0.72166  0.88088  0.00999  Biso   1.000  O
  O56      1.0000 0.71893  0.87349  0.26159  Biso   1.000  O
  Hf29     1.0000 0.64061  0.52316  0.64899  Biso   1.000  Hf
  Hf30     1.0000 0.63853  0.72933  0.89735  Biso   1.000  Hf
  Hf31     1.0000 0.86163  0.77170  0.60496  Biso   1.000  Hf
  Hf32     1.0000 0.85981  0.97995  0.85524  Biso   1.000  Hf
  O57      1.0000 0.53553  0.66728  0.58203  Biso   1.000  O
  O58      1.0000 0.53512  0.58269  0.83142  Biso   1.000  O
  O59      1.0000 0.96521  0.91975  0.67099  Biso   1.000  O
  O60      1.0000 0.96263  0.83338  0.91980  Biso   1.000  O
  O61      1.0000 0.77747  0.62942  0.74208  Biso   1.000  O
  O62      1.0000 0.77550  0.62216  0.99140  Biso   1.000  O
  O63      1.0000 0.72435  0.87763  0.51167  Biso   1.000  O
  O64      1.0000 0.72460  0.87143  0.76111  Biso   1.000  O
  Al1      1.0000 0.40623  0.21052  0.33273  Biso   1.000  Al
