data_image0
_cell_length_a       9.93891
_cell_length_b       5.18472
_cell_length_c       9.99622
_cell_angle_alpha    90.2015
_cell_angle_beta     89.4553
_cell_angle_gamma    89.9348

_symmetry_space_group_name_H-M    "P 1"
_symmetry_int_tables_number       1

loop_
  _symmetry_equiv_pos_as_xyz
  'x, y, z'

loop_
  _atom_site_label
  _atom_site_occupancy
  _atom_site_fract_x
  _atom_site_fract_y
  _atom_site_fract_z
  _atom_site_thermal_displace_type
  _atom_site_B_iso_or_equiv
  _atom_site_type_symbol
  As1      1.0000 0.11473  0.05236  0.11156  Biso   1.000  As
  Hf1      1.0000 0.14085  0.46264  0.37658  Biso   1.000  Hf
  Hf2      1.0000 0.36341  0.52959  0.12975  Biso   1.000  Hf
  Hf3      1.0000 0.36401  0.96472  0.37442  Biso   1.000  Hf
  O1       1.0000 0.03954  0.35974  0.18808  Biso   1.000  O
  O2       1.0000 0.03787  0.12985  0.44681  Biso   1.000  O
  O3       1.0000 0.46858  0.86380  0.19631  Biso   1.000  O
  O4       1.0000 0.46854  0.63529  0.45065  Biso   1.000  O
  O5       1.0000 0.27608  0.23680  0.25347  Biso   1.000  O
  O6       1.0000 0.27243  0.26364  0.50376  Biso   1.000  O
  O7       1.0000 0.22968  0.76204  0.50439  Biso   1.000  O
  O8       1.0000 0.23966  0.71956  0.25885  Biso   1.000  O
  Hf4      1.0000 0.13512  0.03503  0.62778  Biso   1.000  Hf
  Hf5      1.0000 0.13453  0.47514  0.87754  Biso   1.000  Hf
  Hf6      1.0000 0.36650  0.53657  0.62840  Biso   1.000  Hf
  Hf7      1.0000 0.36327  0.97002  0.88098  Biso   1.000  Hf
  O9       1.0000 0.03445  0.36674  0.69866  Biso   1.000  O
  O10      1.0000 0.03203  0.12991  0.95109  Biso   1.000  O
  O11      1.0000 0.46280  0.87158  0.69798  Biso   1.000  O
  O12      1.0000 0.45896  0.63138  0.94276  Biso   1.000  O
  O13      1.0000 0.26989  0.23905  0.75342  Biso   1.000  O
  O14      1.0000 0.26407  0.26795  0.00214  Biso   1.000  O
  O15      1.0000 0.22375  0.76712  0.00575  Biso   1.000  O
  O16      1.0000 0.22797  0.74050  0.75384  Biso   1.000  O
  Hf8      1.0000 0.63421  0.03446  0.12743  Biso   1.000  Hf
  Hf9      1.0000 0.63507  0.46886  0.37469  Biso   1.000  Hf
  Hf10     1.0000 0.86558  0.52952  0.12061  Biso   1.000  Hf
  Hf11     1.0000 0.87007  0.96948  0.37554  Biso   1.000  Hf
  O17      1.0000 0.53987  0.37223  0.19397  Biso   1.000  O
  O18      1.0000 0.53796  0.13251  0.44164  Biso   1.000  O
  O19      1.0000 0.97180  0.87065  0.18552  Biso   1.000  O
  O20      1.0000 0.96577  0.62944  0.43984  Biso   1.000  O
  O21      1.0000 0.77480  0.23388  0.24741  Biso   1.000  O
  O22      1.0000 0.77156  0.26542  0.49727  Biso   1.000  O
  O23      1.0000 0.73296  0.76702  0.49797  Biso   1.000  O
  O24      1.0000 0.73782  0.73603  0.24770  Biso   1.000  O
  Hf12     1.0000 0.63123  0.03129  0.62226  Biso   1.000  Hf
  Hf13     1.0000 0.63016  0.46595  0.87476  Biso   1.000  Hf
  Hf14     1.0000 0.86730  0.53069  0.62284  Biso   1.000  Hf
  Hf15     1.0000 0.86021  0.96357  0.87156  Biso   1.000  Hf
  O25      1.0000 0.53567  0.36795  0.69439  Biso   1.000  O
  O26      1.0000 0.53386  0.13307  0.94732  Biso   1.000  O
  O27      1.0000 0.96374  0.86701  0.69339  Biso   1.000  O
  O28      1.0000 0.96015  0.63138  0.94007  Biso   1.000  O
  O29      1.0000 0.76796  0.23146  0.74683  Biso   1.000  O
  O30      1.0000 0.76957  0.26452  0.99683  Biso   1.000  O
  O31      1.0000 0.72665  0.76305  0.99819  Biso   1.000  O
  O32      1.0000 0.72862  0.73161  0.74776  Biso   1.000  O
