data_image0
_cell_length_a       9.94853
_cell_length_b       10.3693
_cell_length_c       9.99691
_cell_angle_alpha    90.0907
_cell_angle_beta     89.6989
_cell_angle_gamma    89.9322

_symmetry_space_group_name_H-M    "P 1"
_symmetry_int_tables_number       1

loop_
  _symmetry_equiv_pos_as_xyz
  'x, y, z'

loop_
  _atom_site_label
  _atom_site_occupancy
  _atom_site_fract_x
  _atom_site_fract_y
  _atom_site_fract_z
  _atom_site_thermal_displace_type
  _atom_site_B_iso_or_equiv
  _atom_site_type_symbol
  As1      1.0000 0.11082  0.02608  0.10886  Biso   1.000  As
  Hf1      1.0000 0.13964  0.23097  0.37557  Biso   1.000  Hf
  Hf2      1.0000 0.36555  0.26513  0.12808  Biso   1.000  Hf
  Hf3      1.0000 0.36677  0.48351  0.37662  Biso   1.000  Hf
  O1       1.0000 0.04093  0.18017  0.18644  Biso   1.000  O
  O2       1.0000 0.03794  0.06572  0.44471  Biso   1.000  O
  O3       1.0000 0.46394  0.43356  0.19491  Biso   1.000  O
  O4       1.0000 0.46455  0.31585  0.44522  Biso   1.000  O
  O5       1.0000 0.28215  0.12621  0.25686  Biso   1.000  O
  O6       1.0000 0.27001  0.13154  0.50449  Biso   1.000  O
  O7       1.0000 0.22990  0.38115  0.50016  Biso   1.000  O
  O8       1.0000 0.22807  0.36911  0.24998  Biso   1.000  O
  Hf4      1.0000 0.13465  0.01666  0.62848  Biso   1.000  Hf
  Hf5      1.0000 0.13576  0.23790  0.87584  Biso   1.000  Hf
  Hf6      1.0000 0.36652  0.26675  0.62670  Biso   1.000  Hf
  Hf7      1.0000 0.36631  0.48461  0.87652  Biso   1.000  Hf
  O9       1.0000 0.03441  0.18307  0.69899  Biso   1.000  O
  O10      1.0000 0.03320  0.06449  0.94853  Biso   1.000  O
  O11      1.0000 0.46353  0.43504  0.69408  Biso   1.000  O
  O12      1.0000 0.46167  0.31471  0.94185  Biso   1.000  O
  O13      1.0000 0.27036  0.11892  0.75302  Biso   1.000  O
  O14      1.0000 0.26530  0.13343  0.00168  Biso   1.000  O
  O15      1.0000 0.22950  0.38338  0.00016  Biso   1.000  O
  O16      1.0000 0.22899  0.36896  0.75008  Biso   1.000  O
  Hf8      1.0000 0.13471  0.51645  0.12715  Biso   1.000  Hf
  Hf9      1.0000 0.13698  0.73381  0.37750  Biso   1.000  Hf
  Hf10     1.0000 0.36451  0.76661  0.12853  Biso   1.000  Hf
  Hf11     1.0000 0.36316  0.98285  0.37395  Biso   1.000  Hf
  O17      1.0000 0.03711  0.68534  0.19432  Biso   1.000  O
  O18      1.0000 0.03728  0.56438  0.44442  Biso   1.000  O
  O19      1.0000 0.46812  0.93324  0.19538  Biso   1.000  O
  O20      1.0000 0.46806  0.81743  0.45029  Biso   1.000  O
  O21      1.0000 0.27073  0.61427  0.25026  Biso   1.000  O
  O22      1.0000 0.27272  0.63215  0.50109  Biso   1.000  O
  O23      1.0000 0.22919  0.88191  0.50464  Biso   1.000  O
  O24      1.0000 0.24115  0.85845  0.25989  Biso   1.000  O
  Hf12     1.0000 0.13435  0.51721  0.62561  Biso   1.000  Hf
  Hf13     1.0000 0.13339  0.73339  0.87778  Biso   1.000  Hf
  Hf14     1.0000 0.36601  0.76814  0.62820  Biso   1.000  Hf
  Hf15     1.0000 0.36267  0.98430  0.88122  Biso   1.000  Hf
  O25      1.0000 0.03663  0.68478  0.69360  Biso   1.000  O
  O26      1.0000 0.03454  0.56575  0.94521  Biso   1.000  O
  O27      1.0000 0.46228  0.93540  0.69799  Biso   1.000  O
  O28      1.0000 0.45952  0.81585  0.94394  Biso   1.000  O
  O29      1.0000 0.26979  0.61837  0.75109  Biso   1.000  O
  O30      1.0000 0.26978  0.63254  0.00095  Biso   1.000  O
  O31      1.0000 0.22318  0.88281  0.00569  Biso   1.000  O
  O32      1.0000 0.22786  0.86926  0.75408  Biso   1.000  O
  Hf16     1.0000 0.63487  0.01712  0.12627  Biso   1.000  Hf
  Hf17     1.0000 0.63406  0.23323  0.37545  Biso   1.000  Hf
  Hf18     1.0000 0.86337  0.26732  0.12407  Biso   1.000  Hf
  Hf19     1.0000 0.86758  0.48246  0.37598  Biso   1.000  Hf
  O33      1.0000 0.54126  0.18674  0.19125  Biso   1.000  O
  O34      1.0000 0.53682  0.06577  0.44212  Biso   1.000  O
  O35      1.0000 0.96485  0.43049  0.19394  Biso   1.000  O
  O36      1.0000 0.96489  0.31357  0.44201  Biso   1.000  O
  O37      1.0000 0.77399  0.11828  0.24870  Biso   1.000  O
  O38      1.0000 0.77146  0.13185  0.49829  Biso   1.000  O
  O39      1.0000 0.73051  0.38202  0.49961  Biso   1.000  O
  O40      1.0000 0.72954  0.36828  0.24982  Biso   1.000  O
  Hf20     1.0000 0.63059  0.01528  0.62330  Biso   1.000  Hf
  Hf21     1.0000 0.63256  0.23281  0.87501  Biso   1.000  Hf
  Hf22     1.0000 0.86649  0.26542  0.62458  Biso   1.000  Hf
  Hf23     1.0000 0.86542  0.48342  0.87460  Biso   1.000  Hf
  O41      1.0000 0.53642  0.18459  0.69305  Biso   1.000  O
  O42      1.0000 0.53467  0.06604  0.94577  Biso   1.000  O
  O43      1.0000 0.96395  0.43364  0.69315  Biso   1.000  O
  O44      1.0000 0.96300  0.31537  0.94333  Biso   1.000  O
  O45      1.0000 0.76796  0.11584  0.74744  Biso   1.000  O
  O46      1.0000 0.77087  0.13156  0.99750  Biso   1.000  O
  O47      1.0000 0.72892  0.38155  0.99998  Biso   1.000  O
  O48      1.0000 0.72954  0.36676  0.74936  Biso   1.000  O
  Hf24     1.0000 0.63378  0.51674  0.12765  Biso   1.000  Hf
  Hf25     1.0000 0.63519  0.73480  0.37534  Biso   1.000  Hf
  Hf26     1.0000 0.86798  0.76357  0.12243  Biso   1.000  Hf
  Hf27     1.0000 0.86817  0.98560  0.37646  Biso   1.000  Hf
  O49      1.0000 0.53724  0.68487  0.19567  Biso   1.000  O
  O50      1.0000 0.53802  0.56592  0.44323  Biso   1.000  O
  O51      1.0000 0.96698  0.93957  0.18192  Biso   1.000  O
  O52      1.0000 0.96469  0.81678  0.44148  Biso   1.000  O
  O53      1.0000 0.77259  0.61649  0.24886  Biso   1.000  O
  O54      1.0000 0.77096  0.63287  0.49900  Biso   1.000  O
  O55      1.0000 0.73183  0.88354  0.49855  Biso   1.000  O
  O56      1.0000 0.73769  0.86781  0.24836  Biso   1.000  O
  Hf28     1.0000 0.63413  0.51654  0.62507  Biso   1.000  Hf
  Hf29     1.0000 0.63128  0.73301  0.87594  Biso   1.000  Hf
  Hf30     1.0000 0.86682  0.76620  0.62423  Biso   1.000  Hf
  Hf31     1.0000 0.85965  0.98112  0.87269  Biso   1.000  Hf
  O57      1.0000 0.53551  0.68349  0.69561  Biso   1.000  O
  O58      1.0000 0.53596  0.56541  0.94580  Biso   1.000  O
  O59      1.0000 0.96250  0.93446  0.69349  Biso   1.000  O
  O60      1.0000 0.96016  0.81523  0.93981  Biso   1.000  O
  O61      1.0000 0.77022  0.61734  0.74919  Biso   1.000  O
  O62      1.0000 0.76952  0.63209  0.99912  Biso   1.000  O
  O63      1.0000 0.72612  0.88133  0.99822  Biso   1.000  O
  O64      1.0000 0.72782  0.86634  0.74827  Biso   1.000  O
