data_image0
_cell_length_a       10.1256
_cell_length_b       10.2479
_cell_length_c       5.23987
_cell_angle_alpha    89.7503
_cell_angle_beta     81.0077
_cell_angle_gamma    89.6434

_symmetry_space_group_name_H-M    "P 1"
_symmetry_int_tables_number       1

loop_
  _symmetry_equiv_pos_as_xyz
  'x, y, z'

loop_
  _atom_site_label
  _atom_site_occupancy
  _atom_site_fract_x
  _atom_site_fract_y
  _atom_site_fract_z
  _atom_site_thermal_displace_type
  _atom_site_B_iso_or_equiv
  _atom_site_type_symbol
  Au1      1.0000 0.12352  0.01348  0.33196  Biso   1.000  Au
  Hf1      1.0000 0.14254  0.22915  0.79109  Biso   1.000  Hf
  Hf2      1.0000 0.36011  0.27022  0.19786  Biso   1.000  Hf
  Hf3      1.0000 0.36191  0.48004  0.70500  Biso   1.000  Hf
  O1       1.0000 0.04283  0.16447  0.16414  Biso   1.000  O
  O2       1.0000 0.02248  0.08740  0.69515  Biso   1.000  O
  O3       1.0000 0.46503  0.41652  0.34195  Biso   1.000  O
  O4       1.0000 0.47001  0.33906  0.84519  Biso   1.000  O
  O5       1.0000 0.26854  0.12173  0.45373  Biso   1.000  O
  O6       1.0000 0.29503  0.13739  0.93192  Biso   1.000  O
  O7       1.0000 0.22353  0.38259  0.01644  Biso   1.000  O
  O8       1.0000 0.22725  0.36865  0.51659  Biso   1.000  O
  Hf4      1.0000 0.14012  0.52181  0.29316  Biso   1.000  Hf
  Hf5      1.0000 0.13746  0.72973  0.79299  Biso   1.000  Hf
  Hf6      1.0000 0.36184  0.77378  0.19809  Biso   1.000  Hf
  Hf7      1.0000 0.36162  0.98166  0.70292  Biso   1.000  Hf
  O9       1.0000 0.03619  0.66961  0.16037  Biso   1.000  O
  O10      1.0000 0.03749  0.58013  0.66050  Biso   1.000  O
  O11      1.0000 0.46416  0.91723  0.34209  Biso   1.000  O
  O12      1.0000 0.46745  0.83385  0.83793  Biso   1.000  O
  O13      1.0000 0.27672  0.63198  0.47908  Biso   1.000  O
  O14      1.0000 0.27659  0.62185  0.97940  Biso   1.000  O
  O15      1.0000 0.22959  0.88068  0.99773  Biso   1.000  O
  O16      1.0000 0.21722  0.86960  0.50690  Biso   1.000  O
  Hf8      1.0000 0.63776  0.02118  0.29401  Biso   1.000  Hf
  Hf9      1.0000 0.63883  0.22964  0.79493  Biso   1.000  Hf
  Hf10     1.0000 0.86419  0.26899  0.21723  Biso   1.000  Hf
  Hf11     1.0000 0.86387  0.47691  0.71295  Biso   1.000  Hf
  O17      1.0000 0.53463  0.16765  0.15710  Biso   1.000  O
  O18      1.0000 0.53776  0.08213  0.65603  Biso   1.000  O
  O19      1.0000 0.96779  0.41524  0.35213  Biso   1.000  O
  O20      1.0000 0.96785  0.33390  0.86113  Biso   1.000  O
  O21      1.0000 0.77606  0.12835  0.48604  Biso   1.000  O
  O22      1.0000 0.77482  0.12053  0.98871  Biso   1.000  O
  O23      1.0000 0.72638  0.37717  0.02445  Biso   1.000  O
  O24      1.0000 0.72668  0.37017  0.52291  Biso   1.000  O
  Hf12     1.0000 0.63773  0.51918  0.29115  Biso   1.000  Hf
  Hf13     1.0000 0.63827  0.72685  0.78873  Biso   1.000  Hf
  Hf14     1.0000 0.85922  0.76739  0.20633  Biso   1.000  Hf
  Hf15     1.0000 0.85395  0.97802  0.72011  Biso   1.000  Hf
  O25      1.0000 0.53542  0.66637  0.15160  Biso   1.000  O
  O26      1.0000 0.53524  0.58318  0.65168  Biso   1.000  O
  O27      1.0000 0.95367  0.92148  0.34069  Biso   1.000  O
  O28      1.0000 0.96156  0.82951  0.84007  Biso   1.000  O
  O29      1.0000 0.77695  0.62675  0.48028  Biso   1.000  O
  O30      1.0000 0.77711  0.61977  0.98088  Biso   1.000  O
  O31      1.0000 0.72079  0.87795  0.02052  Biso   1.000  O
  O32      1.0000 0.72422  0.86906  0.51815  Biso   1.000  O
