data_image0
_cell_length_a       5.10136
_cell_length_b       10.3586
_cell_length_c       10.6299
_cell_angle_alpha    89.2526
_cell_angle_beta     80.697
_cell_angle_gamma    90.4505

_symmetry_space_group_name_H-M    "P 1"
_symmetry_int_tables_number       1

loop_
  _symmetry_equiv_pos_as_xyz
  'x, y, z'

loop_
  _atom_site_label
  _atom_site_occupancy
  _atom_site_fract_x
  _atom_site_fract_y
  _atom_site_fract_z
  _atom_site_thermal_displace_type
  _atom_site_B_iso_or_equiv
  _atom_site_type_symbol
  Ba1      1.0000 0.20978  0.98611  0.13116  Biso   1.000  Ba
  Hf1      1.0000 0.27892  0.02710  0.65271  Biso   1.000  Hf
  Hf2      1.0000 0.27354  0.50978  0.14510  Biso   1.000  Hf
  Hf3      1.0000 0.28500  0.52326  0.64316  Biso   1.000  Hf
  Hf4      1.0000 0.27079  0.23101  0.39810  Biso   1.000  Hf
  Hf5      1.0000 0.28125  0.23223  0.89882  Biso   1.000  Hf
  Hf6      1.0000 0.26596  0.72099  0.39823  Biso   1.000  Hf
  Hf7      1.0000 0.30075  0.72959  0.88322  Biso   1.000  Hf
  Hf8      1.0000 0.71442  0.26394  0.10462  Biso   1.000  Hf
  Hf9      1.0000 0.72571  0.27593  0.60581  Biso   1.000  Hf
  Hf10     1.0000 0.74525  0.73354  0.07395  Biso   1.000  Hf
  Hf11     1.0000 0.73053  0.77749  0.60172  Biso   1.000  Hf
  Hf12     1.0000 0.71698  0.47900  0.35240  Biso   1.000  Hf
  Hf13     1.0000 0.73529  0.47236  0.84699  Biso   1.000  Hf
  Hf14     1.0000 0.71010  0.99916  0.37869  Biso   1.000  Hf
  Hf15     1.0000 0.73290  0.98179  0.85427  Biso   1.000  Hf
  O1       1.0000 0.07074  0.19229  0.07640  Biso   1.000  O
  O2       1.0000 0.06705  0.17332  0.58542  Biso   1.000  O
  O3       1.0000 0.10817  0.67123  0.07384  Biso   1.000  O
  O4       1.0000 0.07106  0.66654  0.57454  Biso   1.000  O
  O5       1.0000 0.05903  0.08576  0.34972  Biso   1.000  O
  O6       1.0000 0.08317  0.08249  0.83278  Biso   1.000  O
  O7       1.0000 0.06443  0.58322  0.32472  Biso   1.000  O
  O8       1.0000 0.06966  0.58818  0.82342  Biso   1.000  O
  O9       1.0000 0.91084  0.42568  0.16850  Biso   1.000  O
  O10      1.0000 0.93648  0.42202  0.66735  Biso   1.000  O
  O11      1.0000 0.72644  0.88455  0.20210  Biso   1.000  O
  O12      1.0000 0.94122  0.91512  0.67705  Biso   1.000  O
  O13      1.0000 0.92563  0.33702  0.42199  Biso   1.000  O
  O14      1.0000 0.93380  0.33435  0.91378  Biso   1.000  O
  O15      1.0000 0.94413  0.83979  0.42081  Biso   1.000  O
  O16      1.0000 0.98464  0.84807  0.93350  Biso   1.000  O
  O17      1.0000 0.57367  0.13839  0.25708  Biso   1.000  O
  O18      1.0000 0.56158  0.13160  0.74150  Biso   1.000  O
  O19      1.0000 0.54091  0.63149  0.23321  Biso   1.000  O
  O20      1.0000 0.55880  0.63272  0.73188  Biso   1.000  O
  O21      1.0000 0.53959  0.13132  0.50311  Biso   1.000  O
  O22      1.0000 0.57099  0.12268  0.98274  Biso   1.000  O
  O23      1.0000 0.55294  0.62453  0.48493  Biso   1.000  O
  O24      1.0000 0.55676  0.60579  0.97921  Biso   1.000  O
  O25      1.0000 0.45092  0.37663  0.00876  Biso   1.000  O
  O26      1.0000 0.44844  0.38423  0.50988  Biso   1.000  O
  O27      1.0000 0.51060  0.85247  0.98447  Biso   1.000  O
  O28      1.0000 0.45590  0.88715  0.51945  Biso   1.000  O
  O29      1.0000 0.43447  0.37478  0.26151  Biso   1.000  O
  O30      1.0000 0.45173  0.37408  0.75742  Biso   1.000  O
  O31      1.0000 0.47363  0.87542  0.28480  Biso   1.000  O
  O32      1.0000 0.45949  0.87511  0.75532  Biso   1.000  O
