data_image0
_cell_length_a       10.259
_cell_length_b       10.6535
_cell_length_c       5.25641
_cell_angle_alpha    88.8764
_cell_angle_beta     79.1829
_cell_angle_gamma    91.2861

_symmetry_space_group_name_H-M    "P 1"
_symmetry_int_tables_number       1

loop_
  _symmetry_equiv_pos_as_xyz
  'x, y, z'

loop_
  _atom_site_label
  _atom_site_occupancy
  _atom_site_fract_x
  _atom_site_fract_y
  _atom_site_fract_z
  _atom_site_thermal_displace_type
  _atom_site_B_iso_or_equiv
  _atom_site_type_symbol
  Hf1      1.0000 0.14235  0.01916  0.28442  Biso   1.000  Hf
  Hf2      1.0000 0.12379  0.22395  0.78593  Biso   1.000  Hf
  Hf3      1.0000 0.32251  0.28925  0.19200  Biso   1.000  Hf
  Hf4      1.0000 0.33923  0.49353  0.70963  Biso   1.000  Hf
  O1       1.0000 0.05361  0.17550  0.17464  Biso   1.000  O
  O2       1.0000 0.03941  0.07431  0.65679  Biso   1.000  O
  O3       1.0000 0.44414  0.42899  0.35400  Biso   1.000  O
  O4       1.0000 0.43666  0.37392  0.89434  Biso   1.000  O
  O5       1.0000 0.27949  0.13239  0.46337  Biso   1.000  O
  O6       1.0000 0.28155  0.13088  0.95036  Biso   1.000  O
  O7       1.0000 0.19348  0.39005  0.01861  Biso   1.000  O
  O8       1.0000 0.20549  0.37259  0.52163  Biso   1.000  O
  Hf5      1.0000 0.12513  0.53018  0.29843  Biso   1.000  Hf
  Hf6      1.0000 0.13181  0.73205  0.78967  Biso   1.000  Hf
  Hf7      1.0000 0.35224  0.77189  0.19224  Biso   1.000  Hf
  Hf8      1.0000 0.35675  0.97023  0.68962  Biso   1.000  Hf
  O9       1.0000 0.02820  0.67438  0.16789  Biso   1.000  O
  O10      1.0000 0.03061  0.58280  0.67639  Biso   1.000  O
  O11      1.0000 0.45401  0.91780  0.29974  Biso   1.000  O
  O12      1.0000 0.44929  0.81564  0.81507  Biso   1.000  O
  O13      1.0000 0.26429  0.63596  0.47647  Biso   1.000  O
  O14      1.0000 0.26157  0.62716  0.98044  Biso   1.000  O
  O15      1.0000 0.22047  0.88342  0.00925  Biso   1.000  O
  O16      1.0000 0.21814  0.87014  0.50828  Biso   1.000  O
  Hf9      1.0000 0.63867  0.99756  0.27564  Biso   1.000  Hf
  Hf10     1.0000 0.72361  0.23157  0.89605  Biso   1.000  Hf
  Hf11     1.0000 0.87540  0.26424  0.27252  Biso   1.000  Hf
  Hf12     1.0000 0.85159  0.48811  0.73059  Biso   1.000  Hf
  O17      1.0000 0.56184  0.15469  0.10819  Biso   1.000  O
  O18      1.0000 0.54133  0.02793  0.63987  Biso   1.000  O
  O19      1.0000 0.95828  0.43016  0.36038  Biso   1.000  O
  O20      1.0000 0.93831  0.31361  0.85909  Biso   1.000  O
  O21      1.0000 0.78588  0.12721  0.53651  Biso   1.000  O
  O22      1.0000 0.81563  0.07970  0.03209  Biso   1.000  O
  O23      1.0000 0.71724  0.40470  0.06298  Biso   1.000  O
  O24      1.0000 0.73472  0.36601  0.56893  Biso   1.000  O
  Hf13     1.0000 0.62467  0.53794  0.29373  Biso   1.000  Hf
  Hf14     1.0000 0.62908  0.72774  0.78340  Biso   1.000  Hf
  Hf15     1.0000 0.85952  0.77148  0.20342  Biso   1.000  Hf
  Hf16     1.0000 0.86125  0.97028  0.70309  Biso   1.000  Hf
  O25      1.0000 0.52353  0.67194  0.15131  Biso   1.000  O
  O26      1.0000 0.52170  0.58735  0.65373  Biso   1.000  O
  O27      1.0000 0.96905  0.91697  0.33521  Biso   1.000  O
  O28      1.0000 0.96289  0.82851  0.83923  Biso   1.000  O
  O29      1.0000 0.76744  0.62768  0.48553  Biso   1.000  O
  O30      1.0000 0.76797  0.63304  0.98230  Biso   1.000  O
  O31      1.0000 0.71521  0.86690  0.00194  Biso   1.000  O
  O32      1.0000 0.72764  0.86341  0.50152  Biso   1.000  O
  Ba1      1.0000 0.52984  0.24428  0.55728  Biso   1.000  Ba
