data_image0
_cell_length_a       5.07781
_cell_length_b       10.2261
_cell_length_c       10.4847
_cell_angle_alpha    90.099
_cell_angle_beta     80.0041
_cell_angle_gamma    90.0974

_symmetry_space_group_name_H-M    "P 1"
_symmetry_int_tables_number       1

loop_
  _symmetry_equiv_pos_as_xyz
  'x, y, z'

loop_
  _atom_site_label
  _atom_site_occupancy
  _atom_site_fract_x
  _atom_site_fract_y
  _atom_site_fract_z
  _atom_site_thermal_displace_type
  _atom_site_B_iso_or_equiv
  _atom_site_type_symbol
  Be1      1.0000 0.09883  0.05049  0.16909  Biso   1.000  Be
  Hf1      1.0000 0.27891  0.01959  0.64590  Biso   1.000  Hf
  Hf2      1.0000 0.27886  0.52109  0.14463  Biso   1.000  Hf
  Hf3      1.0000 0.28217  0.51989  0.64668  Biso   1.000  Hf
  Hf4      1.0000 0.28386  0.22554  0.39210  Biso   1.000  Hf
  Hf5      1.0000 0.28383  0.22519  0.89771  Biso   1.000  Hf
  Hf6      1.0000 0.28189  0.72738  0.39487  Biso   1.000  Hf
  Hf7      1.0000 0.28613  0.73078  0.89773  Biso   1.000  Hf
  Hf8      1.0000 0.71322  0.26522  0.10500  Biso   1.000  Hf
  Hf9      1.0000 0.72412  0.26974  0.60270  Biso   1.000  Hf
  Hf10     1.0000 0.72014  0.77758  0.10663  Biso   1.000  Hf
  Hf11     1.0000 0.72448  0.77035  0.60369  Biso   1.000  Hf
  Hf12     1.0000 0.72114  0.47701  0.35233  Biso   1.000  Hf
  Hf13     1.0000 0.72476  0.47751  0.85525  Biso   1.000  Hf
  Hf14     1.0000 0.71186  0.97698  0.35378  Biso   1.000  Hf
  Hf15     1.0000 0.71838  0.97924  0.85610  Biso   1.000  Hf
  O1       1.0000 0.07303  0.16358  0.07708  Biso   1.000  O
  O2       1.0000 0.06541  0.16070  0.57289  Biso   1.000  O
  O3       1.0000 0.06836  0.66750  0.07913  Biso   1.000  O
  O4       1.0000 0.06932  0.66332  0.57881  Biso   1.000  O
  O5       1.0000 0.06767  0.08867  0.31602  Biso   1.000  O
  O6       1.0000 0.07123  0.08419  0.82631  Biso   1.000  O
  O7       1.0000 0.06528  0.58409  0.32694  Biso   1.000  O
  O8       1.0000 0.07086  0.58342  0.82867  Biso   1.000  O
  O9       1.0000 0.93252  0.41271  0.17184  Biso   1.000  O
  O10      1.0000 0.93770  0.41284  0.67277  Biso   1.000  O
  O11      1.0000 0.93697  0.92421  0.16866  Biso   1.000  O
  O12      1.0000 0.93347  0.91345  0.67345  Biso   1.000  O
  O13      1.0000 0.93607  0.33407  0.42143  Biso   1.000  O
  O14      1.0000 0.94058  0.33635  0.92431  Biso   1.000  O
  O15      1.0000 0.93883  0.83592  0.42274  Biso   1.000  O
  O16      1.0000 0.94585  0.83881  0.92306  Biso   1.000  O
  O17      1.0000 0.57992  0.13552  0.25036  Biso   1.000  O
  O18      1.0000 0.55426  0.12677  0.73777  Biso   1.000  O
  O19      1.0000 0.55352  0.62412  0.23850  Biso   1.000  O
  O20      1.0000 0.55665  0.62772  0.74052  Biso   1.000  O
  O21      1.0000 0.55027  0.11920  0.49272  Biso   1.000  O
  O22      1.0000 0.57997  0.13132  0.97813  Biso   1.000  O
  O23      1.0000 0.55462  0.61991  0.48994  Biso   1.000  O
  O24      1.0000 0.55616  0.61998  0.99093  Biso   1.000  O
  O25      1.0000 0.44912  0.37896  0.00967  Biso   1.000  O
  O26      1.0000 0.45020  0.37673  0.50907  Biso   1.000  O
  O27      1.0000 0.46970  0.87204  0.00065  Biso   1.000  O
  O28      1.0000 0.44760  0.87615  0.51169  Biso   1.000  O
  O29      1.0000 0.44150  0.37176  0.25897  Biso   1.000  O
  O30      1.0000 0.45254  0.36977  0.75958  Biso   1.000  O
  O31      1.0000 0.46947  0.86178  0.26591  Biso   1.000  O
  O32      1.0000 0.44881  0.87084  0.75729  Biso   1.000  O
