data_image0
_cell_length_a       10.0271
_cell_length_b       10.2404
_cell_length_c       10.4821
_cell_angle_alpha    89.9866
_cell_angle_beta     90.5138
_cell_angle_gamma    90.0515

_symmetry_space_group_name_H-M    "P 1"
_symmetry_int_tables_number       1

loop_
  _symmetry_equiv_pos_as_xyz
  'x, y, z'

loop_
  _atom_site_label
  _atom_site_occupancy
  _atom_site_fract_x
  _atom_site_fract_y
  _atom_site_fract_z
  _atom_site_thermal_displace_type
  _atom_site_B_iso_or_equiv
  _atom_site_type_symbol
  Hf1      1.0000 0.13668  0.02139  0.17207  Biso   1.000  Hf
  Hf2      1.0000 0.13577  0.22771  0.42536  Biso   1.000  Hf
  Hf3      1.0000 0.34757  0.27051  0.17967  Biso   1.000  Hf
  Hf4      1.0000 0.36073  0.47990  0.42343  Biso   1.000  Hf
  Hf5      1.0000 0.64367  0.03160  0.07050  Biso   1.000  Hf
  Hf6      1.0000 0.63681  0.22590  0.33925  Biso   1.000  Hf
  Hf7      1.0000 0.85345  0.26667  0.07175  Biso   1.000  Hf
  Hf8      1.0000 0.86154  0.47712  0.32703  Biso   1.000  Hf
  O1       1.0000 0.03422  0.16706  0.08502  Biso   1.000  O
  O2       1.0000 0.03309  0.08216  0.33635  Biso   1.000  O
  O3       1.0000 0.48222  0.39355  0.07507  Biso   1.000  O
  O4       1.0000 0.46358  0.33590  0.33440  Biso   1.000  O
  O5       1.0000 0.27388  0.12423  0.29789  Biso   1.000  O
  O6       1.0000 0.27706  0.12655  0.04708  Biso   1.000  O
  O7       1.0000 0.21741  0.37401  0.29806  Biso   1.000  O
  O8       1.0000 0.22662  0.37872  0.04860  Biso   1.000  O
  O9       1.0000 0.52556  0.16796  0.17431  Biso   1.000  O
  O10      1.0000 0.53068  0.08448  0.42057  Biso   1.000  O
  O11      1.0000 0.95803  0.41604  0.16567  Biso   1.000  O
  O12      1.0000 0.96432  0.33253  0.41721  Biso   1.000  O
  O13      1.0000 0.77540  0.12227  0.45966  Biso   1.000  O
  O14      1.0000 0.77526  0.12805  0.21245  Biso   1.000  O
  O15      1.0000 0.72263  0.37341  0.45236  Biso   1.000  O
  O16      1.0000 0.70324  0.36814  0.19298  Biso   1.000  O
  Hf9      1.0000 0.14140  0.02035  0.67241  Biso   1.000  Hf
  Hf10     1.0000 0.13739  0.22724  0.92212  Biso   1.000  Hf
  Hf11     1.0000 0.36498  0.26973  0.67371  Biso   1.000  Hf
  Hf12     1.0000 0.36125  0.47718  0.92103  Biso   1.000  Hf
  Hf13     1.0000 0.63896  0.02101  0.58337  Biso   1.000  Hf
  Hf14     1.0000 0.64385  0.23019  0.83719  Biso   1.000  Hf
  Hf15     1.0000 0.86080  0.27022  0.58137  Biso   1.000  Hf
  Hf16     1.0000 0.86591  0.48139  0.82491  Biso   1.000  Hf
  O17      1.0000 0.03373  0.16609  0.58693  Biso   1.000  O
  O18      1.0000 0.03885  0.08087  0.83352  Biso   1.000  O
  O19      1.0000 0.46849  0.41472  0.58315  Biso   1.000  O
  O20      1.0000 0.47057  0.33661  0.83346  Biso   1.000  O
  O21      1.0000 0.27943  0.12382  0.79633  Biso   1.000  O
  O22      1.0000 0.27658  0.12444  0.54643  Biso   1.000  O
  O23      1.0000 0.22580  0.37328  0.79728  Biso   1.000  O
  O24      1.0000 0.22490  0.37531  0.54693  Biso   1.000  O
  O25      1.0000 0.53502  0.16507  0.66890  Biso   1.000  O
  O26      1.0000 0.53605  0.07688  0.90865  Biso   1.000  O
  O27      1.0000 0.96957  0.41572  0.66504  Biso   1.000  O
  O28      1.0000 0.96958  0.33425  0.91391  Biso   1.000  O
  O29      1.0000 0.79760  0.11476  0.94782  Biso   1.000  O
  O30      1.0000 0.77870  0.12591  0.70623  Biso   1.000  O
  O31      1.0000 0.73267  0.38876  0.94725  Biso   1.000  O
  O32      1.0000 0.72570  0.37628  0.70296  Biso   1.000  O
  Hf17     1.0000 0.13381  0.52146  0.17143  Biso   1.000  Hf
  Hf18     1.0000 0.13833  0.72829  0.42147  Biso   1.000  Hf
  Hf19     1.0000 0.36190  0.77405  0.17186  Biso   1.000  Hf
  Hf20     1.0000 0.36001  0.97661  0.42401  Biso   1.000  Hf
  Hf21     1.0000 0.64387  0.53245  0.07314  Biso   1.000  Hf
  Hf22     1.0000 0.63939  0.72986  0.32817  Biso   1.000  Hf
  Hf23     1.0000 0.86177  0.77511  0.07817  Biso   1.000  Hf
  Hf24     1.0000 0.85914  0.97855  0.32904  Biso   1.000  Hf
  O33      1.0000 0.03343  0.66681  0.08493  Biso   1.000  O
  O34      1.0000 0.03064  0.58128  0.33554  Biso   1.000  O
  O35      1.0000 0.46833  0.91865  0.08546  Biso   1.000  O
  O36      1.0000 0.46758  0.83494  0.33418  Biso   1.000  O
  O37      1.0000 0.27306  0.62360  0.29470  Biso   1.000  O
  O38      1.0000 0.27782  0.62432  0.04628  Biso   1.000  O
  O39      1.0000 0.22375  0.87379  0.29612  Biso   1.000  O
  O40      1.0000 0.22345  0.87609  0.04678  Biso   1.000  O
  O41      1.0000 0.53048  0.66232  0.16775  Biso   1.000  O
  O42      1.0000 0.53199  0.58632  0.41741  Biso   1.000  O
  O43      1.0000 0.96618  0.91798  0.16657  Biso   1.000  O
  O44      1.0000 0.96608  0.83126  0.41380  Biso   1.000  O
  O45      1.0000 0.77652  0.62257  0.45329  Biso   1.000  O
  O46      1.0000 0.77655  0.62525  0.20345  Biso   1.000  O
  O47      1.0000 0.72324  0.87386  0.45548  Biso   1.000  O
  O48      1.0000 0.72503  0.87567  0.20474  Biso   1.000  O
  Hf25     1.0000 0.14132  0.52034  0.67147  Biso   1.000  Hf
  Hf26     1.0000 0.14163  0.72892  0.92276  Biso   1.000  Hf
  Hf27     1.0000 0.36205  0.76995  0.67281  Biso   1.000  Hf
  Hf28     1.0000 0.36334  0.97853  0.92326  Biso   1.000  Hf
  Hf29     1.0000 0.63935  0.52130  0.57832  Biso   1.000  Hf
  Hf30     1.0000 0.63971  0.73095  0.82727  Biso   1.000  Hf
  Hf31     1.0000 0.86267  0.77018  0.57678  Biso   1.000  Hf
  Hf32     1.0000 0.86508  0.97537  0.82587  Biso   1.000  Hf
  O49      1.0000 0.03441  0.66429  0.58312  Biso   1.000  O
  O50      1.0000 0.03754  0.58529  0.83363  Biso   1.000  O
  O51      1.0000 0.46724  0.91356  0.58473  Biso   1.000  O
  O52      1.0000 0.46716  0.83283  0.83419  Biso   1.000  O
  O53      1.0000 0.27972  0.62190  0.79570  Biso   1.000  O
  O54      1.0000 0.27683  0.62556  0.54567  Biso   1.000  O
  O55      1.0000 0.22497  0.87214  0.79578  Biso   1.000  O
  O56      1.0000 0.22384  0.87427  0.54538  Biso   1.000  O
  O57      1.0000 0.53336  0.66356  0.66753  Biso   1.000  O
  O58      1.0000 0.53088  0.58815  0.91926  Biso   1.000  O
  O59      1.0000 0.96980  0.91419  0.66279  Biso   1.000  O
  O60      1.0000 0.97006  0.83366  0.91756  Biso   1.000  O
  O61      1.0000 0.77810  0.63009  0.95274  Biso   1.000  O
  O62      1.0000 0.77780  0.62715  0.70344  Biso   1.000  O
  O63      1.0000 0.72490  0.87478  0.95424  Biso   1.000  O
  O64      1.0000 0.72474  0.87465  0.70387  Biso   1.000  O
  Be1      1.0000 0.59283  0.28163  0.09568  Biso   1.000  Be
