data_image0
_cell_length_a       10.1402
_cell_length_b       10.2406
_cell_length_c       10.4693
_cell_angle_alpha    90.0976
_cell_angle_beta     80.2774
_cell_angle_gamma    89.9002

_symmetry_space_group_name_H-M    "P 1"
_symmetry_int_tables_number       1

loop_
  _symmetry_equiv_pos_as_xyz
  'x, y, z'

loop_
  _atom_site_label
  _atom_site_occupancy
  _atom_site_fract_x
  _atom_site_fract_y
  _atom_site_fract_z
  _atom_site_thermal_displace_type
  _atom_site_B_iso_or_equiv
  _atom_site_type_symbol
  C1       1.0000 0.01837  0.06109  0.17615  Biso   1.000  C
  Hf1      1.0000 0.14813  0.23082  0.39390  Biso   1.000  Hf
  Hf2      1.0000 0.35602  0.26319  0.10538  Biso   1.000  Hf
  Hf3      1.0000 0.36022  0.47748  0.35151  Biso   1.000  Hf
  O1       1.0000 0.03238  0.14867  0.08900  Biso   1.000  O
  O2       1.0000 0.03037  0.09051  0.29454  Biso   1.000  O
  O3       1.0000 0.46327  0.41504  0.17116  Biso   1.000  O
  O4       1.0000 0.46453  0.33104  0.42115  Biso   1.000  O
  O5       1.0000 0.28820  0.13848  0.25414  Biso   1.000  O
  O6       1.0000 0.27673  0.11988  0.49452  Biso   1.000  O
  O7       1.0000 0.22111  0.37684  0.00983  Biso   1.000  O
  O8       1.0000 0.21946  0.37395  0.25796  Biso   1.000  O
  Hf4      1.0000 0.14006  0.01921  0.64431  Biso   1.000  Hf
  Hf5      1.0000 0.14767  0.22642  0.89276  Biso   1.000  Hf
  Hf6      1.0000 0.36330  0.27010  0.60416  Biso   1.000  Hf
  Hf7      1.0000 0.36316  0.47792  0.85560  Biso   1.000  Hf
  O9       1.0000 0.03031  0.15217  0.56084  Biso   1.000  O
  O10      1.0000 0.03479  0.08638  0.82556  Biso   1.000  O
  O11      1.0000 0.46676  0.41737  0.67106  Biso   1.000  O
  O12      1.0000 0.46856  0.33566  0.92213  Biso   1.000  O
  O13      1.0000 0.27623  0.12745  0.73747  Biso   1.000  O
  O14      1.0000 0.28609  0.13192  0.97897  Biso   1.000  O
  O15      1.0000 0.22288  0.37613  0.50792  Biso   1.000  O
  O16      1.0000 0.22662  0.36875  0.75937  Biso   1.000  O
  Hf8      1.0000 0.13989  0.52125  0.14452  Biso   1.000  Hf
  Hf9      1.0000 0.14276  0.72835  0.39318  Biso   1.000  Hf
  Hf10     1.0000 0.35628  0.77767  0.10450  Biso   1.000  Hf
  Hf11     1.0000 0.35903  0.97882  0.35022  Biso   1.000  Hf
  O17      1.0000 0.03665  0.67497  0.08367  Biso   1.000  O
  O18      1.0000 0.03352  0.58384  0.32775  Biso   1.000  O
  O19      1.0000 0.47013  0.91744  0.17117  Biso   1.000  O
  O20      1.0000 0.46859  0.83292  0.42233  Biso   1.000  O
  O21      1.0000 0.27638  0.62475  0.23847  Biso   1.000  O
  O22      1.0000 0.27713  0.61962  0.48967  Biso   1.000  O
  O23      1.0000 0.23262  0.87084  0.99899  Biso   1.000  O
  O24      1.0000 0.23400  0.86237  0.26521  Biso   1.000  O
  Hf12     1.0000 0.14083  0.52254  0.64687  Biso   1.000  Hf
  Hf13     1.0000 0.14407  0.73353  0.89672  Biso   1.000  Hf
  Hf14     1.0000 0.36316  0.77218  0.60318  Biso   1.000  Hf
  Hf15     1.0000 0.35780  0.97847  0.85902  Biso   1.000  Hf
  O25      1.0000 0.03496  0.66501  0.57849  Biso   1.000  O
  O26      1.0000 0.03783  0.58019  0.83012  Biso   1.000  O
  O27      1.0000 0.46551  0.91590  0.67420  Biso   1.000  O
  O28      1.0000 0.47320  0.83889  0.92351  Biso   1.000  O
  O29      1.0000 0.27827  0.62908  0.73978  Biso   1.000  O
  O30      1.0000 0.27658  0.61771  0.99094  Biso   1.000  O
  O31      1.0000 0.22465  0.87756  0.50990  Biso   1.000  O
  O32      1.0000 0.22334  0.87175  0.75640  Biso   1.000  O
  Hf16     1.0000 0.63855  0.02256  0.14553  Biso   1.000  Hf
  Hf17     1.0000 0.63716  0.22830  0.39635  Biso   1.000  Hf
  Hf18     1.0000 0.85168  0.27711  0.10519  Biso   1.000  Hf
  Hf19     1.0000 0.86320  0.47761  0.35351  Biso   1.000  Hf
  O33      1.0000 0.53804  0.16922  0.07959  Biso   1.000  O
  O34      1.0000 0.54162  0.07752  0.33090  Biso   1.000  O
  O35      1.0000 0.96490  0.41486  0.17085  Biso   1.000  O
  O36      1.0000 0.96715  0.33014  0.41885  Biso   1.000  O
  O37      1.0000 0.77929  0.12991  0.24125  Biso   1.000  O
  O38      1.0000 0.77497  0.11844  0.49151  Biso   1.000  O
  O39      1.0000 0.72426  0.38187  0.00953  Biso   1.000  O
  O40      1.0000 0.72133  0.37127  0.25974  Biso   1.000  O
  Hf20     1.0000 0.63619  0.02031  0.65039  Biso   1.000  Hf
  Hf21     1.0000 0.63805  0.22883  0.89515  Biso   1.000  Hf
  Hf22     1.0000 0.86409  0.26919  0.60185  Biso   1.000  Hf
  Hf23     1.0000 0.86704  0.47578  0.85404  Biso   1.000  Hf
  O41      1.0000 0.53668  0.16817  0.58025  Biso   1.000  O
  O42      1.0000 0.53661  0.08242  0.82997  Biso   1.000  O
  O43      1.0000 0.97174  0.40894  0.67422  Biso   1.000  O
  O44      1.0000 0.96831  0.32887  0.92973  Biso   1.000  O
  O45      1.0000 0.77797  0.12818  0.73941  Biso   1.000  O
  O46      1.0000 0.77857  0.12315  0.99050  Biso   1.000  O
  O47      1.0000 0.72663  0.37685  0.51003  Biso   1.000  O
  O48      1.0000 0.72759  0.37057  0.75965  Biso   1.000  O
  Hf24     1.0000 0.63250  0.52244  0.14615  Biso   1.000  Hf
  Hf25     1.0000 0.63706  0.72528  0.39665  Biso   1.000  Hf
  Hf26     1.0000 0.86018  0.76496  0.09862  Biso   1.000  Hf
  Hf27     1.0000 0.84899  0.97427  0.36536  Biso   1.000  Hf
  O49      1.0000 0.53473  0.66869  0.07833  Biso   1.000  O
  O50      1.0000 0.53334  0.58086  0.32913  Biso   1.000  O
  O51      1.0000 0.96976  0.94802  0.16300  Biso   1.000  O
  O52      1.0000 0.96763  0.83843  0.41932  Biso   1.000  O
  O53      1.0000 0.77446  0.62689  0.23944  Biso   1.000  O
  O54      1.0000 0.77778  0.62013  0.49021  Biso   1.000  O
  O55      1.0000 0.72661  0.88031  0.01044  Biso   1.000  O
  O56      1.0000 0.73577  0.86892  0.25879  Biso   1.000  O
  Hf28     1.0000 0.64057  0.52000  0.64703  Biso   1.000  Hf
  Hf29     1.0000 0.63784  0.72961  0.89698  Biso   1.000  Hf
  Hf30     1.0000 0.86270  0.76873  0.60584  Biso   1.000  Hf
  Hf31     1.0000 0.86312  0.97931  0.85344  Biso   1.000  Hf
  O57      1.0000 0.53662  0.66538  0.57806  Biso   1.000  O
  O58      1.0000 0.53629  0.58358  0.82797  Biso   1.000  O
  O59      1.0000 0.96612  0.91425  0.67239  Biso   1.000  O
  O60      1.0000 0.96606  0.83233  0.92164  Biso   1.000  O
  O61      1.0000 0.77976  0.62662  0.74114  Biso   1.000  O
  O62      1.0000 0.78013  0.62283  0.99175  Biso   1.000  O
  O63      1.0000 0.72199  0.87595  0.51217  Biso   1.000  O
  O64      1.0000 0.72598  0.87003  0.75998  Biso   1.000  O
