data_image0
_cell_length_a       10.1687
_cell_length_b       5.1087
_cell_length_c       10.4701
_cell_angle_alpha    89.9102
_cell_angle_beta     80.348
_cell_angle_gamma    89.7702

_symmetry_space_group_name_H-M    "P 1"
_symmetry_int_tables_number       1

loop_
  _symmetry_equiv_pos_as_xyz
  'x, y, z'

loop_
  _atom_site_label
  _atom_site_occupancy
  _atom_site_fract_x
  _atom_site_fract_y
  _atom_site_fract_z
  _atom_site_thermal_displace_type
  _atom_site_B_iso_or_equiv
  _atom_site_type_symbol
  C1       1.0000 0.01819  0.12433  0.17956  Biso   1.000  C
  Hf1      1.0000 0.15290  0.46373  0.38965  Biso   1.000  Hf
  Hf2      1.0000 0.35192  0.54263  0.10500  Biso   1.000  Hf
  Hf3      1.0000 0.35684  0.95875  0.34626  Biso   1.000  Hf
  O1       1.0000 0.03283  0.30445  0.09361  Biso   1.000  O
  O2       1.0000 0.02914  0.18098  0.29795  Biso   1.000  O
  O3       1.0000 0.46959  0.82754  0.17164  Biso   1.000  O
  O4       1.0000 0.46762  0.66376  0.42176  Biso   1.000  O
  O5       1.0000 0.28728  0.27032  0.25050  Biso   1.000  O
  O6       1.0000 0.27757  0.23847  0.49317  Biso   1.000  O
  O7       1.0000 0.22950  0.74248  0.99953  Biso   1.000  O
  O8       1.0000 0.22801  0.73854  0.26129  Biso   1.000  O
  Hf4      1.0000 0.14225  0.04073  0.64425  Biso   1.000  Hf
  Hf5      1.0000 0.15434  0.45912  0.89304  Biso   1.000  Hf
  Hf6      1.0000 0.36523  0.54184  0.60265  Biso   1.000  Hf
  Hf7      1.0000 0.35838  0.95572  0.86084  Biso   1.000  Hf
  O9       1.0000 0.03063  0.30002  0.56030  Biso   1.000  O
  O10      1.0000 0.03662  0.17145  0.82470  Biso   1.000  O
  O11      1.0000 0.46804  0.82759  0.67478  Biso   1.000  O
  O12      1.0000 0.47486  0.68115  0.92475  Biso   1.000  O
  O13      1.0000 0.27840  0.25292  0.73642  Biso   1.000  O
  O14      1.0000 0.28901  0.25867  0.97927  Biso   1.000  O
  O15      1.0000 0.22440  0.75135  0.50770  Biso   1.000  O
  O16      1.0000 0.22689  0.73796  0.75539  Biso   1.000  O
  Hf8      1.0000 0.63307  0.04622  0.14655  Biso   1.000  Hf
  Hf9      1.0000 0.63472  0.45017  0.39697  Biso   1.000  Hf
  Hf10     1.0000 0.85190  0.54142  0.09798  Biso   1.000  Hf
  Hf11     1.0000 0.84919  0.94572  0.36567  Biso   1.000  Hf
  O17      1.0000 0.53847  0.34002  0.07914  Biso   1.000  O
  O18      1.0000 0.53978  0.15291  0.33045  Biso   1.000  O
  O19      1.0000 0.96977  0.89871  0.16433  Biso   1.000  O
  O20      1.0000 0.96858  0.67116  0.41699  Biso   1.000  O
  O21      1.0000 0.77777  0.25649  0.24067  Biso   1.000  O
  O22      1.0000 0.77610  0.23395  0.49171  Biso   1.000  O
  O23      1.0000 0.72789  0.76525  0.01013  Biso   1.000  O
  O24      1.0000 0.73407  0.73858  0.25888  Biso   1.000  O
  Hf12     1.0000 0.63751  0.03592  0.65176  Biso   1.000  Hf
  Hf13     1.0000 0.63604  0.45779  0.89604  Biso   1.000  Hf
  Hf14     1.0000 0.86619  0.53108  0.60370  Biso   1.000  Hf
  Hf15     1.0000 0.86946  0.95297  0.85256  Biso   1.000  Hf
  O25      1.0000 0.53770  0.32939  0.57876  Biso   1.000  O
  O26      1.0000 0.53799  0.16560  0.82884  Biso   1.000  O
  O27      1.0000 0.97328  0.80895  0.67618  Biso   1.000  O
  O28      1.0000 0.97175  0.66054  0.93327  Biso   1.000  O
  O29      1.0000 0.78135  0.24962  0.74029  Biso   1.000  O
  O30      1.0000 0.78180  0.24955  0.99175  Biso   1.000  O
  O31      1.0000 0.72462  0.74614  0.51295  Biso   1.000  O
  O32      1.0000 0.73055  0.73734  0.76043  Biso   1.000  O
