data_image0
_cell_length_a       10.0732
_cell_length_b       5.12987
_cell_length_c       10.4844
_cell_angle_alpha    89.0967
_cell_angle_beta     90.1111
_cell_angle_gamma    90.1031

_symmetry_space_group_name_H-M    "P 1"
_symmetry_int_tables_number       1

loop_
  _symmetry_equiv_pos_as_xyz
  'x, y, z'

loop_
  _atom_site_label
  _atom_site_occupancy
  _atom_site_fract_x
  _atom_site_fract_y
  _atom_site_fract_z
  _atom_site_thermal_displace_type
  _atom_site_B_iso_or_equiv
  _atom_site_type_symbol
  Hf1      1.0000 0.13529  0.04828  0.17216  Biso   1.000  Hf
  Hf2      1.0000 0.13800  0.46496  0.42390  Biso   1.000  Hf
  Hf3      1.0000 0.35140  0.55197  0.17639  Biso   1.000  Hf
  Hf4      1.0000 0.36414  0.96889  0.42231  Biso   1.000  Hf
  Hf5      1.0000 0.64621  0.03141  0.06616  Biso   1.000  Hf
  Hf6      1.0000 0.64274  0.48778  0.33633  Biso   1.000  Hf
  Hf7      1.0000 0.85843  0.54251  0.08027  Biso   1.000  Hf
  Hf8      1.0000 0.86279  0.97086  0.33032  Biso   1.000  Hf
  O1       1.0000 0.03134  0.33612  0.08450  Biso   1.000  O
  O2       1.0000 0.03260  0.18063  0.33329  Biso   1.000  O
  O3       1.0000 0.47621  0.77979  0.06999  Biso   1.000  O
  O4       1.0000 0.46427  0.67357  0.33324  Biso   1.000  O
  O5       1.0000 0.27154  0.25668  0.29787  Biso   1.000  O
  O6       1.0000 0.27326  0.25206  0.04401  Biso   1.000  O
  O7       1.0000 0.22324  0.75809  0.29715  Biso   1.000  O
  O8       1.0000 0.22431  0.75641  0.04834  Biso   1.000  O
  O9       1.0000 0.49182  0.23443  0.15439  Biso   1.000  O
  O10      1.0000 0.53609  0.17993  0.41366  Biso   1.000  O
  O11      1.0000 0.96820  0.83212  0.16786  Biso   1.000  O
  O12      1.0000 0.96812  0.67695  0.41890  Biso   1.000  O
  O13      1.0000 0.77930  0.25920  0.45897  Biso   1.000  O
  O14      1.0000 0.77293  0.26150  0.21152  Biso   1.000  O
  O15      1.0000 0.72672  0.76226  0.45747  Biso   1.000  O
  O16      1.0000 0.73204  0.77304  0.20830  Biso   1.000  O
  Hf9      1.0000 0.14335  0.04547  0.67197  Biso   1.000  Hf
  Hf10     1.0000 0.13854  0.45781  0.92186  Biso   1.000  Hf
  Hf11     1.0000 0.36494  0.54482  0.67100  Biso   1.000  Hf
  Hf12     1.0000 0.36237  0.95187  0.91989  Biso   1.000  Hf
  Hf13     1.0000 0.64116  0.05221  0.58005  Biso   1.000  Hf
  Hf14     1.0000 0.64069  0.45723  0.83081  Biso   1.000  Hf
  Hf15     1.0000 0.86434  0.54802  0.58114  Biso   1.000  Hf
  Hf16     1.0000 0.86680  0.95925  0.82660  Biso   1.000  Hf
  O17      1.0000 0.03564  0.33506  0.58559  Biso   1.000  O
  O18      1.0000 0.03846  0.17080  0.83318  Biso   1.000  O
  O19      1.0000 0.46971  0.83992  0.58260  Biso   1.000  O
  O20      1.0000 0.46889  0.66655  0.83012  Biso   1.000  O
  O21      1.0000 0.28033  0.24795  0.79414  Biso   1.000  O
  O22      1.0000 0.27857  0.25702  0.54498  Biso   1.000  O
  O23      1.0000 0.22703  0.74815  0.79650  Biso   1.000  O
  O24      1.0000 0.22706  0.75746  0.54579  Biso   1.000  O
  O25      1.0000 0.53727  0.34117  0.66373  Biso   1.000  O
  O26      1.0000 0.53688  0.15027  0.90612  Biso   1.000  O
  O27      1.0000 0.97219  0.83378  0.66679  Biso   1.000  O
  O28      1.0000 0.97035  0.67245  0.91859  Biso   1.000  O
  O29      1.0000 0.78759  0.24224  0.95156  Biso   1.000  O
  O30      1.0000 0.77810  0.25698  0.70622  Biso   1.000  O
  O31      1.0000 0.73078  0.74848  0.95062  Biso   1.000  O
  O32      1.0000 0.72718  0.75604  0.70488  Biso   1.000  O
  C1       1.0000 0.57962  0.42015  0.13323  Biso   1.000  C
