data_image0
_cell_length_a       10.1197
_cell_length_b       10.4056
_cell_length_c       5.09176
_cell_angle_alpha    93.7627
_cell_angle_beta     90.3046
_cell_angle_gamma    89.9624

_symmetry_space_group_name_H-M    "P 1"
_symmetry_int_tables_number       1

loop_
  _symmetry_equiv_pos_as_xyz
  'x, y, z'

loop_
  _atom_site_label
  _atom_site_occupancy
  _atom_site_fract_x
  _atom_site_fract_y
  _atom_site_fract_z
  _atom_site_thermal_displace_type
  _atom_site_B_iso_or_equiv
  _atom_site_type_symbol
  Hf1      1.0000 0.10452  0.96913  0.22332  Biso   1.000  Hf
  Hf2      1.0000 0.11340  0.23206  0.82479  Biso   1.000  Hf
  Hf3      1.0000 0.38961  0.25708  0.28673  Biso   1.000  Hf
  Hf4      1.0000 0.35192  0.01803  0.75586  Biso   1.000  Hf
  O1       1.0000 0.98255  0.12837  0.06101  Biso   1.000  O
  O2       1.0000 0.03555  0.06978  0.56247  Biso   1.000  O
  O3       1.0000 0.96763  0.31248  0.60233  Biso   1.000  O
  O4       1.0000 0.00269  0.38590  0.08578  Biso   1.000  O
  O5       1.0000 0.27839  0.18111  0.59303  Biso   1.000  O
  O6       1.0000 0.23589  0.10721  0.06266  Biso   1.000  O
  O7       1.0000 0.25389  0.36023  0.01686  Biso   1.000  O
  O8       1.0000 0.26344  0.42226  0.48762  Biso   1.000  O
  Hf5      1.0000 0.15128  0.52559  0.22525  Biso   1.000  Hf
  Hf6      1.0000 0.10543  0.73101  0.72334  Biso   1.000  Hf
  Hf7      1.0000 0.36246  0.77030  0.19053  Biso   1.000  Hf
  Hf8      1.0000 0.39431  0.48339  0.77577  Biso   1.000  Hf
  O9       1.0000 0.00102  0.63471  0.01458  Biso   1.000  O
  O10      1.0000 0.02136  0.56725  0.53319  Biso   1.000  O
  O11      1.0000 0.01872  0.81922  0.41682  Biso   1.000  O
  O12      1.0000 0.98256  0.87850  0.93245  Biso   1.000  O
  O13      1.0000 0.24427  0.67806  0.43575  Biso   1.000  O
  O14      1.0000 0.25404  0.61526  0.93900  Biso   1.000  O
  O15      1.0000 0.23439  0.86120  0.93537  Biso   1.000  O
  O16      1.0000 0.27634  0.92588  0.42333  Biso   1.000  O
  Hf9      1.0000 0.60959  0.98653  0.22791  Biso   1.000  Hf
  Hf10     1.0000 0.61356  0.23366  0.79855  Biso   1.000  Hf
  Hf11     1.0000 0.84362  0.26590  0.27147  Biso   1.000  Hf
  Hf12     1.0000 0.86173  0.01583  0.75152  Biso   1.000  Hf
  O17      1.0000 0.48771  0.13287  0.02154  Biso   1.000  O
  O18      1.0000 0.51141  0.08966  0.52321  Biso   1.000  O
  O19      1.0000 0.50591  0.34036  0.56638  Biso   1.000  O
  O20      1.0000 0.50280  0.38829  0.06077  Biso   1.000  O
  O21      1.0000 0.76126  0.16558  0.55843  Biso   1.000  O
  O22      1.0000 0.73567  0.11286  0.03494  Biso   1.000  O
  O23      1.0000 0.74741  0.36631  0.97755  Biso   1.000  O
  O24      1.0000 0.76745  0.43136  0.46774  Biso   1.000  O
  Hf13     1.0000 0.64355  0.52130  0.22883  Biso   1.000  Hf
  Hf14     1.0000 0.60496  0.73740  0.72340  Biso   1.000  Hf
  Hf15     1.0000 0.85527  0.76525  0.18294  Biso   1.000  Hf
  Hf16     1.0000 0.89679  0.47939  0.78574  Biso   1.000  Hf
  O25      1.0000 0.50119  0.64017  0.01027  Biso   1.000  O
  O26      1.0000 0.51029  0.58164  0.52316  Biso   1.000  O
  O27      1.0000 0.52299  0.83398  0.42266  Biso   1.000  O
  O28      1.0000 0.48464  0.88982  0.94342  Biso   1.000  O
  O29      1.0000 0.73908  0.67914  0.43690  Biso   1.000  O
  O30      1.0000 0.75124  0.61406  0.94340  Biso   1.000  O
  O31      1.0000 0.73443  0.86561  0.93138  Biso   1.000  O
  O32      1.0000 0.78109  0.92772  0.41532  Biso   1.000  O
  Ca1      1.0000 0.12192  0.25244  0.32566  Biso   1.000  Ca
