data_image0
_cell_length_a       10.0466
_cell_length_b       10.24
_cell_length_c       10.4616
_cell_angle_alpha    89.8876
_cell_angle_beta     90.136
_cell_angle_gamma    90.0088

_symmetry_space_group_name_H-M    "P 1"
_symmetry_int_tables_number       1

loop_
  _symmetry_equiv_pos_as_xyz
  'x, y, z'

loop_
  _atom_site_label
  _atom_site_occupancy
  _atom_site_fract_x
  _atom_site_fract_y
  _atom_site_fract_z
  _atom_site_thermal_displace_type
  _atom_site_B_iso_or_equiv
  _atom_site_type_symbol
  Cd1      1.0000 0.13377  0.01476  0.17183  Biso   1.000  Cd
  Hf1      1.0000 0.13930  0.02056  0.67086  Biso   1.000  Hf
  Hf2      1.0000 0.13944  0.52084  0.17118  Biso   1.000  Hf
  Hf3      1.0000 0.13949  0.52088  0.67220  Biso   1.000  Hf
  Hf4      1.0000 0.13954  0.22895  0.42123  Biso   1.000  Hf
  Hf5      1.0000 0.14095  0.22755  0.92235  Biso   1.000  Hf
  Hf6      1.0000 0.13909  0.72859  0.42106  Biso   1.000  Hf
  Hf7      1.0000 0.14115  0.72969  0.92140  Biso   1.000  Hf
  Hf8      1.0000 0.35762  0.26747  0.17061  Biso   1.000  Hf
  Hf9      1.0000 0.36075  0.27069  0.67174  Biso   1.000  Hf
  Hf10     1.0000 0.36159  0.77118  0.16943  Biso   1.000  Hf
  Hf11     1.0000 0.36065  0.77133  0.67088  Biso   1.000  Hf
  Hf12     1.0000 0.36037  0.47852  0.42082  Biso   1.000  Hf
  Hf13     1.0000 0.36070  0.47787  0.92222  Biso   1.000  Hf
  Hf14     1.0000 0.35939  0.98032  0.42007  Biso   1.000  Hf
  Hf15     1.0000 0.36123  0.97974  0.92169  Biso   1.000  Hf
  Hf16     1.0000 0.64018  0.02139  0.07872  Biso   1.000  Hf
  Hf17     1.0000 0.63789  0.02094  0.57904  Biso   1.000  Hf
  Hf18     1.0000 0.63800  0.51936  0.07826  Biso   1.000  Hf
  Hf19     1.0000 0.63864  0.52093  0.57809  Biso   1.000  Hf
  Hf20     1.0000 0.63755  0.22979  0.32835  Biso   1.000  Hf
  Hf21     1.0000 0.63949  0.22892  0.82854  Biso   1.000  Hf
  Hf22     1.0000 0.63906  0.72871  0.32800  Biso   1.000  Hf
  Hf23     1.0000 0.63832  0.72902  0.82781  Biso   1.000  Hf
  Hf24     1.0000 0.86177  0.27021  0.07873  Biso   1.000  Hf
  Hf25     1.0000 0.86023  0.27165  0.57829  Biso   1.000  Hf
  Hf26     1.0000 0.86018  0.76874  0.07675  Biso   1.000  Hf
  Hf27     1.0000 0.86120  0.77067  0.57857  Biso   1.000  Hf
  Hf28     1.0000 0.86106  0.47937  0.32828  Biso   1.000  Hf
  Hf29     1.0000 0.86156  0.47872  0.82855  Biso   1.000  Hf
  Hf30     1.0000 0.85965  0.98077  0.33226  Biso   1.000  Hf
  Hf31     1.0000 0.86128  0.97897  0.82881  Biso   1.000  Hf
  O1       1.0000 0.03566  0.17549  0.08396  Biso   1.000  O
  O2       1.0000 0.03364  0.16978  0.58887  Biso   1.000  O
  O3       1.0000 0.03428  0.66803  0.08468  Biso   1.000  O
  O4       1.0000 0.03317  0.66585  0.58537  Biso   1.000  O
  O5       1.0000 0.02666  0.08398  0.35420  Biso   1.000  O
  O6       1.0000 0.03376  0.08297  0.83465  Biso   1.000  O
  O7       1.0000 0.03317  0.58424  0.33424  Biso   1.000  O
  O8       1.0000 0.03359  0.58292  0.83464  Biso   1.000  O
  O9       1.0000 0.46739  0.41258  0.08281  Biso   1.000  O
  O10      1.0000 0.46768  0.41443  0.58283  Biso   1.000  O
  O11      1.0000 0.47131  0.91394  0.08221  Biso   1.000  O
  O12      1.0000 0.46701  0.91445  0.58259  Biso   1.000  O
  O13      1.0000 0.46730  0.33649  0.33285  Biso   1.000  O
  O14      1.0000 0.46823  0.33516  0.83263  Biso   1.000  O
  O15      1.0000 0.46978  0.83773  0.33138  Biso   1.000  O
  O16      1.0000 0.46810  0.83556  0.83147  Biso   1.000  O
  O17      1.0000 0.28114  0.12814  0.30147  Biso   1.000  O
  O18      1.0000 0.27601  0.12291  0.79251  Biso   1.000  O
  O19      1.0000 0.27689  0.62264  0.29460  Biso   1.000  O
  O20      1.0000 0.27663  0.62394  0.79511  Biso   1.000  O
  O21      1.0000 0.28722  0.13345  0.03618  Biso   1.000  O
  O22      1.0000 0.27575  0.12588  0.54610  Biso   1.000  O
  O23      1.0000 0.27646  0.62293  0.04554  Biso   1.000  O
  O24      1.0000 0.27597  0.62590  0.54503  Biso   1.000  O
  O25      1.0000 0.22245  0.37421  0.29487  Biso   1.000  O
  O26      1.0000 0.22470  0.37365  0.79520  Biso   1.000  O
  O27      1.0000 0.22895  0.86794  0.29698  Biso   1.000  O
  O28      1.0000 0.22368  0.87364  0.79248  Biso   1.000  O
  O29      1.0000 0.22243  0.37778  0.04518  Biso   1.000  O
  O30      1.0000 0.22405  0.37652  0.54554  Biso   1.000  O
  O31      1.0000 0.23426  0.86805  0.03794  Biso   1.000  O
  O32      1.0000 0.22320  0.87634  0.54448  Biso   1.000  O
  O33      1.0000 0.53332  0.16489  0.16652  Biso   1.000  O
  O34      1.0000 0.53260  0.16499  0.66651  Biso   1.000  O
  O35      1.0000 0.53273  0.66309  0.16690  Biso   1.000  O
  O36      1.0000 0.53232  0.66435  0.66633  Biso   1.000  O
  O37      1.0000 0.53260  0.08497  0.41685  Biso   1.000  O
  O38      1.0000 0.53563  0.08388  0.91519  Biso   1.000  O
  O39      1.0000 0.53169  0.58606  0.41687  Biso   1.000  O
  O40      1.0000 0.53170  0.58531  0.91690  Biso   1.000  O
  O41      1.0000 0.96505  0.41868  0.16473  Biso   1.000  O
  O42      1.0000 0.96699  0.41628  0.66592  Biso   1.000  O
  O43      1.0000 0.94868  0.91899  0.16478  Biso   1.000  O
  O44      1.0000 0.96604  0.91685  0.66476  Biso   1.000  O
  O45      1.0000 0.96653  0.33620  0.41683  Biso   1.000  O
  O46      1.0000 0.96697  0.33384  0.91470  Biso   1.000  O
  O47      1.0000 0.96584  0.83183  0.41515  Biso   1.000  O
  O48      1.0000 0.96758  0.83309  0.91460  Biso   1.000  O
  O49      1.0000 0.77778  0.12376  0.95534  Biso   1.000  O
  O50      1.0000 0.77334  0.12573  0.45709  Biso   1.000  O
  O51      1.0000 0.77511  0.62242  0.95399  Biso   1.000  O
  O52      1.0000 0.77588  0.62406  0.45478  Biso   1.000  O
  O53      1.0000 0.77609  0.12751  0.20677  Biso   1.000  O
  O54      1.0000 0.77617  0.12613  0.70562  Biso   1.000  O
  O55      1.0000 0.77584  0.62628  0.20444  Biso   1.000  O
  O56      1.0000 0.77598  0.62596  0.70454  Biso   1.000  O
  O57      1.0000 0.72372  0.37355  0.95450  Biso   1.000  O
  O58      1.0000 0.72313  0.37521  0.45452  Biso   1.000  O
  O59      1.0000 0.72429  0.87337  0.95412  Biso   1.000  O
  O60      1.0000 0.72350  0.87421  0.45586  Biso   1.000  O
  O61      1.0000 0.72341  0.37651  0.20515  Biso   1.000  O
  O62      1.0000 0.72422  0.37605  0.70431  Biso   1.000  O
  O63      1.0000 0.71964  0.87567  0.20536  Biso   1.000  O
  O64      1.0000 0.72405  0.87568  0.70492  Biso   1.000  O
