data_image0
_cell_length_a       10.0786
_cell_length_b       10.3223
_cell_length_c       5.18133
_cell_angle_alpha    93.4643
_cell_angle_beta     90.2555
_cell_angle_gamma    91.3454

_symmetry_space_group_name_H-M    "P 1"
_symmetry_int_tables_number       1

loop_
  _symmetry_equiv_pos_as_xyz
  'x, y, z'

loop_
  _atom_site_label
  _atom_site_occupancy
  _atom_site_fract_x
  _atom_site_fract_y
  _atom_site_fract_z
  _atom_site_thermal_displace_type
  _atom_site_B_iso_or_equiv
  _atom_site_type_symbol
  Hf1      1.0000 0.11074  0.97920  0.19877  Biso   1.000  Hf
  Hf2      1.0000 0.12973  0.25798  0.80904  Biso   1.000  Hf
  Hf3      1.0000 0.41082  0.24012  0.20327  Biso   1.000  Hf
  Hf4      1.0000 0.37214  0.01709  0.71849  Biso   1.000  Hf
  O1       1.0000 0.99948  0.13261  0.01702  Biso   1.000  O
  O2       1.0000 0.04113  0.08740  0.53480  Biso   1.000  O
  O3       1.0000 0.96525  0.32394  0.58104  Biso   1.000  O
  O4       1.0000 0.00245  0.39301  0.05438  Biso   1.000  O
  O5       1.0000 0.29567  0.18891  0.57884  Biso   1.000  O
  O6       1.0000 0.25652  0.11767  0.02397  Biso   1.000  O
  O7       1.0000 0.26765  0.38493  0.05021  Biso   1.000  O
  O8       1.0000 0.21488  0.43945  0.57031  Biso   1.000  O
  Hf5      1.0000 0.13830  0.53740  0.22992  Biso   1.000  Hf
  Hf6      1.0000 0.10322  0.74106  0.73338  Biso   1.000  Hf
  Hf7      1.0000 0.36112  0.78319  0.19535  Biso   1.000  Hf
  Hf8      1.0000 0.38022  0.49562  0.78119  Biso   1.000  Hf
  O9       1.0000 0.99715  0.63638  0.00059  Biso   1.000  O
  O10      1.0000 0.98935  0.59177  0.50287  Biso   1.000  O
  O11      1.0000 0.00806  0.84285  0.43832  Biso   1.000  O
  O12      1.0000 0.98582  0.87747  0.93544  Biso   1.000  O
  O13      1.0000 0.23218  0.69037  0.43587  Biso   1.000  O
  O14      1.0000 0.25038  0.63254  0.95273  Biso   1.000  O
  O15      1.0000 0.24485  0.87229  0.90999  Biso   1.000  O
  O16      1.0000 0.27369  0.93894  0.39819  Biso   1.000  O
  Hf9      1.0000 0.64532  0.97397  0.27434  Biso   1.000  Hf
  Hf10     1.0000 0.61832  0.25654  0.68911  Biso   1.000  Hf
  Hf11     1.0000 0.84858  0.24353  0.23166  Biso   1.000  Hf
  Hf12     1.0000 0.88981  0.01007  0.73576  Biso   1.000  Hf
  O17      1.0000 0.50885  0.14382  0.91276  Biso   1.000  O
  O18      1.0000 0.51392  0.11242  0.42044  Biso   1.000  O
  O19      1.0000 0.48594  0.37135  0.49223  Biso   1.000  O
  O20      1.0000 0.51818  0.39002  0.99128  Biso   1.000  O
  O21      1.0000 0.76053  0.12888  0.51279  Biso   1.000  O
  O22      1.0000 0.76312  0.07058  0.03078  Biso   1.000  O
  O23      1.0000 0.76469  0.32076  0.92707  Biso   1.000  O
  O24      1.0000 0.73622  0.38562  0.45472  Biso   1.000  O
  Hf13     1.0000 0.60591  0.51426  0.28946  Biso   1.000  Hf
  Hf14     1.0000 0.60482  0.75817  0.75366  Biso   1.000  Hf
  Hf15     1.0000 0.85818  0.71925  0.27914  Biso   1.000  Hf
  Hf16     1.0000 0.87617  0.47820  0.77133  Biso   1.000  Hf
  O25      1.0000 0.50121  0.64507  0.04390  Biso   1.000  O
  O26      1.0000 0.48799  0.61430  0.55240  Biso   1.000  O
  O27      1.0000 0.49933  0.86164  0.49411  Biso   1.000  O
  O28      1.0000 0.49636  0.90267  0.99000  Biso   1.000  O
  O29      1.0000 0.73847  0.63431  0.55141  Biso   1.000  O
  O30      1.0000 0.76132  0.56359  0.06450  Biso   1.000  O
  O31      1.0000 0.72618  0.81309  0.06785  Biso   1.000  O
  O32      1.0000 0.75204  0.87963  0.55242  Biso   1.000  O
  Ce1      1.0000 0.13382  0.25919  0.31647  Biso   1.000  Ce
