data_image0
_cell_length_a       10.0553
_cell_length_b       5.15385
_cell_length_c       10.0552
_cell_angle_alpha    89.9976
_cell_angle_beta     89.3961
_cell_angle_gamma    89.9966

_symmetry_space_group_name_H-M    "P 1"
_symmetry_int_tables_number       1

loop_
  _symmetry_equiv_pos_as_xyz
  'x, y, z'

loop_
  _atom_site_label
  _atom_site_occupancy
  _atom_site_fract_x
  _atom_site_fract_y
  _atom_site_fract_z
  _atom_site_thermal_displace_type
  _atom_site_B_iso_or_equiv
  _atom_site_type_symbol
  Hf1      1.0000 0.12485  0.90620  0.12484  Biso   1.000  Hf
  Hf2      1.0000 0.12737  0.50605  0.38278  Biso   1.000  Hf
  Hf3      1.0000 0.38277  0.50607  0.12739  Biso   1.000  Hf
  Hf4      1.0000 0.37906  0.01170  0.37906  Biso   1.000  Hf
  O1       1.0000 0.99166  0.31540  0.99167  Biso   1.000  O
  O2       1.0000 0.00558  0.18070  0.24407  Biso   1.000  O
  O3       1.0000 0.98737  0.69508  0.26234  Biso   1.000  O
  O4       1.0000 0.99164  0.79841  0.99163  Biso   1.000  O
  O5       1.0000 0.25802  0.31538  0.25803  Biso   1.000  O
  O6       1.0000 0.24405  0.18072  0.00557  Biso   1.000  O
  O7       1.0000 0.26235  0.69511  0.98736  Biso   1.000  O
  O8       1.0000 0.25808  0.79841  0.25805  Biso   1.000  O
  Hf5      1.0000 0.12485  0.00160  0.62486  Biso   1.000  Hf
  Hf6      1.0000 0.12236  0.50600  0.86696  Biso   1.000  Hf
  Hf7      1.0000 0.37540  0.50713  0.62770  Biso   1.000  Hf
  Hf8      1.0000 0.37255  0.00471  0.87715  Biso   1.000  Hf
  O9       1.0000 0.99653  0.29900  0.49737  Biso   1.000  O
  O10      1.0000 0.00098  0.21119  0.74762  Biso   1.000  O
  O11      1.0000 0.99752  0.71155  0.74616  Biso   1.000  O
  O12      1.0000 0.00230  0.80282  0.50079  Biso   1.000  O
  O13      1.0000 0.25317  0.29897  0.75231  Biso   1.000  O
  O14      1.0000 0.24872  0.21121  0.50209  Biso   1.000  O
  O15      1.0000 0.25222  0.71158  0.50352  Biso   1.000  O
  O16      1.0000 0.24743  0.80280  0.74890  Biso   1.000  O
  Hf9      1.0000 0.62484  0.00161  0.12486  Biso   1.000  Hf
  Hf10     1.0000 0.62770  0.50713  0.37542  Biso   1.000  Hf
  Hf11     1.0000 0.86694  0.50602  0.12236  Biso   1.000  Hf
  Hf12     1.0000 0.87715  0.00471  0.37255  Biso   1.000  Hf
  O17      1.0000 0.49735  0.29900  0.99654  Biso   1.000  O
  O18      1.0000 0.50208  0.21121  0.24873  Biso   1.000  O
  O19      1.0000 0.50354  0.71157  0.25220  Biso   1.000  O
  O20      1.0000 0.50080  0.80283  0.00229  Biso   1.000  O
  O21      1.0000 0.75231  0.29898  0.25317  Biso   1.000  O
  O22      1.0000 0.74760  0.21121  0.00098  Biso   1.000  O
  O23      1.0000 0.74617  0.71157  0.99751  Biso   1.000  O
  O24      1.0000 0.74891  0.80282  0.24742  Biso   1.000  O
  Hf13     1.0000 0.62485  0.00924  0.62485  Biso   1.000  Hf
  Hf14     1.0000 0.62202  0.50713  0.87433  Biso   1.000  Hf
  Hf15     1.0000 0.87432  0.50713  0.62203  Biso   1.000  Hf
  Hf16     1.0000 0.87063  0.01169  0.87064  Biso   1.000  Hf
  O25      1.0000 0.49798  0.30752  0.49798  Biso   1.000  O
  O26      1.0000 0.50111  0.20952  0.74860  Biso   1.000  O
  O27      1.0000 0.49717  0.70911  0.75254  Biso   1.000  O
  O28      1.0000 0.50200  0.80674  0.50199  Biso   1.000  O
  O29      1.0000 0.75172  0.30752  0.75173  Biso   1.000  O
  O30      1.0000 0.74859  0.20952  0.50111  Biso   1.000  O
  O31      1.0000 0.75256  0.70911  0.49716  Biso   1.000  O
  O32      1.0000 0.74773  0.80673  0.74771  Biso   1.000  O
  Co1      1.0000 0.12484  0.35786  0.12486  Biso   1.000  Co
