data_image0
_cell_length_a       10.1232
_cell_length_b       10.299
_cell_length_c       10.4594
_cell_angle_alpha    90.1746
_cell_angle_beta     80.1416
_cell_angle_gamma    90.1777

_symmetry_space_group_name_H-M    "P 1"
_symmetry_int_tables_number       1

loop_
  _symmetry_equiv_pos_as_xyz
  'x, y, z'

loop_
  _atom_site_label
  _atom_site_occupancy
  _atom_site_fract_x
  _atom_site_fract_y
  _atom_site_fract_z
  _atom_site_thermal_displace_type
  _atom_site_B_iso_or_equiv
  _atom_site_type_symbol
  Hf1      1.0000 0.13759  0.02286  0.14704  Biso   1.000  Hf
  Hf2      1.0000 0.14009  0.23285  0.39503  Biso   1.000  Hf
  Hf3      1.0000 0.35756  0.27496  0.10271  Biso   1.000  Hf
  Hf4      1.0000 0.35647  0.47467  0.34986  Biso   1.000  Hf
  O1       1.0000 0.03509  0.17042  0.08019  Biso   1.000  O
  O2       1.0000 0.03672  0.08180  0.32966  Biso   1.000  O
  O3       1.0000 0.46133  0.42480  0.16525  Biso   1.000  O
  O4       1.0000 0.47564  0.34300  0.42655  Biso   1.000  O
  O5       1.0000 0.28062  0.12917  0.24137  Biso   1.000  O
  O6       1.0000 0.28198  0.12087  0.48656  Biso   1.000  O
  O7       1.0000 0.22126  0.38176  0.00614  Biso   1.000  O
  O8       1.0000 0.20900  0.37723  0.25325  Biso   1.000  O
  Hf5      1.0000 0.13783  0.02136  0.64615  Biso   1.000  Hf
  Hf6      1.0000 0.13764  0.22918  0.89584  Biso   1.000  Hf
  Hf7      1.0000 0.36125  0.27379  0.60702  Biso   1.000  Hf
  Hf8      1.0000 0.36036  0.47950  0.85476  Biso   1.000  Hf
  O9       1.0000 0.03846  0.16994  0.57990  Biso   1.000  O
  O10      1.0000 0.03536  0.08060  0.82981  Biso   1.000  O
  O11      1.0000 0.46494  0.41900  0.67283  Biso   1.000  O
  O12      1.0000 0.46380  0.33164  0.92006  Biso   1.000  O
  O13      1.0000 0.27630  0.12952  0.74020  Biso   1.000  O
  O14      1.0000 0.27502  0.12217  0.99066  Biso   1.000  O
  O15      1.0000 0.22300  0.37926  0.51205  Biso   1.000  O
  O16      1.0000 0.22334  0.37124  0.75927  Biso   1.000  O
  Hf9      1.0000 0.13650  0.52353  0.14363  Biso   1.000  Hf
  Hf10     1.0000 0.13742  0.72670  0.39622  Biso   1.000  Hf
  Hf11     1.0000 0.35977  0.77088  0.10326  Biso   1.000  Hf
  Hf12     1.0000 0.36074  0.96716  0.35504  Biso   1.000  Hf
  O17      1.0000 0.03402  0.67308  0.07980  Biso   1.000  O
  O18      1.0000 0.03280  0.58350  0.32856  Biso   1.000  O
  O19      1.0000 0.46397  0.91836  0.17080  Biso   1.000  O
  O20      1.0000 0.46340  0.82466  0.42124  Biso   1.000  O
  O21      1.0000 0.27512  0.62952  0.24013  Biso   1.000  O
  O22      1.0000 0.27412  0.61955  0.49046  Biso   1.000  O
  O23      1.0000 0.22283  0.88059  0.00977  Biso   1.000  O
  O24      1.0000 0.22132  0.86907  0.25899  Biso   1.000  O
  Hf13     1.0000 0.13830  0.52252  0.64623  Biso   1.000  Hf
  Hf14     1.0000 0.13705  0.73034  0.89619  Biso   1.000  Hf
  Hf15     1.0000 0.36106  0.76928  0.60531  Biso   1.000  Hf
  Hf16     1.0000 0.36023  0.97901  0.85460  Biso   1.000  Hf
  O25      1.0000 0.03378  0.66878  0.58051  Biso   1.000  O
  O26      1.0000 0.03529  0.58130  0.83124  Biso   1.000  O
  O27      1.0000 0.46345  0.91898  0.66993  Biso   1.000  O
  O28      1.0000 0.46346  0.83151  0.91962  Biso   1.000  O
  O29      1.0000 0.27612  0.62899  0.74111  Biso   1.000  O
  O30      1.0000 0.27539  0.62296  0.98999  Biso   1.000  O
  O31      1.0000 0.22283  0.87786  0.51070  Biso   1.000  O
  O32      1.0000 0.22261  0.87128  0.75967  Biso   1.000  O
  Hf17     1.0000 0.63931  0.02119  0.14622  Biso   1.000  Hf
  Hf18     1.0000 0.64608  0.22814  0.39977  Biso   1.000  Hf
  Hf19     1.0000 0.86010  0.27237  0.10452  Biso   1.000  Hf
  Hf20     1.0000 0.86081  0.47873  0.35402  Biso   1.000  Hf
  O33      1.0000 0.53389  0.17010  0.08383  Biso   1.000  O
  O34      1.0000 0.54256  0.07001  0.33816  Biso   1.000  O
  O35      1.0000 0.96069  0.42262  0.16755  Biso   1.000  O
  O36      1.0000 0.96397  0.33333  0.42100  Biso   1.000  O
  O37      1.0000 0.77772  0.12933  0.24058  Biso   1.000  O
  O38      1.0000 0.78007  0.11983  0.49270  Biso   1.000  O
  O39      1.0000 0.72248  0.37973  0.01065  Biso   1.000  O
  O40      1.0000 0.72304  0.37075  0.26050  Biso   1.000  O
  Hf21     1.0000 0.63815  0.02149  0.64649  Biso   1.000  Hf
  Hf22     1.0000 0.63769  0.22937  0.89744  Biso   1.000  Hf
  Hf23     1.0000 0.86300  0.27171  0.60586  Biso   1.000  Hf
  Hf24     1.0000 0.86048  0.47901  0.85556  Biso   1.000  Hf
  O41      1.0000 0.53629  0.17005  0.58178  Biso   1.000  O
  O42      1.0000 0.53513  0.08094  0.83134  Biso   1.000  O
  O43      1.0000 0.96419  0.41975  0.67138  Biso   1.000  O
  O44      1.0000 0.96284  0.33028  0.91925  Biso   1.000  O
  O45      1.0000 0.77610  0.12967  0.74170  Biso   1.000  O
  O46      1.0000 0.77494  0.12148  0.99131  Biso   1.000  O
  O47      1.0000 0.72542  0.37841  0.51216  Biso   1.000  O
  O48      1.0000 0.72335  0.37106  0.76117  Biso   1.000  O
  Hf25     1.0000 0.63758  0.52297  0.14666  Biso   1.000  Hf
  Hf26     1.0000 0.63886  0.72594  0.39605  Biso   1.000  Hf
  Hf27     1.0000 0.85966  0.77227  0.10428  Biso   1.000  Hf
  Hf28     1.0000 0.86181  0.97817  0.35445  Biso   1.000  Hf
  O49      1.0000 0.53540  0.67110  0.08003  Biso   1.000  O
  O50      1.0000 0.53368  0.58085  0.32910  Biso   1.000  O
  O51      1.0000 0.96402  0.92084  0.16908  Biso   1.000  O
  O52      1.0000 0.96412  0.83164  0.42062  Biso   1.000  O
  O53      1.0000 0.77578  0.62978  0.24089  Biso   1.000  O
  O54      1.0000 0.77599  0.62038  0.49103  Biso   1.000  O
  O55      1.0000 0.72236  0.88041  0.01004  Biso   1.000  O
  O56      1.0000 0.72347  0.87058  0.25990  Biso   1.000  O
  Hf29     1.0000 0.63958  0.52143  0.64729  Biso   1.000  Hf
  Hf30     1.0000 0.63796  0.72923  0.89633  Biso   1.000  Hf
  Hf31     1.0000 0.86011  0.77199  0.60431  Biso   1.000  Hf
  Hf32     1.0000 0.85983  0.97946  0.85446  Biso   1.000  Hf
  O57      1.0000 0.53572  0.66778  0.58152  Biso   1.000  O
  O58      1.0000 0.53547  0.58146  0.83114  Biso   1.000  O
  O59      1.0000 0.96388  0.91974  0.67009  Biso   1.000  O
  O60      1.0000 0.96248  0.83182  0.91928  Biso   1.000  O
  O61      1.0000 0.77645  0.62962  0.74123  Biso   1.000  O
  O62      1.0000 0.77550  0.62202  0.99106  Biso   1.000  O
  O63      1.0000 0.72278  0.87883  0.50995  Biso   1.000  O
  O64      1.0000 0.72283  0.87151  0.75983  Biso   1.000  O
  Co1      1.0000 0.40545  0.20979  0.33631  Biso   1.000  Co
