data_image0
_cell_length_a       9.9311
_cell_length_b       10.3668
_cell_length_c       9.98101
_cell_angle_alpha    90.2442
_cell_angle_beta     89.7728
_cell_angle_gamma    90.1601

_symmetry_space_group_name_H-M    "P 1"
_symmetry_int_tables_number       1

loop_
  _symmetry_equiv_pos_as_xyz
  'x, y, z'

loop_
  _atom_site_label
  _atom_site_occupancy
  _atom_site_fract_x
  _atom_site_fract_y
  _atom_site_fract_z
  _atom_site_thermal_displace_type
  _atom_site_B_iso_or_equiv
  _atom_site_type_symbol
  Cr1      1.0000 0.12255  0.03154  0.11501  Biso   1.000  Cr
  Hf1      1.0000 0.13301  0.23006  0.37243  Biso   1.000  Hf
  Hf2      1.0000 0.36554  0.26342  0.12419  Biso   1.000  Hf
  Hf3      1.0000 0.36697  0.48213  0.37593  Biso   1.000  Hf
  O1       1.0000 0.03561  0.18206  0.18951  Biso   1.000  O
  O2       1.0000 0.03614  0.06615  0.44821  Biso   1.000  O
  O3       1.0000 0.46385  0.43261  0.19283  Biso   1.000  O
  O4       1.0000 0.46478  0.31593  0.44467  Biso   1.000  O
  O5       1.0000 0.25729  0.10501  0.23975  Biso   1.000  O
  O6       1.0000 0.27212  0.13236  0.49536  Biso   1.000  O
  O7       1.0000 0.22865  0.38124  0.49911  Biso   1.000  O
  O8       1.0000 0.23132  0.36210  0.24888  Biso   1.000  O
  Hf4      1.0000 0.13519  0.01742  0.62705  Biso   1.000  Hf
  Hf5      1.0000 0.13379  0.23623  0.87629  Biso   1.000  Hf
  Hf6      1.0000 0.36545  0.26673  0.62499  Biso   1.000  Hf
  Hf7      1.0000 0.36588  0.48512  0.87586  Biso   1.000  Hf
  O9       1.0000 0.03409  0.18323  0.69884  Biso   1.000  O
  O10      1.0000 0.03586  0.06703  0.95316  Biso   1.000  O
  O11      1.0000 0.46298  0.43500  0.69360  Biso   1.000  O
  O12      1.0000 0.46124  0.31522  0.94275  Biso   1.000  O
  O13      1.0000 0.27110  0.11918  0.75006  Biso   1.000  O
  O14      1.0000 0.26387  0.13280  0.00029  Biso   1.000  O
  O15      1.0000 0.22907  0.38336  0.99937  Biso   1.000  O
  O16      1.0000 0.22862  0.36879  0.74971  Biso   1.000  O
  Hf8      1.0000 0.13411  0.51483  0.12626  Biso   1.000  Hf
  Hf9      1.0000 0.13650  0.73213  0.37808  Biso   1.000  Hf
  Hf10     1.0000 0.36452  0.76557  0.12787  Biso   1.000  Hf
  Hf11     1.0000 0.36314  0.98054  0.37259  Biso   1.000  Hf
  O17      1.0000 0.03760  0.68430  0.19478  Biso   1.000  O
  O18      1.0000 0.03624  0.56397  0.44558  Biso   1.000  O
  O19      1.0000 0.46971  0.93119  0.19666  Biso   1.000  O
  O20      1.0000 0.46751  0.81760  0.44973  Biso   1.000  O
  O21      1.0000 0.26973  0.61058  0.24999  Biso   1.000  O
  O22      1.0000 0.27321  0.63172  0.50111  Biso   1.000  O
  O23      1.0000 0.22971  0.88201  0.50499  Biso   1.000  O
  O24      1.0000 0.24256  0.85402  0.26082  Biso   1.000  O
  Hf12     1.0000 0.13486  0.51709  0.62618  Biso   1.000  Hf
  Hf13     1.0000 0.13422  0.73585  0.87959  Biso   1.000  Hf
  Hf14     1.0000 0.36631  0.76840  0.62875  Biso   1.000  Hf
  Hf15     1.0000 0.35998  0.98398  0.88277  Biso   1.000  Hf
  O25      1.0000 0.03721  0.68549  0.69453  Biso   1.000  O
  O26      1.0000 0.03462  0.56729  0.94609  Biso   1.000  O
  O27      1.0000 0.46277  0.93523  0.69928  Biso   1.000  O
  O28      1.0000 0.45976  0.81691  0.94417  Biso   1.000  O
  O29      1.0000 0.27033  0.61938  0.75163  Biso   1.000  O
  O30      1.0000 0.26978  0.63313  0.00068  Biso   1.000  O
  O31      1.0000 0.22202  0.88833  0.01211  Biso   1.000  O
  O32      1.0000 0.22807  0.86975  0.75531  Biso   1.000  O
  Hf16     1.0000 0.63433  0.01659  0.12508  Biso   1.000  Hf
  Hf17     1.0000 0.63384  0.23229  0.37670  Biso   1.000  Hf
  Hf18     1.0000 0.86467  0.26677  0.12429  Biso   1.000  Hf
  Hf19     1.0000 0.86602  0.48312  0.37613  Biso   1.000  Hf
  O33      1.0000 0.53332  0.18245  0.19725  Biso   1.000  O
  O34      1.0000 0.53628  0.06484  0.44304  Biso   1.000  O
  O35      1.0000 0.96477  0.43190  0.19550  Biso   1.000  O
  O36      1.0000 0.96340  0.31356  0.44263  Biso   1.000  O
  O37      1.0000 0.77220  0.11674  0.24771  Biso   1.000  O
  O38      1.0000 0.77173  0.13162  0.49826  Biso   1.000  O
  O39      1.0000 0.72983  0.38207  0.50001  Biso   1.000  O
  O40      1.0000 0.72850  0.36678  0.24947  Biso   1.000  O
  Hf20     1.0000 0.63077  0.01506  0.62405  Biso   1.000  Hf
  Hf21     1.0000 0.63240  0.23363  0.87423  Biso   1.000  Hf
  Hf22     1.0000 0.86586  0.26606  0.62542  Biso   1.000  Hf
  Hf23     1.0000 0.86509  0.48477  0.87495  Biso   1.000  Hf
  O41      1.0000 0.53642  0.18524  0.69208  Biso   1.000  O
  O42      1.0000 0.53252  0.06804  0.94754  Biso   1.000  O
  O43      1.0000 0.96367  0.43422  0.69364  Biso   1.000  O
  O44      1.0000 0.96272  0.31712  0.94349  Biso   1.000  O
  O45      1.0000 0.76846  0.11681  0.74814  Biso   1.000  O
  O46      1.0000 0.76944  0.13349  0.99744  Biso   1.000  O
  O47      1.0000 0.72832  0.38308  0.99914  Biso   1.000  O
  O48      1.0000 0.72886  0.36793  0.74919  Biso   1.000  O
  Hf24     1.0000 0.63393  0.51682  0.12706  Biso   1.000  Hf
  Hf25     1.0000 0.63567  0.73505  0.37472  Biso   1.000  Hf
  Hf26     1.0000 0.87150  0.76528  0.12210  Biso   1.000  Hf
  Hf27     1.0000 0.86859  0.98596  0.37567  Biso   1.000  Hf
  O49      1.0000 0.53724  0.68463  0.19561  Biso   1.000  O
  O50      1.0000 0.53820  0.56620  0.44262  Biso   1.000  O
  O51      1.0000 0.98723  0.94030  0.18548  Biso   1.000  O
  O52      1.0000 0.96506  0.81723  0.44123  Biso   1.000  O
  O53      1.0000 0.77276  0.61672  0.24905  Biso   1.000  O
  O54      1.0000 0.77083  0.63352  0.49934  Biso   1.000  O
  O55      1.0000 0.73210  0.88391  0.49797  Biso   1.000  O
  O56      1.0000 0.74171  0.86779  0.24690  Biso   1.000  O
  Hf28     1.0000 0.63394  0.51730  0.62519  Biso   1.000  Hf
  Hf29     1.0000 0.63228  0.73499  0.87610  Biso   1.000  Hf
  Hf30     1.0000 0.86761  0.76696  0.62500  Biso   1.000  Hf
  Hf31     1.0000 0.86475  0.98459  0.87417  Biso   1.000  Hf
  O57      1.0000 0.53615  0.68431  0.69524  Biso   1.000  O
  O58      1.0000 0.53633  0.56648  0.94481  Biso   1.000  O
  O59      1.0000 0.96451  0.93523  0.69443  Biso   1.000  O
  O60      1.0000 0.96051  0.81636  0.93970  Biso   1.000  O
  O61      1.0000 0.77047  0.61843  0.74962  Biso   1.000  O
  O62      1.0000 0.77027  0.63428  0.99997  Biso   1.000  O
  O63      1.0000 0.72871  0.88393  0.99815  Biso   1.000  O
  O64      1.0000 0.72947  0.86762  0.74860  Biso   1.000  O
