data_image0
_cell_length_a       10.1816
_cell_length_b       10.3155
_cell_length_c       10.5619
_cell_angle_alpha    90.0081
_cell_angle_beta     79.7393
_cell_angle_gamma    90.1283

_symmetry_space_group_name_H-M    "P 1"
_symmetry_int_tables_number       1

loop_
  _symmetry_equiv_pos_as_xyz
  'x, y, z'

loop_
  _atom_site_label
  _atom_site_occupancy
  _atom_site_fract_x
  _atom_site_fract_y
  _atom_site_fract_z
  _atom_site_thermal_displace_type
  _atom_site_B_iso_or_equiv
  _atom_site_type_symbol
  Hf1      1.0000 0.12984  0.02091  0.14363  Biso   1.000  Hf
  Hf2      1.0000 0.13098  0.22566  0.39277  Biso   1.000  Hf
  Hf3      1.0000 0.34668  0.27320  0.08388  Biso   1.000  Hf
  Hf4      1.0000 0.35948  0.49075  0.35621  Biso   1.000  Hf
  O1       1.0000 0.03085  0.16609  0.07264  Biso   1.000  O
  O2       1.0000 0.02439  0.08190  0.32817  Biso   1.000  O
  O3       1.0000 0.45655  0.43483  0.15731  Biso   1.000  O
  O4       1.0000 0.48550  0.38739  0.46071  Biso   1.000  O
  O5       1.0000 0.25488  0.12986  0.22913  Biso   1.000  O
  O6       1.0000 0.27600  0.11506  0.48432  Biso   1.000  O
  O7       1.0000 0.21470  0.38429  0.00356  Biso   1.000  O
  O8       1.0000 0.22033  0.37441  0.25748  Biso   1.000  O
  Hf5      1.0000 0.14055  0.02105  0.64308  Biso   1.000  Hf
  Hf6      1.0000 0.13268  0.22856  0.88945  Biso   1.000  Hf
  Hf7      1.0000 0.36560  0.28220  0.60833  Biso   1.000  Hf
  Hf8      1.0000 0.35912  0.48249  0.85744  Biso   1.000  Hf
  O9       1.0000 0.03714  0.16624  0.57740  Biso   1.000  O
  O10      1.0000 0.03180  0.08414  0.82360  Biso   1.000  O
  O11      1.0000 0.46946  0.41057  0.69258  Biso   1.000  O
  O12      1.0000 0.46522  0.33517  0.92145  Biso   1.000  O
  O13      1.0000 0.27419  0.13002  0.73559  Biso   1.000  O
  O14      1.0000 0.27001  0.12339  0.98099  Biso   1.000  O
  O15      1.0000 0.22773  0.37552  0.50720  Biso   1.000  O
  O16      1.0000 0.22358  0.37407  0.75843  Biso   1.000  O
  Hf9      1.0000 0.13865  0.52276  0.14861  Biso   1.000  Hf
  Hf10     1.0000 0.13482  0.72992  0.39728  Biso   1.000  Hf
  Hf11     1.0000 0.35924  0.77525  0.10431  Biso   1.000  Hf
  Hf12     1.0000 0.36599  0.96287  0.36009  Biso   1.000  Hf
  O17      1.0000 0.03274  0.66502  0.07728  Biso   1.000  O
  O18      1.0000 0.03246  0.58488  0.32775  Biso   1.000  O
  O19      1.0000 0.46479  0.91882  0.17633  Biso   1.000  O
  O20      1.0000 0.46076  0.81899  0.42520  Biso   1.000  O
  O21      1.0000 0.27340  0.63381  0.24263  Biso   1.000  O
  O22      1.0000 0.27111  0.62212  0.49319  Biso   1.000  O
  O23      1.0000 0.22246  0.88077  0.01068  Biso   1.000  O
  O24      1.0000 0.22291  0.87210  0.26245  Biso   1.000  O
  Hf13     1.0000 0.13720  0.52145  0.64620  Biso   1.000  Hf
  Hf14     1.0000 0.13656  0.72856  0.89759  Biso   1.000  Hf
  Hf15     1.0000 0.36072  0.76788  0.60823  Biso   1.000  Hf
  Hf16     1.0000 0.35918  0.97970  0.85161  Biso   1.000  Hf
  O25      1.0000 0.03071  0.66444  0.57770  Biso   1.000  O
  O26      1.0000 0.03259  0.58563  0.82665  Biso   1.000  O
  O27      1.0000 0.46422  0.91578  0.67040  Biso   1.000  O
  O28      1.0000 0.46427  0.83853  0.92257  Biso   1.000  O
  O29      1.0000 0.27505  0.62710  0.74225  Biso   1.000  O
  O30      1.0000 0.27549  0.62568  0.99352  Biso   1.000  O
  O31      1.0000 0.22354  0.87388  0.51315  Biso   1.000  O
  O32      1.0000 0.22295  0.87059  0.76122  Biso   1.000  O
  Hf17     1.0000 0.64321  0.01504  0.14836  Biso   1.000  Hf
  Hf18     1.0000 0.66058  0.23000  0.41202  Biso   1.000  Hf
  Hf19     1.0000 0.85926  0.27343  0.10528  Biso   1.000  Hf
  Hf20     1.0000 0.86146  0.47852  0.35377  Biso   1.000  Hf
  O33      1.0000 0.52934  0.15573  0.06855  Biso   1.000  O
  O34      1.0000 0.56645  0.04349  0.35148  Biso   1.000  O
  O35      1.0000 0.96613  0.41552  0.17321  Biso   1.000  O
  O36      1.0000 0.96417  0.33247  0.42383  Biso   1.000  O
  O37      1.0000 0.77847  0.13045  0.24132  Biso   1.000  O
  O38      1.0000 0.78480  0.11749  0.49834  Biso   1.000  O
  O39      1.0000 0.72134  0.37834  0.01337  Biso   1.000  O
  O40      1.0000 0.72214  0.37224  0.26395  Biso   1.000  O
  Hf21     1.0000 0.63668  0.02115  0.64575  Biso   1.000  Hf
  Hf22     1.0000 0.63749  0.22522  0.89764  Biso   1.000  Hf
  Hf23     1.0000 0.86552  0.27074  0.61160  Biso   1.000  Hf
  Hf24     1.0000 0.85863  0.47946  0.85577  Biso   1.000  Hf
  O41      1.0000 0.53638  0.17040  0.57920  Biso   1.000  O
  O42      1.0000 0.53127  0.08564  0.82281  Biso   1.000  O
  O43      1.0000 0.96768  0.41579  0.67496  Biso   1.000  O
  O44      1.0000 0.96198  0.33479  0.92163  Biso   1.000  O
  O45      1.0000 0.77465  0.12794  0.74360  Biso   1.000  O
  O46      1.0000 0.77609  0.12103  0.99211  Biso   1.000  O
  O47      1.0000 0.73263  0.37679  0.51846  Biso   1.000  O
  O48      1.0000 0.72545  0.37136  0.76435  Biso   1.000  O
  Hf25     1.0000 0.63363  0.52536  0.14281  Biso   1.000  Hf
  Hf26     1.0000 0.64060  0.72427  0.39638  Biso   1.000  Hf
  Hf27     1.0000 0.86003  0.76755  0.10347  Biso   1.000  Hf
  Hf28     1.0000 0.85494  0.97440  0.35456  Biso   1.000  Hf
  O49      1.0000 0.53515  0.67593  0.07682  Biso   1.000  O
  O50      1.0000 0.53206  0.59280  0.31929  Biso   1.000  O
  O51      1.0000 0.96099  0.91256  0.17453  Biso   1.000  O
  O52      1.0000 0.96297  0.83322  0.42328  Biso   1.000  O
  O53      1.0000 0.77706  0.62466  0.23958  Biso   1.000  O
  O54      1.0000 0.77399  0.61851  0.48969  Biso   1.000  O
  O55      1.0000 0.72451  0.87852  0.00997  Biso   1.000  O
  O56      1.0000 0.72543  0.86174  0.25658  Biso   1.000  O
  Hf29     1.0000 0.63666  0.52023  0.64842  Biso   1.000  Hf
  Hf30     1.0000 0.63599  0.73131  0.89550  Biso   1.000  Hf
  Hf31     1.0000 0.85999  0.77178  0.60519  Biso   1.000  Hf
  Hf32     1.0000 0.86046  0.97800  0.85410  Biso   1.000  Hf
  O57      1.0000 0.53262  0.66204  0.57954  Biso   1.000  O
  O58      1.0000 0.53188  0.58802  0.82976  Biso   1.000  O
  O59      1.0000 0.96545  0.91511  0.67249  Biso   1.000  O
  O60      1.0000 0.96582  0.83481  0.92317  Biso   1.000  O
  O61      1.0000 0.77363  0.62862  0.73941  Biso   1.000  O
  O62      1.0000 0.77313  0.62194  0.98860  Biso   1.000  O
  O63      1.0000 0.72184  0.87514  0.51111  Biso   1.000  O
  O64      1.0000 0.72282  0.87277  0.76027  Biso   1.000  O
  Cs1      1.0000 0.44878  0.23333  0.29688  Biso   1.000  Cs
