data_image0
_cell_length_a       4.96189
_cell_length_b       10.3427
_cell_length_c       9.9979
_cell_angle_alpha    90.3443
_cell_angle_beta     88.6668
_cell_angle_gamma    90.0926

_symmetry_space_group_name_H-M    "P 1"
_symmetry_int_tables_number       1

loop_
  _symmetry_equiv_pos_as_xyz
  'x, y, z'

loop_
  _atom_site_label
  _atom_site_occupancy
  _atom_site_fract_x
  _atom_site_fract_y
  _atom_site_fract_z
  _atom_site_thermal_displace_type
  _atom_site_B_iso_or_equiv
  _atom_site_type_symbol
  Cu1      1.0000 0.23626  0.02781  0.09976  Biso   1.000  Cu
  Hf1      1.0000 0.27980  0.22737  0.37408  Biso   1.000  Hf
  Hf2      1.0000 0.72782  0.26322  0.12641  Biso   1.000  Hf
  Hf3      1.0000 0.73814  0.48171  0.37684  Biso   1.000  Hf
  O1       1.0000 0.09133  0.17764  0.18255  Biso   1.000  O
  O2       1.0000 0.07932  0.06505  0.44622  Biso   1.000  O
  O3       1.0000 0.93461  0.42543  0.19532  Biso   1.000  O
  O4       1.0000 0.93261  0.31347  0.44211  Biso   1.000  O
  O5       1.0000 0.57249  0.12506  0.25569  Biso   1.000  O
  O6       1.0000 0.54385  0.13063  0.50274  Biso   1.000  O
  O7       1.0000 0.46159  0.38019  0.49983  Biso   1.000  O
  O8       1.0000 0.45764  0.36796  0.24978  Biso   1.000  O
  Hf4      1.0000 0.26381  0.01629  0.62854  Biso   1.000  Hf
  Hf5      1.0000 0.26172  0.23683  0.87587  Biso   1.000  Hf
  Hf6      1.0000 0.73095  0.26675  0.62489  Biso   1.000  Hf
  Hf7      1.0000 0.72697  0.48583  0.87500  Biso   1.000  Hf
  O9       1.0000 0.07323  0.18785  0.69299  Biso   1.000  O
  O10      1.0000 0.05776  0.06724  0.92466  Biso   1.000  O
  O11      1.0000 0.92375  0.43567  0.69313  Biso   1.000  O
  O12      1.0000 0.91216  0.31390  0.93989  Biso   1.000  O
  O13      1.0000 0.53883  0.12044  0.75265  Biso   1.000  O
  O14      1.0000 0.51277  0.12730  0.00606  Biso   1.000  O
  O15      1.0000 0.45439  0.38157  0.00070  Biso   1.000  O
  O16      1.0000 0.45286  0.37019  0.74967  Biso   1.000  O
  Hf8      1.0000 0.27232  0.51613  0.12988  Biso   1.000  Hf
  Hf9      1.0000 0.28147  0.73540  0.37724  Biso   1.000  Hf
  Hf10     1.0000 0.74270  0.76466  0.12525  Biso   1.000  Hf
  Hf11     1.0000 0.74031  0.98519  0.37352  Biso   1.000  Hf
  O17      1.0000 0.07876  0.68517  0.19785  Biso   1.000  O
  O18      1.0000 0.07898  0.56445  0.44404  Biso   1.000  O
  O19      1.0000 0.96103  0.93879  0.18552  Biso   1.000  O
  O20      1.0000 0.94153  0.81755  0.44856  Biso   1.000  O
  O21      1.0000 0.55011  0.61141  0.24883  Biso   1.000  O
  O22      1.0000 0.54666  0.63245  0.50048  Biso   1.000  O
  O23      1.0000 0.46462  0.88336  0.50425  Biso   1.000  O
  O24      1.0000 0.51299  0.85683  0.26045  Biso   1.000  O
  Hf12     1.0000 0.26864  0.51777  0.62526  Biso   1.000  Hf
  Hf13     1.0000 0.25764  0.73400  0.87979  Biso   1.000  Hf
  Hf14     1.0000 0.73353  0.76822  0.62671  Biso   1.000  Hf
  Hf15     1.0000 0.70790  0.98271  0.87874  Biso   1.000  Hf
  O25      1.0000 0.06863  0.68423  0.69791  Biso   1.000  O
  O26      1.0000 0.06350  0.56573  0.94985  Biso   1.000  O
  O27      1.0000 0.91678  0.93636  0.69412  Biso   1.000  O
  O28      1.0000 0.90390  0.81586  0.93850  Biso   1.000  O
  O29      1.0000 0.53496  0.61930  0.75156  Biso   1.000  O
  O30      1.0000 0.53392  0.63475  0.00091  Biso   1.000  O
  O31      1.0000 0.42882  0.88673  0.01169  Biso   1.000  O
  O32      1.0000 0.44826  0.86860  0.75449  Biso   1.000  O
