data_image0
_cell_length_a       5.04051
_cell_length_b       10.4747
_cell_length_c       10.0989
_cell_angle_alpha    85.9208
_cell_angle_beta     90.3514
_cell_angle_gamma    89.6678

_symmetry_space_group_name_H-M    "P 1"
_symmetry_int_tables_number       1

loop_
  _symmetry_equiv_pos_as_xyz
  'x, y, z'

loop_
  _atom_site_label
  _atom_site_occupancy
  _atom_site_fract_x
  _atom_site_fract_y
  _atom_site_fract_z
  _atom_site_thermal_displace_type
  _atom_site_B_iso_or_equiv
  _atom_site_type_symbol
  Hf1      1.0000 0.21699  0.96517  0.13647  Biso   1.000  Hf
  Hf2      1.0000 0.20903  0.23770  0.39465  Biso   1.000  Hf
  Hf3      1.0000 0.69758  0.27725  0.10877  Biso   1.000  Hf
  Hf4      1.0000 0.71653  0.01944  0.40314  Biso   1.000  Hf
  O1       1.0000 0.96726  0.14017  0.02983  Biso   1.000  O
  O2       1.0000 0.03679  0.07389  0.28768  Biso   1.000  O
  O3       1.0000 0.03498  0.32491  0.22346  Biso   1.000  O
  O4       1.0000 0.96422  0.38736  0.96872  Biso   1.000  O
  O5       1.0000 0.53240  0.18048  0.27807  Biso   1.000  O
  O6       1.0000 0.46010  0.11191  0.03040  Biso   1.000  O
  O7       1.0000 0.47838  0.37822  0.95241  Biso   1.000  O
  O8       1.0000 0.54201  0.42918  0.20998  Biso   1.000  O
  Hf5      1.0000 0.21198  0.98736  0.63779  Biso   1.000  Hf
  Hf6      1.0000 0.21624  0.23844  0.88499  Biso   1.000  Hf
  Hf7      1.0000 0.71729  0.27018  0.62303  Biso   1.000  Hf
  Hf8      1.0000 0.71957  0.01987  0.90362  Biso   1.000  Hf
  O9       1.0000 0.96160  0.13719  0.52856  Biso   1.000  O
  O10      1.0000 0.04024  0.07844  0.78963  Biso   1.000  O
  O11      1.0000 0.06402  0.32667  0.71352  Biso   1.000  O
  O12      1.0000 0.97098  0.38904  0.47322  Biso   1.000  O
  O13      1.0000 0.55824  0.18097  0.78721  Biso   1.000  O
  O14      1.0000 0.46529  0.11611  0.52895  Biso   1.000  O
  O15      1.0000 0.47307  0.36477  0.47264  Biso   1.000  O
  O16      1.0000 0.55822  0.43097  0.70357  Biso   1.000  O
  Hf9      1.0000 0.22123  0.47652  0.09314  Biso   1.000  Hf
  Hf10     1.0000 0.29779  0.76713  0.38985  Biso   1.000  Hf
  Hf11     1.0000 0.79264  0.72671  0.11101  Biso   1.000  Hf
  Hf12     1.0000 0.71619  0.51638  0.36183  Biso   1.000  Hf
  O17      1.0000 0.00859  0.63572  0.96848  Biso   1.000  O
  O18      1.0000 0.98394  0.57031  0.21604  Biso   1.000  O
  O19      1.0000 0.03063  0.81614  0.23913  Biso   1.000  O
  O20      1.0000 0.99457  0.88220  0.98999  Biso   1.000  O
  O21      1.0000 0.53507  0.67661  0.26337  Biso   1.000  O
  O22      1.0000 0.50232  0.61427  0.00491  Biso   1.000  O
  O23      1.0000 0.50408  0.86001  0.02830  Biso   1.000  O
  O24      1.0000 0.48936  0.92271  0.28194  Biso   1.000  O
  Hf13     1.0000 0.22368  0.48583  0.59576  Biso   1.000  Hf
  Hf14     1.0000 0.29288  0.76685  0.88552  Biso   1.000  Hf
  Hf15     1.0000 0.79841  0.73463  0.61017  Biso   1.000  Hf
  Hf16     1.0000 0.71858  0.52150  0.86022  Biso   1.000  Hf
  O25      1.0000 0.00838  0.63847  0.46898  Biso   1.000  O
  O26      1.0000 0.99653  0.57958  0.71782  Biso   1.000  O
  O27      1.0000 0.03567  0.82733  0.73448  Biso   1.000  O
  O28      1.0000 0.00140  0.88974  0.49221  Biso   1.000  O
  O29      1.0000 0.53826  0.68125  0.76023  Biso   1.000  O
  O30      1.0000 0.50596  0.61531  0.50524  Biso   1.000  O
  O31      1.0000 0.50580  0.86567  0.53064  Biso   1.000  O
  O32      1.0000 0.48446  0.92974  0.78282  Biso   1.000  O
  Fe1      1.0000 0.23722  0.19102  0.15235  Biso   1.000  Fe
