data_image0
_cell_length_a       10.1162
_cell_length_b       10.3255
_cell_length_c       10.4121
_cell_angle_alpha    90.3879
_cell_angle_beta     80.0025
_cell_angle_gamma    90.1012

_symmetry_space_group_name_H-M    "P 1"
_symmetry_int_tables_number       1

loop_
  _symmetry_equiv_pos_as_xyz
  'x, y, z'

loop_
  _atom_site_label
  _atom_site_occupancy
  _atom_site_fract_x
  _atom_site_fract_y
  _atom_site_fract_z
  _atom_site_thermal_displace_type
  _atom_site_B_iso_or_equiv
  _atom_site_type_symbol
  Hf1      1.0000 0.13606  0.02267  0.14552  Biso   1.000  Hf
  Hf2      1.0000 0.14425  0.23238  0.39068  Biso   1.000  Hf
  Hf3      1.0000 0.35235  0.27848  0.10369  Biso   1.000  Hf
  Hf4      1.0000 0.35847  0.47248  0.34718  Biso   1.000  Hf
  O1       1.0000 0.03405  0.17189  0.08037  Biso   1.000  O
  O2       1.0000 0.03695  0.08008  0.33094  Biso   1.000  O
  O3       1.0000 0.45623  0.43518  0.15786  Biso   1.000  O
  O4       1.0000 0.47492  0.33427  0.41887  Biso   1.000  O
  O5       1.0000 0.27682  0.12502  0.23652  Biso   1.000  O
  O6       1.0000 0.29642  0.13091  0.47424  Biso   1.000  O
  O7       1.0000 0.21790  0.38427  0.00313  Biso   1.000  O
  O8       1.0000 0.20617  0.37833  0.25132  Biso   1.000  O
  Hf5      1.0000 0.13530  0.02000  0.64758  Biso   1.000  Hf
  Hf6      1.0000 0.13691  0.22979  0.89438  Biso   1.000  Hf
  Hf7      1.0000 0.36268  0.27329  0.60541  Biso   1.000  Hf
  Hf8      1.0000 0.36026  0.47974  0.85398  Biso   1.000  Hf
  O9       1.0000 0.04451  0.17096  0.57876  Biso   1.000  O
  O10      1.0000 0.03431  0.07870  0.83232  Biso   1.000  O
  O11      1.0000 0.46437  0.42205  0.66915  Biso   1.000  O
  O12      1.0000 0.46223  0.32804  0.91926  Biso   1.000  O
  O13      1.0000 0.27538  0.12889  0.73694  Biso   1.000  O
  O14      1.0000 0.27417  0.12377  0.98849  Biso   1.000  O
  O15      1.0000 0.22548  0.37914  0.50826  Biso   1.000  O
  O16      1.0000 0.22383  0.37064  0.75694  Biso   1.000  O
  Hf9      1.0000 0.13541  0.52509  0.14273  Biso   1.000  Hf
  Hf10     1.0000 0.13805  0.72636  0.39592  Biso   1.000  Hf
  Hf11     1.0000 0.35850  0.77008  0.10305  Biso   1.000  Hf
  Hf12     1.0000 0.36115  0.96543  0.35340  Biso   1.000  Hf
  O17      1.0000 0.03439  0.67559  0.08055  Biso   1.000  O
  O18      1.0000 0.03255  0.58313  0.32973  Biso   1.000  O
  O19      1.0000 0.46308  0.91992  0.16822  Biso   1.000  O
  O20      1.0000 0.46120  0.81925  0.41948  Biso   1.000  O
  O21      1.0000 0.27465  0.62940  0.24022  Biso   1.000  O
  O22      1.0000 0.27461  0.61945  0.49016  Biso   1.000  O
  O23      1.0000 0.22265  0.88131  0.00829  Biso   1.000  O
  O24      1.0000 0.21970  0.86693  0.25748  Biso   1.000  O
  Hf13     1.0000 0.13969  0.52199  0.64462  Biso   1.000  Hf
  Hf14     1.0000 0.13661  0.73088  0.89552  Biso   1.000  Hf
  Hf15     1.0000 0.36139  0.76955  0.60510  Biso   1.000  Hf
  Hf16     1.0000 0.36059  0.97951  0.85475  Biso   1.000  Hf
  O25      1.0000 0.03504  0.67063  0.58279  Biso   1.000  O
  O26      1.0000 0.03666  0.57904  0.83241  Biso   1.000  O
  O27      1.0000 0.46312  0.92208  0.66874  Biso   1.000  O
  O28      1.0000 0.46187  0.82901  0.91723  Biso   1.000  O
  O29      1.0000 0.27656  0.62874  0.74092  Biso   1.000  O
  O30      1.0000 0.27557  0.62363  0.98951  Biso   1.000  O
  O31      1.0000 0.22232  0.88169  0.51063  Biso   1.000  O
  O32      1.0000 0.22252  0.87090  0.75912  Biso   1.000  O
  Hf17     1.0000 0.63752  0.02037  0.15217  Biso   1.000  Hf
  Hf18     1.0000 0.64750  0.22745  0.40057  Biso   1.000  Hf
  Hf19     1.0000 0.85876  0.27243  0.10545  Biso   1.000  Hf
  Hf20     1.0000 0.86120  0.47803  0.35397  Biso   1.000  Hf
  O33      1.0000 0.52783  0.18245  0.11812  Biso   1.000  O
  O34      1.0000 0.54709  0.06039  0.34911  Biso   1.000  O
  O35      1.0000 0.95943  0.42461  0.16517  Biso   1.000  O
  O36      1.0000 0.96478  0.33099  0.41870  Biso   1.000  O
  O37      1.0000 0.77897  0.12935  0.24255  Biso   1.000  O
  O38      1.0000 0.78222  0.11859  0.49545  Biso   1.000  O
  O39      1.0000 0.72118  0.38048  0.01055  Biso   1.000  O
  O40      1.0000 0.72322  0.37078  0.26045  Biso   1.000  O
  Hf21     1.0000 0.63870  0.02207  0.64813  Biso   1.000  Hf
  Hf22     1.0000 0.63870  0.23381  0.89795  Biso   1.000  Hf
  Hf23     1.0000 0.86567  0.27070  0.60454  Biso   1.000  Hf
  Hf24     1.0000 0.86128  0.47969  0.85540  Biso   1.000  Hf
  O41      1.0000 0.53925  0.17390  0.58682  Biso   1.000  O
  O42      1.0000 0.53672  0.07940  0.83927  Biso   1.000  O
  O43      1.0000 0.96417  0.42124  0.66916  Biso   1.000  O
  O44      1.0000 0.95993  0.32754  0.91711  Biso   1.000  O
  O45      1.0000 0.77678  0.13093  0.74391  Biso   1.000  O
  O46      1.0000 0.76665  0.12244  0.99521  Biso   1.000  O
  O47      1.0000 0.72685  0.37821  0.51247  Biso   1.000  O
  O48      1.0000 0.72336  0.36979  0.76117  Biso   1.000  O
  Hf25     1.0000 0.63598  0.52336  0.14704  Biso   1.000  Hf
  Hf26     1.0000 0.63893  0.72569  0.39702  Biso   1.000  Hf
  Hf27     1.0000 0.85834  0.77193  0.10479  Biso   1.000  Hf
  Hf28     1.0000 0.86220  0.97778  0.35563  Biso   1.000  Hf
  O49      1.0000 0.53737  0.67619  0.08321  Biso   1.000  O
  O50      1.0000 0.53529  0.57673  0.33260  Biso   1.000  O
  O51      1.0000 0.96188  0.92169  0.16808  Biso   1.000  O
  O52      1.0000 0.96364  0.83026  0.42072  Biso   1.000  O
  O53      1.0000 0.77561  0.63004  0.24176  Biso   1.000  O
  O54      1.0000 0.77627  0.61992  0.49200  Biso   1.000  O
  O55      1.0000 0.72164  0.88134  0.01140  Biso   1.000  O
  O56      1.0000 0.72285  0.86987  0.26075  Biso   1.000  O
  Hf29     1.0000 0.64001  0.52155  0.64730  Biso   1.000  Hf
  Hf30     1.0000 0.63739  0.72957  0.89733  Biso   1.000  Hf
  Hf31     1.0000 0.85992  0.77145  0.60496  Biso   1.000  Hf
  Hf32     1.0000 0.85716  0.97989  0.85698  Biso   1.000  Hf
  O57      1.0000 0.53703  0.67050  0.58518  Biso   1.000  O
  O58      1.0000 0.53683  0.57815  0.83424  Biso   1.000  O
  O59      1.0000 0.96172  0.92146  0.67069  Biso   1.000  O
  O60      1.0000 0.96079  0.83035  0.91752  Biso   1.000  O
  O61      1.0000 0.77657  0.62947  0.74204  Biso   1.000  O
  O62      1.0000 0.77538  0.62164  0.99166  Biso   1.000  O
  O63      1.0000 0.72233  0.87868  0.51113  Biso   1.000  O
  O64      1.0000 0.72229  0.87160  0.76095  Biso   1.000  O
  Fe1      1.0000 0.41822  0.19470  0.31423  Biso   1.000  Fe
