data_image0
_cell_length_a       10.0608
_cell_length_b       5.14086
_cell_length_c       10.5149
_cell_angle_alpha    89.4457
_cell_angle_beta     90.8449
_cell_angle_gamma    90.0918

_symmetry_space_group_name_H-M    "P 1"
_symmetry_int_tables_number       1

loop_
  _symmetry_equiv_pos_as_xyz
  'x, y, z'

loop_
  _atom_site_label
  _atom_site_occupancy
  _atom_site_fract_x
  _atom_site_fract_y
  _atom_site_fract_z
  _atom_site_thermal_displace_type
  _atom_site_B_iso_or_equiv
  _atom_site_type_symbol
  Hf1      1.0000 0.13884  0.03553  0.17166  Biso   1.000  Hf
  Hf2      1.0000 0.13446  0.45760  0.42116  Biso   1.000  Hf
  Hf3      1.0000 0.35615  0.53738  0.17489  Biso   1.000  Hf
  Hf4      1.0000 0.36036  0.96042  0.42477  Biso   1.000  Hf
  Hf5      1.0000 0.64069  0.07110  0.07170  Biso   1.000  Hf
  Hf6      1.0000 0.63276  0.47292  0.33858  Biso   1.000  Hf
  Hf7      1.0000 0.87981  0.54219  0.06849  Biso   1.000  Hf
  Hf8      1.0000 0.85938  0.95989  0.33461  Biso   1.000  Hf
  O1       1.0000 0.04211  0.31988  0.07543  Biso   1.000  O
  O2       1.0000 0.02759  0.18278  0.32497  Biso   1.000  O
  O3       1.0000 0.47897  0.79558  0.07713  Biso   1.000  O
  O4       1.0000 0.45941  0.67227  0.33589  Biso   1.000  O
  O5       1.0000 0.27097  0.24499  0.29568  Biso   1.000  O
  O6       1.0000 0.28241  0.24032  0.04398  Biso   1.000  O
  O7       1.0000 0.21908  0.74428  0.29460  Biso   1.000  O
  O8       1.0000 0.22622  0.74523  0.04528  Biso   1.000  O
  O9       1.0000 0.51900  0.29886  0.18050  Biso   1.000  O
  O10      1.0000 0.52867  0.17680  0.42638  Biso   1.000  O
  O11      1.0000 0.96171  0.83471  0.16808  Biso   1.000  O
  O12      1.0000 0.96371  0.67472  0.41830  Biso   1.000  O
  O13      1.0000 0.77582  0.24582  0.45452  Biso   1.000  O
  O14      1.0000 0.76178  0.32846  0.19462  Biso   1.000  O
  O15      1.0000 0.72334  0.74557  0.46713  Biso   1.000  O
  O16      1.0000 0.70696  0.82360  0.22573  Biso   1.000  O
  Hf9      1.0000 0.13939  0.03670  0.66854  Biso   1.000  Hf
  Hf10     1.0000 0.14758  0.44584  0.91605  Biso   1.000  Hf
  Hf11     1.0000 0.36448  0.53507  0.67047  Biso   1.000  Hf
  Hf12     1.0000 0.36287  0.94430  0.91837  Biso   1.000  Hf
  Hf13     1.0000 0.63865  0.04313  0.58312  Biso   1.000  Hf
  Hf14     1.0000 0.63885  0.45224  0.83695  Biso   1.000  Hf
  Hf15     1.0000 0.86003  0.53835  0.58350  Biso   1.000  Hf
  Hf16     1.0000 0.86533  0.95493  0.82710  Biso   1.000  Hf
  O17      1.0000 0.03158  0.32447  0.57960  Biso   1.000  O
  O18      1.0000 0.03772  0.16750  0.82795  Biso   1.000  O
  O19      1.0000 0.46679  0.82949  0.58662  Biso   1.000  O
  O20      1.0000 0.46433  0.65106  0.83571  Biso   1.000  O
  O21      1.0000 0.27973  0.23664  0.79258  Biso   1.000  O
  O22      1.0000 0.27358  0.25106  0.54421  Biso   1.000  O
  O23      1.0000 0.22598  0.73978  0.79235  Biso   1.000  O
  O24      1.0000 0.22346  0.75007  0.54361  Biso   1.000  O
  O25      1.0000 0.53487  0.33034  0.66904  Biso   1.000  O
  O26      1.0000 0.53579  0.13529  0.90440  Biso   1.000  O
  O27      1.0000 0.96783  0.82816  0.66375  Biso   1.000  O
  O28      1.0000 0.97785  0.66794  0.90925  Biso   1.000  O
  O29      1.0000 0.79188  0.23357  0.94903  Biso   1.000  O
  O30      1.0000 0.77814  0.24793  0.70478  Biso   1.000  O
  O31      1.0000 0.72779  0.74160  0.96643  Biso   1.000  O
  O32      1.0000 0.72553  0.74755  0.71379  Biso   1.000  O
  Fe1      1.0000 0.62861  0.55670  0.10404  Biso   1.000  Fe
