data_image0
_cell_length_a       5.08505
_cell_length_b       10.344
_cell_length_c       10.1004
_cell_angle_alpha    90.0027
_cell_angle_beta     94.64
_cell_angle_gamma    90.0005

_symmetry_space_group_name_H-M    "P 1"
_symmetry_int_tables_number       1

loop_
  _symmetry_equiv_pos_as_xyz
  'x, y, z'

loop_
  _atom_site_label
  _atom_site_occupancy
  _atom_site_fract_x
  _atom_site_fract_y
  _atom_site_fract_z
  _atom_site_thermal_displace_type
  _atom_site_B_iso_or_equiv
  _atom_site_type_symbol
  Hf1      1.0000 0.24994  0.98680  0.12496  Biso   1.000  Hf
  Hf2      1.0000 0.19486  0.24791  0.37537  Biso   1.000  Hf
  Hf3      1.0000 0.74990  0.20680  0.12495  Biso   1.000  Hf
  Hf4      1.0000 0.71820  0.00918  0.38874  Biso   1.000  Hf
  O1       1.0000 0.01729  0.13820  0.98561  Biso   1.000  O
  O2       1.0000 0.99063  0.08222  0.25724  Biso   1.000  O
  O3       1.0000 0.84641  0.33666  0.27508  Biso   1.000  O
  O4       1.0000 0.13763  0.42697  0.98968  Biso   1.000  O
  O5       1.0000 0.48256  0.13819  0.26432  Biso   1.000  O
  O6       1.0000 0.50923  0.08219  0.99267  Biso   1.000  O
  O7       1.0000 0.65345  0.33664  0.97484  Biso   1.000  O
  O8       1.0000 0.36221  0.42699  0.26023  Biso   1.000  O
  Hf5      1.0000 0.24998  0.99890  0.62495  Biso   1.000  Hf
  Hf6      1.0000 0.30496  0.24788  0.87450  Biso   1.000  Hf
  Hf7      1.0000 0.74989  0.25595  0.62493  Biso   1.000  Hf
  Hf8      1.0000 0.78173  0.00918  0.86117  Biso   1.000  Hf
  O9       1.0000 0.96613  0.14614  0.49964  Biso   1.000  O
  O10      1.0000 0.03391  0.10417  0.74389  Biso   1.000  O
  O11      1.0000 0.01593  0.35108  0.75443  Biso   1.000  O
  O12      1.0000 0.98313  0.39392  0.50449  Biso   1.000  O
  O13      1.0000 0.53384  0.14614  0.75028  Biso   1.000  O
  O14      1.0000 0.46612  0.10418  0.50606  Biso   1.000  O
  O15      1.0000 0.48386  0.35109  0.49549  Biso   1.000  O
  O16      1.0000 0.51665  0.39390  0.74543  Biso   1.000  O
  Hf9      1.0000 0.24993  0.57060  0.12495  Biso   1.000  Hf
  Hf10     1.0000 0.22358  0.74068  0.39374  Biso   1.000  Hf
  Hf11     1.0000 0.74993  0.76216  0.12495  Biso   1.000  Hf
  Hf12     1.0000 0.71051  0.49624  0.37057  Biso   1.000  Hf
  O17      1.0000 0.00452  0.66457  0.98648  Biso   1.000  O
  O18      1.0000 0.95523  0.60284  0.24639  Biso   1.000  O
  O19      1.0000 0.08799  0.83460  0.23320  Biso   1.000  O
  O20      1.0000 0.91818  0.90694  0.01619  Biso   1.000  O
  O21      1.0000 0.49534  0.66459  0.26343  Biso   1.000  O
  O22      1.0000 0.54465  0.60282  0.00353  Biso   1.000  O
  O23      1.0000 0.41188  0.83458  0.01672  Biso   1.000  O
  O24      1.0000 0.58172  0.90696  0.23370  Biso   1.000  O
  Hf13     1.0000 0.24992  0.49006  0.62496  Biso   1.000  Hf
  Hf14     1.0000 0.27622  0.74068  0.85616  Biso   1.000  Hf
  Hf15     1.0000 0.74989  0.74254  0.62497  Biso   1.000  Hf
  Hf16     1.0000 0.78935  0.49621  0.87934  Biso   1.000  Hf
  O25      1.0000 0.95969  0.64055  0.49597  Biso   1.000  O
  O26      1.0000 0.03118  0.60037  0.74477  Biso   1.000  O
  O27      1.0000 0.99240  0.85429  0.75341  Biso   1.000  O
  O28      1.0000 0.00769  0.88950  0.49662  Biso   1.000  O
  O29      1.0000 0.54007  0.64052  0.75392  Biso   1.000  O
  O30      1.0000 0.46859  0.60038  0.50513  Biso   1.000  O
  O31      1.0000 0.50747  0.85430  0.49649  Biso   1.000  O
  O32      1.0000 0.49220  0.88948  0.75328  Biso   1.000  O
  Ga1      1.0000 0.24991  0.29914  0.12494  Biso   1.000  Ga
