data_image0
_cell_length_a       5.10804
_cell_length_b       10.3236
_cell_length_c       10.5366
_cell_angle_alpha    90.0978
_cell_angle_beta     79.1067
_cell_angle_gamma    89.9049

_symmetry_space_group_name_H-M    "P 1"
_symmetry_int_tables_number       1

loop_
  _symmetry_equiv_pos_as_xyz
  'x, y, z'

loop_
  _atom_site_label
  _atom_site_occupancy
  _atom_site_fract_x
  _atom_site_fract_y
  _atom_site_fract_z
  _atom_site_thermal_displace_type
  _atom_site_B_iso_or_equiv
  _atom_site_type_symbol
  Hf1      1.0000 0.26602  0.01768  0.14428  Biso   1.000  Hf
  Hf2      1.0000 0.33064  0.23441  0.40186  Biso   1.000  Hf
  Hf3      1.0000 0.70191  0.27408  0.10267  Biso   1.000  Hf
  Hf4      1.0000 0.71495  0.48304  0.34874  Biso   1.000  Hf
  O1       1.0000 0.05199  0.16310  0.07851  Biso   1.000  O
  O2       1.0000 0.05400  0.07504  0.33582  Biso   1.000  O
  O3       1.0000 0.91047  0.43571  0.15698  Biso   1.000  O
  O4       1.0000 0.97163  0.35009  0.44045  Biso   1.000  O
  O5       1.0000 0.52887  0.11633  0.23825  Biso   1.000  O
  O6       1.0000 0.57949  0.11453  0.49580  Biso   1.000  O
  O7       1.0000 0.43252  0.38068  0.00816  Biso   1.000  O
  O8       1.0000 0.41994  0.37926  0.25583  Biso   1.000  O
  Hf5      1.0000 0.27779  0.02112  0.64794  Biso   1.000  Hf
  Hf6      1.0000 0.26990  0.22894  0.89674  Biso   1.000  Hf
  Hf7      1.0000 0.73803  0.27273  0.61185  Biso   1.000  Hf
  Hf8      1.0000 0.71961  0.47893  0.85735  Biso   1.000  Hf
  O9       1.0000 0.08908  0.16864  0.57836  Biso   1.000  O
  O10      1.0000 0.06363  0.08412  0.82799  Biso   1.000  O
  O11      1.0000 0.94150  0.41371  0.68165  Biso   1.000  O
  O12      1.0000 0.92160  0.33190  0.92330  Biso   1.000  O
  O13      1.0000 0.55022  0.12915  0.74281  Biso   1.000  O
  O14      1.0000 0.53919  0.12318  0.99039  Biso   1.000  O
  O15      1.0000 0.47116  0.37927  0.51369  Biso   1.000  O
  O16      1.0000 0.45171  0.37167  0.76159  Biso   1.000  O
  Hf9      1.0000 0.26727  0.52452  0.14366  Biso   1.000  Hf
  Hf10     1.0000 0.26754  0.72459  0.39777  Biso   1.000  Hf
  Hf11     1.0000 0.71417  0.77145  0.10398  Biso   1.000  Hf
  Hf12     1.0000 0.70388  0.96603  0.35675  Biso   1.000  Hf
  O17      1.0000 0.06644  0.67510  0.07873  Biso   1.000  O
  O18      1.0000 0.05759  0.58563  0.32610  Biso   1.000  O
  O19      1.0000 0.91894  0.91396  0.17522  Biso   1.000  O
  O20      1.0000 0.92153  0.82844  0.42456  Biso   1.000  O
  O21      1.0000 0.54436  0.62973  0.24210  Biso   1.000  O
  O22      1.0000 0.54341  0.62061  0.49048  Biso   1.000  O
  O23      1.0000 0.44420  0.87992  0.00948  Biso   1.000  O
  O24      1.0000 0.43081  0.86698  0.26056  Biso   1.000  O
  Hf13     1.0000 0.27942  0.52229  0.64891  Biso   1.000  Hf
  Hf14     1.0000 0.27117  0.73002  0.89706  Biso   1.000  Hf
  Hf15     1.0000 0.71994  0.77102  0.60652  Biso   1.000  Hf
  Hf16     1.0000 0.71890  0.97954  0.85441  Biso   1.000  Hf
  O25      1.0000 0.05974  0.66237  0.58052  Biso   1.000  O
  O26      1.0000 0.06564  0.58491  0.83088  Biso   1.000  O
  O27      1.0000 0.92969  0.91650  0.67231  Biso   1.000  O
  O28      1.0000 0.92715  0.83564  0.92210  Biso   1.000  O
  O29      1.0000 0.54962  0.62801  0.74126  Biso   1.000  O
  O30      1.0000 0.54660  0.62325  0.99108  Biso   1.000  O
  O31      1.0000 0.43659  0.87434  0.51237  Biso   1.000  O
  O32      1.0000 0.44691  0.87189  0.76126  Biso   1.000  O
  Ga1      1.0000 0.89527  0.23590  0.30594  Biso   1.000  Ga
