data_image0
_cell_length_a       5.00799
_cell_length_b       10.1293
_cell_length_c       10.0246
_cell_angle_alpha    90
_cell_angle_beta     89.9998
_cell_angle_gamma    90.0003

_symmetry_space_group_name_H-M    "P 1"
_symmetry_int_tables_number       1

loop_
  _symmetry_equiv_pos_as_xyz
  'x, y, z'

loop_
  _atom_site_label
  _atom_site_occupancy
  _atom_site_fract_x
  _atom_site_fract_y
  _atom_site_fract_z
  _atom_site_thermal_displace_type
  _atom_site_B_iso_or_equiv
  _atom_site_type_symbol
  Ga1      1.0000 0.24982  0.00006  0.12491  Biso   1.000  Ga
  Hf1      1.0000 0.25462  0.24834  0.37508  Biso   1.000  Hf
  Hf2      1.0000 0.74982  0.24988  0.12491  Biso   1.000  Hf
  Hf3      1.0000 0.74982  0.00005  0.37139  Biso   1.000  Hf
  O1       1.0000 0.95336  0.15437  0.97991  Biso   1.000  O
  O2       1.0000 0.03125  0.09755  0.23735  Biso   1.000  O
  O3       1.0000 0.00076  0.35012  0.25212  Biso   1.000  O
  O4       1.0000 0.99817  0.39990  0.00226  Biso   1.000  O
  O5       1.0000 0.54628  0.15437  0.26991  Biso   1.000  O
  O6       1.0000 0.46838  0.09755  0.01247  Biso   1.000  O
  O7       1.0000 0.49887  0.35012  0.99770  Biso   1.000  O
  O8       1.0000 0.50147  0.39990  0.24756  Biso   1.000  O
  Hf4      1.0000 0.24982  0.00005  0.62491  Biso   1.000  Hf
  Hf5      1.0000 0.24501  0.24834  0.87473  Biso   1.000  Hf
  Hf6      1.0000 0.74982  0.24746  0.62491  Biso   1.000  Hf
  Hf7      1.0000 0.74981  0.00005  0.87842  Biso   1.000  Hf
  O9       1.0000 0.98382  0.14531  0.48713  Biso   1.000  O
  O10      1.0000 0.00570  0.10553  0.74062  Biso   1.000  O
  O11      1.0000 0.99359  0.35516  0.75248  Biso   1.000  O
  O12      1.0000 0.00382  0.39451  0.50214  Biso   1.000  O
  O13      1.0000 0.51581  0.14531  0.76269  Biso   1.000  O
  O14      1.0000 0.49393  0.10554  0.50920  Biso   1.000  O
  O15      1.0000 0.50605  0.35516  0.49733  Biso   1.000  O
  O16      1.0000 0.49581  0.39451  0.74767  Biso   1.000  O
  Hf8      1.0000 0.24982  0.50005  0.12491  Biso   1.000  Hf
  Hf9      1.0000 0.24502  0.75177  0.37508  Biso   1.000  Hf
  Hf10     1.0000 0.74982  0.75023  0.12491  Biso   1.000  Hf
  Hf11     1.0000 0.74982  0.50005  0.37859  Biso   1.000  Hf
  O17      1.0000 0.00076  0.64998  0.99770  Biso   1.000  O
  O18      1.0000 0.99817  0.60021  0.24756  Biso   1.000  O
  O19      1.0000 0.95336  0.84574  0.26991  Biso   1.000  O
  O20      1.0000 0.03126  0.90256  0.01247  Biso   1.000  O
  O21      1.0000 0.49888  0.64999  0.25212  Biso   1.000  O
  O22      1.0000 0.50147  0.60021  0.00226  Biso   1.000  O
  O23      1.0000 0.54627  0.84574  0.97991  Biso   1.000  O
  O24      1.0000 0.46838  0.90256  0.23735  Biso   1.000  O
  Hf12     1.0000 0.24982  0.50005  0.62491  Biso   1.000  Hf
  Hf13     1.0000 0.25461  0.75177  0.87473  Biso   1.000  Hf
  Hf14     1.0000 0.74982  0.75265  0.62491  Biso   1.000  Hf
  Hf15     1.0000 0.74981  0.50005  0.87123  Biso   1.000  Hf
  O25      1.0000 0.99359  0.64495  0.49733  Biso   1.000  O
  O26      1.0000 0.00382  0.60560  0.74768  Biso   1.000  O
  O27      1.0000 0.98382  0.85480  0.76269  Biso   1.000  O
  O28      1.0000 0.00570  0.89457  0.50920  Biso   1.000  O
  O29      1.0000 0.50604  0.64495  0.75248  Biso   1.000  O
  O30      1.0000 0.49582  0.60560  0.50214  Biso   1.000  O
  O31      1.0000 0.51582  0.85480  0.48713  Biso   1.000  O
  O32      1.0000 0.49393  0.89457  0.74062  Biso   1.000  O
