data_image0
_cell_length_a       10.1182
_cell_length_b       10.3079
_cell_length_c       5.10145
_cell_angle_alpha    89.9994
_cell_angle_beta     95.441
_cell_angle_gamma    89.9994

_symmetry_space_group_name_H-M    "P 1"
_symmetry_int_tables_number       1

loop_
  _symmetry_equiv_pos_as_xyz
  'x, y, z'

loop_
  _atom_site_label
  _atom_site_occupancy
  _atom_site_fract_x
  _atom_site_fract_y
  _atom_site_fract_z
  _atom_site_thermal_displace_type
  _atom_site_B_iso_or_equiv
  _atom_site_type_symbol
  Hf1      1.0000 0.12503  0.98399  0.24980  Biso   1.000  Hf
  Hf2      1.0000 0.12503  0.20648  0.74983  Biso   1.000  Hf
  Hf3      1.0000 0.37476  0.25058  0.17905  Biso   1.000  Hf
  Hf4      1.0000 0.38956  0.01084  0.71160  Biso   1.000  Hf
  O1       1.0000 0.99281  0.13745  0.03500  Biso   1.000  O
  O2       1.0000 0.99036  0.08246  0.51856  Biso   1.000  O
  O3       1.0000 0.96793  0.33433  0.67630  Biso   1.000  O
  O4       1.0000 0.99060  0.42397  0.14715  Biso   1.000  O
  O5       1.0000 0.25723  0.13745  0.46463  Biso   1.000  O
  O6       1.0000 0.25969  0.08245  0.98106  Biso   1.000  O
  O7       1.0000 0.28213  0.33433  0.82331  Biso   1.000  O
  O8       1.0000 0.25945  0.42397  0.35246  Biso   1.000  O
  Hf5      1.0000 0.12502  0.56994  0.24980  Biso   1.000  Hf
  Hf6      1.0000 0.12502  0.76127  0.74980  Biso   1.000  Hf
  Hf7      1.0000 0.39449  0.74051  0.21974  Biso   1.000  Hf
  Hf8      1.0000 0.37158  0.49655  0.70446  Biso   1.000  Hf
  O9       1.0000 0.98542  0.66295  0.00492  Biso   1.000  O
  O10      1.0000 0.00383  0.60237  0.54429  Biso   1.000  O
  O11      1.0000 0.01768  0.83441  0.40880  Biso   1.000  O
  O12      1.0000 0.01542  0.90526  0.91450  Biso   1.000  O
  O13      1.0000 0.26463  0.66294  0.49468  Biso   1.000  O
  O14      1.0000 0.24622  0.60236  0.95530  Biso   1.000  O
  O15      1.0000 0.23236  0.83440  0.09081  Biso   1.000  O
  O16      1.0000 0.23463  0.90526  0.58510  Biso   1.000  O
  Hf9      1.0000 0.62503  0.00138  0.24978  Biso   1.000  Hf
  Hf10     1.0000 0.62504  0.25898  0.74982  Biso   1.000  Hf
  Hf11     1.0000 0.87532  0.25060  0.32056  Biso   1.000  Hf
  Hf12     1.0000 0.86049  0.01084  0.78797  Biso   1.000  Hf
  O17      1.0000 0.50258  0.14618  0.95938  Biso   1.000  O
  O18      1.0000 0.50191  0.10621  0.45534  Biso   1.000  O
  O19      1.0000 0.49578  0.35353  0.47949  Biso   1.000  O
  O20      1.0000 0.50526  0.39467  0.98156  Biso   1.000  O
  O21      1.0000 0.74747  0.14618  0.54015  Biso   1.000  O
  O22      1.0000 0.74812  0.10623  0.04416  Biso   1.000  O
  O23      1.0000 0.75428  0.35355  0.02012  Biso   1.000  O
  O24      1.0000 0.74480  0.39468  0.51806  Biso   1.000  O
  Hf13     1.0000 0.62502  0.49127  0.24981  Biso   1.000  Hf
  Hf14     1.0000 0.62502  0.74389  0.74982  Biso   1.000  Hf
  Hf15     1.0000 0.85556  0.74051  0.27988  Biso   1.000  Hf
  Hf16     1.0000 0.87847  0.49655  0.79516  Biso   1.000  Hf
  O25      1.0000 0.49607  0.64138  0.95665  Biso   1.000  O
  O26      1.0000 0.50574  0.60212  0.46615  Biso   1.000  O
  O27      1.0000 0.49739  0.85609  0.50379  Biso   1.000  O
  O28      1.0000 0.49555  0.89055  0.00398  Biso   1.000  O
  O29      1.0000 0.75398  0.64139  0.54298  Biso   1.000  O
  O30      1.0000 0.74431  0.60212  0.03348  Biso   1.000  O
  O31      1.0000 0.75266  0.85610  0.99582  Biso   1.000  O
  O32      1.0000 0.75450  0.89055  0.49562  Biso   1.000  O
  Ge1      1.0000 0.12504  0.29024  0.24983  Biso   1.000  Ge
