data_image0
_cell_length_a       10.0808
_cell_length_b       10.1945
_cell_length_c       5.23607
_cell_angle_alpha    90.2534
_cell_angle_beta     80.85
_cell_angle_gamma    89.3599

_symmetry_space_group_name_H-M    "P 1"
_symmetry_int_tables_number       1

loop_
  _symmetry_equiv_pos_as_xyz
  'x, y, z'

loop_
  _atom_site_label
  _atom_site_occupancy
  _atom_site_fract_x
  _atom_site_fract_y
  _atom_site_fract_z
  _atom_site_thermal_displace_type
  _atom_site_B_iso_or_equiv
  _atom_site_type_symbol
  Ge1      1.0000 0.12052  0.01240  0.31784  Biso   1.000  Ge
  Hf1      1.0000 0.14078  0.22400  0.77524  Biso   1.000  Hf
  Hf2      1.0000 0.35824  0.26906  0.19614  Biso   1.000  Hf
  Hf3      1.0000 0.36126  0.47946  0.70712  Biso   1.000  Hf
  O1       1.0000 0.04793  0.14989  0.14715  Biso   1.000  O
  O2       1.0000 0.03296  0.07911  0.64283  Biso   1.000  O
  O3       1.0000 0.46511  0.41482  0.34564  Biso   1.000  O
  O4       1.0000 0.47277  0.34230  0.84972  Biso   1.000  O
  O5       1.0000 0.26183  0.11564  0.43050  Biso   1.000  O
  O6       1.0000 0.29816  0.14470  0.91377  Biso   1.000  O
  O7       1.0000 0.22323  0.38454  0.01344  Biso   1.000  O
  O8       1.0000 0.22719  0.36689  0.51541  Biso   1.000  O
  Hf4      1.0000 0.14080  0.52197  0.29178  Biso   1.000  Hf
  Hf5      1.0000 0.13611  0.72972  0.79450  Biso   1.000  Hf
  Hf6      1.0000 0.35716  0.77718  0.21411  Biso   1.000  Hf
  Hf7      1.0000 0.36012  0.98380  0.70382  Biso   1.000  Hf
  O9       1.0000 0.03338  0.66525  0.15885  Biso   1.000  O
  O10      1.0000 0.03570  0.58331  0.66017  Biso   1.000  O
  O11      1.0000 0.46635  0.91678  0.34779  Biso   1.000  O
  O12      1.0000 0.45746  0.83443  0.84772  Biso   1.000  O
  O13      1.0000 0.27562  0.63004  0.48071  Biso   1.000  O
  O14      1.0000 0.27578  0.62835  0.98135  Biso   1.000  O
  O15      1.0000 0.21807  0.90442  0.04565  Biso   1.000  O
  O16      1.0000 0.21736  0.87195  0.52847  Biso   1.000  O
  Hf8      1.0000 0.63847  0.02267  0.29285  Biso   1.000  Hf
  Hf9      1.0000 0.64060  0.23025  0.79389  Biso   1.000  Hf
  Hf10     1.0000 0.86942  0.26605  0.21385  Biso   1.000  Hf
  Hf11     1.0000 0.86275  0.47676  0.71421  Biso   1.000  Hf
  O17      1.0000 0.53475  0.16633  0.15285  Biso   1.000  O
  O18      1.0000 0.53783  0.08423  0.65314  Biso   1.000  O
  O19      1.0000 0.97133  0.41059  0.35478  Biso   1.000  O
  O20      1.0000 0.96859  0.33098  0.85640  Biso   1.000  O
  O21      1.0000 0.77885  0.12728  0.48126  Biso   1.000  O
  O22      1.0000 0.77903  0.12030  0.98381  Biso   1.000  O
  O23      1.0000 0.72896  0.37633  0.02681  Biso   1.000  O
  O24      1.0000 0.72789  0.36999  0.52266  Biso   1.000  O
  Hf12     1.0000 0.63681  0.51969  0.29284  Biso   1.000  Hf
  Hf13     1.0000 0.63470  0.72863  0.79529  Biso   1.000  Hf
  Hf14     1.0000 0.85881  0.76898  0.21306  Biso   1.000  Hf
  Hf15     1.0000 0.85709  0.97676  0.71519  Biso   1.000  Hf
  O25      1.0000 0.53243  0.66794  0.15719  Biso   1.000  O
  O26      1.0000 0.53353  0.58488  0.65408  Biso   1.000  O
  O27      1.0000 0.96672  0.91361  0.35031  Biso   1.000  O
  O28      1.0000 0.96208  0.83263  0.85267  Biso   1.000  O
  O29      1.0000 0.77616  0.62668  0.48379  Biso   1.000  O
  O30      1.0000 0.77479  0.62041  0.98289  Biso   1.000  O
  O31      1.0000 0.72015  0.87808  0.02347  Biso   1.000  O
  O32      1.0000 0.72436  0.86995  0.52299  Biso   1.000  O
