data_image0
_cell_length_a       10.2886
_cell_length_b       5.2502
_cell_length_c       10.3304
_cell_angle_alpha    90.167
_cell_angle_beta     89.5889
_cell_angle_gamma    101.048

_symmetry_space_group_name_H-M    "P 1"
_symmetry_int_tables_number       1

loop_
  _symmetry_equiv_pos_as_xyz
  'x, y, z'

loop_
  _atom_site_label
  _atom_site_occupancy
  _atom_site_fract_x
  _atom_site_fract_y
  _atom_site_fract_z
  _atom_site_thermal_displace_type
  _atom_site_B_iso_or_equiv
  _atom_site_type_symbol
  Hf1      1.0000 0.09216  0.05467  0.14111  Biso   1.000  Hf
  Hf2      1.0000 0.10442  0.54476  0.35855  Biso   1.000  Hf
  Hf3      1.0000 0.40185  0.43631  0.10874  Biso   1.000  Hf
  Hf4      1.0000 0.38800  0.94577  0.40064  Biso   1.000  Hf
  O1       1.0000 0.02012  0.28533  0.99711  Biso   1.000  O
  O2       1.0000 0.96694  0.24699  0.25658  Biso   1.000  O
  O3       1.0000 0.96518  0.74255  0.24703  Biso   1.000  O
  O4       1.0000 0.00795  0.78387  0.99399  Biso   1.000  O
  O5       1.0000 0.21858  0.38341  0.21915  Biso   1.000  O
  O6       1.0000 0.27543  0.10757  0.03071  Biso   1.000  O
  O7       1.0000 0.28170  0.57389  0.94220  Biso   1.000  O
  O8       1.0000 0.21231  0.91708  0.30766  Biso   1.000  O
  Hf5      1.0000 0.10967  0.04063  0.64693  Biso   1.000  Hf
  Hf6      1.0000 0.10601  0.54519  0.84921  Biso   1.000  Hf
  Hf7      1.0000 0.38435  0.45033  0.60292  Biso   1.000  Hf
  Hf8      1.0000 0.38958  0.94622  0.89130  Biso   1.000  Hf
  O9       1.0000 0.02298  0.26735  0.49808  Biso   1.000  O
  O10      1.0000 0.97093  0.23107  0.75333  Biso   1.000  O
  O11      1.0000 0.97051  0.73235  0.74298  Biso   1.000  O
  O12      1.0000 0.02375  0.76786  0.50311  Biso   1.000  O
  O13      1.0000 0.20943  0.40830  0.70278  Biso   1.000  O
  O14      1.0000 0.28458  0.08264  0.54708  Biso   1.000  O
  O15      1.0000 0.28091  0.58245  0.45797  Biso   1.000  O
  O16      1.0000 0.21310  0.90849  0.79188  Biso   1.000  O
  Hf9      1.0000 0.61115  0.02166  0.14786  Biso   1.000  Hf
  Hf10     1.0000 0.61494  0.52955  0.35700  Biso   1.000  Hf
  Hf11     1.0000 0.88285  0.46933  0.10199  Biso   1.000  Hf
  Hf12     1.0000 0.88708  0.95952  0.39751  Biso   1.000  Hf
  O17      1.0000 0.52707  0.24400  0.99328  Biso   1.000  O
  O18      1.0000 0.47389  0.20565  0.25275  Biso   1.000  O
  O19      1.0000 0.48606  0.70711  0.25587  Biso   1.000  O
  O20      1.0000 0.52882  0.74844  0.00282  Biso   1.000  O
  O21      1.0000 0.71057  0.39948  0.20643  Biso   1.000  O
  O22      1.0000 0.78343  0.09152  0.04342  Biso   1.000  O
  O23      1.0000 0.77647  0.58735  0.95597  Biso   1.000  O
  O24      1.0000 0.71754  0.90365  0.29389  Biso   1.000  O
  Hf13     1.0000 0.60845  0.03601  0.64552  Biso   1.000  Hf
  Hf14     1.0000 0.60693  0.53145  0.85235  Biso   1.000  Hf
  Hf15     1.0000 0.88556  0.45496  0.60434  Biso   1.000  Hf
  Hf16     1.0000 0.87906  0.96144  0.89286  Biso   1.000  Hf
  O25      1.0000 0.52308  0.25990  0.49653  Biso   1.000  O
  O26      1.0000 0.47103  0.22362  0.75177  Biso   1.000  O
  O27      1.0000 0.47025  0.72311  0.74674  Biso   1.000  O
  O28      1.0000 0.52350  0.75862  0.50688  Biso   1.000  O
  O29      1.0000 0.71328  0.40074  0.70772  Biso   1.000  O
  O30      1.0000 0.78073  0.09023  0.54214  Biso   1.000  O
  O31      1.0000 0.78490  0.59253  0.46058  Biso   1.000  O
  O32      1.0000 0.70911  0.89844  0.78927  Biso   1.000  O
  Ge1      1.0000 0.24700  0.74548  0.12493  Biso   1.000  Ge
