data_image0
_cell_length_a       5.10404
_cell_length_b       10.3929
_cell_length_c       10.1246
_cell_angle_alpha    90.0191
_cell_angle_beta     94.7216
_cell_angle_gamma    90.0159

_symmetry_space_group_name_H-M    "P 1"
_symmetry_int_tables_number       1

loop_
  _symmetry_equiv_pos_as_xyz
  'x, y, z'

loop_
  _atom_site_label
  _atom_site_occupancy
  _atom_site_fract_x
  _atom_site_fract_y
  _atom_site_fract_z
  _atom_site_thermal_displace_type
  _atom_site_B_iso_or_equiv
  _atom_site_type_symbol
  Hf1      1.0000 0.25004  0.98442  0.12490  Biso   1.000  Hf
  Hf2      1.0000 0.18904  0.24707  0.38281  Biso   1.000  Hf
  Hf3      1.0000 0.74989  0.20008  0.12489  Biso   1.000  Hf
  Hf4      1.0000 0.71270  0.00865  0.38900  Biso   1.000  Hf
  O1       1.0000 0.01988  0.13451  0.98512  Biso   1.000  O
  O2       1.0000 0.98996  0.08046  0.25913  Biso   1.000  O
  O3       1.0000 0.83380  0.33427  0.27472  Biso   1.000  O
  O4       1.0000 0.14499  0.44086  0.97768  Biso   1.000  O
  O5       1.0000 0.47985  0.13450  0.26465  Biso   1.000  O
  O6       1.0000 0.50986  0.08024  0.99060  Biso   1.000  O
  O7       1.0000 0.66577  0.33400  0.97495  Biso   1.000  O
  O8       1.0000 0.35439  0.44087  0.27220  Biso   1.000  O
  Hf5      1.0000 0.25004  0.99517  0.62469  Biso   1.000  Hf
  Hf6      1.0000 0.31054  0.24670  0.86672  Biso   1.000  Hf
  Hf7      1.0000 0.74962  0.25805  0.62471  Biso   1.000  Hf
  Hf8      1.0000 0.78723  0.00856  0.86073  Biso   1.000  Hf
  O9       1.0000 0.95514  0.14507  0.50093  Biso   1.000  O
  O10      1.0000 0.04745  0.10298  0.74596  Biso   1.000  O
  O11      1.0000 0.02126  0.34985  0.74997  Biso   1.000  O
  O12      1.0000 0.98145  0.39377  0.50307  Biso   1.000  O
  O13      1.0000 0.54524  0.14498  0.74888  Biso   1.000  O
  O14      1.0000 0.45312  0.10335  0.50395  Biso   1.000  O
  O15      1.0000 0.47868  0.35017  0.49965  Biso   1.000  O
  O16      1.0000 0.51828  0.39365  0.74665  Biso   1.000  O
  Hf9      1.0000 0.24997  0.57844  0.12499  Biso   1.000  Hf
  Hf10     1.0000 0.22540  0.74122  0.39502  Biso   1.000  Hf
  Hf11     1.0000 0.75003  0.76249  0.12496  Biso   1.000  Hf
  Hf12     1.0000 0.71131  0.49764  0.36810  Biso   1.000  Hf
  O17      1.0000 0.00408  0.66936  0.98577  Biso   1.000  O
  O18      1.0000 0.94829  0.60309  0.24338  Biso   1.000  O
  O19      1.0000 0.09100  0.83248  0.23255  Biso   1.000  O
  O20      1.0000 0.91610  0.90725  0.01691  Biso   1.000  O
  O21      1.0000 0.49584  0.66945  0.26429  Biso   1.000  O
  O22      1.0000 0.55237  0.60253  0.00723  Biso   1.000  O
  O23      1.0000 0.40922  0.83218  0.01722  Biso   1.000  O
  O24      1.0000 0.58420  0.90744  0.23264  Biso   1.000  O
  Hf13     1.0000 0.24957  0.48970  0.62515  Biso   1.000  Hf
  Hf14     1.0000 0.27299  0.74145  0.85473  Biso   1.000  Hf
  Hf15     1.0000 0.74896  0.73864  0.62499  Biso   1.000  Hf
  Hf16     1.0000 0.78800  0.49750  0.88200  Biso   1.000  Hf
  O25      1.0000 0.96282  0.64013  0.49550  Biso   1.000  O
  O26      1.0000 0.02605  0.60089  0.74306  Biso   1.000  O
  O27      1.0000 0.99070  0.85398  0.75203  Biso   1.000  O
  O28      1.0000 0.00817  0.88899  0.49522  Biso   1.000  O
  O29      1.0000 0.53554  0.64000  0.75465  Biso   1.000  O
  O30      1.0000 0.47235  0.60105  0.50695  Biso   1.000  O
  O31      1.0000 0.50852  0.85410  0.49759  Biso   1.000  O
  O32      1.0000 0.49133  0.88884  0.75430  Biso   1.000  O
  In1      1.0000 0.25002  0.30155  0.12477  Biso   1.000  In
