data_image0
_cell_length_a       10.0031
_cell_length_b       10.4164
_cell_length_c       10.0407
_cell_angle_alpha    89.629
_cell_angle_beta     89.9744
_cell_angle_gamma    90.1307

_symmetry_space_group_name_H-M    "P 1"
_symmetry_int_tables_number       1

loop_
  _symmetry_equiv_pos_as_xyz
  'x, y, z'

loop_
  _atom_site_label
  _atom_site_occupancy
  _atom_site_fract_x
  _atom_site_fract_y
  _atom_site_fract_z
  _atom_site_thermal_displace_type
  _atom_site_B_iso_or_equiv
  _atom_site_type_symbol
  Hf1      1.0000 0.13665  0.01987  0.11947  Biso   1.000  Hf
  Hf2      1.0000 0.13564  0.23060  0.38423  Biso   1.000  Hf
  Hf3      1.0000 0.36860  0.26340  0.12238  Biso   1.000  Hf
  Hf4      1.0000 0.36844  0.48501  0.37653  Biso   1.000  Hf
  O1       1.0000 0.00394  0.16873  0.22759  Biso   1.000  O
  O2       1.0000 0.03705  0.06315  0.45225  Biso   1.000  O
  O3       1.0000 0.46390  0.43334  0.19442  Biso   1.000  O
  O4       1.0000 0.46467  0.31735  0.44667  Biso   1.000  O
  O5       1.0000 0.26745  0.11557  0.25192  Biso   1.000  O
  O6       1.0000 0.27308  0.13159  0.50088  Biso   1.000  O
  O7       1.0000 0.23224  0.38337  0.50272  Biso   1.000  O
  O8       1.0000 0.23569  0.36903  0.25728  Biso   1.000  O
  Hf5      1.0000 0.13508  0.01252  0.62658  Biso   1.000  Hf
  Hf6      1.0000 0.14055  0.22186  0.86655  Biso   1.000  Hf
  Hf7      1.0000 0.36835  0.26680  0.62609  Biso   1.000  Hf
  Hf8      1.0000 0.36868  0.48477  0.87402  Biso   1.000  Hf
  O9       1.0000 0.03730  0.18059  0.69063  Biso   1.000  O
  O10      1.0000 0.04089  0.05699  0.93603  Biso   1.000  O
  O11      1.0000 0.46617  0.43381  0.69556  Biso   1.000  O
  O12      1.0000 0.46509  0.31501  0.94168  Biso   1.000  O
  O13      1.0000 0.27359  0.11304  0.74554  Biso   1.000  O
  O14      1.0000 0.29101  0.12142  0.99054  Biso   1.000  O
  O15      1.0000 0.23330  0.39083  0.00130  Biso   1.000  O
  O16      1.0000 0.23250  0.36534  0.75052  Biso   1.000  O
  Hf9      1.0000 0.13199  0.53414  0.12603  Biso   1.000  Hf
  Hf10     1.0000 0.13548  0.73643  0.37846  Biso   1.000  Hf
  Hf11     1.0000 0.36559  0.76812  0.12726  Biso   1.000  Hf
  Hf12     1.0000 0.36576  0.98355  0.37614  Biso   1.000  Hf
  O17      1.0000 0.03508  0.69063  0.19870  Biso   1.000  O
  O18      1.0000 0.03670  0.56832  0.44527  Biso   1.000  O
  O19      1.0000 0.46325  0.93381  0.19567  Biso   1.000  O
  O20      1.0000 0.46496  0.81538  0.44377  Biso   1.000  O
  O21      1.0000 0.27230  0.62202  0.25143  Biso   1.000  O
  O22      1.0000 0.27156  0.63243  0.50015  Biso   1.000  O
  O23      1.0000 0.23152  0.88187  0.50025  Biso   1.000  O
  O24      1.0000 0.22972  0.86920  0.24999  Biso   1.000  O
  Hf13     1.0000 0.13446  0.51547  0.62588  Biso   1.000  Hf
  Hf14     1.0000 0.13336  0.73564  0.87337  Biso   1.000  Hf
  Hf15     1.0000 0.36943  0.76434  0.62461  Biso   1.000  Hf
  Hf16     1.0000 0.37146  0.97833  0.87355  Biso   1.000  Hf
  O25      1.0000 0.03751  0.68406  0.69269  Biso   1.000  O
  O26      1.0000 0.03522  0.56837  0.94579  Biso   1.000  O
  O27      1.0000 0.46849  0.93110  0.69158  Biso   1.000  O
  O28      1.0000 0.46798  0.81524  0.94770  Biso   1.000  O
  O29      1.0000 0.27010  0.61538  0.74965  Biso   1.000  O
  O30      1.0000 0.26996  0.63768  0.99870  Biso   1.000  O
  O31      1.0000 0.22998  0.88152  0.99965  Biso   1.000  O
  O32      1.0000 0.23453  0.86430  0.74881  Biso   1.000  O
  Hf17     1.0000 0.63097  0.01258  0.12355  Biso   1.000  Hf
  Hf18     1.0000 0.63112  0.23178  0.37869  Biso   1.000  Hf
  Hf19     1.0000 0.84310  0.26417  0.12747  Biso   1.000  Hf
  Hf20     1.0000 0.86701  0.48505  0.37788  Biso   1.000  Hf
  O33      1.0000 0.53356  0.18113  0.19487  Biso   1.000  O
  O34      1.0000 0.53514  0.06550  0.44640  Biso   1.000  O
  O35      1.0000 0.95277  0.44605  0.19496  Biso   1.000  O
  O36      1.0000 0.96826  0.32025  0.44948  Biso   1.000  O
  O37      1.0000 0.75809  0.11415  0.25024  Biso   1.000  O
  O38      1.0000 0.77252  0.13447  0.49809  Biso   1.000  O
  O39      1.0000 0.73070  0.38220  0.50146  Biso   1.000  O
  O40      1.0000 0.72295  0.36890  0.25409  Biso   1.000  O
  Hf21     1.0000 0.63722  0.01561  0.62427  Biso   1.000  Hf
  Hf22     1.0000 0.63332  0.23169  0.87255  Biso   1.000  Hf
  Hf23     1.0000 0.86744  0.26745  0.62669  Biso   1.000  Hf
  Hf24     1.0000 0.86621  0.48289  0.87653  Biso   1.000  Hf
  O41      1.0000 0.53859  0.18351  0.69233  Biso   1.000  O
  O42      1.0000 0.54304  0.06206  0.93882  Biso   1.000  O
  O43      1.0000 0.96475  0.43486  0.69581  Biso   1.000  O
  O44      1.0000 0.96005  0.31159  0.93327  Biso   1.000  O
  O45      1.0000 0.77258  0.11643  0.74860  Biso   1.000  O
  O46      1.0000 0.77054  0.13029  0.99906  Biso   1.000  O
  O47      1.0000 0.72526  0.38186  0.00091  Biso   1.000  O
  O48      1.0000 0.73052  0.36766  0.75042  Biso   1.000  O
  Hf25     1.0000 0.63232  0.51872  0.12831  Biso   1.000  Hf
  Hf26     1.0000 0.63543  0.73483  0.37591  Biso   1.000  Hf
  Hf27     1.0000 0.86443  0.76723  0.12564  Biso   1.000  Hf
  Hf28     1.0000 0.87015  0.98672  0.37107  Biso   1.000  Hf
  O49      1.0000 0.53536  0.68434  0.19600  Biso   1.000  O
  O50      1.0000 0.53762  0.56651  0.44592  Biso   1.000  O
  O51      1.0000 0.96438  0.93408  0.18955  Biso   1.000  O
  O52      1.0000 0.96513  0.81818  0.44384  Biso   1.000  O
  O53      1.0000 0.76847  0.61952  0.25191  Biso   1.000  O
  O54      1.0000 0.77059  0.63384  0.50065  Biso   1.000  O
  O55      1.0000 0.73309  0.88508  0.49734  Biso   1.000  O
  O56      1.0000 0.73011  0.86739  0.24830  Biso   1.000  O
  Hf29     1.0000 0.63633  0.51594  0.62607  Biso   1.000  Hf
  Hf30     1.0000 0.63585  0.73222  0.87580  Biso   1.000  Hf
  Hf31     1.0000 0.86786  0.76651  0.62444  Biso   1.000  Hf
  Hf32     1.0000 0.86650  0.98085  0.87432  Biso   1.000  Hf
  O57      1.0000 0.53681  0.68188  0.69654  Biso   1.000  O
  O58      1.0000 0.53551  0.56646  0.94619  Biso   1.000  O
  O59      1.0000 0.96647  0.93045  0.69677  Biso   1.000  O
  O60      1.0000 0.96287  0.81297  0.94372  Biso   1.000  O
  O61      1.0000 0.77166  0.61675  0.75015  Biso   1.000  O
  O62      1.0000 0.76975  0.63138  0.00066  Biso   1.000  O
  O63      1.0000 0.73051  0.88070  0.99891  Biso   1.000  O
  O64      1.0000 0.73160  0.86595  0.74837  Biso   1.000  O
  Ir1      1.0000 0.09586  0.29024  0.10817  Biso   1.000  Ir
