data_image0
_cell_length_a       10.0315
_cell_length_b       10.1819
_cell_length_c       5.2284
_cell_angle_alpha    90.0543
_cell_angle_beta     90.43
_cell_angle_gamma    89.3017

_symmetry_space_group_name_H-M    "P 1"
_symmetry_int_tables_number       1

loop_
  _symmetry_equiv_pos_as_xyz
  'x, y, z'

loop_
  _atom_site_label
  _atom_site_occupancy
  _atom_site_fract_x
  _atom_site_fract_y
  _atom_site_fract_z
  _atom_site_thermal_displace_type
  _atom_site_B_iso_or_equiv
  _atom_site_type_symbol
  Ir1      1.0000 0.12384  0.00945  0.37803  Biso   1.000  Ir
  Hf1      1.0000 0.14608  0.22944  0.83743  Biso   1.000  Hf
  Hf2      1.0000 0.36026  0.27079  0.33410  Biso   1.000  Hf
  Hf3      1.0000 0.36136  0.47967  0.84327  Biso   1.000  Hf
  Hf4      1.0000 0.63831  0.02178  0.15613  Biso   1.000  Hf
  Hf5      1.0000 0.63908  0.22964  0.65741  Biso   1.000  Hf
  Hf6      1.0000 0.86763  0.26612  0.16457  Biso   1.000  Hf
  Hf7      1.0000 0.86340  0.47605  0.66314  Biso   1.000  Hf
  O1       1.0000 0.04516  0.15136  0.16551  Biso   1.000  O
  O2       1.0000 0.02980  0.08816  0.66366  Biso   1.000  O
  O3       1.0000 0.46644  0.41775  0.16828  Biso   1.000  O
  O4       1.0000 0.46778  0.33449  0.66701  Biso   1.000  O
  O5       1.0000 0.27375  0.11620  0.55496  Biso   1.000  O
  O6       1.0000 0.30261  0.15025  0.03831  Biso   1.000  O
  O7       1.0000 0.22583  0.37336  0.59043  Biso   1.000  O
  O8       1.0000 0.22016  0.38362  0.08961  Biso   1.000  O
  O9       1.0000 0.53696  0.16937  0.32667  Biso   1.000  O
  O10      1.0000 0.53887  0.07956  0.82074  Biso   1.000  O
  O11      1.0000 0.97168  0.40931  0.34573  Biso   1.000  O
  O12      1.0000 0.97063  0.33261  0.84862  Biso   1.000  O
  O13      1.0000 0.77925  0.12188  0.91365  Biso   1.000  O
  O14      1.0000 0.77851  0.12459  0.41136  Biso   1.000  O
  O15      1.0000 0.72708  0.37125  0.91559  Biso   1.000  O
  O16      1.0000 0.72743  0.37441  0.41273  Biso   1.000  O
  Hf8      1.0000 0.13938  0.52303  0.34740  Biso   1.000  Hf
  Hf9      1.0000 0.13648  0.73034  0.84981  Biso   1.000  Hf
  Hf10     1.0000 0.35897  0.77693  0.34133  Biso   1.000  Hf
  Hf11     1.0000 0.36064  0.98410  0.84363  Biso   1.000  Hf
  Hf12     1.0000 0.63860  0.51918  0.15856  Biso   1.000  Hf
  Hf13     1.0000 0.63535  0.72728  0.65602  Biso   1.000  Hf
  Hf14     1.0000 0.85696  0.76783  0.15711  Biso   1.000  Hf
  Hf15     1.0000 0.85497  0.97640  0.66131  Biso   1.000  Hf
  O17      1.0000 0.03090  0.66434  0.16961  Biso   1.000  O
  O18      1.0000 0.03260  0.58496  0.67299  Biso   1.000  O
  O19      1.0000 0.46635  0.91801  0.16591  Biso   1.000  O
  O20      1.0000 0.46237  0.83401  0.66717  Biso   1.000  O
  O21      1.0000 0.27513  0.62635  0.59201  Biso   1.000  O
  O22      1.0000 0.27666  0.63237  0.09237  Biso   1.000  O
  O23      1.0000 0.21499  0.87379  0.59391  Biso   1.000  O
  O24      1.0000 0.21815  0.88957  0.09445  Biso   1.000  O
  O25      1.0000 0.53138  0.66737  0.32895  Biso   1.000  O
  O26      1.0000 0.53325  0.58299  0.83107  Biso   1.000  O
  O27      1.0000 0.95918  0.91315  0.32930  Biso   1.000  O
  O28      1.0000 0.96394  0.83487  0.83494  Biso   1.000  O
  O29      1.0000 0.77555  0.62158  0.91127  Biso   1.000  O
  O30      1.0000 0.77523  0.62380  0.41256  Biso   1.000  O
  O31      1.0000 0.72013  0.87133  0.90958  Biso   1.000  O
  O32      1.0000 0.72094  0.87531  0.41183  Biso   1.000  O
