data_image0
_cell_length_a       5.06062
_cell_length_b       10.2114
_cell_length_c       10.479
_cell_angle_alpha    90.0131
_cell_angle_beta     80.7069
_cell_angle_gamma    89.3645

_symmetry_space_group_name_H-M    "P 1"
_symmetry_int_tables_number       1

loop_
  _symmetry_equiv_pos_as_xyz
  'x, y, z'

loop_
  _atom_site_label
  _atom_site_occupancy
  _atom_site_fract_x
  _atom_site_fract_y
  _atom_site_fract_z
  _atom_site_thermal_displace_type
  _atom_site_B_iso_or_equiv
  _atom_site_type_symbol
  Ir1      1.0000 0.24747  0.00979  0.16737  Biso   1.000  Ir
  Hf1      1.0000 0.27782  0.23106  0.39330  Biso   1.000  Hf
  Hf2      1.0000 0.73050  0.26477  0.10246  Biso   1.000  Hf
  Hf3      1.0000 0.72206  0.47840  0.35288  Biso   1.000  Hf
  O1       1.0000 0.08840  0.15596  0.08064  Biso   1.000  O
  O2       1.0000 0.05248  0.08881  0.32696  Biso   1.000  O
  O3       1.0000 0.93519  0.41403  0.17354  Biso   1.000  O
  O4       1.0000 0.93182  0.33562  0.42410  Biso   1.000  O
  O5       1.0000 0.54230  0.11823  0.23160  Biso   1.000  O
  O6       1.0000 0.55297  0.12201  0.48490  Biso   1.000  O
  O7       1.0000 0.45674  0.38172  0.01097  Biso   1.000  O
  O8       1.0000 0.45499  0.36712  0.25866  Biso   1.000  O
  Hf4      1.0000 0.27483  0.02139  0.64443  Biso   1.000  Hf
  Hf5      1.0000 0.28906  0.22585  0.89625  Biso   1.000  Hf
  Hf6      1.0000 0.72386  0.27238  0.60422  Biso   1.000  Hf
  Hf7      1.0000 0.72887  0.47803  0.85704  Biso   1.000  Hf
  O9       1.0000 0.06896  0.16556  0.57344  Biso   1.000  O
  O10      1.0000 0.07731  0.08361  0.82543  Biso   1.000  O
  O11      1.0000 0.93652  0.41382  0.67603  Biso   1.000  O
  O12      1.0000 0.94955  0.33825  0.92929  Biso   1.000  O
  O13      1.0000 0.55324  0.12789  0.73253  Biso   1.000  O
  O14      1.0000 0.59531  0.13812  0.97129  Biso   1.000  O
  O15      1.0000 0.44553  0.37833  0.50950  Biso   1.000  O
  O16      1.0000 0.45515  0.37125  0.76131  Biso   1.000  O
  Hf8      1.0000 0.27458  0.52099  0.14464  Biso   1.000  Hf
  Hf9      1.0000 0.27163  0.72491  0.39773  Biso   1.000  Hf
  Hf10     1.0000 0.71185  0.77256  0.10149  Biso   1.000  Hf
  Hf11     1.0000 0.70992  0.97652  0.35558  Biso   1.000  Hf
  O17      1.0000 0.06651  0.66853  0.07823  Biso   1.000  O
  O18      1.0000 0.06897  0.58104  0.32840  Biso   1.000  O
  O19      1.0000 0.92035  0.91373  0.17216  Biso   1.000  O
  O20      1.0000 0.92740  0.83335  0.42193  Biso   1.000  O
  O21      1.0000 0.54953  0.62908  0.24029  Biso   1.000  O
  O22      1.0000 0.55262  0.62025  0.49138  Biso   1.000  O
  O23      1.0000 0.43976  0.89350  0.01353  Biso   1.000  O
  O24      1.0000 0.43145  0.86946  0.26055  Biso   1.000  O
  Hf12     1.0000 0.27989  0.52085  0.64831  Biso   1.000  Hf
  Hf13     1.0000 0.27395  0.73281  0.89640  Biso   1.000  Hf
  Hf14     1.0000 0.72043  0.77123  0.60642  Biso   1.000  Hf
  Hf15     1.0000 0.72414  0.98415  0.85407  Biso   1.000  Hf
  O25      1.0000 0.06730  0.66493  0.57827  Biso   1.000  O
  O26      1.0000 0.07056  0.58640  0.82835  Biso   1.000  O
  O27      1.0000 0.93077  0.91653  0.67113  Biso   1.000  O
  O28      1.0000 0.92118  0.83335  0.92220  Biso   1.000  O
  O29      1.0000 0.55342  0.62888  0.74119  Biso   1.000  O
  O30      1.0000 0.55048  0.62532  0.98986  Biso   1.000  O
  O31      1.0000 0.44424  0.87787  0.50923  Biso   1.000  O
  O32      1.0000 0.44815  0.87174  0.76054  Biso   1.000  O
