data_image0
_cell_length_a       10.0697
_cell_length_b       10.3047
_cell_length_c       5.29632
_cell_angle_alpha    90.0156
_cell_angle_beta     91.1233
_cell_angle_gamma    90.15

_symmetry_space_group_name_H-M    "P 1"
_symmetry_int_tables_number       1

loop_
  _symmetry_equiv_pos_as_xyz
  'x, y, z'

loop_
  _atom_site_label
  _atom_site_occupancy
  _atom_site_fract_x
  _atom_site_fract_y
  _atom_site_fract_z
  _atom_site_thermal_displace_type
  _atom_site_B_iso_or_equiv
  _atom_site_type_symbol
  Hf1      1.0000 0.14085  0.02061  0.34983  Biso   1.000  Hf
  Hf2      1.0000 0.14223  0.22710  0.85455  Biso   1.000  Hf
  Hf3      1.0000 0.35005  0.27433  0.37680  Biso   1.000  Hf
  Hf4      1.0000 0.36058  0.48349  0.85482  Biso   1.000  Hf
  Hf5      1.0000 0.64053  0.00594  0.15724  Biso   1.000  Hf
  Hf6      1.0000 0.64892  0.21902  0.61902  Biso   1.000  Hf
  Hf7      1.0000 0.87041  0.27436  0.14416  Biso   1.000  Hf
  Hf8      1.0000 0.86398  0.47931  0.65342  Biso   1.000  Hf
  O1       1.0000 0.03557  0.16228  0.16551  Biso   1.000  O
  O2       1.0000 0.03375  0.08702  0.66481  Biso   1.000  O
  O3       1.0000 0.45479  0.43658  0.19635  Biso   1.000  O
  O4       1.0000 0.47070  0.33627  0.66925  Biso   1.000  O
  O5       1.0000 0.27507  0.12422  0.60519  Biso   1.000  O
  O6       1.0000 0.28125  0.12663  0.10285  Biso   1.000  O
  O7       1.0000 0.22078  0.37528  0.61099  Biso   1.000  O
  O8       1.0000 0.22144  0.37588  0.10607  Biso   1.000  O
  O9       1.0000 0.52126  0.13663  0.37683  Biso   1.000  O
  O10      1.0000 0.53643  0.07235  0.84003  Biso   1.000  O
  O11      1.0000 0.96946  0.41396  0.34013  Biso   1.000  O
  O12      1.0000 0.97452  0.33663  0.83634  Biso   1.000  O
  O13      1.0000 0.77667  0.12614  0.89396  Biso   1.000  O
  O14      1.0000 0.77987  0.12285  0.38558  Biso   1.000  O
  O15      1.0000 0.73656  0.38412  0.89877  Biso   1.000  O
  O16      1.0000 0.72122  0.37190  0.39181  Biso   1.000  O
  Hf9      1.0000 0.14070  0.52215  0.34899  Biso   1.000  Hf
  Hf10     1.0000 0.13926  0.72973  0.84760  Biso   1.000  Hf
  Hf11     1.0000 0.36052  0.77037  0.35268  Biso   1.000  Hf
  Hf12     1.0000 0.36307  0.97607  0.85212  Biso   1.000  Hf
  Hf13     1.0000 0.64123  0.53304  0.15770  Biso   1.000  Hf
  Hf14     1.0000 0.64034  0.72975  0.65957  Biso   1.000  Hf
  Hf15     1.0000 0.86610  0.76996  0.15977  Biso   1.000  Hf
  Hf16     1.0000 0.86622  0.97888  0.65857  Biso   1.000  Hf
  O17      1.0000 0.03424  0.66301  0.16634  Biso   1.000  O
  O18      1.0000 0.03397  0.58736  0.66744  Biso   1.000  O
  O19      1.0000 0.46981  0.90434  0.16433  Biso   1.000  O
  O20      1.0000 0.46810  0.83377  0.66993  Biso   1.000  O
  O21      1.0000 0.27577  0.62559  0.59720  Biso   1.000  O
  O22      1.0000 0.27509  0.62822  0.09361  Biso   1.000  O
  O23      1.0000 0.22481  0.87424  0.59830  Biso   1.000  O
  O24      1.0000 0.22393  0.87704  0.09998  Biso   1.000  O
  O25      1.0000 0.53497  0.66907  0.34125  Biso   1.000  O
  O26      1.0000 0.53326  0.58745  0.83935  Biso   1.000  O
  O27      1.0000 0.97039  0.91391  0.34053  Biso   1.000  O
  O28      1.0000 0.96980  0.83777  0.84200  Biso   1.000  O
  O29      1.0000 0.77910  0.62864  0.90670  Biso   1.000  O
  O30      1.0000 0.77951  0.62571  0.41076  Biso   1.000  O
  O31      1.0000 0.72849  0.87386  0.91333  Biso   1.000  O
  O32      1.0000 0.72929  0.87146  0.41546  Biso   1.000  O
  K1       1.0000 0.56394  0.26603  0.05275  Biso   1.000  K
