data_image0
_cell_length_a       10.1283
_cell_length_b       10.2729
_cell_length_c       10.4769
_cell_angle_alpha    90.0836
_cell_angle_beta     79.7763
_cell_angle_gamma    90.1634

_symmetry_space_group_name_H-M    "P 1"
_symmetry_int_tables_number       1

loop_
  _symmetry_equiv_pos_as_xyz
  'x, y, z'

loop_
  _atom_site_label
  _atom_site_occupancy
  _atom_site_fract_x
  _atom_site_fract_y
  _atom_site_fract_z
  _atom_site_thermal_displace_type
  _atom_site_B_iso_or_equiv
  _atom_site_type_symbol
  Hf1      1.0000 0.13854  0.02304  0.14733  Biso   1.000  Hf
  Hf2      1.0000 0.13816  0.22963  0.39661  Biso   1.000  Hf
  Hf3      1.0000 0.34956  0.27653  0.09204  Biso   1.000  Hf
  Hf4      1.0000 0.35809  0.48001  0.35460  Biso   1.000  Hf
  O1       1.0000 0.03528  0.17077  0.08098  Biso   1.000  O
  O2       1.0000 0.03799  0.08036  0.33086  Biso   1.000  O
  O3       1.0000 0.46330  0.40994  0.17476  Biso   1.000  O
  O4       1.0000 0.46511  0.32534  0.41575  Biso   1.000  O
  O5       1.0000 0.28427  0.13511  0.24112  Biso   1.000  O
  O6       1.0000 0.27750  0.12044  0.49002  Biso   1.000  O
  O7       1.0000 0.21610  0.38348  0.00425  Biso   1.000  O
  O8       1.0000 0.21950  0.37278  0.25709  Biso   1.000  O
  Hf5      1.0000 0.13815  0.02144  0.64618  Biso   1.000  Hf
  Hf6      1.0000 0.13483  0.22831  0.89360  Biso   1.000  Hf
  Hf7      1.0000 0.36100  0.27020  0.60372  Biso   1.000  Hf
  Hf8      1.0000 0.35801  0.48128  0.85073  Biso   1.000  Hf
  O9       1.0000 0.03710  0.17129  0.58196  Biso   1.000  O
  O10      1.0000 0.03351  0.08002  0.83049  Biso   1.000  O
  O11      1.0000 0.46336  0.42009  0.66739  Biso   1.000  O
  O12      1.0000 0.46217  0.33358  0.91778  Biso   1.000  O
  O13      1.0000 0.27596  0.12865  0.74006  Biso   1.000  O
  O14      1.0000 0.27386  0.12242  0.98877  Biso   1.000  O
  O15      1.0000 0.22453  0.37976  0.50810  Biso   1.000  O
  O16      1.0000 0.22176  0.37030  0.75697  Biso   1.000  O
  Hf9      1.0000 0.13653  0.52425  0.14631  Biso   1.000  Hf
  Hf10     1.0000 0.13804  0.72850  0.39755  Biso   1.000  Hf
  Hf11     1.0000 0.36012  0.77211  0.10431  Biso   1.000  Hf
  Hf12     1.0000 0.35918  0.97449  0.35594  Biso   1.000  Hf
  O17      1.0000 0.03413  0.67154  0.08182  Biso   1.000  O
  O18      1.0000 0.03460  0.58167  0.33102  Biso   1.000  O
  O19      1.0000 0.46452  0.91826  0.17205  Biso   1.000  O
  O20      1.0000 0.46481  0.83140  0.42167  Biso   1.000  O
  O21      1.0000 0.27645  0.62903  0.24149  Biso   1.000  O
  O22      1.0000 0.27582  0.62186  0.49145  Biso   1.000  O
  O23      1.0000 0.22247  0.88052  0.01080  Biso   1.000  O
  O24      1.0000 0.22197  0.87171  0.26038  Biso   1.000  O
  Hf13     1.0000 0.13807  0.52210  0.64650  Biso   1.000  Hf
  Hf14     1.0000 0.13712  0.72964  0.89721  Biso   1.000  Hf
  Hf15     1.0000 0.36075  0.77201  0.60537  Biso   1.000  Hf
  Hf16     1.0000 0.35993  0.97802  0.85475  Biso   1.000  Hf
  O25      1.0000 0.03441  0.66931  0.58130  Biso   1.000  O
  O26      1.0000 0.03514  0.58067  0.83166  Biso   1.000  O
  O27      1.0000 0.46408  0.91932  0.67175  Biso   1.000  O
  O28      1.0000 0.46390  0.83139  0.92155  Biso   1.000  O
  O29      1.0000 0.27557  0.62976  0.74076  Biso   1.000  O
  O30      1.0000 0.27541  0.62251  0.99075  Biso   1.000  O
  O31      1.0000 0.22254  0.87823  0.51083  Biso   1.000  O
  O32      1.0000 0.22182  0.87127  0.76033  Biso   1.000  O
  Hf17     1.0000 0.63928  0.02155  0.14738  Biso   1.000  Hf
  Hf18     1.0000 0.64929  0.22791  0.40392  Biso   1.000  Hf
  Hf19     1.0000 0.85984  0.27200  0.10596  Biso   1.000  Hf
  Hf20     1.0000 0.86090  0.47899  0.35525  Biso   1.000  Hf
  O33      1.0000 0.52972  0.17203  0.08658  Biso   1.000  O
  O34      1.0000 0.53545  0.08354  0.33196  Biso   1.000  O
  O35      1.0000 0.96268  0.42079  0.17021  Biso   1.000  O
  O36      1.0000 0.96278  0.33027  0.42087  Biso   1.000  O
  O37      1.0000 0.77834  0.12888  0.24418  Biso   1.000  O
  O38      1.0000 0.78150  0.11884  0.49519  Biso   1.000  O
  O39      1.0000 0.72058  0.37890  0.01239  Biso   1.000  O
  O40      1.0000 0.72250  0.37009  0.26301  Biso   1.000  O
  Hf21     1.0000 0.63923  0.02093  0.64940  Biso   1.000  Hf
  Hf22     1.0000 0.63720  0.22941  0.89941  Biso   1.000  Hf
  Hf23     1.0000 0.86181  0.27190  0.60798  Biso   1.000  Hf
  Hf24     1.0000 0.85925  0.47915  0.85613  Biso   1.000  Hf
  O41      1.0000 0.53731  0.16933  0.58274  Biso   1.000  O
  O42      1.0000 0.53408  0.08151  0.83346  Biso   1.000  O
  O43      1.0000 0.96349  0.42046  0.67130  Biso   1.000  O
  O44      1.0000 0.96042  0.32948  0.91986  Biso   1.000  O
  O45      1.0000 0.77568  0.12988  0.74429  Biso   1.000  O
  O46      1.0000 0.77331  0.12079  0.99351  Biso   1.000  O
  O47      1.0000 0.72389  0.37886  0.51285  Biso   1.000  O
  O48      1.0000 0.72147  0.37133  0.76231  Biso   1.000  O
  Hf25     1.0000 0.63686  0.52049  0.14847  Biso   1.000  Hf
  Hf26     1.0000 0.63867  0.72799  0.39769  Biso   1.000  Hf
  Hf27     1.0000 0.85909  0.77223  0.10532  Biso   1.000  Hf
  Hf28     1.0000 0.86166  0.97715  0.35509  Biso   1.000  Hf
  O49      1.0000 0.53252  0.66554  0.08111  Biso   1.000  O
  O50      1.0000 0.53336  0.58003  0.33212  Biso   1.000  O
  O51      1.0000 0.96417  0.92055  0.16995  Biso   1.000  O
  O52      1.0000 0.96420  0.83065  0.42102  Biso   1.000  O
  O53      1.0000 0.77474  0.62870  0.24189  Biso   1.000  O
  O54      1.0000 0.77596  0.62069  0.49176  Biso   1.000  O
  O55      1.0000 0.72103  0.87868  0.01138  Biso   1.000  O
  O56      1.0000 0.72214  0.87159  0.26093  Biso   1.000  O
  Hf29     1.0000 0.63834  0.52234  0.64772  Biso   1.000  Hf
  Hf30     1.0000 0.63769  0.72766  0.89797  Biso   1.000  Hf
  Hf31     1.0000 0.85993  0.77174  0.60552  Biso   1.000  Hf
  Hf32     1.0000 0.85875  0.97807  0.85570  Biso   1.000  Hf
  O57      1.0000 0.53497  0.66942  0.58132  Biso   1.000  O
  O58      1.0000 0.53339  0.58200  0.82983  Biso   1.000  O
  O59      1.0000 0.96258  0.91986  0.67072  Biso   1.000  O
  O60      1.0000 0.96238  0.83092  0.92087  Biso   1.000  O
  O61      1.0000 0.77597  0.62944  0.74246  Biso   1.000  O
  O62      1.0000 0.77511  0.62094  0.99275  Biso   1.000  O
  O63      1.0000 0.72266  0.87868  0.51110  Biso   1.000  O
  O64      1.0000 0.72148  0.87089  0.76150  Biso   1.000  O
  Li1      1.0000 0.45858  0.22261  0.27194  Biso   1.000  Li
