data_image0
_cell_length_a       5.08596
_cell_length_b       10.2521
_cell_length_c       10.5176
_cell_angle_alpha    90.1368
_cell_angle_beta     79.1075
_cell_angle_gamma    90.3657

_symmetry_space_group_name_H-M    "P 1"
_symmetry_int_tables_number       1

loop_
  _symmetry_equiv_pos_as_xyz
  'x, y, z'

loop_
  _atom_site_label
  _atom_site_occupancy
  _atom_site_fract_x
  _atom_site_fract_y
  _atom_site_fract_z
  _atom_site_thermal_displace_type
  _atom_site_B_iso_or_equiv
  _atom_site_type_symbol
  Hf1      1.0000 0.27807  0.02262  0.14907  Biso   1.000  Hf
  Hf2      1.0000 0.29752  0.22859  0.40487  Biso   1.000  Hf
  Hf3      1.0000 0.69432  0.27606  0.09538  Biso   1.000  Hf
  Hf4      1.0000 0.71497  0.47995  0.35605  Biso   1.000  Hf
  O1       1.0000 0.05552  0.17154  0.08554  Biso   1.000  O
  O2       1.0000 0.07477  0.08452  0.33107  Biso   1.000  O
  O3       1.0000 0.92444  0.40938  0.17709  Biso   1.000  O
  O4       1.0000 0.92967  0.32607  0.41816  Biso   1.000  O
  O5       1.0000 0.57361  0.13424  0.24565  Biso   1.000  O
  O6       1.0000 0.56333  0.11881  0.49559  Biso   1.000  O
  O7       1.0000 0.42557  0.38226  0.00751  Biso   1.000  O
  O8       1.0000 0.43495  0.37306  0.26138  Biso   1.000  O
  Hf5      1.0000 0.27643  0.02058  0.65007  Biso   1.000  Hf
  Hf6      1.0000 0.26486  0.22913  0.89775  Biso   1.000  Hf
  Hf7      1.0000 0.72410  0.27036  0.60750  Biso   1.000  Hf
  Hf8      1.0000 0.71216  0.48134  0.85339  Biso   1.000  Hf
  O9       1.0000 0.07470  0.16910  0.58345  Biso   1.000  O
  O10      1.0000 0.06102  0.08215  0.83246  Biso   1.000  O
  O11      1.0000 0.92726  0.41941  0.67056  Biso   1.000  O
  O12      1.0000 0.91695  0.33338  0.91955  Biso   1.000  O
  O13      1.0000 0.54842  0.12896  0.74419  Biso   1.000  O
  O14      1.0000 0.53985  0.12213  0.99177  Biso   1.000  O
  O15      1.0000 0.45130  0.37917  0.51230  Biso   1.000  O
  O16      1.0000 0.44055  0.37100  0.76011  Biso   1.000  O
  Hf9      1.0000 0.26865  0.52282  0.14931  Biso   1.000  Hf
  Hf10     1.0000 0.27470  0.72811  0.39940  Biso   1.000  Hf
  Hf11     1.0000 0.71660  0.77279  0.10591  Biso   1.000  Hf
  Hf12     1.0000 0.71984  0.97465  0.35659  Biso   1.000  Hf
  O17      1.0000 0.05893  0.66558  0.08148  Biso   1.000  O
  O18      1.0000 0.06140  0.58302  0.33179  Biso   1.000  O
  O19      1.0000 0.93021  0.91803  0.17318  Biso   1.000  O
  O20      1.0000 0.93105  0.83334  0.42414  Biso   1.000  O
  O21      1.0000 0.54777  0.62825  0.24294  Biso   1.000  O
  O22      1.0000 0.54934  0.62213  0.49294  Biso   1.000  O
  O23      1.0000 0.44087  0.87883  0.01263  Biso   1.000  O
  O24      1.0000 0.44201  0.87277  0.26180  Biso   1.000  O
  Hf13     1.0000 0.27466  0.52304  0.64853  Biso   1.000  Hf
  Hf14     1.0000 0.27097  0.72847  0.89940  Biso   1.000  Hf
  Hf15     1.0000 0.71911  0.77218  0.60634  Biso   1.000  Hf
  Hf16     1.0000 0.71488  0.97736  0.85653  Biso   1.000  Hf
  O25      1.0000 0.06474  0.66778  0.58136  Biso   1.000  O
  O26      1.0000 0.06358  0.58305  0.83045  Biso   1.000  O
  O27      1.0000 0.92610  0.91807  0.67408  Biso   1.000  O
  O28      1.0000 0.92616  0.83308  0.92401  Biso   1.000  O
  O29      1.0000 0.54931  0.62943  0.74302  Biso   1.000  O
  O30      1.0000 0.54584  0.62267  0.99300  Biso   1.000  O
  O31      1.0000 0.44417  0.87773  0.51248  Biso   1.000  O
  O32      1.0000 0.44027  0.87142  0.76232  Biso   1.000  O
  Li1      1.0000 0.93646  0.22855  0.26711  Biso   1.000  Li
