data_image0
_cell_length_a       5.06835
_cell_length_b       10.5395
_cell_length_c       10.0655
_cell_angle_alpha    84.6211
_cell_angle_beta     90.4662
_cell_angle_gamma    89.7842

_symmetry_space_group_name_H-M    "P 1"
_symmetry_int_tables_number       1

loop_
  _symmetry_equiv_pos_as_xyz
  'x, y, z'

loop_
  _atom_site_label
  _atom_site_occupancy
  _atom_site_fract_x
  _atom_site_fract_y
  _atom_site_fract_z
  _atom_site_thermal_displace_type
  _atom_site_B_iso_or_equiv
  _atom_site_type_symbol
  Hf1      1.0000 0.22428  0.03278  0.14022  Biso   1.000  Hf
  Hf2      1.0000 0.22970  0.22874  0.40718  Biso   1.000  Hf
  Hf3      1.0000 0.78200  0.27443  0.14774  Biso   1.000  Hf
  Hf4      1.0000 0.75626  0.97924  0.39000  Biso   1.000  Hf
  O1       1.0000 0.06058  0.20393  0.02571  Biso   1.000  O
  O2       1.0000 0.95923  0.12167  0.26680  Biso   1.000  O
  O3       1.0000 0.04206  0.36942  0.26385  Biso   1.000  O
  O4       1.0000 0.97781  0.44672  0.02916  Biso   1.000  O
  O5       1.0000 0.44070  0.19139  0.22116  Biso   1.000  O
  O6       1.0000 0.44527  0.06707  0.97054  Biso   1.000  O
  O7       1.0000 0.55499  0.31438  0.97159  Biso   1.000  O
  O8       1.0000 0.53847  0.43619  0.20940  Biso   1.000  O
  Hf5      1.0000 0.21985  0.01039  0.63580  Biso   1.000  Hf
  Hf6      1.0000 0.29346  0.22082  0.84150  Biso   1.000  Hf
  Hf7      1.0000 0.80883  0.24653  0.63639  Biso   1.000  Hf
  Hf8      1.0000 0.71306  0.97357  0.86727  Biso   1.000  Hf
  O9       1.0000 0.91945  0.11180  0.51206  Biso   1.000  O
  O10      1.0000 0.00398  0.09897  0.78141  Biso   1.000  O
  O11      1.0000 0.00694  0.35952  0.77377  Biso   1.000  O
  O12      1.0000 0.02144  0.38237  0.50754  Biso   1.000  O
  O13      1.0000 0.53190  0.11208  0.72718  Biso   1.000  O
  O14      1.0000 0.41659  0.05642  0.46243  Biso   1.000  O
  O15      1.0000 0.56776  0.31126  0.46437  Biso   1.000  O
  O16      1.0000 0.51782  0.37215  0.72544  Biso   1.000  O
  Hf9      1.0000 0.21759  0.56647  0.14432  Biso   1.000  Hf
  Hf10     1.0000 0.23253  0.73624  0.39824  Biso   1.000  Hf
  Hf11     1.0000 0.77081  0.79248  0.14431  Biso   1.000  Hf
  Hf12     1.0000 0.73611  0.48118  0.38123  Biso   1.000  Hf
  O17      1.0000 0.04219  0.70664  0.02397  Biso   1.000  O
  O18      1.0000 0.94600  0.63050  0.27123  Biso   1.000  O
  O19      1.0000 0.03956  0.87492  0.27140  Biso   1.000  O
  O20      1.0000 0.94758  0.95113  0.03054  Biso   1.000  O
  O21      1.0000 0.44577  0.69303  0.23130  Biso   1.000  O
  O22      1.0000 0.44959  0.56897  0.97377  Biso   1.000  O
  O23      1.0000 0.54468  0.81617  0.97529  Biso   1.000  O
  O24      1.0000 0.55127  0.93910  0.22254  Biso   1.000  O
  Hf13     1.0000 0.22067  0.49440  0.63988  Biso   1.000  Hf
  Hf14     1.0000 0.28626  0.72915  0.86177  Biso   1.000  Hf
  Hf15     1.0000 0.78133  0.74911  0.64209  Biso   1.000  Hf
  Hf16     1.0000 0.72374  0.47737  0.87038  Biso   1.000  Hf
  O25      1.0000 0.96782  0.62525  0.52176  Biso   1.000  O
  O26      1.0000 0.00423  0.60410  0.77165  Biso   1.000  O
  O27      1.0000 0.99393  0.85387  0.77119  Biso   1.000  O
  O28      1.0000 0.03569  0.87098  0.52043  Biso   1.000  O
  O29      1.0000 0.50113  0.62043  0.72570  Biso   1.000  O
  O30      1.0000 0.43103  0.55943  0.46988  Biso   1.000  O
  O31      1.0000 0.56354  0.80935  0.47332  Biso   1.000  O
  O32      1.0000 0.49194  0.86943  0.72592  Biso   1.000  O
  Mg1      1.0000 0.28059  0.32948  0.10018  Biso   1.000  Mg
