data_image0
_cell_length_a       10.1632
_cell_length_b       10.235
_cell_length_c       5.28799
_cell_angle_alpha    89.8626
_cell_angle_beta     79.6634
_cell_angle_gamma    90.6147

_symmetry_space_group_name_H-M    "P 1"
_symmetry_int_tables_number       1

loop_
  _symmetry_equiv_pos_as_xyz
  'x, y, z'

loop_
  _atom_site_label
  _atom_site_occupancy
  _atom_site_fract_x
  _atom_site_fract_y
  _atom_site_fract_z
  _atom_site_thermal_displace_type
  _atom_site_B_iso_or_equiv
  _atom_site_type_symbol
  Hf1      1.0000 0.13566  0.02249  0.29677  Biso   1.000  Hf
  Hf2      1.0000 0.14184  0.23496  0.78373  Biso   1.000  Hf
  Hf3      1.0000 0.35558  0.27501  0.19497  Biso   1.000  Hf
  Hf4      1.0000 0.35020  0.48007  0.71037  Biso   1.000  Hf
  O1       1.0000 0.04053  0.16721  0.14921  Biso   1.000  O
  O2       1.0000 0.03523  0.08627  0.65032  Biso   1.000  O
  O3       1.0000 0.47256  0.38271  0.39971  Biso   1.000  O
  O4       1.0000 0.47901  0.35462  0.87417  Biso   1.000  O
  O5       1.0000 0.28315  0.12873  0.47105  Biso   1.000  O
  O6       1.0000 0.29028  0.12990  0.94588  Biso   1.000  O
  O7       1.0000 0.21592  0.38576  0.01957  Biso   1.000  O
  O8       1.0000 0.21251  0.37954  0.50063  Biso   1.000  O
  Hf5      1.0000 0.13475  0.52684  0.29147  Biso   1.000  Hf
  Hf6      1.0000 0.13357  0.73099  0.79599  Biso   1.000  Hf
  Hf7      1.0000 0.35987  0.77001  0.20934  Biso   1.000  Hf
  Hf8      1.0000 0.36178  0.97029  0.70610  Biso   1.000  Hf
  O9       1.0000 0.02684  0.66852  0.15369  Biso   1.000  O
  O10      1.0000 0.02921  0.59110  0.65271  Biso   1.000  O
  O11      1.0000 0.46851  0.90896  0.35234  Biso   1.000  O
  O12      1.0000 0.46635  0.83259  0.85490  Biso   1.000  O
  O13      1.0000 0.27405  0.62912  0.48412  Biso   1.000  O
  O14      1.0000 0.26937  0.62665  0.98408  Biso   1.000  O
  O15      1.0000 0.22383  0.88294  0.02276  Biso   1.000  O
  O16      1.0000 0.22104  0.87026  0.51884  Biso   1.000  O
  Hf9      1.0000 0.63968  0.02206  0.29017  Biso   1.000  Hf
  Hf10     1.0000 0.64284  0.23062  0.80353  Biso   1.000  Hf
  Hf11     1.0000 0.86501  0.27233  0.21271  Biso   1.000  Hf
  Hf12     1.0000 0.86053  0.47885  0.71516  Biso   1.000  Hf
  O17      1.0000 0.53051  0.15947  0.14971  Biso   1.000  O
  O18      1.0000 0.53698  0.07907  0.66247  Biso   1.000  O
  O19      1.0000 0.96359  0.41850  0.35030  Biso   1.000  O
  O20      1.0000 0.96671  0.33846  0.84961  Biso   1.000  O
  O21      1.0000 0.77761  0.12891  0.48033  Biso   1.000  O
  O22      1.0000 0.77970  0.12018  0.98467  Biso   1.000  O
  O23      1.0000 0.72641  0.37675  0.03378  Biso   1.000  O
  O24      1.0000 0.72626  0.37244  0.52963  Biso   1.000  O
  Hf13     1.0000 0.63635  0.51790  0.30322  Biso   1.000  Hf
  Hf14     1.0000 0.63523  0.72406  0.79432  Biso   1.000  Hf
  Hf15     1.0000 0.85660  0.77299  0.21035  Biso   1.000  Hf
  Hf16     1.0000 0.85912  0.97973  0.70984  Biso   1.000  Hf
  O25      1.0000 0.52510  0.65060  0.14824  Biso   1.000  O
  O26      1.0000 0.52614  0.58901  0.64306  Biso   1.000  O
  O27      1.0000 0.96543  0.91640  0.34824  Biso   1.000  O
  O28      1.0000 0.96353  0.83892  0.85094  Biso   1.000  O
  O29      1.0000 0.77134  0.62739  0.48143  Biso   1.000  O
  O30      1.0000 0.77161  0.62125  0.98416  Biso   1.000  O
  O31      1.0000 0.72008  0.87764  0.02312  Biso   1.000  O
  O32      1.0000 0.72276  0.87069  0.52359  Biso   1.000  O
  Mn1      1.0000 0.41132  0.23058  0.64639  Biso   1.000  Mn
