data_image0
_cell_length_a       10.0578
_cell_length_b       10.6123
_cell_length_c       5.04832
_cell_angle_alpha    89.8649
_cell_angle_beta     89.6103
_cell_angle_gamma    89.9302

_symmetry_space_group_name_H-M    "P 1"
_symmetry_int_tables_number       1

loop_
  _symmetry_equiv_pos_as_xyz
  'x, y, z'

loop_
  _atom_site_label
  _atom_site_occupancy
  _atom_site_fract_x
  _atom_site_fract_y
  _atom_site_fract_z
  _atom_site_thermal_displace_type
  _atom_site_B_iso_or_equiv
  _atom_site_type_symbol
  Hf1      1.0000 0.13239  0.00735  0.24702  Biso   1.000  Hf
  Hf2      1.0000 0.12633  0.21052  0.73357  Biso   1.000  Hf
  Hf3      1.0000 0.38503  0.27473  0.24682  Biso   1.000  Hf
  Hf4      1.0000 0.36895  0.48936  0.74140  Biso   1.000  Hf
  O1       1.0000 0.00582  0.16140  0.41488  Biso   1.000  O
  O2       1.0000 0.02476  0.05790  0.91101  Biso   1.000  O
  O3       1.0000 0.48048  0.43183  0.40936  Biso   1.000  O
  O4       1.0000 0.47805  0.32408  0.90119  Biso   1.000  O
  O5       1.0000 0.25347  0.08771  0.52824  Biso   1.000  O
  O6       1.0000 0.25076  0.15931  0.04730  Biso   1.000  O
  O7       1.0000 0.26044  0.41790  0.04381  Biso   1.000  O
  O8       1.0000 0.25517  0.34161  0.54870  Biso   1.000  O
  Hf5      1.0000 0.12709  0.54282  0.21759  Biso   1.000  Hf
  Hf6      1.0000 0.12930  0.74248  0.73132  Biso   1.000  Hf
  Hf7      1.0000 0.37157  0.76049  0.23596  Biso   1.000  Hf
  Hf8      1.0000 0.37757  0.97539  0.73214  Biso   1.000  Hf
  O9       1.0000 0.02445  0.68905  0.39793  Biso   1.000  O
  O10      1.0000 0.03200  0.57348  0.86820  Biso   1.000  O
  O11      1.0000 0.46978  0.92444  0.38686  Biso   1.000  O
  O12      1.0000 0.47328  0.81597  0.88819  Biso   1.000  O
  O13      1.0000 0.27060  0.61154  0.47981  Biso   1.000  O
  O14      1.0000 0.26613  0.65364  0.97040  Biso   1.000  O
  O15      1.0000 0.23695  0.89541  0.98088  Biso   1.000  O
  O16      1.0000 0.23515  0.85364  0.47433  Biso   1.000  O
  Hf9      1.0000 0.63280  0.01246  0.24501  Biso   1.000  Hf
  Hf10     1.0000 0.63214  0.23179  0.74551  Biso   1.000  Hf
  Hf11     1.0000 0.85534  0.26126  0.24026  Biso   1.000  Hf
  Hf12     1.0000 0.86920  0.47995  0.74119  Biso   1.000  Hf
  O17      1.0000 0.52841  0.17143  0.41448  Biso   1.000  O
  O18      1.0000 0.52382  0.07170  0.91030  Biso   1.000  O
  O19      1.0000 0.97318  0.42897  0.39305  Biso   1.000  O
  O20      1.0000 0.97257  0.31971  0.90515  Biso   1.000  O
  O21      1.0000 0.75990  0.10775  0.49521  Biso   1.000  O
  O22      1.0000 0.76274  0.13329  0.99148  Biso   1.000  O
  O23      1.0000 0.73389  0.38578  0.99493  Biso   1.000  O
  O24      1.0000 0.73405  0.36117  0.50026  Biso   1.000  O
  Hf13     1.0000 0.63734  0.51630  0.24345  Biso   1.000  Hf
  Hf14     1.0000 0.63636  0.72920  0.74437  Biso   1.000  Hf
  Hf15     1.0000 0.86225  0.76687  0.24369  Biso   1.000  Hf
  Hf16     1.0000 0.86522  0.98177  0.74210  Biso   1.000  Hf
  O25      1.0000 0.53553  0.67939  0.39601  Biso   1.000  O
  O26      1.0000 0.53224  0.57136  0.90455  Biso   1.000  O
  O27      1.0000 0.96769  0.92435  0.40538  Biso   1.000  O
  O28      1.0000 0.96648  0.81866  0.90168  Biso   1.000  O
  O29      1.0000 0.76965  0.61021  0.49376  Biso   1.000  O
  O30      1.0000 0.77074  0.63429  0.99226  Biso   1.000  O
  O31      1.0000 0.73075  0.88519  0.99257  Biso   1.000  O
  O32      1.0000 0.72972  0.86141  0.49372  Biso   1.000  O
  Mo1      1.0000 0.11774  0.30484  0.22617  Biso   1.000  Mo
