data_image0
_cell_length_a       10.2201
_cell_length_b       5.12996
_cell_length_c       10.4506
_cell_angle_alpha    89.9727
_cell_angle_beta     79.9297
_cell_angle_gamma    90.185

_symmetry_space_group_name_H-M    "P 1"
_symmetry_int_tables_number       1

loop_
  _symmetry_equiv_pos_as_xyz
  'x, y, z'

loop_
  _atom_site_label
  _atom_site_occupancy
  _atom_site_fract_x
  _atom_site_fract_y
  _atom_site_fract_z
  _atom_site_thermal_displace_type
  _atom_site_B_iso_or_equiv
  _atom_site_type_symbol
  Na1      1.0000 0.13845  0.02833  0.14641  Biso   1.000  Na
  Hf1      1.0000 0.14028  0.04122  0.64645  Biso   1.000  Hf
  Hf2      1.0000 0.63930  0.03874  0.14591  Biso   1.000  Hf
  Hf3      1.0000 0.63909  0.04132  0.64598  Biso   1.000  Hf
  Hf4      1.0000 0.14287  0.45291  0.39296  Biso   1.000  Hf
  Hf5      1.0000 0.14112  0.45979  0.90006  Biso   1.000  Hf
  Hf6      1.0000 0.63654  0.45734  0.39678  Biso   1.000  Hf
  Hf7      1.0000 0.63993  0.45748  0.89604  Biso   1.000  Hf
  Hf8      1.0000 0.35626  0.53447  0.10424  Biso   1.000  Hf
  Hf9      1.0000 0.35876  0.54296  0.60421  Biso   1.000  Hf
  Hf10     1.0000 0.85992  0.53884  0.10214  Biso   1.000  Hf
  Hf11     1.0000 0.86089  0.54169  0.60242  Biso   1.000  Hf
  Hf12     1.0000 0.35660  0.95699  0.35024  Biso   1.000  Hf
  Hf13     1.0000 0.35915  0.95759  0.85623  Biso   1.000  Hf
  Hf14     1.0000 0.86177  0.96138  0.35340  Biso   1.000  Hf
  Hf15     1.0000 0.86048  0.95819  0.85336  Biso   1.000  Hf
  O1       1.0000 0.03579  0.37027  0.08195  Biso   1.000  O
  O2       1.0000 0.03526  0.34108  0.58403  Biso   1.000  O
  O3       1.0000 0.53561  0.33213  0.07885  Biso   1.000  O
  O4       1.0000 0.53170  0.33147  0.58050  Biso   1.000  O
  O5       1.0000 0.02735  0.16734  0.34846  Biso   1.000  O
  O6       1.0000 0.03422  0.16293  0.83104  Biso   1.000  O
  O7       1.0000 0.53423  0.16310  0.32961  Biso   1.000  O
  O8       1.0000 0.53646  0.16545  0.82835  Biso   1.000  O
  O9       1.0000 0.46871  0.82831  0.16964  Biso   1.000  O
  O10      1.0000 0.46654  0.83049  0.67153  Biso   1.000  O
  O11      1.0000 0.94236  0.85017  0.16848  Biso   1.000  O
  O12      1.0000 0.96490  0.83913  0.66759  Biso   1.000  O
  O13      1.0000 0.46539  0.66713  0.42257  Biso   1.000  O
  O14      1.0000 0.47390  0.67544  0.92059  Biso   1.000  O
  O15      1.0000 0.96658  0.66385  0.41771  Biso   1.000  O
  O16      1.0000 0.96370  0.66192  0.91445  Biso   1.000  O
  O17      1.0000 0.28612  0.25934  0.24720  Biso   1.000  O
  O18      1.0000 0.27531  0.25684  0.74009  Biso   1.000  O
  O19      1.0000 0.77412  0.26004  0.24192  Biso   1.000  O
  O20      1.0000 0.77689  0.25704  0.73940  Biso   1.000  O
  O21      1.0000 0.27521  0.24075  0.49308  Biso   1.000  O
  O22      1.0000 0.28744  0.25292  0.98154  Biso   1.000  O
  O23      1.0000 0.77224  0.24578  0.49204  Biso   1.000  O
  O24      1.0000 0.77530  0.23988  0.98959  Biso   1.000  O
  O25      1.0000 0.23501  0.74307  0.99928  Biso   1.000  O
  O26      1.0000 0.22338  0.75684  0.50968  Biso   1.000  O
  O27      1.0000 0.72380  0.75722  0.00729  Biso   1.000  O
  O28      1.0000 0.72494  0.75805  0.50910  Biso   1.000  O
  O29      1.0000 0.23236  0.72471  0.26149  Biso   1.000  O
  O30      1.0000 0.22338  0.74418  0.75688  Biso   1.000  O
  O31      1.0000 0.71481  0.74230  0.26196  Biso   1.000  O
  O32      1.0000 0.72558  0.74160  0.75729  Biso   1.000  O
