data_image0
_cell_length_a       5.04464
_cell_length_b       10.2591
_cell_length_c       10.4493
_cell_angle_alpha    90.0089
_cell_angle_beta     80.1132
_cell_angle_gamma    89.8789

_symmetry_space_group_name_H-M    "P 1"
_symmetry_int_tables_number       1

loop_
  _symmetry_equiv_pos_as_xyz
  'x, y, z'

loop_
  _atom_site_label
  _atom_site_occupancy
  _atom_site_fract_x
  _atom_site_fract_y
  _atom_site_fract_z
  _atom_site_thermal_displace_type
  _atom_site_B_iso_or_equiv
  _atom_site_type_symbol
  Nb1      1.0000 0.28140  0.02284  0.14748  Biso   1.000  Nb
  Hf1      1.0000 0.28109  0.22914  0.39534  Biso   1.000  Hf
  Hf2      1.0000 0.72184  0.27118  0.10453  Biso   1.000  Hf
  Hf3      1.0000 0.72294  0.47879  0.35357  Biso   1.000  Hf
  O1       1.0000 0.07309  0.16597  0.08048  Biso   1.000  O
  O2       1.0000 0.08280  0.07803  0.32649  Biso   1.000  O
  O3       1.0000 0.92919  0.41883  0.16931  Biso   1.000  O
  O4       1.0000 0.92786  0.32903  0.41827  Biso   1.000  O
  O5       1.0000 0.55913  0.12883  0.24174  Biso   1.000  O
  O6       1.0000 0.55697  0.12039  0.49037  Biso   1.000  O
  O7       1.0000 0.44534  0.37882  0.00975  Biso   1.000  O
  O8       1.0000 0.44730  0.37118  0.25919  Biso   1.000  O
  Hf4      1.0000 0.27740  0.02100  0.64571  Biso   1.000  Hf
  Hf5      1.0000 0.27680  0.22803  0.89550  Biso   1.000  Hf
  Hf6      1.0000 0.72248  0.27118  0.60382  Biso   1.000  Hf
  Hf7      1.0000 0.72054  0.47853  0.85460  Biso   1.000  Hf
  O9       1.0000 0.07214  0.16834  0.57841  Biso   1.000  O
  O10      1.0000 0.06879  0.08116  0.82956  Biso   1.000  O
  O11      1.0000 0.92860  0.41869  0.66979  Biso   1.000  O
  O12      1.0000 0.92696  0.32968  0.92044  Biso   1.000  O
  O13      1.0000 0.55261  0.12902  0.74063  Biso   1.000  O
  O14      1.0000 0.54887  0.12054  0.99196  Biso   1.000  O
  O15      1.0000 0.44659  0.37881  0.50922  Biso   1.000  O
  O16      1.0000 0.44585  0.37076  0.75955  Biso   1.000  O
  Hf8      1.0000 0.27742  0.52263  0.14553  Biso   1.000  Hf
  Hf9      1.0000 0.27945  0.72841  0.39590  Biso   1.000  Hf
  Hf10     1.0000 0.71965  0.77549  0.10428  Biso   1.000  Hf
  Hf11     1.0000 0.72369  0.97824  0.35313  Biso   1.000  Hf
  O17      1.0000 0.06805  0.66955  0.08074  Biso   1.000  O
  O18      1.0000 0.07215  0.58033  0.33069  Biso   1.000  O
  O19      1.0000 0.93996  0.92013  0.16866  Biso   1.000  O
  O20      1.0000 0.93101  0.83149  0.42015  Biso   1.000  O
  O21      1.0000 0.55329  0.63036  0.24032  Biso   1.000  O
  O22      1.0000 0.55517  0.62069  0.49080  Biso   1.000  O
  O23      1.0000 0.43253  0.88064  0.01016  Biso   1.000  O
  O24      1.0000 0.44647  0.87267  0.25990  Biso   1.000  O
  Hf12     1.0000 0.27793  0.52143  0.64621  Biso   1.000  Hf
  Hf13     1.0000 0.27517  0.72866  0.89670  Biso   1.000  Hf
  Hf14     1.0000 0.72209  0.77140  0.60439  Biso   1.000  Hf
  Hf15     1.0000 0.71908  0.97874  0.85469  Biso   1.000  Hf
  O25      1.0000 0.07232  0.66921  0.58033  Biso   1.000  O
  O26      1.0000 0.07004  0.58043  0.83057  Biso   1.000  O
  O27      1.0000 0.92741  0.91922  0.67019  Biso   1.000  O
  O28      1.0000 0.92299  0.83101  0.92018  Biso   1.000  O
  O29      1.0000 0.55294  0.62896  0.74095  Biso   1.000  O
  O30      1.0000 0.55227  0.62182  0.99087  Biso   1.000  O
  O31      1.0000 0.44768  0.87883  0.50924  Biso   1.000  O
  O32      1.0000 0.44466  0.87087  0.75969  Biso   1.000  O
