data_image0
_cell_length_a       5.10677
_cell_length_b       10.2677
_cell_length_c       10.5944
_cell_angle_alpha    89.8347
_cell_angle_beta     79.6073
_cell_angle_gamma    90.9138

_symmetry_space_group_name_H-M    "P 1"
_symmetry_int_tables_number       1

loop_
  _symmetry_equiv_pos_as_xyz
  'x, y, z'

loop_
  _atom_site_label
  _atom_site_occupancy
  _atom_site_fract_x
  _atom_site_fract_y
  _atom_site_fract_z
  _atom_site_thermal_displace_type
  _atom_site_B_iso_or_equiv
  _atom_site_type_symbol
  Hf1      1.0000 0.27543  0.02072  0.14603  Biso   1.000  Hf
  Hf2      1.0000 0.29280  0.23927  0.40103  Biso   1.000  Hf
  Hf3      1.0000 0.71327  0.27069  0.09701  Biso   1.000  Hf
  Hf4      1.0000 0.69922  0.48336  0.35479  Biso   1.000  Hf
  O1       1.0000 0.05920  0.15520  0.06755  Biso   1.000  O
  O2       1.0000 0.10542  0.06460  0.33250  Biso   1.000  O
  O3       1.0000 0.94308  0.38818  0.19439  Biso   1.000  O
  O4       1.0000 0.97101  0.36686  0.44272  Biso   1.000  O
  O5       1.0000 0.57501  0.12480  0.23509  Biso   1.000  O
  O6       1.0000 0.59152  0.12241  0.48026  Biso   1.000  O
  O7       1.0000 0.44360  0.37915  0.00771  Biso   1.000  O
  O8       1.0000 0.41829  0.38214  0.25277  Biso   1.000  O
  Hf5      1.0000 0.27268  0.02238  0.64501  Biso   1.000  Hf
  Hf6      1.0000 0.27099  0.22788  0.89456  Biso   1.000  Hf
  Hf7      1.0000 0.72835  0.27745  0.60718  Biso   1.000  Hf
  Hf8      1.0000 0.71480  0.48006  0.85703  Biso   1.000  Hf
  O9       1.0000 0.07941  0.16788  0.57647  Biso   1.000  O
  O10      1.0000 0.05883  0.08897  0.82086  Biso   1.000  O
  O11      1.0000 0.93633  0.41065  0.68618  Biso   1.000  O
  O12      1.0000 0.93995  0.34499  0.92991  Biso   1.000  O
  O13      1.0000 0.54879  0.12884  0.73729  Biso   1.000  O
  O14      1.0000 0.54664  0.12291  0.98555  Biso   1.000  O
  O15      1.0000 0.44815  0.38351  0.52145  Biso   1.000  O
  O16      1.0000 0.44880  0.37304  0.76199  Biso   1.000  O
  Hf9      1.0000 0.26926  0.52133  0.14669  Biso   1.000  Hf
  Hf10     1.0000 0.26531  0.72568  0.39621  Biso   1.000  Hf
  Hf11     1.0000 0.71644  0.77079  0.10286  Biso   1.000  Hf
  Hf12     1.0000 0.72812  0.96698  0.35374  Biso   1.000  Hf
  O17      1.0000 0.04309  0.65533  0.07106  Biso   1.000  O
  O18      1.0000 0.04803  0.59471  0.31741  Biso   1.000  O
  O19      1.0000 0.93944  0.90833  0.17507  Biso   1.000  O
  O20      1.0000 0.92780  0.83081  0.42804  Biso   1.000  O
  O21      1.0000 0.54131  0.62675  0.23929  Biso   1.000  O
  O22      1.0000 0.53413  0.62548  0.49260  Biso   1.000  O
  O23      1.0000 0.44494  0.87872  0.01169  Biso   1.000  O
  O24      1.0000 0.45185  0.86612  0.25940  Biso   1.000  O
  Hf13     1.0000 0.27020  0.52503  0.64962  Biso   1.000  Hf
  Hf14     1.0000 0.26697  0.72907  0.89801  Biso   1.000  Hf
  Hf15     1.0000 0.71549  0.77112  0.60621  Biso   1.000  Hf
  Hf16     1.0000 0.71764  0.97866  0.85348  Biso   1.000  Hf
  O25      1.0000 0.05057  0.65974  0.57541  Biso   1.000  O
  O26      1.0000 0.05449  0.59294  0.82433  Biso   1.000  O
  O27      1.0000 0.93215  0.91291  0.67536  Biso   1.000  O
  O28      1.0000 0.93074  0.84033  0.92595  Biso   1.000  O
  O29      1.0000 0.54507  0.62913  0.74272  Biso   1.000  O
  O30      1.0000 0.53801  0.62371  0.99105  Biso   1.000  O
  O31      1.0000 0.44529  0.88006  0.51126  Biso   1.000  O
  O32      1.0000 0.44302  0.87256  0.76111  Biso   1.000  O
  Os1      1.0000 0.82168  0.23774  0.33106  Biso   1.000  Os
