data_image0
_cell_length_a       10.0748
_cell_length_b       10.076
_cell_length_c       5.00165
_cell_angle_alpha    89.9975
_cell_angle_beta     90
_cell_angle_gamma    90.0006

_symmetry_space_group_name_H-M    "P 1"
_symmetry_int_tables_number       1

loop_
  _symmetry_equiv_pos_as_xyz
  'x, y, z'

loop_
  _atom_site_label
  _atom_site_occupancy
  _atom_site_fract_x
  _atom_site_fract_y
  _atom_site_fract_z
  _atom_site_thermal_displace_type
  _atom_site_B_iso_or_equiv
  _atom_site_type_symbol
  P1       1.0000 0.12528  0.00006  0.25024  Biso   1.000  P
  Hf1      1.0000 0.12527  0.25695  0.75019  Biso   1.000  Hf
  Hf2      1.0000 0.37248  0.24716  0.27349  Biso   1.000  Hf
  Hf3      1.0000 0.38204  0.00006  0.75025  Biso   1.000  Hf
  O1       1.0000 0.97197  0.15345  0.91759  Biso   1.000  O
  O2       1.0000 0.03505  0.09024  0.42768  Biso   1.000  O
  O3       1.0000 0.98934  0.35032  0.49950  Biso   1.000  O
  O4       1.0000 0.01141  0.39721  0.99182  Biso   1.000  O
  O5       1.0000 0.27857  0.15346  0.58282  Biso   1.000  O
  O6       1.0000 0.21550  0.09023  0.07276  Biso   1.000  O
  O7       1.0000 0.26120  0.35031  0.00087  Biso   1.000  O
  O8       1.0000 0.23912  0.39722  0.50855  Biso   1.000  O
  Hf4      1.0000 0.12523  0.50005  0.25023  Biso   1.000  Hf
  Hf5      1.0000 0.12527  0.74316  0.75028  Biso   1.000  Hf
  Hf6      1.0000 0.37248  0.75296  0.22699  Biso   1.000  Hf
  Hf7      1.0000 0.37872  0.50006  0.75024  Biso   1.000  Hf
  O9       1.0000 0.98934  0.64978  0.00098  Biso   1.000  O
  O10      1.0000 0.01141  0.60290  0.50865  Biso   1.000  O
  O11      1.0000 0.97197  0.84666  0.58290  Biso   1.000  O
  O12      1.0000 0.03505  0.90986  0.07281  Biso   1.000  O
  O13      1.0000 0.26120  0.64980  0.49961  Biso   1.000  O
  O14      1.0000 0.23912  0.60290  0.99192  Biso   1.000  O
  O15      1.0000 0.27857  0.84665  0.91766  Biso   1.000  O
  O16      1.0000 0.21550  0.90988  0.42773  Biso   1.000  O
  Hf8      1.0000 0.62526  0.00005  0.25026  Biso   1.000  Hf
  Hf9      1.0000 0.62526  0.25346  0.75025  Biso   1.000  Hf
  Hf10     1.0000 0.87807  0.24712  0.22693  Biso   1.000  Hf
  Hf11     1.0000 0.86848  0.00005  0.75025  Biso   1.000  Hf
  O17      1.0000 0.47566  0.13618  0.00044  Biso   1.000  O
  O18      1.0000 0.52230  0.11380  0.50846  Biso   1.000  O
  O19      1.0000 0.48838  0.36307  0.50342  Biso   1.000  O
  O20      1.0000 0.51304  0.38797  0.99305  Biso   1.000  O
  O21      1.0000 0.77486  0.13620  0.50006  Biso   1.000  O
  O22      1.0000 0.72823  0.11379  0.99204  Biso   1.000  O
  O23      1.0000 0.76214  0.36305  0.99710  Biso   1.000  O
  O24      1.0000 0.73748  0.38799  0.50749  Biso   1.000  O
  Hf12     1.0000 0.62526  0.50005  0.25026  Biso   1.000  Hf
  Hf13     1.0000 0.62527  0.74664  0.75027  Biso   1.000  Hf
  Hf14     1.0000 0.87807  0.75298  0.27355  Biso   1.000  Hf
  Hf15     1.0000 0.87178  0.50005  0.75024  Biso   1.000  Hf
  O25      1.0000 0.48838  0.63704  0.99709  Biso   1.000  O
  O26      1.0000 0.51304  0.61214  0.50746  Biso   1.000  O
  O27      1.0000 0.47566  0.86393  0.50004  Biso   1.000  O
  O28      1.0000 0.52231  0.88631  0.99203  Biso   1.000  O
  O29      1.0000 0.76215  0.63706  0.50340  Biso   1.000  O
  O30      1.0000 0.73748  0.61211  0.99301  Biso   1.000  O
  O31      1.0000 0.77486  0.86390  0.00043  Biso   1.000  O
  O32      1.0000 0.72823  0.88631  0.50847  Biso   1.000  O
