data_image0
_cell_length_a       5.0972
_cell_length_b       10.3744
_cell_length_c       10.2181
_cell_angle_alpha    87.3332
_cell_angle_beta     91.2823
_cell_angle_gamma    95.0506

_symmetry_space_group_name_H-M    "P 1"
_symmetry_int_tables_number       1

loop_
  _symmetry_equiv_pos_as_xyz
  'x, y, z'

loop_
  _atom_site_label
  _atom_site_occupancy
  _atom_site_fract_x
  _atom_site_fract_y
  _atom_site_fract_z
  _atom_site_thermal_displace_type
  _atom_site_B_iso_or_equiv
  _atom_site_type_symbol
  Hf1      1.0000 0.32784  0.98733  0.14585  Biso   1.000  Hf
  Hf2      1.0000 0.22295  0.25056  0.36638  Biso   1.000  Hf
  Hf3      1.0000 0.61658  0.27882  0.12111  Biso   1.000  Hf
  Hf4      1.0000 0.72990  0.01381  0.40743  Biso   1.000  Hf
  O1       1.0000 0.99465  0.18462  0.95140  Biso   1.000  O
  O2       1.0000 0.05005  0.07284  0.28819  Biso   1.000  O
  O3       1.0000 0.92640  0.35310  0.26068  Biso   1.000  O
  O4       1.0000 0.87272  0.41285  0.01320  Biso   1.000  O
  O5       1.0000 0.52657  0.14277  0.26837  Biso   1.000  O
  O6       1.0000 0.50424  0.11799  0.99364  Biso   1.000  O
  O7       1.0000 0.38913  0.37713  0.97416  Biso   1.000  O
  O8       1.0000 0.44235  0.40653  0.23637  Biso   1.000  O
  Hf5      1.0000 0.26340  0.97324  0.63532  Biso   1.000  Hf
  Hf6      1.0000 0.30431  0.23879  0.83203  Biso   1.000  Hf
  Hf7      1.0000 0.74990  0.26587  0.60435  Biso   1.000  Hf
  Hf8      1.0000 0.77318  0.01673  0.88601  Biso   1.000  Hf
  O9       1.0000 0.97081  0.15995  0.50086  Biso   1.000  O
  O10      1.0000 0.07967  0.07670  0.75741  Biso   1.000  O
  O11      1.0000 0.04526  0.33760  0.72589  Biso   1.000  O
  O12      1.0000 0.01889  0.40842  0.49143  Biso   1.000  O
  O13      1.0000 0.59374  0.14856  0.75155  Biso   1.000  O
  O14      1.0000 0.46860  0.10493  0.51321  Biso   1.000  O
  O15      1.0000 0.51780  0.34927  0.47153  Biso   1.000  O
  O16      1.0000 0.52681  0.39934  0.73104  Biso   1.000  O
  Hf9      1.0000 0.18142  0.49495  0.10888  Biso   1.000  Hf
  Hf10     1.0000 0.31160  0.73183  0.36934  Biso   1.000  Hf
  Hf11     1.0000 0.79780  0.75788  0.13019  Biso   1.000  Hf
  Hf12     1.0000 0.75165  0.49865  0.37062  Biso   1.000  Hf
  O17      1.0000 0.97446  0.65534  0.99070  Biso   1.000  O
  O18      1.0000 0.04843  0.59837  0.24992  Biso   1.000  O
  O19      1.0000 0.09929  0.83578  0.23701  Biso   1.000  O
  O20      1.0000 0.05690  0.91165  0.99659  Biso   1.000  O
  O21      1.0000 0.57726  0.65025  0.26389  Biso   1.000  O
  O22      1.0000 0.46655  0.62234  0.01113  Biso   1.000  O
  O23      1.0000 0.55107  0.87134  0.01867  Biso   1.000  O
  O24      1.0000 0.58914  0.89116  0.26574  Biso   1.000  O
  Hf13     1.0000 0.22273  0.50724  0.63416  Biso   1.000  Hf
  Hf14     1.0000 0.28283  0.76923  0.89242  Biso   1.000  Hf
  Hf15     1.0000 0.77129  0.73672  0.61833  Biso   1.000  Hf
  Hf16     1.0000 0.67827  0.52222  0.87993  Biso   1.000  Hf
  O25      1.0000 0.01847  0.65252  0.49568  Biso   1.000  O
  O26      1.0000 0.93497  0.57986  0.73398  Biso   1.000  O
  O27      1.0000 0.03068  0.82309  0.74947  Biso   1.000  O
  O28      1.0000 0.96700  0.90034  0.51736  Biso   1.000  O
  O29      1.0000 0.45962  0.65150  0.75719  Biso   1.000  O
  O30      1.0000 0.51440  0.59592  0.50550  Biso   1.000  O
  O31      1.0000 0.48003  0.84766  0.51429  Biso   1.000  O
  O32      1.0000 0.52561  0.90059  0.76991  Biso   1.000  O
  P1       1.0000 0.03041  0.16928  0.11309  Biso   1.000  P
