data_image0
_cell_length_a       10.0217
_cell_length_b       10.2153
_cell_length_c       10.4412
_cell_angle_alpha    90.031
_cell_angle_beta     90.257
_cell_angle_gamma    89.7231

_symmetry_space_group_name_H-M    "P 1"
_symmetry_int_tables_number       1

loop_
  _symmetry_equiv_pos_as_xyz
  'x, y, z'

loop_
  _atom_site_label
  _atom_site_occupancy
  _atom_site_fract_x
  _atom_site_fract_y
  _atom_site_fract_z
  _atom_site_thermal_displace_type
  _atom_site_B_iso_or_equiv
  _atom_site_type_symbol
  Pd1      1.0000 0.12505  0.00980  0.19074  Biso   1.000  Pd
  Hf1      1.0000 0.13787  0.02080  0.66861  Biso   1.000  Hf
  Hf2      1.0000 0.13874  0.52309  0.17121  Biso   1.000  Hf
  Hf3      1.0000 0.13945  0.52067  0.67326  Biso   1.000  Hf
  Hf4      1.0000 0.14083  0.23202  0.41803  Biso   1.000  Hf
  Hf5      1.0000 0.14430  0.22498  0.92246  Biso   1.000  Hf
  Hf6      1.0000 0.13602  0.72703  0.42339  Biso   1.000  Hf
  Hf7      1.0000 0.13894  0.73264  0.92214  Biso   1.000  Hf
  Hf8      1.0000 0.35920  0.27031  0.16700  Biso   1.000  Hf
  Hf9      1.0000 0.36180  0.27159  0.67061  Biso   1.000  Hf
  Hf10     1.0000 0.35930  0.77553  0.16929  Biso   1.000  Hf
  Hf11     1.0000 0.36135  0.77159  0.67229  Biso   1.000  Hf
  Hf12     1.0000 0.36109  0.47942  0.42093  Biso   1.000  Hf
  Hf13     1.0000 0.36130  0.47934  0.92152  Biso   1.000  Hf
  Hf14     1.0000 0.36049  0.97985  0.42058  Biso   1.000  Hf
  Hf15     1.0000 0.36101  0.98287  0.92195  Biso   1.000  Hf
  Hf16     1.0000 0.63941  0.02194  0.07723  Biso   1.000  Hf
  Hf17     1.0000 0.63735  0.02107  0.57966  Biso   1.000  Hf
  Hf18     1.0000 0.63874  0.51966  0.07862  Biso   1.000  Hf
  Hf19     1.0000 0.63913  0.52053  0.57978  Biso   1.000  Hf
  Hf20     1.0000 0.63726  0.22931  0.32817  Biso   1.000  Hf
  Hf21     1.0000 0.64026  0.22965  0.82943  Biso   1.000  Hf
  Hf22     1.0000 0.63601  0.72721  0.32801  Biso   1.000  Hf
  Hf23     1.0000 0.63861  0.72901  0.82899  Biso   1.000  Hf
  Hf24     1.0000 0.86758  0.26641  0.08245  Biso   1.000  Hf
  Hf25     1.0000 0.86155  0.27048  0.57899  Biso   1.000  Hf
  Hf26     1.0000 0.85988  0.76902  0.07734  Biso   1.000  Hf
  Hf27     1.0000 0.85947  0.77021  0.58006  Biso   1.000  Hf
  Hf28     1.0000 0.86050  0.47859  0.32906  Biso   1.000  Hf
  Hf29     1.0000 0.86422  0.47644  0.83160  Biso   1.000  Hf
  Hf30     1.0000 0.85413  0.97672  0.33087  Biso   1.000  Hf
  Hf31     1.0000 0.86246  0.97969  0.82904  Biso   1.000  Hf
  O1       1.0000 0.04374  0.15767  0.08872  Biso   1.000  O
  O2       1.0000 0.03298  0.16321  0.57794  Biso   1.000  O
  O3       1.0000 0.03414  0.66880  0.08548  Biso   1.000  O
  O4       1.0000 0.03172  0.66430  0.58516  Biso   1.000  O
  O5       1.0000 0.03079  0.08427  0.33430  Biso   1.000  O
  O6       1.0000 0.03416  0.08497  0.83144  Biso   1.000  O
  O7       1.0000 0.03221  0.58343  0.33528  Biso   1.000  O
  O8       1.0000 0.03493  0.58415  0.83660  Biso   1.000  O
  O9       1.0000 0.46623  0.41756  0.08493  Biso   1.000  O
  O10      1.0000 0.46594  0.41823  0.58497  Biso   1.000  O
  O11      1.0000 0.46793  0.91705  0.08337  Biso   1.000  O
  O12      1.0000 0.46504  0.91793  0.58495  Biso   1.000  O
  O13      1.0000 0.46400  0.33064  0.33629  Biso   1.000  O
  O14      1.0000 0.46789  0.33440  0.83382  Biso   1.000  O
  O15      1.0000 0.46210  0.83234  0.33462  Biso   1.000  O
  O16      1.0000 0.46642  0.83337  0.83458  Biso   1.000  O
  O17      1.0000 0.27275  0.11825  0.28508  Biso   1.000  O
  O18      1.0000 0.27626  0.12192  0.78707  Biso   1.000  O
  O19      1.0000 0.27542  0.62603  0.29512  Biso   1.000  O
  O20      1.0000 0.27669  0.62413  0.79505  Biso   1.000  O
  O21      1.0000 0.29896  0.14469  0.02674  Biso   1.000  O
  O22      1.0000 0.27718  0.12826  0.53916  Biso   1.000  O
  O23      1.0000 0.27766  0.63223  0.04413  Biso   1.000  O
  O24      1.0000 0.27558  0.62570  0.54582  Biso   1.000  O
  O25      1.0000 0.22344  0.37443  0.29419  Biso   1.000  O
  O26      1.0000 0.22519  0.37294  0.79523  Biso   1.000  O
  O27      1.0000 0.21625  0.87307  0.29468  Biso   1.000  O
  O28      1.0000 0.22336  0.87400  0.79590  Biso   1.000  O
  O29      1.0000 0.22091  0.38291  0.04459  Biso   1.000  O
  O30      1.0000 0.22277  0.37632  0.54408  Biso   1.000  O
  O31      1.0000 0.22006  0.88851  0.04807  Biso   1.000  O
  O32      1.0000 0.22343  0.87603  0.54425  Biso   1.000  O
  O33      1.0000 0.53562  0.16841  0.16383  Biso   1.000  O
  O34      1.0000 0.53479  0.16856  0.66390  Biso   1.000  O
  O35      1.0000 0.53225  0.66746  0.16431  Biso   1.000  O
  O36      1.0000 0.53433  0.66757  0.66438  Biso   1.000  O
  O37      1.0000 0.53324  0.08161  0.41369  Biso   1.000  O
  O38      1.0000 0.53861  0.08073  0.91135  Biso   1.000  O
  O39      1.0000 0.53344  0.58198  0.41456  Biso   1.000  O
  O40      1.0000 0.53476  0.58266  0.91487  Biso   1.000  O
  O41      1.0000 0.96752  0.41610  0.16739  Biso   1.000  O
  O42      1.0000 0.96895  0.41242  0.66944  Biso   1.000  O
  O43      1.0000 0.95871  0.91842  0.16501  Biso   1.000  O
  O44      1.0000 0.96643  0.91473  0.66619  Biso   1.000  O
  O45      1.0000 0.96643  0.33360  0.41624  Biso   1.000  O
  O46      1.0000 0.97017  0.33128  0.92205  Biso   1.000  O
  O47      1.0000 0.96462  0.83453  0.41708  Biso   1.000  O
  O48      1.0000 0.96540  0.83330  0.91586  Biso   1.000  O
  O49      1.0000 0.77944  0.12359  0.95628  Biso   1.000  O
  O50      1.0000 0.77570  0.12262  0.45569  Biso   1.000  O
  O51      1.0000 0.77753  0.62260  0.95608  Biso   1.000  O
  O52      1.0000 0.77547  0.62340  0.45565  Biso   1.000  O
  O53      1.0000 0.77690  0.12491  0.20643  Biso   1.000  O
  O54      1.0000 0.77722  0.12639  0.70504  Biso   1.000  O
  O55      1.0000 0.77515  0.62537  0.20547  Biso   1.000  O
  O56      1.0000 0.77753  0.62508  0.70666  Biso   1.000  O
  O57      1.0000 0.72669  0.37226  0.95724  Biso   1.000  O
  O58      1.0000 0.72358  0.37316  0.45617  Biso   1.000  O
  O59      1.0000 0.72352  0.87308  0.95506  Biso   1.000  O
  O60      1.0000 0.72001  0.87227  0.45555  Biso   1.000  O
  O61      1.0000 0.72497  0.37447  0.20595  Biso   1.000  O
  O62      1.0000 0.72516  0.37648  0.70638  Biso   1.000  O
  O63      1.0000 0.72306  0.87531  0.20576  Biso   1.000  O
  O64      1.0000 0.72337  0.87648  0.70551  Biso   1.000  O
