data_image0
_cell_length_a       10.0888
_cell_length_b       10.5767
_cell_length_c       5.03419
_cell_angle_alpha    89.8409
_cell_angle_beta     88.6249
_cell_angle_gamma    90.5758

_symmetry_space_group_name_H-M    "P 1"
_symmetry_int_tables_number       1

loop_
  _symmetry_equiv_pos_as_xyz
  'x, y, z'

loop_
  _atom_site_label
  _atom_site_occupancy
  _atom_site_fract_x
  _atom_site_fract_y
  _atom_site_fract_z
  _atom_site_thermal_displace_type
  _atom_site_B_iso_or_equiv
  _atom_site_type_symbol
  Hf1      1.0000 0.13784  0.00318  0.23318  Biso   1.000  Hf
  Hf2      1.0000 0.13016  0.20889  0.73783  Biso   1.000  Hf
  Hf3      1.0000 0.38027  0.26518  0.26636  Biso   1.000  Hf
  Hf4      1.0000 0.36929  0.49071  0.75196  Biso   1.000  Hf
  O1       1.0000 0.01710  0.16737  0.38573  Biso   1.000  O
  O2       1.0000 0.02976  0.05577  0.89570  Biso   1.000  O
  O3       1.0000 0.47732  0.42804  0.42274  Biso   1.000  O
  O4       1.0000 0.47908  0.31938  0.92712  Biso   1.000  O
  O5       1.0000 0.25994  0.09706  0.48937  Biso   1.000  O
  O6       1.0000 0.28210  0.12163  0.98321  Biso   1.000  O
  O7       1.0000 0.26637  0.42281  0.09386  Biso   1.000  O
  O8       1.0000 0.26847  0.33868  0.61631  Biso   1.000  O
  Hf5      1.0000 0.11906  0.54494  0.22462  Biso   1.000  Hf
  Hf6      1.0000 0.13195  0.74198  0.73519  Biso   1.000  Hf
  Hf7      1.0000 0.37302  0.76132  0.24188  Biso   1.000  Hf
  Hf8      1.0000 0.37315  0.98291  0.74286  Biso   1.000  Hf
  O9       1.0000 0.02691  0.69502  0.38834  Biso   1.000  O
  O10      1.0000 0.03400  0.56998  0.86482  Biso   1.000  O
  O11      1.0000 0.46826  0.92681  0.38320  Biso   1.000  O
  O12      1.0000 0.46859  0.81816  0.88957  Biso   1.000  O
  O13      1.0000 0.26323  0.61114  0.49152  Biso   1.000  O
  O14      1.0000 0.26198  0.65064  0.98314  Biso   1.000  O
  O15      1.0000 0.23064  0.88395  0.97416  Biso   1.000  O
  O16      1.0000 0.23410  0.85812  0.47414  Biso   1.000  O
  Hf9      1.0000 0.63413  0.01463  0.25173  Biso   1.000  Hf
  Hf10     1.0000 0.63314  0.23222  0.75646  Biso   1.000  Hf
  Hf11     1.0000 0.85539  0.26884  0.23713  Biso   1.000  Hf
  Hf12     1.0000 0.86596  0.48159  0.73657  Biso   1.000  Hf
  O17      1.0000 0.53062  0.17118  0.42166  Biso   1.000  O
  O18      1.0000 0.53829  0.06400  0.90048  Biso   1.000  O
  O19      1.0000 0.94797  0.44860  0.35793  Biso   1.000  O
  O20      1.0000 0.95341  0.31264  0.83116  Biso   1.000  O
  O21      1.0000 0.76757  0.11450  0.49533  Biso   1.000  O
  O22      1.0000 0.76687  0.13526  0.99804  Biso   1.000  O
  O23      1.0000 0.73110  0.38545  0.99611  Biso   1.000  O
  O24      1.0000 0.72670  0.36311  0.49411  Biso   1.000  O
  Hf13     1.0000 0.63522  0.51523  0.25323  Biso   1.000  Hf
  Hf14     1.0000 0.63412  0.73091  0.75391  Biso   1.000  Hf
  Hf15     1.0000 0.85962  0.76884  0.24420  Biso   1.000  Hf
  Hf16     1.0000 0.86332  0.98222  0.74124  Biso   1.000  Hf
  O25      1.0000 0.52995  0.67784  0.41044  Biso   1.000  O
  O26      1.0000 0.53076  0.57208  0.91992  Biso   1.000  O
  O27      1.0000 0.96553  0.93013  0.39505  Biso   1.000  O
  O28      1.0000 0.96296  0.81690  0.89116  Biso   1.000  O
  O29      1.0000 0.76363  0.61674  0.49946  Biso   1.000  O
  O30      1.0000 0.76852  0.63476  0.99721  Biso   1.000  O
  O31      1.0000 0.73059  0.88380  0.99891  Biso   1.000  O
  O32      1.0000 0.72805  0.86569  0.49915  Biso   1.000  O
  Pt1      1.0000 0.12924  0.30032  0.21603  Biso   1.000  Pt
