data_image0
_cell_length_a       10.0855
_cell_length_b       10.3426
_cell_length_c       5.3056
_cell_angle_alpha    89.9166
_cell_angle_beta     91.0432
_cell_angle_gamma    90.2104

_symmetry_space_group_name_H-M    "P 1"
_symmetry_int_tables_number       1

loop_
  _symmetry_equiv_pos_as_xyz
  'x, y, z'

loop_
  _atom_site_label
  _atom_site_occupancy
  _atom_site_fract_x
  _atom_site_fract_y
  _atom_site_fract_z
  _atom_site_thermal_displace_type
  _atom_site_B_iso_or_equiv
  _atom_site_type_symbol
  Hf1      1.0000 0.14131  0.02096  0.34865  Biso   1.000  Hf
  Hf2      1.0000 0.14209  0.22700  0.85339  Biso   1.000  Hf
  Hf3      1.0000 0.34786  0.27494  0.37648  Biso   1.000  Hf
  Hf4      1.0000 0.36033  0.48545  0.85241  Biso   1.000  Hf
  Hf5      1.0000 0.64066  0.00397  0.15679  Biso   1.000  Hf
  Hf6      1.0000 0.64601  0.21400  0.61336  Biso   1.000  Hf
  Hf7      1.0000 0.87184  0.27477  0.14662  Biso   1.000  Hf
  Hf8      1.0000 0.86471  0.48001  0.65706  Biso   1.000  Hf
  O1       1.0000 0.03588  0.16159  0.16315  Biso   1.000  O
  O2       1.0000 0.03399  0.08719  0.66313  Biso   1.000  O
  O3       1.0000 0.44845  0.44596  0.20232  Biso   1.000  O
  O4       1.0000 0.47003  0.33639  0.66185  Biso   1.000  O
  O5       1.0000 0.27403  0.12464  0.60518  Biso   1.000  O
  O6       1.0000 0.28164  0.12630  0.10065  Biso   1.000  O
  O7       1.0000 0.22023  0.37572  0.60974  Biso   1.000  O
  O8       1.0000 0.22135  0.37597  0.10330  Biso   1.000  O
  O9       1.0000 0.51977  0.12341  0.38868  Biso   1.000  O
  O10      1.0000 0.53671  0.06740  0.84077  Biso   1.000  O
  O11      1.0000 0.97053  0.41331  0.34245  Biso   1.000  O
  O12      1.0000 0.97527  0.33615  0.83580  Biso   1.000  O
  O13      1.0000 0.77703  0.12656  0.88958  Biso   1.000  O
  O14      1.0000 0.78084  0.12188  0.38306  Biso   1.000  O
  O15      1.0000 0.74379  0.39023  0.91475  Biso   1.000  O
  O16      1.0000 0.72331  0.37266  0.40561  Biso   1.000  O
  Hf9      1.0000 0.14046  0.52237  0.34668  Biso   1.000  Hf
  Hf10     1.0000 0.13889  0.73049  0.84514  Biso   1.000  Hf
  Hf11     1.0000 0.36053  0.77019  0.35005  Biso   1.000  Hf
  Hf12     1.0000 0.36280  0.97471  0.85041  Biso   1.000  Hf
  Hf13     1.0000 0.64084  0.53431  0.16144  Biso   1.000  Hf
  Hf14     1.0000 0.64050  0.73068  0.66002  Biso   1.000  Hf
  Hf15     1.0000 0.86690  0.77050  0.15997  Biso   1.000  Hf
  Hf16     1.0000 0.86681  0.97938  0.65807  Biso   1.000  Hf
  O17      1.0000 0.03384  0.66254  0.16436  Biso   1.000  O
  O18      1.0000 0.03390  0.58847  0.66490  Biso   1.000  O
  O19      1.0000 0.46988  0.90108  0.15915  Biso   1.000  O
  O20      1.0000 0.46730  0.83236  0.66778  Biso   1.000  O
  O21      1.0000 0.27496  0.62599  0.59280  Biso   1.000  O
  O22      1.0000 0.27341  0.62974  0.08874  Biso   1.000  O
  O23      1.0000 0.22523  0.87439  0.59575  Biso   1.000  O
  O24      1.0000 0.22370  0.87727  0.09840  Biso   1.000  O
  O25      1.0000 0.53697  0.67188  0.33955  Biso   1.000  O
  O26      1.0000 0.53433  0.58668  0.83871  Biso   1.000  O
  O27      1.0000 0.97153  0.91365  0.34104  Biso   1.000  O
  O28      1.0000 0.97033  0.83857  0.84289  Biso   1.000  O
  O29      1.0000 0.77768  0.63132  0.90956  Biso   1.000  O
  O30      1.0000 0.77934  0.62547  0.41207  Biso   1.000  O
  O31      1.0000 0.72948  0.87386  0.91277  Biso   1.000  O
  O32      1.0000 0.73068  0.87091  0.41590  Biso   1.000  O
  Rb1      1.0000 0.56091  0.26702  0.05961  Biso   1.000  Rb
