data_image0
_cell_length_a       10.0548
_cell_length_b       10.2805
_cell_length_c       10.4904
_cell_angle_alpha    89.7007
_cell_angle_beta     90.4179
_cell_angle_gamma    89.9331

_symmetry_space_group_name_H-M    "P 1"
_symmetry_int_tables_number       1

loop_
  _symmetry_equiv_pos_as_xyz
  'x, y, z'

loop_
  _atom_site_label
  _atom_site_occupancy
  _atom_site_fract_x
  _atom_site_fract_y
  _atom_site_fract_z
  _atom_site_thermal_displace_type
  _atom_site_B_iso_or_equiv
  _atom_site_type_symbol
  Hf1      1.0000 0.14052  0.02008  0.17132  Biso   1.000  Hf
  Hf2      1.0000 0.13606  0.23018  0.42213  Biso   1.000  Hf
  Hf3      1.0000 0.35765  0.26675  0.17645  Biso   1.000  Hf
  Hf4      1.0000 0.36010  0.48066  0.42306  Biso   1.000  Hf
  Hf5      1.0000 0.63721  0.01363  0.06767  Biso   1.000  Hf
  Hf6      1.0000 0.63159  0.23002  0.34399  Biso   1.000  Hf
  Hf7      1.0000 0.87658  0.27023  0.07197  Biso   1.000  Hf
  Hf8      1.0000 0.86268  0.48132  0.33118  Biso   1.000  Hf
  O1       1.0000 0.04055  0.16342  0.07869  Biso   1.000  O
  O2       1.0000 0.02666  0.09125  0.32758  Biso   1.000  O
  O3       1.0000 0.47030  0.42031  0.08532  Biso   1.000  O
  O4       1.0000 0.45855  0.33020  0.34348  Biso   1.000  O
  O5       1.0000 0.26927  0.12384  0.29788  Biso   1.000  O
  O6       1.0000 0.27869  0.12169  0.04289  Biso   1.000  O
  O7       1.0000 0.22039  0.37541  0.29591  Biso   1.000  O
  O8       1.0000 0.22604  0.37527  0.04343  Biso   1.000  O
  O9       1.0000 0.50983  0.12909  0.18753  Biso   1.000  O
  O10      1.0000 0.52938  0.08573  0.42906  Biso   1.000  O
  O11      1.0000 0.96771  0.41522  0.16843  Biso   1.000  O
  O12      1.0000 0.96531  0.33727  0.41948  Biso   1.000  O
  O13      1.0000 0.77775  0.12163  0.45543  Biso   1.000  O
  O14      1.0000 0.75617  0.14448  0.19443  Biso   1.000  O
  O15      1.0000 0.72356  0.37317  0.46249  Biso   1.000  O
  O16      1.0000 0.71879  0.39569  0.21391  Biso   1.000  O
  Hf9      1.0000 0.14021  0.02087  0.66990  Biso   1.000  Hf
  Hf10     1.0000 0.14627  0.22643  0.91772  Biso   1.000  Hf
  Hf11     1.0000 0.36429  0.27085  0.67118  Biso   1.000  Hf
  Hf12     1.0000 0.36175  0.47877  0.91924  Biso   1.000  Hf
  Hf13     1.0000 0.63874  0.02092  0.58312  Biso   1.000  Hf
  Hf14     1.0000 0.63903  0.22367  0.83561  Biso   1.000  Hf
  Hf15     1.0000 0.86091  0.27016  0.58261  Biso   1.000  Hf
  Hf16     1.0000 0.86281  0.47964  0.82885  Biso   1.000  Hf
  O17      1.0000 0.03271  0.16477  0.58249  Biso   1.000  O
  O18      1.0000 0.03865  0.08351  0.83069  Biso   1.000  O
  O19      1.0000 0.46672  0.41833  0.58635  Biso   1.000  O
  O20      1.0000 0.46780  0.33411  0.83554  Biso   1.000  O
  O21      1.0000 0.27981  0.12271  0.79305  Biso   1.000  O
  O22      1.0000 0.27528  0.12652  0.54513  Biso   1.000  O
  O23      1.0000 0.22573  0.37312  0.79336  Biso   1.000  O
  O24      1.0000 0.22346  0.37651  0.54517  Biso   1.000  O
  O25      1.0000 0.53492  0.16709  0.66822  Biso   1.000  O
  O26      1.0000 0.53667  0.06387  0.89946  Biso   1.000  O
  O27      1.0000 0.96641  0.41604  0.66663  Biso   1.000  O
  O28      1.0000 0.97253  0.33447  0.91184  Biso   1.000  O
  O29      1.0000 0.79376  0.11631  0.94787  Biso   1.000  O
  O30      1.0000 0.77771  0.12438  0.70388  Biso   1.000  O
  O31      1.0000 0.72578  0.37718  0.96564  Biso   1.000  O
  O32      1.0000 0.72503  0.37511  0.71234  Biso   1.000  O
  Hf17     1.0000 0.14028  0.52026  0.17133  Biso   1.000  Hf
  Hf18     1.0000 0.13761  0.72953  0.42065  Biso   1.000  Hf
  Hf19     1.0000 0.35922  0.77197  0.17231  Biso   1.000  Hf
  Hf20     1.0000 0.36093  0.97892  0.42406  Biso   1.000  Hf
  Hf21     1.0000 0.64361  0.53917  0.07915  Biso   1.000  Hf
  Hf22     1.0000 0.63886  0.73233  0.33041  Biso   1.000  Hf
  Hf23     1.0000 0.86602  0.77491  0.07865  Biso   1.000  Hf
  Hf24     1.0000 0.86020  0.98025  0.32831  Biso   1.000  Hf
  O33      1.0000 0.03455  0.66463  0.08253  Biso   1.000  O
  O34      1.0000 0.03310  0.58689  0.33152  Biso   1.000  O
  O35      1.0000 0.46602  0.90640  0.07629  Biso   1.000  O
  O36      1.0000 0.46669  0.83788  0.33311  Biso   1.000  O
  O37      1.0000 0.27530  0.62464  0.29524  Biso   1.000  O
  O38      1.0000 0.27836  0.62404  0.04514  Biso   1.000  O
  O39      1.0000 0.22275  0.87416  0.29541  Biso   1.000  O
  O40      1.0000 0.22130  0.87358  0.04579  Biso   1.000  O
  O41      1.0000 0.53264  0.66963  0.16957  Biso   1.000  O
  O42      1.0000 0.53347  0.58520  0.41686  Biso   1.000  O
  O43      1.0000 0.96647  0.91977  0.16584  Biso   1.000  O
  O44      1.0000 0.96514  0.83768  0.41442  Biso   1.000  O
  O45      1.0000 0.77632  0.62412  0.45515  Biso   1.000  O
  O46      1.0000 0.78012  0.63650  0.20584  Biso   1.000  O
  O47      1.0000 0.72284  0.87455  0.45623  Biso   1.000  O
  O48      1.0000 0.72574  0.88107  0.20580  Biso   1.000  O
  Hf25     1.0000 0.13822  0.52028  0.67022  Biso   1.000  Hf
  Hf26     1.0000 0.14001  0.72710  0.92112  Biso   1.000  Hf
  Hf27     1.0000 0.36166  0.76904  0.67077  Biso   1.000  Hf
  Hf28     1.0000 0.36027  0.97344  0.91861  Biso   1.000  Hf
  Hf29     1.0000 0.63940  0.52051  0.58006  Biso   1.000  Hf
  Hf30     1.0000 0.63972  0.72896  0.82578  Biso   1.000  Hf
  Hf31     1.0000 0.86143  0.77166  0.57804  Biso   1.000  Hf
  Hf32     1.0000 0.86592  0.97759  0.82642  Biso   1.000  Hf
  O49      1.0000 0.03239  0.66504  0.58079  Biso   1.000  O
  O50      1.0000 0.03362  0.58490  0.83137  Biso   1.000  O
  O51      1.0000 0.46660  0.91385  0.58611  Biso   1.000  O
  O52      1.0000 0.46504  0.82693  0.83222  Biso   1.000  O
  O53      1.0000 0.27641  0.62146  0.79413  Biso   1.000  O
  O54      1.0000 0.27451  0.62613  0.54448  Biso   1.000  O
  O55      1.0000 0.22389  0.87156  0.79369  Biso   1.000  O
  O56      1.0000 0.22394  0.87571  0.54388  Biso   1.000  O
  O57      1.0000 0.53404  0.66501  0.66490  Biso   1.000  O
  O58      1.0000 0.53464  0.58567  0.91633  Biso   1.000  O
  O59      1.0000 0.96960  0.91447  0.66299  Biso   1.000  O
  O60      1.0000 0.97147  0.83481  0.91650  Biso   1.000  O
  O61      1.0000 0.78010  0.62644  0.95343  Biso   1.000  O
  O62      1.0000 0.77767  0.62527  0.70420  Biso   1.000  O
  O63      1.0000 0.72751  0.86962  0.95298  Biso   1.000  O
  O64      1.0000 0.72614  0.87416  0.70486  Biso   1.000  O
  Re1      1.0000 0.60877  0.27077  0.10220  Biso   1.000  Re
