data_image0
_cell_length_a       5.05459
_cell_length_b       10.2086
_cell_length_c       10.4707
_cell_angle_alpha    90.0271
_cell_angle_beta     80.7725
_cell_angle_gamma    89.3615

_symmetry_space_group_name_H-M    "P 1"
_symmetry_int_tables_number       1

loop_
  _symmetry_equiv_pos_as_xyz
  'x, y, z'

loop_
  _atom_site_label
  _atom_site_occupancy
  _atom_site_fract_x
  _atom_site_fract_y
  _atom_site_fract_z
  _atom_site_thermal_displace_type
  _atom_site_B_iso_or_equiv
  _atom_site_type_symbol
  Rh1      1.0000 0.24575  0.01091  0.16739  Biso   1.000  Rh
  Hf1      1.0000 0.27806  0.23037  0.39271  Biso   1.000  Hf
  Hf2      1.0000 0.72897  0.26471  0.10292  Biso   1.000  Hf
  Hf3      1.0000 0.72183  0.47853  0.35300  Biso   1.000  Hf
  O1       1.0000 0.09033  0.15599  0.08136  Biso   1.000  O
  O2       1.0000 0.05445  0.08669  0.32722  Biso   1.000  O
  O3       1.0000 0.93487  0.41411  0.17311  Biso   1.000  O
  O4       1.0000 0.93105  0.33463  0.42314  Biso   1.000  O
  O5       1.0000 0.54170  0.11924  0.23218  Biso   1.000  O
  O6       1.0000 0.55321  0.12200  0.48527  Biso   1.000  O
  O7       1.0000 0.45657  0.38148  0.01101  Biso   1.000  O
  O8       1.0000 0.45440  0.36743  0.25854  Biso   1.000  O
  Hf4      1.0000 0.27451  0.02125  0.64448  Biso   1.000  Hf
  Hf5      1.0000 0.29002  0.22576  0.89608  Biso   1.000  Hf
  Hf6      1.0000 0.72361  0.27222  0.60397  Biso   1.000  Hf
  Hf7      1.0000 0.72949  0.47800  0.85702  Biso   1.000  Hf
  O9       1.0000 0.06899  0.16551  0.57316  Biso   1.000  O
  O10      1.0000 0.07727  0.08343  0.82592  Biso   1.000  O
  O11      1.0000 0.93634  0.41410  0.67556  Biso   1.000  O
  O12      1.0000 0.94928  0.33745  0.92919  Biso   1.000  O
  O13      1.0000 0.55331  0.12797  0.73283  Biso   1.000  O
  O14      1.0000 0.59506  0.13743  0.97218  Biso   1.000  O
  O15      1.0000 0.44528  0.37838  0.50929  Biso   1.000  O
  O16      1.0000 0.45514  0.37113  0.76126  Biso   1.000  O
  Hf8      1.0000 0.27452  0.52121  0.14471  Biso   1.000  Hf
  Hf9      1.0000 0.27144  0.72578  0.39726  Biso   1.000  Hf
  Hf10     1.0000 0.71122  0.77334  0.10151  Biso   1.000  Hf
  Hf11     1.0000 0.70871  0.97686  0.35497  Biso   1.000  Hf
  O17      1.0000 0.06650  0.66900  0.07871  Biso   1.000  O
  O18      1.0000 0.06960  0.58060  0.32870  Biso   1.000  O
  O19      1.0000 0.92337  0.91407  0.17341  Biso   1.000  O
  O20      1.0000 0.92561  0.83269  0.42151  Biso   1.000  O
  O21      1.0000 0.54978  0.62971  0.24031  Biso   1.000  O
  O22      1.0000 0.55251  0.62028  0.49131  Biso   1.000  O
  O23      1.0000 0.44047  0.89272  0.01273  Biso   1.000  O
  O24      1.0000 0.43158  0.87050  0.25957  Biso   1.000  O
  Hf12     1.0000 0.28006  0.52100  0.64814  Biso   1.000  Hf
  Hf13     1.0000 0.27487  0.73316  0.89671  Biso   1.000  Hf
  Hf14     1.0000 0.72011  0.77117  0.60619  Biso   1.000  Hf
  Hf15     1.0000 0.72327  0.98386  0.85436  Biso   1.000  Hf
  O25      1.0000 0.06787  0.66548  0.57832  Biso   1.000  O
  O26      1.0000 0.07130  0.58606  0.82872  Biso   1.000  O
  O27      1.0000 0.93002  0.91679  0.67102  Biso   1.000  O
  O28      1.0000 0.92177  0.83342  0.92231  Biso   1.000  O
  O29      1.0000 0.55406  0.62890  0.74134  Biso   1.000  O
  O30      1.0000 0.55121  0.62508  0.99023  Biso   1.000  O
  O31      1.0000 0.44311  0.87798  0.50899  Biso   1.000  O
  O32      1.0000 0.44758  0.87166  0.76016  Biso   1.000  O
