data_image0
_cell_length_a       10.0171
_cell_length_b       10.2138
_cell_length_c       10.4451
_cell_angle_alpha    90.0009
_cell_angle_beta     90.2589
_cell_angle_gamma    89.7293

_symmetry_space_group_name_H-M    "P 1"
_symmetry_int_tables_number       1

loop_
  _symmetry_equiv_pos_as_xyz
  'x, y, z'

loop_
  _atom_site_label
  _atom_site_occupancy
  _atom_site_fract_x
  _atom_site_fract_y
  _atom_site_fract_z
  _atom_site_thermal_displace_type
  _atom_site_B_iso_or_equiv
  _atom_site_type_symbol
  Rh1      1.0000 0.12436  0.01206  0.18949  Biso   1.000  Rh
  Hf1      1.0000 0.14017  0.23133  0.41841  Biso   1.000  Hf
  Hf2      1.0000 0.35914  0.26954  0.16777  Biso   1.000  Hf
  Hf3      1.0000 0.36105  0.47934  0.42097  Biso   1.000  Hf
  Hf4      1.0000 0.63931  0.02164  0.07720  Biso   1.000  Hf
  Hf5      1.0000 0.63740  0.22924  0.32828  Biso   1.000  Hf
  Hf6      1.0000 0.86647  0.26754  0.08202  Biso   1.000  Hf
  Hf7      1.0000 0.86059  0.47870  0.32927  Biso   1.000  Hf
  O1       1.0000 0.04435  0.15699  0.08966  Biso   1.000  O
  O2       1.0000 0.03002  0.08508  0.33440  Biso   1.000  O
  O3       1.0000 0.46589  0.41705  0.08501  Biso   1.000  O
  O4       1.0000 0.46481  0.33139  0.33599  Biso   1.000  O
  O5       1.0000 0.27293  0.11889  0.28627  Biso   1.000  O
  O6       1.0000 0.29805  0.14360  0.02745  Biso   1.000  O
  O7       1.0000 0.22352  0.37412  0.29449  Biso   1.000  O
  O8       1.0000 0.22070  0.38165  0.04482  Biso   1.000  O
  O9       1.0000 0.53592  0.16808  0.16416  Biso   1.000  O
  O10      1.0000 0.53306  0.08206  0.41386  Biso   1.000  O
  O11      1.0000 0.96821  0.41477  0.16785  Biso   1.000  O
  O12      1.0000 0.96637  0.33420  0.41689  Biso   1.000  O
  O13      1.0000 0.77567  0.12290  0.45582  Biso   1.000  O
  O14      1.0000 0.77800  0.12445  0.20575  Biso   1.000  O
  O15      1.0000 0.72339  0.37342  0.45604  Biso   1.000  O
  O16      1.0000 0.72516  0.37433  0.20568  Biso   1.000  O
  Hf8      1.0000 0.13798  0.02086  0.66883  Biso   1.000  Hf
  Hf9      1.0000 0.14459  0.22551  0.92155  Biso   1.000  Hf
  Hf10     1.0000 0.36159  0.27168  0.67042  Biso   1.000  Hf
  Hf11     1.0000 0.36105  0.47915  0.92165  Biso   1.000  Hf
  Hf12     1.0000 0.63707  0.02112  0.57947  Biso   1.000  Hf
  Hf13     1.0000 0.64001  0.22950  0.82935  Biso   1.000  Hf
  Hf14     1.0000 0.86145  0.27074  0.57926  Biso   1.000  Hf
  Hf15     1.0000 0.86418  0.47675  0.83137  Biso   1.000  Hf
  O17      1.0000 0.03303  0.16406  0.57958  Biso   1.000  O
  O18      1.0000 0.03413  0.08480  0.83255  Biso   1.000  O
  O19      1.0000 0.46611  0.41804  0.58476  Biso   1.000  O
  O20      1.0000 0.46763  0.33434  0.83378  Biso   1.000  O
  O21      1.0000 0.27626  0.12213  0.78750  Biso   1.000  O
  O22      1.0000 0.27697  0.12811  0.53980  Biso   1.000  O
  O23      1.0000 0.22483  0.37304  0.79524  Biso   1.000  O
  O24      1.0000 0.22276  0.37663  0.54425  Biso   1.000  O
  O25      1.0000 0.53456  0.16846  0.66407  Biso   1.000  O
  O26      1.0000 0.53857  0.08079  0.91166  Biso   1.000  O
  O27      1.0000 0.96868  0.41299  0.66937  Biso   1.000  O
  O28      1.0000 0.97006  0.33153  0.92189  Biso   1.000  O
  O29      1.0000 0.78009  0.12327  0.95645  Biso   1.000  O
  O30      1.0000 0.77703  0.12637  0.70520  Biso   1.000  O
  O31      1.0000 0.72634  0.37223  0.95729  Biso   1.000  O
  O32      1.0000 0.72492  0.37660  0.70641  Biso   1.000  O
  Hf16     1.0000 0.13924  0.52268  0.17139  Biso   1.000  Hf
  Hf17     1.0000 0.13660  0.72768  0.42260  Biso   1.000  Hf
  Hf18     1.0000 0.35826  0.77617  0.16914  Biso   1.000  Hf
  Hf19     1.0000 0.35971  0.98015  0.41984  Biso   1.000  Hf
  Hf20     1.0000 0.63797  0.51990  0.07877  Biso   1.000  Hf
  Hf21     1.0000 0.63573  0.72774  0.32770  Biso   1.000  Hf
  Hf22     1.0000 0.85973  0.76834  0.07758  Biso   1.000  Hf
  Hf23     1.0000 0.85490  0.97742  0.33120  Biso   1.000  Hf
  O33      1.0000 0.03350  0.66709  0.08495  Biso   1.000  O
  O34      1.0000 0.03217  0.58382  0.33478  Biso   1.000  O
  O35      1.0000 0.46807  0.91698  0.08324  Biso   1.000  O
  O36      1.0000 0.46240  0.83336  0.33386  Biso   1.000  O
  O37      1.0000 0.27551  0.62598  0.29491  Biso   1.000  O
  O38      1.0000 0.27738  0.63101  0.04440  Biso   1.000  O
  O39      1.0000 0.21555  0.87400  0.29394  Biso   1.000  O
  O40      1.0000 0.22091  0.88622  0.04615  Biso   1.000  O
  O41      1.0000 0.53185  0.66763  0.16431  Biso   1.000  O
  O42      1.0000 0.53320  0.58273  0.41479  Biso   1.000  O
  O43      1.0000 0.96475  0.91433  0.16758  Biso   1.000  O
  O44      1.0000 0.96465  0.83454  0.41676  Biso   1.000  O
  O45      1.0000 0.77550  0.62364  0.45546  Biso   1.000  O
  O46      1.0000 0.77491  0.62500  0.20536  Biso   1.000  O
  O47      1.0000 0.72025  0.87269  0.45545  Biso   1.000  O
  O48      1.0000 0.72419  0.87538  0.20545  Biso   1.000  O
  Hf24     1.0000 0.13924  0.52119  0.67296  Biso   1.000  Hf
  Hf25     1.0000 0.13965  0.73281  0.92240  Biso   1.000  Hf
  Hf26     1.0000 0.36122  0.77170  0.67179  Biso   1.000  Hf
  Hf27     1.0000 0.36065  0.98203  0.92190  Biso   1.000  Hf
  Hf28     1.0000 0.63911  0.52076  0.57956  Biso   1.000  Hf
  Hf29     1.0000 0.63846  0.72892  0.82885  Biso   1.000  Hf
  Hf30     1.0000 0.85946  0.77027  0.57984  Biso   1.000  Hf
  Hf31     1.0000 0.86220  0.97946  0.82895  Biso   1.000  Hf
  O49      1.0000 0.03187  0.66469  0.58457  Biso   1.000  O
  O50      1.0000 0.03447  0.58480  0.83604  Biso   1.000  O
  O51      1.0000 0.46488  0.91778  0.58435  Biso   1.000  O
  O52      1.0000 0.46643  0.83346  0.83422  Biso   1.000  O
  O53      1.0000 0.27674  0.62410  0.79503  Biso   1.000  O
  O54      1.0000 0.27573  0.62609  0.54550  Biso   1.000  O
  O55      1.0000 0.22325  0.87392  0.79492  Biso   1.000  O
  O56      1.0000 0.22308  0.87644  0.54382  Biso   1.000  O
  O57      1.0000 0.53416  0.66736  0.66458  Biso   1.000  O
  O58      1.0000 0.53438  0.58262  0.91502  Biso   1.000  O
  O59      1.0000 0.96637  0.91475  0.66637  Biso   1.000  O
  O60      1.0000 0.96577  0.83417  0.91732  Biso   1.000  O
  O61      1.0000 0.77727  0.62257  0.95610  Biso   1.000  O
  O62      1.0000 0.77749  0.62529  0.70647  Biso   1.000  O
  O63      1.0000 0.72360  0.87287  0.95509  Biso   1.000  O
  O64      1.0000 0.72318  0.87639  0.70546  Biso   1.000  O
