data_image0
_cell_length_a       5.09406
_cell_length_b       10.289
_cell_length_c       10.5549
_cell_angle_alpha    90.2269
_cell_angle_beta     79.753
_cell_angle_gamma    90.2323

_symmetry_space_group_name_H-M    "P 1"
_symmetry_int_tables_number       1

loop_
  _symmetry_equiv_pos_as_xyz
  'x, y, z'

loop_
  _atom_site_label
  _atom_site_occupancy
  _atom_site_fract_x
  _atom_site_fract_y
  _atom_site_fract_z
  _atom_site_thermal_displace_type
  _atom_site_B_iso_or_equiv
  _atom_site_type_symbol
  Hf1      1.0000 0.27179  0.02142  0.14703  Biso   1.000  Hf
  Hf2      1.0000 0.30251  0.23352  0.40122  Biso   1.000  Hf
  Hf3      1.0000 0.71125  0.27409  0.09580  Biso   1.000  Hf
  Hf4      1.0000 0.71507  0.48178  0.35203  Biso   1.000  Hf
  O1       1.0000 0.05901  0.16096  0.07140  Biso   1.000  O
  O2       1.0000 0.09630  0.06470  0.33960  Biso   1.000  O
  O3       1.0000 0.92871  0.41495  0.17347  Biso   1.000  O
  O4       1.0000 0.97127  0.35968  0.43837  Biso   1.000  O
  O5       1.0000 0.55968  0.12801  0.23736  Biso   1.000  O
  O6       1.0000 0.55085  0.11264  0.49687  Biso   1.000  O
  O7       1.0000 0.43984  0.38171  0.00645  Biso   1.000  O
  O8       1.0000 0.42841  0.37832  0.25462  Biso   1.000  O
  Hf5      1.0000 0.27123  0.02073  0.64715  Biso   1.000  Hf
  Hf6      1.0000 0.27153  0.22838  0.89434  Biso   1.000  Hf
  Hf7      1.0000 0.72824  0.27313  0.60691  Biso   1.000  Hf
  Hf8      1.0000 0.71622  0.48060  0.85483  Biso   1.000  Hf
  O9       1.0000 0.07043  0.16733  0.57741  Biso   1.000  O
  O10      1.0000 0.05889  0.08674  0.82474  Biso   1.000  O
  O11      1.0000 0.93357  0.41383  0.67995  Biso   1.000  O
  O12      1.0000 0.93044  0.33834  0.92290  Biso   1.000  O
  O13      1.0000 0.54729  0.12932  0.74148  Biso   1.000  O
  O14      1.0000 0.54410  0.12326  0.98874  Biso   1.000  O
  O15      1.0000 0.45903  0.37877  0.51419  Biso   1.000  O
  O16      1.0000 0.44732  0.37213  0.76013  Biso   1.000  O
  Hf9      1.0000 0.27384  0.52386  0.14597  Biso   1.000  Hf
  Hf10     1.0000 0.27196  0.72655  0.39737  Biso   1.000  Hf
  Hf11     1.0000 0.71744  0.77274  0.10473  Biso   1.000  Hf
  Hf12     1.0000 0.72088  0.96995  0.35889  Biso   1.000  Hf
  O17      1.0000 0.05816  0.66613  0.07577  Biso   1.000  O
  O18      1.0000 0.05809  0.59068  0.32225  Biso   1.000  O
  O19      1.0000 0.93004  0.91563  0.17554  Biso   1.000  O
  O20      1.0000 0.92414  0.82842  0.42605  Biso   1.000  O
  O21      1.0000 0.54854  0.62928  0.24101  Biso   1.000  O
  O22      1.0000 0.54126  0.62052  0.49190  Biso   1.000  O
  O23      1.0000 0.44305  0.88070  0.01252  Biso   1.000  O
  O24      1.0000 0.44752  0.86885  0.26125  Biso   1.000  O
  Hf13     1.0000 0.27345  0.52202  0.64782  Biso   1.000  Hf
  Hf14     1.0000 0.26909  0.72970  0.89779  Biso   1.000  Hf
  Hf15     1.0000 0.71686  0.76961  0.60640  Biso   1.000  Hf
  Hf16     1.0000 0.71648  0.97919  0.85439  Biso   1.000  Hf
  O25      1.0000 0.05855  0.66186  0.57769  Biso   1.000  O
  O26      1.0000 0.06129  0.58795  0.82715  Biso   1.000  O
  O27      1.0000 0.92575  0.91458  0.67362  Biso   1.000  O
  O28      1.0000 0.92768  0.83798  0.92471  Biso   1.000  O
  O29      1.0000 0.54633  0.62846  0.74175  Biso   1.000  O
  O30      1.0000 0.54571  0.62447  0.99110  Biso   1.000  O
  O31      1.0000 0.44181  0.87449  0.51263  Biso   1.000  O
  O32      1.0000 0.44182  0.87190  0.76218  Biso   1.000  O
  Rh1      1.0000 0.84986  0.23011  0.31753  Biso   1.000  Rh
