data_image0
_cell_length_a       10.173
_cell_length_b       5.14934
_cell_length_c       10.5751
_cell_angle_alpha    89.694
_cell_angle_beta     79.7335
_cell_angle_gamma    90.7583

_symmetry_space_group_name_H-M    "P 1"
_symmetry_int_tables_number       1

loop_
  _symmetry_equiv_pos_as_xyz
  'x, y, z'

loop_
  _atom_site_label
  _atom_site_occupancy
  _atom_site_fract_x
  _atom_site_fract_y
  _atom_site_fract_z
  _atom_site_thermal_displace_type
  _atom_site_B_iso_or_equiv
  _atom_site_type_symbol
  Hf1      1.0000 0.13416  0.04667  0.14285  Biso   1.000  Hf
  Hf2      1.0000 0.13694  0.47145  0.39464  Biso   1.000  Hf
  Hf3      1.0000 0.35532  0.53929  0.09649  Biso   1.000  Hf
  Hf4      1.0000 0.35137  0.94130  0.35452  Biso   1.000  Hf
  O1       1.0000 0.03197  0.34276  0.07603  Biso   1.000  O
  O2       1.0000 0.03332  0.18155  0.32291  Biso   1.000  O
  O3       1.0000 0.47362  0.76702  0.19263  Biso   1.000  O
  O4       1.0000 0.48224  0.71159  0.44412  Biso   1.000  O
  O5       1.0000 0.27986  0.25026  0.23707  Biso   1.000  O
  O6       1.0000 0.28291  0.25554  0.48335  Biso   1.000  O
  O7       1.0000 0.22238  0.76252  0.00546  Biso   1.000  O
  O8       1.0000 0.20642  0.75704  0.24990  Biso   1.000  O
  Hf5      1.0000 0.13488  0.05119  0.64782  Biso   1.000  Hf
  Hf6      1.0000 0.13380  0.46161  0.89471  Biso   1.000  Hf
  Hf7      1.0000 0.36087  0.55183  0.60844  Biso   1.000  Hf
  Hf8      1.0000 0.35998  0.96029  0.85438  Biso   1.000  Hf
  O9       1.0000 0.03493  0.33586  0.57596  Biso   1.000  O
  O10      1.0000 0.03063  0.17077  0.82778  Biso   1.000  O
  O11      1.0000 0.46885  0.82068  0.68318  Biso   1.000  O
  O12      1.0000 0.47022  0.68694  0.93054  Biso   1.000  O
  O13      1.0000 0.27381  0.25938  0.73959  Biso   1.000  O
  O14      1.0000 0.27125  0.24767  0.98632  Biso   1.000  O
  O15      1.0000 0.21936  0.77030  0.51712  Biso   1.000  O
  O16      1.0000 0.22323  0.74708  0.76019  Biso   1.000  O
  Hf9      1.0000 0.63898  0.03547  0.14835  Biso   1.000  Hf
  Hf10     1.0000 0.64201  0.45425  0.40049  Biso   1.000  Hf
  Hf11     1.0000 0.85950  0.54423  0.10522  Biso   1.000  Hf
  Hf12     1.0000 0.86130  0.96109  0.35415  Biso   1.000  Hf
  O17      1.0000 0.52414  0.29292  0.06912  Biso   1.000  O
  O18      1.0000 0.54375  0.13197  0.32889  Biso   1.000  O
  O19      1.0000 0.96201  0.84187  0.16926  Biso   1.000  O
  O20      1.0000 0.96671  0.68278  0.42556  Biso   1.000  O
  O21      1.0000 0.77619  0.25421  0.23796  Biso   1.000  O
  O22      1.0000 0.77803  0.24212  0.49128  Biso   1.000  O
  O23      1.0000 0.72167  0.75269  0.01318  Biso   1.000  O
  O24      1.0000 0.72794  0.73727  0.26245  Biso   1.000  O
  Hf13     1.0000 0.63862  0.04487  0.64651  Biso   1.000  Hf
  Hf14     1.0000 0.63657  0.45211  0.89829  Biso   1.000  Hf
  Hf15     1.0000 0.86141  0.54800  0.60592  Biso   1.000  Hf
  Hf16     1.0000 0.85725  0.95661  0.85636  Biso   1.000  Hf
  O25      1.0000 0.53084  0.32375  0.57701  Biso   1.000  O
  O26      1.0000 0.52983  0.18377  0.82153  Biso   1.000  O
  O27      1.0000 0.96494  0.83377  0.67609  Biso   1.000  O
  O28      1.0000 0.96273  0.67059  0.92168  Biso   1.000  O
  O29      1.0000 0.77500  0.25805  0.74110  Biso   1.000  O
  O30      1.0000 0.77318  0.24217  0.99090  Biso   1.000  O
  O31      1.0000 0.72680  0.75623  0.51387  Biso   1.000  O
  O32      1.0000 0.72270  0.74321  0.76257  Biso   1.000  O
  Ru1      1.0000 0.40689  0.46531  0.33126  Biso   1.000  Ru
