data_image0
_cell_length_a       9.93804
_cell_length_b       5.16365
_cell_length_c       9.97019
_cell_angle_alpha    89.7805
_cell_angle_beta     89.9256
_cell_angle_gamma    90.084

_symmetry_space_group_name_H-M    "P 1"
_symmetry_int_tables_number       1

loop_
  _symmetry_equiv_pos_as_xyz
  'x, y, z'

loop_
  _atom_site_label
  _atom_site_occupancy
  _atom_site_fract_x
  _atom_site_fract_y
  _atom_site_fract_z
  _atom_site_thermal_displace_type
  _atom_site_B_iso_or_equiv
  _atom_site_type_symbol
  Ru1      1.0000 0.13862  0.04112  0.12068  Biso   1.000  Ru
  Hf1      1.0000 0.13164  0.46751  0.37376  Biso   1.000  Hf
  Hf2      1.0000 0.36423  0.53827  0.12664  Biso   1.000  Hf
  Hf3      1.0000 0.36456  0.96900  0.37466  Biso   1.000  Hf
  O1       1.0000 0.03593  0.35208  0.19698  Biso   1.000  O
  O2       1.0000 0.03444  0.13713  0.45043  Biso   1.000  O
  O3       1.0000 0.46456  0.86822  0.19433  Biso   1.000  O
  O4       1.0000 0.46272  0.63333  0.44197  Biso   1.000  O
  O5       1.0000 0.26645  0.23611  0.24570  Biso   1.000  O
  O6       1.0000 0.27059  0.26691  0.49751  Biso   1.000  O
  O7       1.0000 0.22929  0.76593  0.50003  Biso   1.000  O
  O8       1.0000 0.22605  0.74771  0.24830  Biso   1.000  O
  Hf4      1.0000 0.13414  0.03308  0.62678  Biso   1.000  Hf
  Hf5      1.0000 0.13437  0.46588  0.87888  Biso   1.000  Hf
  Hf6      1.0000 0.36600  0.53373  0.62522  Biso   1.000  Hf
  Hf7      1.0000 0.36511  0.96512  0.87674  Biso   1.000  Hf
  O9       1.0000 0.03386  0.36298  0.70164  Biso   1.000  O
  O10      1.0000 0.03606  0.13015  0.95857  Biso   1.000  O
  O11      1.0000 0.46281  0.86968  0.69321  Biso   1.000  O
  O12      1.0000 0.45931  0.62550  0.94315  Biso   1.000  O
  O13      1.0000 0.27073  0.23616  0.75054  Biso   1.000  O
  O14      1.0000 0.27193  0.25451  0.00203  Biso   1.000  O
  O15      1.0000 0.22487  0.76316  0.00303  Biso   1.000  O
  O16      1.0000 0.22920  0.73326  0.75152  Biso   1.000  O
  Hf8      1.0000 0.63482  0.03395  0.12567  Biso   1.000  Hf
  Hf9      1.0000 0.63475  0.46979  0.37440  Biso   1.000  Hf
  Hf10     1.0000 0.87100  0.53235  0.12459  Biso   1.000  Hf
  Hf11     1.0000 0.86998  0.97087  0.37249  Biso   1.000  Hf
  O17      1.0000 0.53521  0.36949  0.19332  Biso   1.000  O
  O18      1.0000 0.53592  0.13388  0.44281  Biso   1.000  O
  O19      1.0000 0.97336  0.86157  0.19324  Biso   1.000  O
  O20      1.0000 0.96486  0.63416  0.44638  Biso   1.000  O
  O21      1.0000 0.76989  0.23652  0.24896  Biso   1.000  O
  O22      1.0000 0.77072  0.26754  0.49877  Biso   1.000  O
  O23      1.0000 0.73049  0.76779  0.49768  Biso   1.000  O
  O24      1.0000 0.73453  0.73650  0.24734  Biso   1.000  O
  Hf12     1.0000 0.63404  0.03327  0.62405  Biso   1.000  Hf
  Hf13     1.0000 0.63334  0.46607  0.87542  Biso   1.000  Hf
  Hf14     1.0000 0.86600  0.53271  0.62639  Biso   1.000  Hf
  Hf15     1.0000 0.86565  0.96699  0.87684  Biso   1.000  Hf
  O25      1.0000 0.53685  0.37046  0.69269  Biso   1.000  O
  O26      1.0000 0.53699  0.12751  0.94257  Biso   1.000  O
  O27      1.0000 0.96490  0.86691  0.69698  Biso   1.000  O
  O28      1.0000 0.96222  0.62853  0.94162  Biso   1.000  O
  O29      1.0000 0.76975  0.23441  0.74963  Biso   1.000  O
  O30      1.0000 0.77067  0.26471  0.99907  Biso   1.000  O
  O31      1.0000 0.72851  0.76365  0.99845  Biso   1.000  O
  O32      1.0000 0.72938  0.73592  0.74909  Biso   1.000  O
