data_image0
_cell_length_a       10.4129
_cell_length_b       10.4515
_cell_length_c       5.10581
_cell_angle_alpha    97.9719
_cell_angle_beta     94.3769
_cell_angle_gamma    89.1013

_symmetry_space_group_name_H-M    "P 1"
_symmetry_int_tables_number       1

loop_
  _symmetry_equiv_pos_as_xyz
  'x, y, z'

loop_
  _atom_site_label
  _atom_site_occupancy
  _atom_site_fract_x
  _atom_site_fract_y
  _atom_site_fract_z
  _atom_site_thermal_displace_type
  _atom_site_B_iso_or_equiv
  _atom_site_type_symbol
  Hf1      1.0000 0.10984  0.96552  0.39364  Biso   1.000  Hf
  Hf2      1.0000 0.14031  0.28973  0.61629  Biso   1.000  Hf
  Hf3      1.0000 0.37443  0.24774  0.18980  Biso   1.000  Hf
  Hf4      1.0000 0.40527  0.02363  0.69856  Biso   1.000  Hf
  O1       1.0000 0.92961  0.18967  0.97266  Biso   1.000  O
  O2       1.0000 0.00167  0.13140  0.49698  Biso   1.000  O
  O3       1.0000 0.99413  0.37811  0.39494  Biso   1.000  O
  O4       1.0000 0.04274  0.41360  0.88723  Biso   1.000  O
  O5       1.0000 0.24848  0.12385  0.51295  Biso   1.000  O
  O6       1.0000 0.32053  0.06559  0.03728  Biso   1.000  O
  O7       1.0000 0.30630  0.35102  0.87199  Biso   1.000  O
  O8       1.0000 0.25066  0.39555  0.40002  Biso   1.000  O
  Hf5      1.0000 0.10990  0.51466  0.23077  Biso   1.000  Hf
  Hf6      1.0000 0.14024  0.74060  0.77917  Biso   1.000  Hf
  Hf7      1.0000 0.35611  0.73379  0.26681  Biso   1.000  Hf
  Hf8      1.0000 0.38377  0.50963  0.71675  Biso   1.000  Hf
  O9       1.0000 0.00617  0.66195  0.02287  Biso   1.000  O
  O10      1.0000 0.00328  0.62089  0.51267  Biso   1.000  O
  O11      1.0000 0.99949  0.85970  0.60991  Biso   1.000  O
  O12      1.0000 0.94385  0.90422  0.13793  Biso   1.000  O
  O13      1.0000 0.24686  0.63437  0.49728  Biso   1.000  O
  O14      1.0000 0.24398  0.59330  0.98708  Biso   1.000  O
  O15      1.0000 0.20741  0.84164  0.12272  Biso   1.000  O
  O16      1.0000 0.25601  0.87715  0.61501  Biso   1.000  O
  Hf9      1.0000 0.63615  0.98001  0.29338  Biso   1.000  Hf
  Hf10     1.0000 0.61399  0.27525  0.71658  Biso   1.000  Hf
  Hf11     1.0000 0.84487  0.23162  0.31139  Biso   1.000  Hf
  Hf12     1.0000 0.87571  0.00750  0.82015  Biso   1.000  Hf
  O17      1.0000 0.49725  0.19005  0.92089  Biso   1.000  O
  O18      1.0000 0.50487  0.12101  0.43401  Biso   1.000  O
  O19      1.0000 0.50308  0.36953  0.43790  Biso   1.000  O
  O20      1.0000 0.54465  0.46248  0.92292  Biso   1.000  O
  O21      1.0000 0.74526  0.13425  0.57593  Biso   1.000  O
  O22      1.0000 0.75290  0.06520  0.08907  Biso   1.000  O
  O23      1.0000 0.71285  0.31804  0.08320  Biso   1.000  O
  O24      1.0000 0.75879  0.38937  0.56857  Biso   1.000  O
  Hf13     1.0000 0.65061  0.49146  0.27573  Biso   1.000  Hf
  Hf14     1.0000 0.59954  0.76380  0.73423  Biso   1.000  Hf
  Hf15     1.0000 0.86638  0.74562  0.29320  Biso   1.000  Hf
  Hf16     1.0000 0.89403  0.52146  0.74313  Biso   1.000  Hf
  O25      1.0000 0.44867  0.69630  0.92311  Biso   1.000  O
  O26      1.0000 0.49967  0.61473  0.44730  Biso   1.000  O
  O27      1.0000 0.49136  0.86589  0.44138  Biso   1.000  O
  O28      1.0000 0.53730  0.93722  0.92675  Biso   1.000  O
  O29      1.0000 0.75047  0.64052  0.56264  Biso   1.000  O
  O30      1.0000 0.80148  0.55896  0.08684  Biso   1.000  O
  O31      1.0000 0.70549  0.79278  0.08703  Biso   1.000  O
  O32      1.0000 0.74706  0.88573  0.57204  Biso   1.000  O
  Sb1      1.0000 0.12507  0.12763  0.00498  Biso   1.000  Sb
