data_image0
_cell_length_a       5.13563
_cell_length_b       10.45
_cell_length_c       10.5487
_cell_angle_alpha    88.7419
_cell_angle_beta     78.9268
_cell_angle_gamma    89.0106

_symmetry_space_group_name_H-M    "P 1"
_symmetry_int_tables_number       1

loop_
  _symmetry_equiv_pos_as_xyz
  'x, y, z'

loop_
  _atom_site_label
  _atom_site_occupancy
  _atom_site_fract_x
  _atom_site_fract_y
  _atom_site_fract_z
  _atom_site_thermal_displace_type
  _atom_site_B_iso_or_equiv
  _atom_site_type_symbol
  Hf1      1.0000 0.25785  0.00878  0.14235  Biso   1.000  Hf
  Hf2      1.0000 0.36943  0.24519  0.40931  Biso   1.000  Hf
  Hf3      1.0000 0.69468  0.26589  0.10185  Biso   1.000  Hf
  Hf4      1.0000 0.72413  0.49554  0.35785  Biso   1.000  Hf
  O1       1.0000 0.04400  0.15324  0.07097  Biso   1.000  O
  O2       1.0000 0.03788  0.04377  0.32735  Biso   1.000  O
  O3       1.0000 0.93668  0.42310  0.17533  Biso   1.000  O
  O4       1.0000 0.98573  0.38827  0.45207  Biso   1.000  O
  O5       1.0000 0.51440  0.11504  0.23814  Biso   1.000  O
  O6       1.0000 0.56758  0.10154  0.49458  Biso   1.000  O
  O7       1.0000 0.43258  0.37852  0.01299  Biso   1.000  O
  O8       1.0000 0.45868  0.38698  0.26086  Biso   1.000  O
  Hf5      1.0000 0.27431  0.02108  0.64488  Biso   1.000  Hf
  Hf6      1.0000 0.26674  0.22680  0.89404  Biso   1.000  Hf
  Hf7      1.0000 0.75479  0.28114  0.61314  Biso   1.000  Hf
  Hf8      1.0000 0.71592  0.47813  0.86128  Biso   1.000  Hf
  O9       1.0000 0.09207  0.17288  0.57086  Biso   1.000  O
  O10      1.0000 0.05574  0.08897  0.82219  Biso   1.000  O
  O11      1.0000 0.95000  0.40905  0.69218  Biso   1.000  O
  O12      1.0000 0.92467  0.33616  0.93214  Biso   1.000  O
  O13      1.0000 0.54447  0.13213  0.73891  Biso   1.000  O
  O14      1.0000 0.53556  0.12182  0.98851  Biso   1.000  O
  O15      1.0000 0.47876  0.38485  0.52212  Biso   1.000  O
  O16      1.0000 0.45810  0.37412  0.76640  Biso   1.000  O
  Hf9      1.0000 0.27720  0.52486  0.14730  Biso   1.000  Hf
  Hf10     1.0000 0.25955  0.72692  0.39832  Biso   1.000  Hf
  Hf11     1.0000 0.71331  0.76827  0.09956  Biso   1.000  Hf
  Hf12     1.0000 0.68597  0.96069  0.35132  Biso   1.000  Hf
  O17      1.0000 0.06098  0.66638  0.07249  Biso   1.000  O
  O18      1.0000 0.05786  0.59914  0.31805  Biso   1.000  O
  O19      1.0000 0.90905  0.90697  0.16592  Biso   1.000  O
  O20      1.0000 0.90436  0.82269  0.42399  Biso   1.000  O
  O21      1.0000 0.54720  0.63174  0.24247  Biso   1.000  O
  O22      1.0000 0.53385  0.62474  0.49427  Biso   1.000  O
  O23      1.0000 0.44133  0.87697  0.00512  Biso   1.000  O
  O24      1.0000 0.42380  0.86241  0.25552  Biso   1.000  O
  Hf13     1.0000 0.27332  0.52554  0.65259  Biso   1.000  Hf
  Hf14     1.0000 0.26695  0.72848  0.89494  Biso   1.000  Hf
  Hf15     1.0000 0.71419  0.77375  0.60684  Biso   1.000  Hf
  Hf16     1.0000 0.71665  0.98049  0.84999  Biso   1.000  Hf
  O25      1.0000 0.04898  0.66134  0.58113  Biso   1.000  O
  O26      1.0000 0.05856  0.58676  0.83013  Biso   1.000  O
  O27      1.0000 0.92470  0.91922  0.66877  Biso   1.000  O
  O28      1.0000 0.92602  0.83518  0.91647  Biso   1.000  O
  O29      1.0000 0.54196  0.62932  0.74205  Biso   1.000  O
  O30      1.0000 0.54490  0.62112  0.99099  Biso   1.000  O
  O31      1.0000 0.42180  0.87164  0.51155  Biso   1.000  O
  O32      1.0000 0.44437  0.87449  0.75925  Biso   1.000  O
  Sb1      1.0000 0.95102  0.23786  0.30568  Biso   1.000  Sb
