data_image0
_cell_length_a       10.2308
_cell_length_b       5.29557
_cell_length_c       10.3568
_cell_angle_alpha    90.982
_cell_angle_beta     89.0928
_cell_angle_gamma    101.432

_symmetry_space_group_name_H-M    "P 1"
_symmetry_int_tables_number       1

loop_
  _symmetry_equiv_pos_as_xyz
  'x, y, z'

loop_
  _atom_site_label
  _atom_site_occupancy
  _atom_site_fract_x
  _atom_site_fract_y
  _atom_site_fract_z
  _atom_site_thermal_displace_type
  _atom_site_B_iso_or_equiv
  _atom_site_type_symbol
  Hf1      1.0000 0.12512  0.99410  0.16126  Biso   1.000  Hf
  Hf2      1.0000 0.11993  0.51760  0.35121  Biso   1.000  Hf
  Hf3      1.0000 0.38963  0.41555  0.12120  Biso   1.000  Hf
  Hf4      1.0000 0.38902  0.95745  0.40480  Biso   1.000  Hf
  O1       1.0000 0.02048  0.33165  0.97946  Biso   1.000  O
  O2       1.0000 0.98530  0.21924  0.24211  Biso   1.000  O
  O3       1.0000 0.96740  0.72228  0.25854  Biso   1.000  O
  O4       1.0000 0.01569  0.82107  0.99599  Biso   1.000  O
  O5       1.0000 0.25140  0.31338  0.27964  Biso   1.000  O
  O6       1.0000 0.29456  0.05240  0.05055  Biso   1.000  O
  O7       1.0000 0.26393  0.58430  0.95384  Biso   1.000  O
  O8       1.0000 0.22915  0.85486  0.29378  Biso   1.000  O
  Hf5      1.0000 0.10699  0.05448  0.64040  Biso   1.000  Hf
  Hf6      1.0000 0.10021  0.57275  0.82649  Biso   1.000  Hf
  Hf7      1.0000 0.38876  0.46463  0.60323  Biso   1.000  Hf
  Hf8      1.0000 0.39067  0.95433  0.89412  Biso   1.000  Hf
  O9       1.0000 0.02142  0.26947  0.49447  Biso   1.000  O
  O10      1.0000 0.96700  0.24551  0.74457  Biso   1.000  O
  O11      1.0000 0.96573  0.75098  0.73831  Biso   1.000  O
  O12      1.0000 0.02432  0.77385  0.50156  Biso   1.000  O
  O13      1.0000 0.21244  0.41266  0.70679  Biso   1.000  O
  O14      1.0000 0.28116  0.10857  0.54000  Biso   1.000  O
  O15      1.0000 0.28088  0.61560  0.47975  Biso   1.000  O
  O16      1.0000 0.21590  0.92256  0.78489  Biso   1.000  O
  Hf9      1.0000 0.61247  0.02838  0.14593  Biso   1.000  Hf
  Hf10     1.0000 0.61125  0.54177  0.35399  Biso   1.000  Hf
  Hf11     1.0000 0.88208  0.48895  0.10371  Biso   1.000  Hf
  Hf12     1.0000 0.89010  0.95964  0.39248  Biso   1.000  Hf
  O17      1.0000 0.52827  0.25991  0.99727  Biso   1.000  O
  O18      1.0000 0.48321  0.21065  0.25422  Biso   1.000  O
  O19      1.0000 0.47739  0.71404  0.25072  Biso   1.000  O
  O20      1.0000 0.51446  0.75447  0.00495  Biso   1.000  O
  O21      1.0000 0.71716  0.39871  0.21390  Biso   1.000  O
  O22      1.0000 0.78409  0.12156  0.03660  Biso   1.000  O
  O23      1.0000 0.77649  0.62079  0.96324  Biso   1.000  O
  O24      1.0000 0.72056  0.89920  0.28351  Biso   1.000  O
  Hf13     1.0000 0.61147  0.04825  0.64781  Biso   1.000  Hf
  Hf14     1.0000 0.60681  0.54342  0.85605  Biso   1.000  Hf
  Hf15     1.0000 0.88237  0.46617  0.59491  Biso   1.000  Hf
  Hf16     1.0000 0.88205  0.98150  0.89291  Biso   1.000  Hf
  O25      1.0000 0.52514  0.27727  0.49845  Biso   1.000  O
  O26      1.0000 0.47274  0.23008  0.75616  Biso   1.000  O
  O27      1.0000 0.47113  0.72740  0.74987  Biso   1.000  O
  O28      1.0000 0.52672  0.77661  0.50561  Biso   1.000  O
  O29      1.0000 0.71575  0.40970  0.71186  Biso   1.000  O
  O30      1.0000 0.77750  0.10801  0.53353  Biso   1.000  O
  O31      1.0000 0.77817  0.61084  0.46246  Biso   1.000  O
  O32      1.0000 0.71084  0.90695  0.78877  Biso   1.000  O
  Si1      1.0000 0.15172  0.48014  0.07687  Biso   1.000  Si
