data_image0
_cell_length_a       10.0045
_cell_length_b       10.1028
_cell_length_c       4.99291
_cell_angle_alpha    90.0046
_cell_angle_beta     89.9999
_cell_angle_gamma    89.9999

_symmetry_space_group_name_H-M    "P 1"
_symmetry_int_tables_number       1

loop_
  _symmetry_equiv_pos_as_xyz
  'x, y, z'

loop_
  _atom_site_label
  _atom_site_occupancy
  _atom_site_fract_x
  _atom_site_fract_y
  _atom_site_fract_z
  _atom_site_thermal_displace_type
  _atom_site_B_iso_or_equiv
  _atom_site_type_symbol
  Si1      1.0000 0.12522  0.00005  0.24981  Biso   1.000  Si
  Hf1      1.0000 0.12521  0.25245  0.74984  Biso   1.000  Hf
  Hf2      1.0000 0.37268  0.24763  0.26256  Biso   1.000  Hf
  Hf3      1.0000 0.37418  0.00005  0.74982  Biso   1.000  Hf
  O1       1.0000 0.97436  0.15447  0.93264  Biso   1.000  O
  O2       1.0000 0.02664  0.09305  0.44213  Biso   1.000  O
  O3       1.0000 0.99446  0.35054  0.49902  Biso   1.000  O
  O4       1.0000 0.00647  0.39774  0.99618  Biso   1.000  O
  O5       1.0000 0.27609  0.15448  0.56707  Biso   1.000  O
  O6       1.0000 0.22383  0.09305  0.05756  Biso   1.000  O
  O7       1.0000 0.25597  0.35054  0.00073  Biso   1.000  O
  O8       1.0000 0.24396  0.39774  0.50358  Biso   1.000  O
  Hf4      1.0000 0.12526  0.50005  0.24982  Biso   1.000  Hf
  Hf5      1.0000 0.12521  0.74764  0.74979  Biso   1.000  Hf
  Hf6      1.0000 0.37268  0.75247  0.23707  Biso   1.000  Hf
  Hf7      1.0000 0.37825  0.50005  0.74982  Biso   1.000  Hf
  O9       1.0000 0.99446  0.64956  0.00062  Biso   1.000  O
  O10      1.0000 0.00648  0.60235  0.50346  Biso   1.000  O
  O11      1.0000 0.97436  0.84562  0.56700  Biso   1.000  O
  O12      1.0000 0.02664  0.90705  0.05751  Biso   1.000  O
  O13      1.0000 0.25597  0.64955  0.49890  Biso   1.000  O
  O14      1.0000 0.24395  0.60236  0.99606  Biso   1.000  O
  O15      1.0000 0.27610  0.84562  0.93256  Biso   1.000  O
  O16      1.0000 0.22383  0.90705  0.44207  Biso   1.000  O
  Hf8      1.0000 0.62525  0.00005  0.24982  Biso   1.000  Hf
  Hf9      1.0000 0.62522  0.24948  0.74981  Biso   1.000  Hf
  Hf10     1.0000 0.87774  0.24766  0.23710  Biso   1.000  Hf
  Hf11     1.0000 0.87628  0.00005  0.74982  Biso   1.000  Hf
  O17      1.0000 0.47956  0.14088  0.98813  Biso   1.000  O
  O18      1.0000 0.51609  0.10972  0.49901  Biso   1.000  O
  O19      1.0000 0.49346  0.35861  0.50204  Biso   1.000  O
  O20      1.0000 0.50771  0.39100  0.99640  Biso   1.000  O
  O21      1.0000 0.77089  0.14086  0.51148  Biso   1.000  O
  O22      1.0000 0.73435  0.10974  0.00060  Biso   1.000  O
  O23      1.0000 0.75699  0.35862  0.99753  Biso   1.000  O
  O24      1.0000 0.74275  0.39098  0.50316  Biso   1.000  O
  Hf12     1.0000 0.62523  0.50004  0.24982  Biso   1.000  Hf
  Hf13     1.0000 0.62522  0.75062  0.74983  Biso   1.000  Hf
  Hf14     1.0000 0.87774  0.75243  0.26254  Biso   1.000  Hf
  Hf15     1.0000 0.87224  0.50005  0.74982  Biso   1.000  Hf
  O25      1.0000 0.49346  0.64149  0.99761  Biso   1.000  O
  O26      1.0000 0.50771  0.60909  0.50324  Biso   1.000  O
  O27      1.0000 0.47956  0.85922  0.51151  Biso   1.000  O
  O28      1.0000 0.51609  0.89038  0.00063  Biso   1.000  O
  O29      1.0000 0.75698  0.64147  0.50210  Biso   1.000  O
  O30      1.0000 0.74275  0.60911  0.99647  Biso   1.000  O
  O31      1.0000 0.77089  0.85924  0.98815  Biso   1.000  O
  O32      1.0000 0.73435  0.89036  0.49904  Biso   1.000  O
