data_image0
_cell_length_a       10.1189
_cell_length_b       5.17298
_cell_length_c       10.5822
_cell_angle_alpha    89.6142
_cell_angle_beta     92.5641
_cell_angle_gamma    89.9

_symmetry_space_group_name_H-M    "P 1"
_symmetry_int_tables_number       1

loop_
  _symmetry_equiv_pos_as_xyz
  'x, y, z'

loop_
  _atom_site_label
  _atom_site_occupancy
  _atom_site_fract_x
  _atom_site_fract_y
  _atom_site_fract_z
  _atom_site_thermal_displace_type
  _atom_site_B_iso_or_equiv
  _atom_site_type_symbol
  Hf1      1.0000 0.12843  0.03851  0.17733  Biso   1.000  Hf
  Hf2      1.0000 0.13597  0.45489  0.42841  Biso   1.000  Hf
  Hf3      1.0000 0.34278  0.53889  0.19317  Biso   1.000  Hf
  Hf4      1.0000 0.36227  0.95785  0.42990  Biso   1.000  Hf
  Hf5      1.0000 0.65090  0.04192  0.07193  Biso   1.000  Hf
  Hf6      1.0000 0.63661  0.46189  0.33073  Biso   1.000  Hf
  Hf7      1.0000 0.86003  0.53996  0.07576  Biso   1.000  Hf
  Hf8      1.0000 0.85879  0.95956  0.32859  Biso   1.000  Hf
  O1       1.0000 0.03076  0.33550  0.08783  Biso   1.000  O
  O2       1.0000 0.02755  0.17173  0.33776  Biso   1.000  O
  O3       1.0000 0.47111  0.87674  0.10040  Biso   1.000  O
  O4       1.0000 0.46479  0.67768  0.33869  Biso   1.000  O
  O5       1.0000 0.26638  0.25122  0.30358  Biso   1.000  O
  O6       1.0000 0.26101  0.21979  0.05470  Biso   1.000  O
  O7       1.0000 0.21665  0.75382  0.30914  Biso   1.000  O
  O8       1.0000 0.21336  0.74727  0.06241  Biso   1.000  O
  O9       1.0000 0.51812  0.31686  0.18921  Biso   1.000  O
  O10      1.0000 0.52977  0.17965  0.42400  Biso   1.000  O
  O11      1.0000 0.95826  0.83421  0.16854  Biso   1.000  O
  O12      1.0000 0.96739  0.67105  0.41851  Biso   1.000  O
  O13      1.0000 0.77612  0.25146  0.45120  Biso   1.000  O
  O14      1.0000 0.77250  0.25622  0.20134  Biso   1.000  O
  O15      1.0000 0.72734  0.75411  0.45469  Biso   1.000  O
  O16      1.0000 0.72102  0.74928  0.20482  Biso   1.000  O
  Hf9      1.0000 0.14688  0.04047  0.67652  Biso   1.000  Hf
  Hf10     1.0000 0.14564  0.46006  0.92936  Biso   1.000  Hf
  Hf11     1.0000 0.36905  0.53814  0.67438  Biso   1.000  Hf
  Hf12     1.0000 0.35478  0.95810  0.93318  Biso   1.000  Hf
  Hf13     1.0000 0.64339  0.04217  0.57521  Biso   1.000  Hf
  Hf14     1.0000 0.66289  0.46115  0.81194  Biso   1.000  Hf
  Hf15     1.0000 0.86970  0.54514  0.57670  Biso   1.000  Hf
  Hf16     1.0000 0.87724  0.96152  0.82779  Biso   1.000  Hf
  O17      1.0000 0.03827  0.32898  0.58660  Biso   1.000  O
  O18      1.0000 0.04740  0.16582  0.83657  Biso   1.000  O
  O19      1.0000 0.47589  0.82038  0.58112  Biso   1.000  O
  O20      1.0000 0.48754  0.68317  0.81591  Biso   1.000  O
  O21      1.0000 0.28465  0.25073  0.80030  Biso   1.000  O
  O22      1.0000 0.27833  0.24592  0.55043  Biso   1.000  O
  O23      1.0000 0.23316  0.74380  0.80377  Biso   1.000  O
  O24      1.0000 0.22955  0.74857  0.55392  Biso   1.000  O
  O25      1.0000 0.54087  0.32235  0.66642  Biso   1.000  O
  O26      1.0000 0.53456  0.12327  0.90471  Biso   1.000  O
  O27      1.0000 0.97812  0.82830  0.66736  Biso   1.000  O
  O28      1.0000 0.97491  0.66452  0.91729  Biso   1.000  O
  O29      1.0000 0.79230  0.25274  0.94271  Biso   1.000  O
  O30      1.0000 0.78902  0.24621  0.69597  Biso   1.000  O
  O31      1.0000 0.74466  0.78023  0.95041  Biso   1.000  O
  O32      1.0000 0.73929  0.74881  0.70154  Biso   1.000  O
  Sn1      1.0000 0.50283  0.50001  0.00255  Biso   1.000  Sn
