data_image0
_cell_length_a       5.1294
_cell_length_b       10.3426
_cell_length_c       10.2034
_cell_angle_alpha    91.0609
_cell_angle_beta     90.5438
_cell_angle_gamma    96.1177

_symmetry_space_group_name_H-M    "P 1"
_symmetry_int_tables_number       1

loop_
  _symmetry_equiv_pos_as_xyz
  'x, y, z'

loop_
  _atom_site_label
  _atom_site_occupancy
  _atom_site_fract_x
  _atom_site_fract_y
  _atom_site_fract_z
  _atom_site_thermal_displace_type
  _atom_site_B_iso_or_equiv
  _atom_site_type_symbol
  Hf1      1.0000 0.30967  0.96836  0.07735  Biso   1.000  Hf
  Hf2      1.0000 0.24616  0.23597  0.39674  Biso   1.000  Hf
  Hf3      1.0000 0.63190  0.27275  0.12765  Biso   1.000  Hf
  Hf4      1.0000 0.73045  0.50297  0.35280  Biso   1.000  Hf
  O1       1.0000 0.86852  0.21646  0.29674  Biso   1.000  O
  O2       1.0000 0.04645  0.06541  0.46038  Biso   1.000  O
  O3       1.0000 0.88762  0.44141  0.18104  Biso   1.000  O
  O4       1.0000 0.03796  0.33621  0.51939  Biso   1.000  O
  O5       1.0000 0.41175  0.11710  0.24203  Biso   1.000  O
  O6       1.0000 0.52727  0.13495  0.49600  Biso   1.000  O
  O7       1.0000 0.52896  0.38966  0.48919  Biso   1.000  O
  O8       1.0000 0.38360  0.37995  0.24808  Biso   1.000  O
  Hf5      1.0000 0.27456  0.98205  0.59622  Biso   1.000  Hf
  Hf6      1.0000 0.18271  0.25770  0.83119  Biso   1.000  Hf
  Hf7      1.0000 0.70953  0.27043  0.62493  Biso   1.000  Hf
  Hf8      1.0000 0.72207  0.47885  0.88403  Biso   1.000  Hf
  O9       1.0000 0.94341  0.14974  0.70940  Biso   1.000  O
  O10      1.0000 0.10328  0.07580  0.93431  Biso   1.000  O
  O11      1.0000 0.97720  0.40999  0.73918  Biso   1.000  O
  O12      1.0000 0.86348  0.31218  0.94918  Biso   1.000  O
  O13      1.0000 0.45809  0.12289  0.74457  Biso   1.000  O
  O14      1.0000 0.60676  0.10278  0.01325  Biso   1.000  O
  O15      1.0000 0.39841  0.37531  0.99273  Biso   1.000  O
  O16      1.0000 0.46727  0.37333  0.73539  Biso   1.000  O
  Hf9      1.0000 0.25005  0.53030  0.12337  Biso   1.000  Hf
  Hf10     1.0000 0.31114  0.74072  0.37687  Biso   1.000  Hf
  Hf11     1.0000 0.77769  0.77442  0.12078  Biso   1.000  Hf
  Hf12     1.0000 0.71820  0.02800  0.34016  Biso   1.000  Hf
  O17      1.0000 0.06431  0.68374  0.21492  Biso   1.000  O
  O18      1.0000 0.07436  0.56800  0.44019  Biso   1.000  O
  O19      1.0000 0.96017  0.95488  0.19325  Biso   1.000  O
  O20      1.0000 0.05820  0.82023  0.49349  Biso   1.000  O
  O21      1.0000 0.54483  0.63025  0.24536  Biso   1.000  O
  O22      1.0000 0.55059  0.63793  0.49385  Biso   1.000  O
  O23      1.0000 0.55249  0.89160  0.47943  Biso   1.000  O
  O24      1.0000 0.48936  0.86939  0.22898  Biso   1.000  O
  Hf13     1.0000 0.25627  0.50427  0.60799  Biso   1.000  Hf
  Hf14     1.0000 0.31206  0.72333  0.86216  Biso   1.000  Hf
  Hf15     1.0000 0.77798  0.76008  0.62887  Biso   1.000  Hf
  Hf16     1.0000 0.73879  0.01691  0.84012  Biso   1.000  Hf
  O25      1.0000 0.08514  0.65891  0.69672  Biso   1.000  O
  O26      1.0000 0.06733  0.57193  0.95114  Biso   1.000  O
  O27      1.0000 0.98932  0.91028  0.72670  Biso   1.000  O
  O28      1.0000 0.07937  0.81646  0.98914  Biso   1.000  O
  O29      1.0000 0.56483  0.61293  0.74791  Biso   1.000  O
  O30      1.0000 0.55349  0.62735  0.99921  Biso   1.000  O
  O31      1.0000 0.57697  0.86693  0.96763  Biso   1.000  O
  O32      1.0000 0.49479  0.86402  0.72606  Biso   1.000  O
  Sr1      1.0000 0.10576  0.21604  0.11064  Biso   1.000  Sr
