data_image0
_cell_length_a       5.04636
_cell_length_b       10.252
_cell_length_c       10.4536
_cell_angle_alpha    90.0033
_cell_angle_beta     80.0253
_cell_angle_gamma    89.8532

_symmetry_space_group_name_H-M    "P 1"
_symmetry_int_tables_number       1

loop_
  _symmetry_equiv_pos_as_xyz
  'x, y, z'

loop_
  _atom_site_label
  _atom_site_occupancy
  _atom_site_fract_x
  _atom_site_fract_y
  _atom_site_fract_z
  _atom_site_thermal_displace_type
  _atom_site_B_iso_or_equiv
  _atom_site_type_symbol
  Ta1      1.0000 0.28201  0.02275  0.14736  Biso   1.000  Ta
  Hf1      1.0000 0.28134  0.22919  0.39538  Biso   1.000  Hf
  Hf2      1.0000 0.72209  0.27151  0.10453  Biso   1.000  Hf
  Hf3      1.0000 0.72325  0.47899  0.35361  Biso   1.000  Hf
  O1       1.0000 0.07257  0.16434  0.08070  Biso   1.000  O
  O2       1.0000 0.08364  0.07805  0.32553  Biso   1.000  O
  O3       1.0000 0.92988  0.41861  0.16935  Biso   1.000  O
  O4       1.0000 0.92823  0.32912  0.41826  Biso   1.000  O
  O5       1.0000 0.55850  0.12754  0.24053  Biso   1.000  O
  O6       1.0000 0.55805  0.12056  0.49004  Biso   1.000  O
  O7       1.0000 0.44495  0.37848  0.00985  Biso   1.000  O
  O8       1.0000 0.44849  0.37102  0.25927  Biso   1.000  O
  Hf4      1.0000 0.27756  0.02095  0.64561  Biso   1.000  Hf
  Hf5      1.0000 0.27692  0.22816  0.89505  Biso   1.000  Hf
  Hf6      1.0000 0.72267  0.27128  0.60368  Biso   1.000  Hf
  Hf7      1.0000 0.72041  0.47853  0.85466  Biso   1.000  Hf
  O9       1.0000 0.07204  0.16798  0.57796  Biso   1.000  O
  O10      1.0000 0.06821  0.08142  0.82933  Biso   1.000  O
  O11      1.0000 0.92921  0.41830  0.67013  Biso   1.000  O
  O12      1.0000 0.92689  0.32949  0.92088  Biso   1.000  O
  O13      1.0000 0.55245  0.12899  0.74049  Biso   1.000  O
  O14      1.0000 0.54639  0.12038  0.99229  Biso   1.000  O
  O15      1.0000 0.44675  0.37888  0.50928  Biso   1.000  O
  O16      1.0000 0.44587  0.37088  0.75960  Biso   1.000  O
  Hf8      1.0000 0.27761  0.52282  0.14565  Biso   1.000  Hf
  Hf9      1.0000 0.28007  0.72841  0.39591  Biso   1.000  Hf
  Hf10     1.0000 0.71963  0.77591  0.10411  Biso   1.000  Hf
  Hf11     1.0000 0.72392  0.97800  0.35347  Biso   1.000  Hf
  O17      1.0000 0.06820  0.66974  0.08105  Biso   1.000  O
  O18      1.0000 0.07232  0.58041  0.33069  Biso   1.000  O
  O19      1.0000 0.94248  0.92015  0.16896  Biso   1.000  O
  O20      1.0000 0.93198  0.83183  0.42049  Biso   1.000  O
  O21      1.0000 0.55324  0.63080  0.24036  Biso   1.000  O
  O22      1.0000 0.55601  0.62089  0.49094  Biso   1.000  O
  O23      1.0000 0.42780  0.88158  0.01067  Biso   1.000  O
  O24      1.0000 0.44427  0.87414  0.25931  Biso   1.000  O
  Hf12     1.0000 0.27813  0.52153  0.64629  Biso   1.000  Hf
  Hf13     1.0000 0.27504  0.72857  0.89692  Biso   1.000  Hf
  Hf14     1.0000 0.72234  0.77132  0.60457  Biso   1.000  Hf
  Hf15     1.0000 0.71907  0.97874  0.85468  Biso   1.000  Hf
  O25      1.0000 0.07255  0.66904  0.58008  Biso   1.000  O
  O26      1.0000 0.06954  0.58063  0.83053  Biso   1.000  O
  O27      1.0000 0.92780  0.91906  0.67044  Biso   1.000  O
  O28      1.0000 0.92156  0.83075  0.92033  Biso   1.000  O
  O29      1.0000 0.55298  0.62880  0.74108  Biso   1.000  O
  O30      1.0000 0.55227  0.62183  0.99101  Biso   1.000  O
  O31      1.0000 0.44834  0.87868  0.50929  Biso   1.000  O
  O32      1.0000 0.44446  0.87098  0.75983  Biso   1.000  O
