data_image0
_cell_length_a       10.1089
_cell_length_b       10.191
_cell_length_c       5.2919
_cell_angle_alpha    90.1042
_cell_angle_beta     90.6163
_cell_angle_gamma    89.6299

_symmetry_space_group_name_H-M    "P 1"
_symmetry_int_tables_number       1

loop_
  _symmetry_equiv_pos_as_xyz
  'x, y, z'

loop_
  _atom_site_label
  _atom_site_occupancy
  _atom_site_fract_x
  _atom_site_fract_y
  _atom_site_fract_z
  _atom_site_thermal_displace_type
  _atom_site_B_iso_or_equiv
  _atom_site_type_symbol
  Hf1      1.0000 0.13735  0.01992  0.34874  Biso   1.000  Hf
  Hf2      1.0000 0.14152  0.22806  0.84647  Biso   1.000  Hf
  Hf3      1.0000 0.35799  0.26654  0.35423  Biso   1.000  Hf
  Hf4      1.0000 0.36227  0.47834  0.84881  Biso   1.000  Hf
  Hf5      1.0000 0.63583  0.00215  0.16124  Biso   1.000  Hf
  Hf6      1.0000 0.63644  0.22755  0.64370  Biso   1.000  Hf
  Hf7      1.0000 0.87637  0.27754  0.14661  Biso   1.000  Hf
  Hf8      1.0000 0.86285  0.47931  0.65250  Biso   1.000  Hf
  O1       1.0000 0.03326  0.15505  0.15003  Biso   1.000  O
  O2       1.0000 0.02648  0.09499  0.65314  Biso   1.000  O
  O3       1.0000 0.47730  0.40168  0.16110  Biso   1.000  O
  O4       1.0000 0.46997  0.34361  0.65410  Biso   1.000  O
  O5       1.0000 0.27102  0.12399  0.59908  Biso   1.000  O
  O6       1.0000 0.27394  0.12317  0.09850  Biso   1.000  O
  O7       1.0000 0.22519  0.37494  0.59798  Biso   1.000  O
  O8       1.0000 0.22769  0.37554  0.09607  Biso   1.000  O
  O9       1.0000 0.51376  0.13404  0.37651  Biso   1.000  O
  O10      1.0000 0.52156  0.10633  0.88543  Biso   1.000  O
  O11      1.0000 0.97477  0.41410  0.34817  Biso   1.000  O
  O12      1.0000 0.97751  0.34439  0.83902  Biso   1.000  O
  O13      1.0000 0.76516  0.12790  0.91003  Biso   1.000  O
  O14      1.0000 0.76484  0.13060  0.38575  Biso   1.000  O
  O15      1.0000 0.72825  0.37761  0.90216  Biso   1.000  O
  O16      1.0000 0.72488  0.37753  0.39370  Biso   1.000  O
  Hf9      1.0000 0.14121  0.52259  0.35106  Biso   1.000  Hf
  Hf10     1.0000 0.13824  0.73038  0.84862  Biso   1.000  Hf
  Hf11     1.0000 0.36082  0.76964  0.35148  Biso   1.000  Hf
  Hf12     1.0000 0.36287  0.97943  0.85180  Biso   1.000  Hf
  Hf13     1.0000 0.64321  0.52797  0.15163  Biso   1.000  Hf
  Hf14     1.0000 0.63919  0.72794  0.65585  Biso   1.000  Hf
  Hf15     1.0000 0.86564  0.77180  0.15742  Biso   1.000  Hf
  Hf16     1.0000 0.86018  0.98380  0.65763  Biso   1.000  Hf
  O17      1.0000 0.03344  0.66225  0.16058  Biso   1.000  O
  O18      1.0000 0.03108  0.59285  0.65998  Biso   1.000  O
  O19      1.0000 0.46867  0.89441  0.14191  Biso   1.000  O
  O20      1.0000 0.47479  0.84858  0.64711  Biso   1.000  O
  O21      1.0000 0.27658  0.62404  0.60049  Biso   1.000  O
  O22      1.0000 0.27656  0.62463  0.09801  Biso   1.000  O
  O23      1.0000 0.22575  0.87331  0.59864  Biso   1.000  O
  O24      1.0000 0.22402  0.87632  0.09786  Biso   1.000  O
  O25      1.0000 0.52908  0.65605  0.35354  Biso   1.000  O
  O26      1.0000 0.52885  0.59295  0.84905  Biso   1.000  O
  O27      1.0000 0.96849  0.91215  0.34734  Biso   1.000  O
  O28      1.0000 0.97005  0.84469  0.84555  Biso   1.000  O
  O29      1.0000 0.77838  0.62646  0.90393  Biso   1.000  O
  O30      1.0000 0.77776  0.62732  0.40613  Biso   1.000  O
  O31      1.0000 0.72654  0.87243  0.90933  Biso   1.000  O
  O32      1.0000 0.73012  0.87140  0.41746  Biso   1.000  O
  Ti1      1.0000 0.62112  0.25204  0.13510  Biso   1.000  Ti
