data_image0
_cell_length_a       10.1812
_cell_length_b       5.14655
_cell_length_c       10.4741
_cell_angle_alpha    90.0433
_cell_angle_beta     80.4544
_cell_angle_gamma    90.0854

_symmetry_space_group_name_H-M    "P 1"
_symmetry_int_tables_number       1

loop_
  _symmetry_equiv_pos_as_xyz
  'x, y, z'

loop_
  _atom_site_label
  _atom_site_occupancy
  _atom_site_fract_x
  _atom_site_fract_y
  _atom_site_fract_z
  _atom_site_thermal_displace_type
  _atom_site_B_iso_or_equiv
  _atom_site_type_symbol
  Tl1      1.0000 0.13418  0.03037  0.14324  Biso   1.000  Tl
  Hf1      1.0000 0.14023  0.45460  0.39595  Biso   1.000  Hf
  Hf2      1.0000 0.36156  0.53511  0.10372  Biso   1.000  Hf
  Hf3      1.0000 0.35979  0.95607  0.35289  Biso   1.000  Hf
  O1       1.0000 0.03740  0.36820  0.07817  Biso   1.000  O
  O2       1.0000 0.02745  0.16538  0.34391  Biso   1.000  O
  O3       1.0000 0.46648  0.83180  0.17050  Biso   1.000  O
  O4       1.0000 0.46411  0.66297  0.42170  Biso   1.000  O
  O5       1.0000 0.28193  0.25609  0.24441  Biso   1.000  O
  O6       1.0000 0.27554  0.24078  0.49132  Biso   1.000  O
  O7       1.0000 0.23353  0.75009  0.00178  Biso   1.000  O
  O8       1.0000 0.22954  0.72501  0.26158  Biso   1.000  O
  Hf4      1.0000 0.14012  0.04210  0.64567  Biso   1.000  Hf
  Hf5      1.0000 0.14115  0.46019  0.89459  Biso   1.000  Hf
  Hf6      1.0000 0.36056  0.54271  0.60382  Biso   1.000  Hf
  Hf7      1.0000 0.36347  0.95900  0.85317  Biso   1.000  Hf
  O9       1.0000 0.03578  0.34168  0.58370  Biso   1.000  O
  O10      1.0000 0.03636  0.16077  0.83035  Biso   1.000  O
  O11      1.0000 0.46660  0.83428  0.67006  Biso   1.000  O
  O12      1.0000 0.47074  0.66914  0.92001  Biso   1.000  O
  O13      1.0000 0.27632  0.25768  0.73815  Biso   1.000  O
  O14      1.0000 0.28514  0.25307  0.98062  Biso   1.000  O
  O15      1.0000 0.22348  0.75771  0.50987  Biso   1.000  O
  O16      1.0000 0.22511  0.74406  0.75741  Biso   1.000  O
  Hf8      1.0000 0.63893  0.03815  0.14624  Biso   1.000  Hf
  Hf9      1.0000 0.63646  0.45670  0.39642  Biso   1.000  Hf
  Hf10     1.0000 0.85848  0.53757  0.10357  Biso   1.000  Hf
  Hf11     1.0000 0.85617  0.95784  0.35735  Biso   1.000  Hf
  O17      1.0000 0.53718  0.33342  0.07847  Biso   1.000  O
  O18      1.0000 0.53436  0.16213  0.32960  Biso   1.000  O
  O19      1.0000 0.94395  0.84731  0.17147  Biso   1.000  O
  O20      1.0000 0.96460  0.66405  0.42020  Biso   1.000  O
  O21      1.0000 0.77355  0.25948  0.24217  Biso   1.000  O
  O22      1.0000 0.77337  0.24434  0.49240  Biso   1.000  O
  O23      1.0000 0.72406  0.75688  0.00877  Biso   1.000  O
  O24      1.0000 0.71705  0.74083  0.26246  Biso   1.000  O
  Hf12     1.0000 0.63927  0.04338  0.64629  Biso   1.000  Hf
  Hf13     1.0000 0.64033  0.45861  0.89569  Biso   1.000  Hf
  Hf14     1.0000 0.86113  0.54276  0.60426  Biso   1.000  Hf
  Hf15     1.0000 0.86164  0.95823  0.85426  Biso   1.000  Hf
  O25      1.0000 0.53346  0.33387  0.57997  Biso   1.000  O
  O26      1.0000 0.53756  0.16530  0.82800  Biso   1.000  O
  O27      1.0000 0.96498  0.83934  0.66898  Biso   1.000  O
  O28      1.0000 0.96423  0.66266  0.91702  Biso   1.000  O
  O29      1.0000 0.77752  0.25875  0.74017  Biso   1.000  O
  O30      1.0000 0.77622  0.23931  0.99012  Biso   1.000  O
  O31      1.0000 0.72325  0.75749  0.51070  Biso   1.000  O
  O32      1.0000 0.72569  0.74273  0.75879  Biso   1.000  O
