data_image0
_cell_length_a       4.99128
_cell_length_b       10.3946
_cell_length_c       10.0532
_cell_angle_alpha    90.0559
_cell_angle_beta     89.9509
_cell_angle_gamma    89.9772

_symmetry_space_group_name_H-M    "P 1"
_symmetry_int_tables_number       1

loop_
  _symmetry_equiv_pos_as_xyz
  'x, y, z'

loop_
  _atom_site_label
  _atom_site_occupancy
  _atom_site_fract_x
  _atom_site_fract_y
  _atom_site_fract_z
  _atom_site_thermal_displace_type
  _atom_site_B_iso_or_equiv
  _atom_site_type_symbol
  Tl1      1.0000 0.25551  0.01510  0.12053  Biso   1.000  Tl
  Hf1      1.0000 0.26974  0.23283  0.37743  Biso   1.000  Hf
  Hf2      1.0000 0.72437  0.26719  0.12805  Biso   1.000  Hf
  Hf3      1.0000 0.73030  0.48363  0.37719  Biso   1.000  Hf
  O1       1.0000 0.07104  0.19503  0.19736  Biso   1.000  O
  O2       1.0000 0.07096  0.06551  0.44454  Biso   1.000  O
  O3       1.0000 0.92601  0.43517  0.19555  Biso   1.000  O
  O4       1.0000 0.92692  0.31698  0.44459  Biso   1.000  O
  O5       1.0000 0.55430  0.12522  0.25604  Biso   1.000  O
  O6       1.0000 0.53896  0.13205  0.50223  Biso   1.000  O
  O7       1.0000 0.45892  0.38281  0.50070  Biso   1.000  O
  O8       1.0000 0.45555  0.37008  0.25152  Biso   1.000  O
  Hf4      1.0000 0.26547  0.01726  0.62769  Biso   1.000  Hf
  Hf5      1.0000 0.26899  0.23473  0.87311  Biso   1.000  Hf
  Hf6      1.0000 0.73237  0.26718  0.62502  Biso   1.000  Hf
  Hf7      1.0000 0.73188  0.48298  0.87669  Biso   1.000  Hf
  O9       1.0000 0.07924  0.18921  0.68736  Biso   1.000  O
  O10      1.0000 0.07684  0.06641  0.91695  Biso   1.000  O
  O11      1.0000 0.92904  0.43461  0.69606  Biso   1.000  O
  O12      1.0000 0.92940  0.31654  0.94535  Biso   1.000  O
  O13      1.0000 0.54606  0.11907  0.74790  Biso   1.000  O
  O14      1.0000 0.55446  0.13424  0.99480  Biso   1.000  O
  O15      1.0000 0.45824  0.38215  0.00025  Biso   1.000  O
  O16      1.0000 0.46096  0.36882  0.74963  Biso   1.000  O
  Hf8      1.0000 0.26885  0.51560  0.12699  Biso   1.000  Hf
  Hf9      1.0000 0.26794  0.73349  0.37800  Biso   1.000  Hf
  Hf10     1.0000 0.73248  0.76263  0.12641  Biso   1.000  Hf
  Hf11     1.0000 0.72689  0.98375  0.37803  Biso   1.000  Hf
  O17      1.0000 0.07547  0.68347  0.19634  Biso   1.000  O
  O18      1.0000 0.07101  0.56518  0.44626  Biso   1.000  O
  O19      1.0000 0.90652  0.93169  0.19792  Biso   1.000  O
  O20      1.0000 0.92897  0.81543  0.44731  Biso   1.000  O
  O21      1.0000 0.54201  0.61449  0.24986  Biso   1.000  O
  O22      1.0000 0.54007  0.63247  0.50037  Biso   1.000  O
  O23      1.0000 0.45556  0.88280  0.50221  Biso   1.000  O
  O24      1.0000 0.47415  0.85816  0.25613  Biso   1.000  O
  Hf12     1.0000 0.26763  0.51675  0.62674  Biso   1.000  Hf
  Hf13     1.0000 0.26894  0.73233  0.87661  Biso   1.000  Hf
  Hf14     1.0000 0.73115  0.76633  0.62601  Biso   1.000  Hf
  Hf15     1.0000 0.72956  0.98229  0.87301  Biso   1.000  Hf
  O25      1.0000 0.07070  0.68373  0.69563  Biso   1.000  O
  O26      1.0000 0.06987  0.56625  0.94651  Biso   1.000  O
  O27      1.0000 0.92244  0.93409  0.69033  Biso   1.000  O
  O28      1.0000 0.93140  0.81665  0.94532  Biso   1.000  O
  O29      1.0000 0.54047  0.61728  0.75034  Biso   1.000  O
  O30      1.0000 0.54078  0.62938  0.99986  Biso   1.000  O
  O31      1.0000 0.46767  0.87466  0.99819  Biso   1.000  O
  O32      1.0000 0.45660  0.86734  0.74983  Biso   1.000  O
