data_image0
_cell_length_a       10.2565
_cell_length_b       5.16838
_cell_length_c       10.4633
_cell_angle_alpha    90.091
_cell_angle_beta     79.6321
_cell_angle_gamma    89.8674

_symmetry_space_group_name_H-M    "P 1"
_symmetry_int_tables_number       1

loop_
  _symmetry_equiv_pos_as_xyz
  'x, y, z'

loop_
  _atom_site_label
  _atom_site_occupancy
  _atom_site_fract_x
  _atom_site_fract_y
  _atom_site_fract_z
  _atom_site_thermal_displace_type
  _atom_site_B_iso_or_equiv
  _atom_site_type_symbol
  Hf1      1.0000 0.13562  0.04467  0.14530  Biso   1.000  Hf
  Hf2      1.0000 0.12528  0.44837  0.39552  Biso   1.000  Hf
  Hf3      1.0000 0.35802  0.54780  0.10813  Biso   1.000  Hf
  Hf4      1.0000 0.35845  0.92726  0.34180  Biso   1.000  Hf
  O1       1.0000 0.03110  0.33952  0.07608  Biso   1.000  O
  O2       1.0000 0.02610  0.16536  0.32350  Biso   1.000  O
  O3       1.0000 0.46192  0.86441  0.15561  Biso   1.000  O
  O4       1.0000 0.48985  0.69543  0.42335  Biso   1.000  O
  O5       1.0000 0.27403  0.25763  0.24628  Biso   1.000  O
  O6       1.0000 0.26190  0.19104  0.48717  Biso   1.000  O
  O7       1.0000 0.22224  0.76273  0.00716  Biso   1.000  O
  O8       1.0000 0.20529  0.74750  0.25379  Biso   1.000  O
  Hf5      1.0000 0.13718  0.03866  0.64867  Biso   1.000  Hf
  Hf6      1.0000 0.13741  0.46353  0.89772  Biso   1.000  Hf
  Hf7      1.0000 0.36925  0.54410  0.61931  Biso   1.000  Hf
  Hf8      1.0000 0.36101  0.96265  0.85859  Biso   1.000  Hf
  O9       1.0000 0.03105  0.33377  0.58063  Biso   1.000  O
  O10      1.0000 0.03428  0.17153  0.82595  Biso   1.000  O
  O11      1.0000 0.46715  0.84516  0.67629  Biso   1.000  O
  O12      1.0000 0.46275  0.66370  0.91916  Biso   1.000  O
  O13      1.0000 0.27494  0.26103  0.74371  Biso   1.000  O
  O14      1.0000 0.27391  0.24863  0.99400  Biso   1.000  O
  O15      1.0000 0.24595  0.69109  0.49767  Biso   1.000  O
  O16      1.0000 0.22187  0.75359  0.76038  Biso   1.000  O
  Hf9      1.0000 0.63824  0.05078  0.14263  Biso   1.000  Hf
  Hf10     1.0000 0.65214  0.46011  0.39883  Biso   1.000  Hf
  Hf11     1.0000 0.86002  0.54798  0.10208  Biso   1.000  Hf
  Hf12     1.0000 0.85910  0.95647  0.35170  Biso   1.000  Hf
  O17      1.0000 0.53685  0.35308  0.08269  Biso   1.000  O
  O18      1.0000 0.53194  0.17732  0.32945  Biso   1.000  O
  O19      1.0000 0.96169  0.84075  0.16634  Biso   1.000  O
  O20      1.0000 0.95980  0.66890  0.42158  Biso   1.000  O
  O21      1.0000 0.77450  0.26149  0.23964  Biso   1.000  O
  O22      1.0000 0.78056  0.23979  0.49262  Biso   1.000  O
  O23      1.0000 0.72407  0.76536  0.00895  Biso   1.000  O
  O24      1.0000 0.72326  0.74767  0.25815  Biso   1.000  O
  Hf13     1.0000 0.64068  0.04420  0.64916  Biso   1.000  Hf
  Hf14     1.0000 0.63563  0.46416  0.89783  Biso   1.000  Hf
  Hf15     1.0000 0.86101  0.54402  0.60714  Biso   1.000  Hf
  Hf16     1.0000 0.86137  0.96262  0.85423  Biso   1.000  Hf
  O25      1.0000 0.54085  0.33654  0.58096  Biso   1.000  O
  O26      1.0000 0.53498  0.16728  0.83352  Biso   1.000  O
  O27      1.0000 0.96721  0.83469  0.67007  Biso   1.000  O
  O28      1.0000 0.96420  0.66918  0.91876  Biso   1.000  O
  O29      1.0000 0.77459  0.26097  0.74233  Biso   1.000  O
  O30      1.0000 0.77432  0.24740  0.99004  Biso   1.000  O
  O31      1.0000 0.72553  0.75795  0.51282  Biso   1.000  O
  O32      1.0000 0.72626  0.74696  0.76146  Biso   1.000  O
  V1       1.0000 0.38596  0.42511  0.37624  Biso   1.000  V
