data_image0
_cell_length_a       9.99626
_cell_length_b       10.1992
_cell_length_c       5.22572
_cell_angle_alpha    89.9993
_cell_angle_beta     89.8229
_cell_angle_gamma    89.939

_symmetry_space_group_name_H-M    "P 1"
_symmetry_int_tables_number       1

loop_
  _symmetry_equiv_pos_as_xyz
  'x, y, z'

loop_
  _atom_site_label
  _atom_site_occupancy
  _atom_site_fract_x
  _atom_site_fract_y
  _atom_site_fract_z
  _atom_site_thermal_displace_type
  _atom_site_B_iso_or_equiv
  _atom_site_type_symbol
  W1       1.0000 0.13935  0.02444  0.34877  Biso   1.000  W
  Hf1      1.0000 0.13979  0.22782  0.84227  Biso   1.000  Hf
  Hf2      1.0000 0.36002  0.27083  0.34550  Biso   1.000  Hf
  Hf3      1.0000 0.36103  0.47952  0.84435  Biso   1.000  Hf
  Hf4      1.0000 0.63872  0.02168  0.15482  Biso   1.000  Hf
  Hf5      1.0000 0.63858  0.22927  0.65675  Biso   1.000  Hf
  Hf6      1.0000 0.86222  0.27038  0.15632  Biso   1.000  Hf
  Hf7      1.0000 0.86106  0.47867  0.65724  Biso   1.000  Hf
  O1       1.0000 0.03321  0.15978  0.16228  Biso   1.000  O
  O2       1.0000 0.03832  0.08108  0.65455  Biso   1.000  O
  O3       1.0000 0.46606  0.41578  0.16970  Biso   1.000  O
  O4       1.0000 0.46637  0.33444  0.66937  Biso   1.000  O
  O5       1.0000 0.27947  0.12086  0.59627  Biso   1.000  O
  O6       1.0000 0.27412  0.12366  0.10064  Biso   1.000  O
  O7       1.0000 0.22373  0.37425  0.59124  Biso   1.000  O
  O8       1.0000 0.22319  0.37498  0.09002  Biso   1.000  O
  O9       1.0000 0.53327  0.16569  0.33352  Biso   1.000  O
  O10      1.0000 0.53200  0.08564  0.83465  Biso   1.000  O
  O11      1.0000 0.96810  0.41346  0.33392  Biso   1.000  O
  O12      1.0000 0.96735  0.33235  0.83144  Biso   1.000  O
  O13      1.0000 0.77730  0.12313  0.90585  Biso   1.000  O
  O14      1.0000 0.77749  0.12624  0.40825  Biso   1.000  O
  O15      1.0000 0.72367  0.37359  0.91077  Biso   1.000  O
  O16      1.0000 0.72354  0.37632  0.40988  Biso   1.000  O
  Hf8      1.0000 0.13907  0.52133  0.34382  Biso   1.000  Hf
  Hf9      1.0000 0.13848  0.72943  0.84361  Biso   1.000  Hf
  Hf10     1.0000 0.35859  0.77475  0.34372  Biso   1.000  Hf
  Hf11     1.0000 0.36022  0.97790  0.84618  Biso   1.000  Hf
  Hf12     1.0000 0.63833  0.52191  0.15878  Biso   1.000  Hf
  Hf13     1.0000 0.63811  0.72864  0.65648  Biso   1.000  Hf
  Hf14     1.0000 0.86257  0.77239  0.15513  Biso   1.000  Hf
  Hf15     1.0000 0.86034  0.97845  0.65344  Biso   1.000  Hf
  O17      1.0000 0.03207  0.66357  0.16541  Biso   1.000  O
  O18      1.0000 0.03268  0.58472  0.66690  Biso   1.000  O
  O19      1.0000 0.46787  0.91490  0.16602  Biso   1.000  O
  O20      1.0000 0.46582  0.83556  0.66672  Biso   1.000  O
  O21      1.0000 0.27653  0.62490  0.59121  Biso   1.000  O
  O22      1.0000 0.27660  0.62768  0.09150  Biso   1.000  O
  O23      1.0000 0.21884  0.87578  0.58917  Biso   1.000  O
  O24      1.0000 0.21777  0.87901  0.09394  Biso   1.000  O
  O25      1.0000 0.53214  0.66691  0.33252  Biso   1.000  O
  O26      1.0000 0.53343  0.58431  0.83268  Biso   1.000  O
  O27      1.0000 0.97367  0.91733  0.32744  Biso   1.000  O
  O28      1.0000 0.96652  0.83521  0.83010  Biso   1.000  O
  O29      1.0000 0.77688  0.62434  0.91103  Biso   1.000  O
  O30      1.0000 0.77649  0.62630  0.41063  Biso   1.000  O
  O31      1.0000 0.72271  0.87407  0.90689  Biso   1.000  O
  O32      1.0000 0.72630  0.87676  0.40834  Biso   1.000  O
