data_image0
_cell_length_a       9.94459
_cell_length_b       10.3353
_cell_length_c       4.98992
_cell_angle_alpha    89.8019
_cell_angle_beta     89.9564
_cell_angle_gamma    90.0097

_symmetry_space_group_name_H-M    "P 1"
_symmetry_int_tables_number       1

loop_
  _symmetry_equiv_pos_as_xyz
  'x, y, z'

loop_
  _atom_site_label
  _atom_site_occupancy
  _atom_site_fract_x
  _atom_site_fract_y
  _atom_site_fract_z
  _atom_site_thermal_displace_type
  _atom_site_B_iso_or_equiv
  _atom_site_type_symbol
  W1       1.0000 0.13532  0.02115  0.25645  Biso   1.000  W
  Hf1      1.0000 0.13377  0.23169  0.75661  Biso   1.000  Hf
  Hf2      1.0000 0.36640  0.26750  0.25033  Biso   1.000  Hf
  Hf3      1.0000 0.36570  0.48428  0.75159  Biso   1.000  Hf
  O1       1.0000 0.03489  0.17939  0.40592  Biso   1.000  O
  O2       1.0000 0.03493  0.06575  0.92840  Biso   1.000  O
  O3       1.0000 0.46287  0.43507  0.38600  Biso   1.000  O
  O4       1.0000 0.46252  0.31512  0.88519  Biso   1.000  O
  O5       1.0000 0.27154  0.11813  0.48930  Biso   1.000  O
  O6       1.0000 0.27139  0.12798  0.99658  Biso   1.000  O
  O7       1.0000 0.22928  0.38157  0.00097  Biso   1.000  O
  O8       1.0000 0.22930  0.36729  0.50214  Biso   1.000  O
  Hf4      1.0000 0.13411  0.51618  0.25303  Biso   1.000  Hf
  Hf5      1.0000 0.13354  0.73457  0.75136  Biso   1.000  Hf
  Hf6      1.0000 0.36500  0.76796  0.25137  Biso   1.000  Hf
  Hf7      1.0000 0.36454  0.98258  0.75151  Biso   1.000  Hf
  O9       1.0000 0.03667  0.68348  0.38650  Biso   1.000  O
  O10      1.0000 0.03640  0.56566  0.88864  Biso   1.000  O
  O11      1.0000 0.46426  0.93389  0.38869  Biso   1.000  O
  O12      1.0000 0.46128  0.81534  0.88639  Biso   1.000  O
  O13      1.0000 0.27087  0.61935  0.49961  Biso   1.000  O
  O14      1.0000 0.27063  0.63259  0.99935  Biso   1.000  O
  O15      1.0000 0.22296  0.88430  0.00229  Biso   1.000  O
  O16      1.0000 0.22699  0.87105  0.49488  Biso   1.000  O
  Hf8      1.0000 0.63416  0.01604  0.24899  Biso   1.000  Hf
  Hf9      1.0000 0.63355  0.23282  0.75089  Biso   1.000  Hf
  Hf10     1.0000 0.86544  0.26503  0.25350  Biso   1.000  Hf
  Hf11     1.0000 0.86599  0.48331  0.75254  Biso   1.000  Hf
  O17      1.0000 0.53688  0.18479  0.38527  Biso   1.000  O
  O18      1.0000 0.53574  0.06516  0.88596  Biso   1.000  O
  O19      1.0000 0.96452  0.43195  0.39125  Biso   1.000  O
  O20      1.0000 0.96483  0.31537  0.89425  Biso   1.000  O
  O21      1.0000 0.76980  0.11705  0.49797  Biso   1.000  O
  O22      1.0000 0.77118  0.13224  0.99688  Biso   1.000  O
  O23      1.0000 0.72931  0.38163  0.00047  Biso   1.000  O
  O24      1.0000 0.72943  0.36774  0.49980  Biso   1.000  O
  Hf12     1.0000 0.63438  0.51714  0.25139  Biso   1.000  Hf
  Hf13     1.0000 0.63447  0.73447  0.74908  Biso   1.000  Hf
  Hf14     1.0000 0.86787  0.76724  0.24826  Biso   1.000  Hf
  Hf15     1.0000 0.86996  0.98441  0.74845  Biso   1.000  Hf
  O25      1.0000 0.53650  0.68525  0.38615  Biso   1.000  O
  O26      1.0000 0.53709  0.56573  0.88560  Biso   1.000  O
  O27      1.0000 0.96950  0.93437  0.38367  Biso   1.000  O
  O28      1.0000 0.96184  0.81511  0.88174  Biso   1.000  O
  O29      1.0000 0.77097  0.61793  0.49908  Biso   1.000  O
  O30      1.0000 0.77067  0.63252  0.99877  Biso   1.000  O
  O31      1.0000 0.72933  0.88329  0.99324  Biso   1.000  O
  O32      1.0000 0.73271  0.86860  0.49524  Biso   1.000  O
