data_image0
_cell_length_a       5.09634
_cell_length_b       10.2909
_cell_length_c       10.4746
_cell_angle_alpha    90.0709
_cell_angle_beta     80.1967
_cell_angle_gamma    90.1233

_symmetry_space_group_name_H-M    "P 1"
_symmetry_int_tables_number       1

loop_
  _symmetry_equiv_pos_as_xyz
  'x, y, z'

loop_
  _atom_site_label
  _atom_site_occupancy
  _atom_site_fract_x
  _atom_site_fract_y
  _atom_site_fract_z
  _atom_site_thermal_displace_type
  _atom_site_B_iso_or_equiv
  _atom_site_type_symbol
  Y1       1.0000 0.27998  0.01756  0.14517  Biso   1.000  Y
  Hf1      1.0000 0.27829  0.22814  0.39656  Biso   1.000  Hf
  Hf2      1.0000 0.71889  0.26980  0.10315  Biso   1.000  Hf
  Hf3      1.0000 0.71892  0.47792  0.35337  Biso   1.000  Hf
  O1       1.0000 0.06774  0.17780  0.07603  Biso   1.000  O
  O2       1.0000 0.05974  0.08363  0.34056  Biso   1.000  O
  O3       1.0000 0.92639  0.41875  0.17019  Biso   1.000  O
  O4       1.0000 0.93007  0.33340  0.42109  Biso   1.000  O
  O5       1.0000 0.56239  0.13418  0.24711  Biso   1.000  O
  O6       1.0000 0.54709  0.12149  0.49371  Biso   1.000  O
  O7       1.0000 0.44770  0.37940  0.00814  Biso   1.000  O
  O8       1.0000 0.44209  0.37218  0.25953  Biso   1.000  O
  Hf4      1.0000 0.27991  0.02151  0.64625  Biso   1.000  Hf
  Hf5      1.0000 0.27811  0.23000  0.89612  Biso   1.000  Hf
  Hf6      1.0000 0.72068  0.27084  0.60402  Biso   1.000  Hf
  Hf7      1.0000 0.72161  0.47905  0.85327  Biso   1.000  Hf
  O9       1.0000 0.06908  0.16995  0.58338  Biso   1.000  O
  O10      1.0000 0.07301  0.08158  0.83001  Biso   1.000  O
  O11      1.0000 0.93058  0.41859  0.66902  Biso   1.000  O
  O12      1.0000 0.93185  0.33549  0.91733  Biso   1.000  O
  O13      1.0000 0.55317  0.12876  0.73978  Biso   1.000  O
  O14      1.0000 0.56357  0.12544  0.98415  Biso   1.000  O
  O15      1.0000 0.44773  0.37921  0.50936  Biso   1.000  O
  O16      1.0000 0.44906  0.37199  0.75818  Biso   1.000  O
  Hf8      1.0000 0.27765  0.51948  0.14511  Biso   1.000  Hf
  Hf9      1.0000 0.27726  0.72718  0.39611  Biso   1.000  Hf
  Hf10     1.0000 0.72097  0.76867  0.10444  Biso   1.000  Hf
  Hf11     1.0000 0.71780  0.97882  0.35472  Biso   1.000  Hf
  O17      1.0000 0.07173  0.66715  0.07865  Biso   1.000  O
  O18      1.0000 0.06566  0.58258  0.32872  Biso   1.000  O
  O19      1.0000 0.90608  0.91687  0.17303  Biso   1.000  O
  O20      1.0000 0.93069  0.83183  0.42162  Biso   1.000  O
  O21      1.0000 0.55029  0.62492  0.23973  Biso   1.000  O
  O22      1.0000 0.55079  0.62098  0.49026  Biso   1.000  O
  O23      1.0000 0.46542  0.87087  0.00184  Biso   1.000  O
  O24      1.0000 0.44753  0.86286  0.26405  Biso   1.000  O
  Hf12     1.0000 0.27838  0.52124  0.64564  Biso   1.000  Hf
  Hf13     1.0000 0.28308  0.72926  0.89511  Biso   1.000  Hf
  Hf14     1.0000 0.72172  0.77188  0.60358  Biso   1.000  Hf
  Hf15     1.0000 0.72371  0.97874  0.85429  Biso   1.000  Hf
  O25      1.0000 0.06771  0.66712  0.58055  Biso   1.000  O
  O26      1.0000 0.06932  0.58279  0.82847  Biso   1.000  O
  O27      1.0000 0.93213  0.91747  0.67063  Biso   1.000  O
  O28      1.0000 0.94236  0.83454  0.92073  Biso   1.000  O
  O29      1.0000 0.55208  0.62941  0.73951  Biso   1.000  O
  O30      1.0000 0.55207  0.61836  0.98962  Biso   1.000  O
  O31      1.0000 0.44760  0.87859  0.51062  Biso   1.000  O
  O32      1.0000 0.45035  0.87175  0.75755  Biso   1.000  O
