data_image0
_cell_length_a       10.0681
_cell_length_b       5.16954
_cell_length_c       10.6216
_cell_angle_alpha    89.5968
_cell_angle_beta     91.6323
_cell_angle_gamma    90.233

_symmetry_space_group_name_H-M    "P 1"
_symmetry_int_tables_number       1

loop_
  _symmetry_equiv_pos_as_xyz
  'x, y, z'

loop_
  _atom_site_label
  _atom_site_occupancy
  _atom_site_fract_x
  _atom_site_fract_y
  _atom_site_fract_z
  _atom_site_thermal_displace_type
  _atom_site_B_iso_or_equiv
  _atom_site_type_symbol
  Hf1      1.0000 0.13773  0.04257  0.17686  Biso   1.000  Hf
  Hf2      1.0000 0.13919  0.44973  0.42761  Biso   1.000  Hf
  Hf3      1.0000 0.34804  0.54749  0.18832  Biso   1.000  Hf
  Hf4      1.0000 0.36113  0.95115  0.42921  Biso   1.000  Hf
  Hf5      1.0000 0.64518  0.05896  0.08250  Biso   1.000  Hf
  Hf6      1.0000 0.63775  0.45362  0.33240  Biso   1.000  Hf
  Hf7      1.0000 0.86862  0.54454  0.07710  Biso   1.000  Hf
  Hf8      1.0000 0.86131  0.95542  0.32614  Biso   1.000  Hf
  O1       1.0000 0.03170  0.32019  0.08244  Biso   1.000  O
  O2       1.0000 0.03021  0.17229  0.33558  Biso   1.000  O
  O3       1.0000 0.45722  0.86541  0.10336  Biso   1.000  O
  O4       1.0000 0.46596  0.66599  0.34092  Biso   1.000  O
  O5       1.0000 0.27146  0.24823  0.30341  Biso   1.000  O
  O6       1.0000 0.27173  0.24977  0.05220  Biso   1.000  O
  O7       1.0000 0.21848  0.75066  0.30687  Biso   1.000  O
  O8       1.0000 0.21513  0.75495  0.05566  Biso   1.000  O
  O9       1.0000 0.52217  0.32017  0.18159  Biso   1.000  O
  O10      1.0000 0.53134  0.16455  0.41907  Biso   1.000  O
  O11      1.0000 0.96553  0.83008  0.17278  Biso   1.000  O
  O12      1.0000 0.97130  0.67270  0.42146  Biso   1.000  O
  O13      1.0000 0.77684  0.24585  0.45116  Biso   1.000  O
  O14      1.0000 0.78104  0.25129  0.20675  Biso   1.000  O
  O15      1.0000 0.72738  0.74541  0.45150  Biso   1.000  O
  O16      1.0000 0.71744  0.73574  0.20024  Biso   1.000  O
  Hf9      1.0000 0.14368  0.03817  0.67765  Biso   1.000  Hf
  Hf10     1.0000 0.14365  0.46088  0.92639  Biso   1.000  Hf
  Hf11     1.0000 0.36298  0.53847  0.67742  Biso   1.000  Hf
  Hf12     1.0000 0.35947  0.96150  0.93198  Biso   1.000  Hf
  Hf13     1.0000 0.64350  0.02865  0.56996  Biso   1.000  Hf
  Hf14     1.0000 0.65096  0.44386  0.79011  Biso   1.000  Hf
  Hf15     1.0000 0.87132  0.54082  0.57494  Biso   1.000  Hf
  Hf16     1.0000 0.86904  0.96314  0.82919  Biso   1.000  Hf
  O17      1.0000 0.03656  0.32047  0.58411  Biso   1.000  O
  O18      1.0000 0.03650  0.17658  0.83370  Biso   1.000  O
  O19      1.0000 0.47485  0.80823  0.58163  Biso   1.000  O
  O20      1.0000 0.48198  0.66823  0.82877  Biso   1.000  O
  O21      1.0000 0.27792  0.25050  0.80002  Biso   1.000  O
  O22      1.0000 0.27806  0.24376  0.55040  Biso   1.000  O
  O23      1.0000 0.22909  0.74516  0.80286  Biso   1.000  O
  O24      1.0000 0.22707  0.74597  0.55391  Biso   1.000  O
  O25      1.0000 0.52752  0.29778  0.66122  Biso   1.000  O
  O26      1.0000 0.52974  0.17056  0.92218  Biso   1.000  O
  O27      1.0000 0.97517  0.81946  0.67380  Biso   1.000  O
  O28      1.0000 0.97255  0.67412  0.92048  Biso   1.000  O
  O29      1.0000 0.76618  0.28853  0.94557  Biso   1.000  O
  O30      1.0000 0.78813  0.23019  0.69055  Biso   1.000  O
  O31      1.0000 0.73633  0.79118  0.95717  Biso   1.000  O
  O32      1.0000 0.73558  0.74452  0.69805  Biso   1.000  O
  Y1       1.0000 0.56712  0.55312  0.01808  Biso   1.000  Y
