data_image0
_cell_length_a       10.0811
_cell_length_b       10.2364
_cell_length_c       5.23795
_cell_angle_alpha    89.9704
_cell_angle_beta     89.8462
_cell_angle_gamma    90.0121

_symmetry_space_group_name_H-M    "P 1"
_symmetry_int_tables_number       1

loop_
  _symmetry_equiv_pos_as_xyz
  'x, y, z'

loop_
  _atom_site_label
  _atom_site_occupancy
  _atom_site_fract_x
  _atom_site_fract_y
  _atom_site_fract_z
  _atom_site_thermal_displace_type
  _atom_site_B_iso_or_equiv
  _atom_site_type_symbol
  Yb1      1.0000 0.13816  0.01642  0.34543  Biso   1.000  Yb
  Hf1      1.0000 0.14061  0.22975  0.84418  Biso   1.000  Hf
  Hf2      1.0000 0.35987  0.26935  0.34338  Biso   1.000  Hf
  Hf3      1.0000 0.36113  0.47805  0.84364  Biso   1.000  Hf
  Hf4      1.0000 0.63857  0.02139  0.15745  Biso   1.000  Hf
  Hf5      1.0000 0.63788  0.22903  0.65571  Biso   1.000  Hf
  Hf6      1.0000 0.85981  0.27221  0.15322  Biso   1.000  Hf
  Hf7      1.0000 0.86090  0.47938  0.65484  Biso   1.000  Hf
  O1       1.0000 0.02961  0.16798  0.15758  Biso   1.000  O
  O2       1.0000 0.02627  0.09154  0.67406  Biso   1.000  O
  O3       1.0000 0.46722  0.41352  0.16530  Biso   1.000  O
  O4       1.0000 0.46805  0.33610  0.66532  Biso   1.000  O
  O5       1.0000 0.27984  0.12655  0.59985  Biso   1.000  O
  O6       1.0000 0.28145  0.13107  0.08380  Biso   1.000  O
  O7       1.0000 0.22389  0.37451  0.59031  Biso   1.000  O
  O8       1.0000 0.22329  0.37722  0.09166  Biso   1.000  O
  O9       1.0000 0.53300  0.16516  0.33329  Biso   1.000  O
  O10      1.0000 0.53498  0.08413  0.83230  Biso   1.000  O
  O11      1.0000 0.96810  0.41344  0.33579  Biso   1.000  O
  O12      1.0000 0.96854  0.34066  0.83645  Biso   1.000  O
  O13      1.0000 0.77513  0.12507  0.91053  Biso   1.000  O
  O14      1.0000 0.77576  0.12620  0.40989  Biso   1.000  O
  O15      1.0000 0.72331  0.37422  0.90653  Biso   1.000  O
  O16      1.0000 0.72398  0.37657  0.40752  Biso   1.000  O
  Hf8      1.0000 0.13932  0.52113  0.34410  Biso   1.000  Hf
  Hf9      1.0000 0.14020  0.72833  0.84483  Biso   1.000  Hf
  Hf10     1.0000 0.36261  0.77071  0.34257  Biso   1.000  Hf
  Hf11     1.0000 0.36194  0.97964  0.84369  Biso   1.000  Hf
  Hf12     1.0000 0.63736  0.52007  0.15516  Biso   1.000  Hf
  Hf13     1.0000 0.63813  0.72875  0.65539  Biso   1.000  Hf
  Hf14     1.0000 0.85890  0.76942  0.15555  Biso   1.000  Hf
  Hf15     1.0000 0.85885  0.97929  0.65794  Biso   1.000  Hf
  O17      1.0000 0.03094  0.66248  0.16254  Biso   1.000  O
  O18      1.0000 0.03076  0.58858  0.66138  Biso   1.000  O
  O19      1.0000 0.46921  0.91474  0.16650  Biso   1.000  O
  O20      1.0000 0.47011  0.83656  0.66364  Biso   1.000  O
  O21      1.0000 0.27627  0.62231  0.59127  Biso   1.000  O
  O22      1.0000 0.27550  0.62431  0.09240  Biso   1.000  O
  O23      1.0000 0.22949  0.86913  0.59467  Biso   1.000  O
  O24      1.0000 0.23168  0.87049  0.08303  Biso   1.000  O
  O25      1.0000 0.53265  0.66309  0.33455  Biso   1.000  O
  O26      1.0000 0.53134  0.58585  0.83498  Biso   1.000  O
  O27      1.0000 0.96079  0.90795  0.34354  Biso   1.000  O
  O28      1.0000 0.96996  0.83921  0.84093  Biso   1.000  O
  O29      1.0000 0.77471  0.62325  0.90705  Biso   1.000  O
  O30      1.0000 0.77521  0.62576  0.40724  Biso   1.000  O
  O31      1.0000 0.72467  0.87333  0.90936  Biso   1.000  O
  O32      1.0000 0.72005  0.87608  0.40970  Biso   1.000  O
