data_image0
_cell_length_a       10.1091
_cell_length_b       5.12848
_cell_length_c       10.109
_cell_angle_alpha    90.0001
_cell_angle_beta     90.0001
_cell_angle_gamma    89.9996

_symmetry_space_group_name_H-M    "P 1"
_symmetry_int_tables_number       1

loop_
  _symmetry_equiv_pos_as_xyz
  'x, y, z'

loop_
  _atom_site_label
  _atom_site_occupancy
  _atom_site_fract_x
  _atom_site_fract_y
  _atom_site_fract_z
  _atom_site_thermal_displace_type
  _atom_site_B_iso_or_equiv
  _atom_site_type_symbol
  Hf1      1.0000 0.12491  0.00011  0.12491  Biso   1.000  Hf
  Hf2      1.0000 0.12491  0.50011  0.39612  Biso   1.000  Hf
  Hf3      1.0000 0.39612  0.50011  0.12491  Biso   1.000  Hf
  Hf4      1.0000 0.37192  0.00384  0.37192  Biso   1.000  Hf
  O1       1.0000 0.98711  0.29780  0.98715  Biso   1.000  O
  O2       1.0000 0.00326  0.20739  0.24661  Biso   1.000  O
  O3       1.0000 0.98711  0.70242  0.26267  Biso   1.000  O
  O4       1.0000 0.00326  0.79283  0.00320  Biso   1.000  O
  O5       1.0000 0.26270  0.29780  0.26267  Biso   1.000  O
  O6       1.0000 0.24656  0.20738  0.00321  Biso   1.000  O
  O7       1.0000 0.26270  0.70242  0.98715  Biso   1.000  O
  O8       1.0000 0.24656  0.79283  0.24661  Biso   1.000  O
  Hf5      1.0000 0.12491  0.00011  0.62491  Biso   1.000  Hf
  Hf6      1.0000 0.12491  0.50011  0.85370  Biso   1.000  Hf
  Hf7      1.0000 0.37920  0.50011  0.62491  Biso   1.000  Hf
  Hf8      1.0000 0.37192  0.99638  0.87790  Biso   1.000  Hf
  O9       1.0000 0.98819  0.28186  0.49606  Biso   1.000  O
  O10      1.0000 0.00601  0.21463  0.74366  Biso   1.000  O
  O11      1.0000 0.98820  0.71836  0.75375  Biso   1.000  O
  O12      1.0000 0.00601  0.78559  0.50615  Biso   1.000  O
  O13      1.0000 0.26162  0.28186  0.75375  Biso   1.000  O
  O14      1.0000 0.24381  0.21463  0.50615  Biso   1.000  O
  O15      1.0000 0.26162  0.71835  0.49606  Biso   1.000  O
  O16      1.0000 0.24381  0.78559  0.74366  Biso   1.000  O
  Hf9      1.0000 0.62491  0.00011  0.12491  Biso   1.000  Hf
  Hf10     1.0000 0.62491  0.50011  0.37920  Biso   1.000  Hf
  Hf11     1.0000 0.85369  0.50011  0.12491  Biso   1.000  Hf
  Hf12     1.0000 0.87790  0.99637  0.37192  Biso   1.000  Hf
  O17      1.0000 0.49604  0.28185  0.98821  Biso   1.000  O
  O18      1.0000 0.50619  0.21464  0.24383  Biso   1.000  O
  O19      1.0000 0.49604  0.71837  0.26161  Biso   1.000  O
  O20      1.0000 0.50619  0.78557  0.00598  Biso   1.000  O
  O21      1.0000 0.75378  0.28185  0.26161  Biso   1.000  O
  O22      1.0000 0.74363  0.21464  0.00598  Biso   1.000  O
  O23      1.0000 0.75378  0.71836  0.98821  Biso   1.000  O
  O24      1.0000 0.74363  0.78557  0.24383  Biso   1.000  O
  Hf13     1.0000 0.62491  0.00011  0.62491  Biso   1.000  Hf
  Hf14     1.0000 0.62491  0.50011  0.87062  Biso   1.000  Hf
  Hf15     1.0000 0.87062  0.50011  0.62491  Biso   1.000  Hf
  Hf16     1.0000 0.87790  0.00384  0.87790  Biso   1.000  Hf
  O25      1.0000 0.49091  0.29335  0.49092  Biso   1.000  O
  O26      1.0000 0.50592  0.21003  0.74392  Biso   1.000  O
  O27      1.0000 0.49091  0.70686  0.75890  Biso   1.000  O
  O28      1.0000 0.50592  0.79018  0.50590  Biso   1.000  O
  O29      1.0000 0.75891  0.29335  0.75890  Biso   1.000  O
  O30      1.0000 0.74389  0.21004  0.50590  Biso   1.000  O
  O31      1.0000 0.75891  0.70686  0.49092  Biso   1.000  O
  O32      1.0000 0.74389  0.79018  0.74392  Biso   1.000  O
  Yb1      1.0000 0.12491  0.50011  0.12491  Biso   1.000  Yb
