data_image0
_cell_length_a       5.10604
_cell_length_b       10.3129
_cell_length_c       10.6187
_cell_angle_alpha    89.9869
_cell_angle_beta     78.5049
_cell_angle_gamma    91.0285

_symmetry_space_group_name_H-M    "P 1"
_symmetry_int_tables_number       1

loop_
  _symmetry_equiv_pos_as_xyz
  'x, y, z'

loop_
  _atom_site_label
  _atom_site_occupancy
  _atom_site_fract_x
  _atom_site_fract_y
  _atom_site_fract_z
  _atom_site_thermal_displace_type
  _atom_site_B_iso_or_equiv
  _atom_site_type_symbol
  Hf1      1.0000 0.28519  0.01761  0.15180  Biso   1.000  Hf
  Hf2      1.0000 0.32730  0.23047  0.40966  Biso   1.000  Hf
  Hf3      1.0000 0.67384  0.27368  0.08733  Biso   1.000  Hf
  Hf4      1.0000 0.70317  0.48398  0.35561  Biso   1.000  Hf
  O1       1.0000 0.04584  0.16469  0.07308  Biso   1.000  O
  O2       1.0000 0.10009  0.06499  0.34107  Biso   1.000  O
  O3       1.0000 0.89629  0.42144  0.17091  Biso   1.000  O
  O4       1.0000 0.95587  0.35227  0.44007  Biso   1.000  O
  O5       1.0000 0.58415  0.12673  0.24405  Biso   1.000  O
  O6       1.0000 0.59272  0.11964  0.49252  Biso   1.000  O
  O7       1.0000 0.41616  0.38453  0.00441  Biso   1.000  O
  O8       1.0000 0.39146  0.36707  0.25200  Biso   1.000  O
  Hf5      1.0000 0.28151  0.02140  0.64733  Biso   1.000  Hf
  Hf6      1.0000 0.25679  0.22743  0.89404  Biso   1.000  Hf
  Hf7      1.0000 0.73740  0.27571  0.60903  Biso   1.000  Hf
  Hf8      1.0000 0.70898  0.48282  0.85463  Biso   1.000  Hf
  O9       1.0000 0.08792  0.16917  0.58373  Biso   1.000  O
  O10      1.0000 0.05718  0.08399  0.82568  Biso   1.000  O
  O11      1.0000 0.93538  0.41655  0.68193  Biso   1.000  O
  O12      1.0000 0.91331  0.33560  0.91941  Biso   1.000  O
  O13      1.0000 0.54868  0.12855  0.74299  Biso   1.000  O
  O14      1.0000 0.53313  0.12118  0.98866  Biso   1.000  O
  O15      1.0000 0.45451  0.38157  0.51661  Biso   1.000  O
  O16      1.0000 0.44463  0.37224  0.75999  Biso   1.000  O
  Hf9      1.0000 0.26121  0.52443  0.14800  Biso   1.000  Hf
  Hf10     1.0000 0.26929  0.72553  0.39945  Biso   1.000  Hf
  Hf11     1.0000 0.71653  0.77188  0.10465  Biso   1.000  Hf
  Hf12     1.0000 0.72400  0.96792  0.35656  Biso   1.000  Hf
  O17      1.0000 0.05489  0.66684  0.07830  Biso   1.000  O
  O18      1.0000 0.05148  0.58703  0.32695  Biso   1.000  O
  O19      1.0000 0.93562  0.91324  0.17589  Biso   1.000  O
  O20      1.0000 0.92853  0.82806  0.42634  Biso   1.000  O
  O21      1.0000 0.53928  0.62739  0.24340  Biso   1.000  O
  O22      1.0000 0.53980  0.62450  0.49393  Biso   1.000  O
  O23      1.0000 0.44640  0.87816  0.01154  Biso   1.000  O
  O24      1.0000 0.44569  0.86665  0.25959  Biso   1.000  O
  Hf13     1.0000 0.27531  0.52422  0.65009  Biso   1.000  Hf
  Hf14     1.0000 0.26814  0.72969  0.89969  Biso   1.000  Hf
  Hf15     1.0000 0.72008  0.77163  0.60650  Biso   1.000  Hf
  Hf16     1.0000 0.71468  0.97687  0.85411  Biso   1.000  Hf
  O25      1.0000 0.05633  0.66249  0.58029  Biso   1.000  O
  O26      1.0000 0.05949  0.58801  0.82980  Biso   1.000  O
  O27      1.0000 0.93141  0.91456  0.67467  Biso   1.000  O
  O28      1.0000 0.92970  0.83725  0.92473  Biso   1.000  O
  O29      1.0000 0.54812  0.62936  0.74383  Biso   1.000  O
  O30      1.0000 0.54198  0.62416  0.99349  Biso   1.000  O
  O31      1.0000 0.44404  0.87724  0.51223  Biso   1.000  O
  O32      1.0000 0.44229  0.87161  0.76156  Biso   1.000  O
  Yb1      1.0000 0.94682  0.23794  0.27287  Biso   1.000  Yb
