data_image0
_cell_length_a       5.03334
_cell_length_b       10.3814
_cell_length_c       10.0762
_cell_angle_alpha    89.1475
_cell_angle_beta     89.9083
_cell_angle_gamma    90.5842

_symmetry_space_group_name_H-M    "P 1"
_symmetry_int_tables_number       1

loop_
  _symmetry_equiv_pos_as_xyz
  'x, y, z'

loop_
  _atom_site_label
  _atom_site_occupancy
  _atom_site_fract_x
  _atom_site_fract_y
  _atom_site_fract_z
  _atom_site_thermal_displace_type
  _atom_site_B_iso_or_equiv
  _atom_site_type_symbol
  Hf1      1.0000 0.27752  0.00301  0.10641  Biso   1.000  Hf
  Hf2      1.0000 0.25501  0.23141  0.39669  Biso   1.000  Hf
  Hf3      1.0000 0.64419  0.25861  0.12636  Biso   1.000  Hf
  Hf4      1.0000 0.74105  0.48470  0.37531  Biso   1.000  Hf
  O1       1.0000 0.92681  0.18058  0.25936  Biso   1.000  O
  O2       1.0000 0.07027  0.06589  0.46395  Biso   1.000  O
  O3       1.0000 0.92109  0.42689  0.18743  Biso   1.000  O
  O4       1.0000 0.94704  0.33138  0.46355  Biso   1.000  O
  O5       1.0000 0.45854  0.10964  0.25454  Biso   1.000  O
  O6       1.0000 0.55294  0.13840  0.50086  Biso   1.000  O
  O7       1.0000 0.47419  0.38555  0.50219  Biso   1.000  O
  O8       1.0000 0.42412  0.37073  0.25738  Biso   1.000  O
  Hf5      1.0000 0.28794  0.01414  0.62833  Biso   1.000  Hf
  Hf6      1.0000 0.27653  0.22963  0.87295  Biso   1.000  Hf
  Hf7      1.0000 0.74407  0.26855  0.63207  Biso   1.000  Hf
  Hf8      1.0000 0.74309  0.48459  0.87601  Biso   1.000  Hf
  O9       1.0000 0.08496  0.18366  0.69417  Biso   1.000  O
  O10      1.0000 0.10453  0.05373  0.92517  Biso   1.000  O
  O11      1.0000 0.94493  0.43395  0.70410  Biso   1.000  O
  O12      1.0000 0.92168  0.31039  0.94412  Biso   1.000  O
  O13      1.0000 0.55482  0.11643  0.74971  Biso   1.000  O
  O14      1.0000 0.58439  0.11589  0.99453  Biso   1.000  O
  O15      1.0000 0.46194  0.39276  0.99637  Biso   1.000  O
  O16      1.0000 0.47124  0.36695  0.75044  Biso   1.000  O
  Hf9      1.0000 0.26658  0.52712  0.12627  Biso   1.000  Hf
  Hf10     1.0000 0.27908  0.74009  0.37569  Biso   1.000  Hf
  Hf11     1.0000 0.74012  0.76490  0.12365  Biso   1.000  Hf
  Hf12     1.0000 0.75105  0.99954  0.36203  Biso   1.000  Hf
  O17      1.0000 0.07738  0.68586  0.19701  Biso   1.000  O
  O18      1.0000 0.07282  0.57208  0.44417  Biso   1.000  O
  O19      1.0000 0.93190  0.93933  0.18448  Biso   1.000  O
  O20      1.0000 0.93869  0.82339  0.43581  Biso   1.000  O
  O21      1.0000 0.54886  0.61763  0.24785  Biso   1.000  O
  O22      1.0000 0.54625  0.63479  0.49583  Biso   1.000  O
  O23      1.0000 0.47526  0.88936  0.49344  Biso   1.000  O
  O24      1.0000 0.47335  0.86493  0.24231  Biso   1.000  O
  Hf13     1.0000 0.27497  0.51529  0.62412  Biso   1.000  Hf
  Hf14     1.0000 0.27805  0.73169  0.86890  Biso   1.000  Hf
  Hf15     1.0000 0.74855  0.76802  0.61568  Biso   1.000  Hf
  Hf16     1.0000 0.75352  0.97746  0.86861  Biso   1.000  Hf
  O25      1.0000 0.07995  0.68301  0.69062  Biso   1.000  O
  O26      1.0000 0.07430  0.56937  0.94785  Biso   1.000  O
  O27      1.0000 0.94943  0.92800  0.69313  Biso   1.000  O
  O28      1.0000 0.95006  0.81423  0.94737  Biso   1.000  O
  O29      1.0000 0.54654  0.61482  0.74661  Biso   1.000  O
  O30      1.0000 0.54388  0.63443  0.99810  Biso   1.000  O
  O31      1.0000 0.47773  0.87489  0.99185  Biso   1.000  O
  O32      1.0000 0.48179  0.86366  0.74366  Biso   1.000  O
  Zn1      1.0000 0.13757  0.25978  0.11969  Biso   1.000  Zn
