data_image0
_cell_length_a       10.1116
_cell_length_b       5.16247
_cell_length_c       10.1116
_cell_angle_alpha    90.0001
_cell_angle_beta     89.9999
_cell_angle_gamma    90

_symmetry_space_group_name_H-M    "P 1"
_symmetry_int_tables_number       1

loop_
  _symmetry_equiv_pos_as_xyz
  'x, y, z'

loop_
  _atom_site_label
  _atom_site_occupancy
  _atom_site_fract_x
  _atom_site_fract_y
  _atom_site_fract_z
  _atom_site_thermal_displace_type
  _atom_site_B_iso_or_equiv
  _atom_site_type_symbol
  Hf1      1.0000 0.12491  0.00011  0.12491  Biso   1.000  Hf
  Hf2      1.0000 0.12491  0.50011  0.39027  Biso   1.000  Hf
  Hf3      1.0000 0.39027  0.50011  0.12491  Biso   1.000  Hf
  Hf4      1.0000 0.37633  0.00946  0.37633  Biso   1.000  Hf
  Hf5      1.0000 0.97724  0.31887  0.97724  Biso   1.000  Hf
  Hf6      1.0000 0.99992  0.17782  0.24991  Biso   1.000  Hf
  Hf7      1.0000 0.97724  0.68134  0.27258  Biso   1.000  Hf
  Hf8      1.0000 0.99991  0.82239  0.99991  Biso   1.000  Hf
  Hf9      1.0000 0.27258  0.31888  0.27258  Biso   1.000  Hf
  Hf10     1.0000 0.24990  0.17782  0.99991  Biso   1.000  Hf
  Hf11     1.0000 0.27257  0.68134  0.97724  Biso   1.000  Hf
  Hf12     1.0000 0.24990  0.82240  0.24990  Biso   1.000  Hf
  Hf13     1.0000 0.12491  0.00011  0.62491  Biso   1.000  Hf
  Hf14     1.0000 0.12491  0.50011  0.85955  Biso   1.000  Hf
  Hf15     1.0000 0.37636  0.50011  0.62491  Biso   1.000  Hf
  Hf16     1.0000 0.37633  0.99075  0.87349  Biso   1.000  Hf
  Hf17     1.0000 0.99332  0.29008  0.49764  Biso   1.000  Hf
  Hf18     1.0000 0.00376  0.20812  0.74389  Biso   1.000  Hf
  Hf19     1.0000 0.99332  0.71013  0.75218  Biso   1.000  Hf
  Hf20     1.0000 0.00376  0.79209  0.50593  Biso   1.000  Hf
  Hf21     1.0000 0.25650  0.29009  0.75218  Biso   1.000  Hf
  Hf22     1.0000 0.24606  0.20813  0.50593  Biso   1.000  Hf
  Hf23     1.0000 0.25649  0.71013  0.49764  Biso   1.000  Hf
  Hf24     1.0000 0.24606  0.79209  0.74389  Biso   1.000  Hf
  Hf25     1.0000 0.62491  0.00011  0.12491  Biso   1.000  Hf
  Hf26     1.0000 0.62491  0.50011  0.37636  Biso   1.000  Hf
  Hf27     1.0000 0.85955  0.50011  0.12491  Biso   1.000  Hf
  Hf28     1.0000 0.87349  0.99075  0.37633  Biso   1.000  Hf
  Hf29     1.0000 0.49764  0.29008  0.99332  Biso   1.000  Hf
  Hf30     1.0000 0.50593  0.20813  0.24606  Biso   1.000  Hf
  Hf31     1.0000 0.49764  0.71013  0.25650  Biso   1.000  Hf
  Hf32     1.0000 0.50593  0.79209  0.00376  Biso   1.000  Hf
  Hf33     1.0000 0.75218  0.29009  0.25650  Biso   1.000  Hf
  Hf34     1.0000 0.74389  0.20813  0.00376  Biso   1.000  Hf
  Hf35     1.0000 0.75217  0.71013  0.99332  Biso   1.000  Hf
  Hf36     1.0000 0.74389  0.79209  0.24606  Biso   1.000  Hf
  Hf37     1.0000 0.62491  0.00011  0.62491  Biso   1.000  Hf
  Hf38     1.0000 0.62491  0.50011  0.87346  Biso   1.000  Hf
  Hf39     1.0000 0.87346  0.50011  0.62491  Biso   1.000  Hf
  Hf40     1.0000 0.87348  0.00946  0.87349  Biso   1.000  Hf
  Hf41     1.0000 0.49477  0.30039  0.49477  Biso   1.000  Hf
  Hf42     1.0000 0.50374  0.20232  0.74608  Biso   1.000  Hf
  Hf43     1.0000 0.49477  0.69982  0.75504  Biso   1.000  Hf
  Hf44     1.0000 0.50374  0.79789  0.50374  Biso   1.000  Hf
  Hf45     1.0000 0.75504  0.30040  0.75504  Biso   1.000  Hf
  Hf46     1.0000 0.74608  0.20233  0.50374  Biso   1.000  Hf
  Hf47     1.0000 0.75504  0.69982  0.49477  Biso   1.000  Hf
  Hf48     1.0000 0.74608  0.79789  0.74608  Biso   1.000  Hf
  Ag1      1.0000 0.12491  0.50011  0.12491  Biso   1.000  Ag
