data_image0
_cell_length_a       10.0084
_cell_length_b       10.1718
_cell_length_c       10.0084
_cell_angle_alpha    90
_cell_angle_beta     90
_cell_angle_gamma    90

_symmetry_space_group_name_H-M    "P 1"
_symmetry_int_tables_number       1

loop_
  _symmetry_equiv_pos_as_xyz
  'x, y, z'

loop_
  _atom_site_label
  _atom_site_occupancy
  _atom_site_fract_x
  _atom_site_fract_y
  _atom_site_fract_z
  _atom_site_thermal_displace_type
  _atom_site_B_iso_or_equiv
  _atom_site_type_symbol
  Al1      1.0000 0.12491  0.00005  0.12491  Biso   1.000  Al
  Hf1      1.0000 0.12712  0.25071  0.37611  Biso   1.000  Hf
  Hf2      1.0000 0.37611  0.25072  0.12712  Biso   1.000  Hf
  Hf3      1.0000 0.37104  0.00049  0.37104  Biso   1.000  Hf
  Hf4      1.0000 0.98196  0.15650  0.98196  Biso   1.000  Hf
  Hf5      1.0000 0.01442  0.09116  0.23539  Biso   1.000  Hf
  Hf6      1.0000 0.00163  0.34637  0.24819  Biso   1.000  Hf
  Hf7      1.0000 0.99931  0.40288  0.99931  Biso   1.000  Hf
  Hf8      1.0000 0.26785  0.15650  0.26785  Biso   1.000  Hf
  Hf9      1.0000 0.23540  0.09116  0.01442  Biso   1.000  Hf
  Hf10     1.0000 0.24819  0.34637  0.00162  Biso   1.000  Hf
  Hf11     1.0000 0.25051  0.40288  0.25051  Biso   1.000  Hf
  Hf12     1.0000 0.12491  0.00005  0.62491  Biso   1.000  Hf
  Hf13     1.0000 0.12270  0.25072  0.87371  Biso   1.000  Hf
  Hf14     1.0000 0.37504  0.24756  0.62634  Biso   1.000  Hf
  Hf15     1.0000 0.37104  0.99962  0.87878  Biso   1.000  Hf
  Hf16     1.0000 0.99347  0.14644  0.48781  Biso   1.000  Hf
  Hf17     1.0000 0.00165  0.10395  0.74154  Biso   1.000  Hf
  Hf18     1.0000 0.99780  0.35367  0.74890  Biso   1.000  Hf
  Hf19     1.0000 0.00198  0.39649  0.49882  Biso   1.000  Hf
  Hf20     1.0000 0.25634  0.14644  0.76201  Biso   1.000  Hf
  Hf21     1.0000 0.24817  0.10395  0.50827  Biso   1.000  Hf
  Hf22     1.0000 0.25202  0.35367  0.50091  Biso   1.000  Hf
  Hf23     1.0000 0.24784  0.39649  0.75099  Biso   1.000  Hf
  Hf24     1.0000 0.12491  0.50005  0.12491  Biso   1.000  Hf
  Hf25     1.0000 0.12270  0.74939  0.37611  Biso   1.000  Hf
  Hf26     1.0000 0.37611  0.74939  0.12270  Biso   1.000  Hf
  Hf27     1.0000 0.37760  0.50082  0.37760  Biso   1.000  Hf
  Hf28     1.0000 0.00163  0.65374  0.00163  Biso   1.000  Hf
  Hf29     1.0000 0.99931  0.59723  0.25051  Biso   1.000  Hf
  Hf30     1.0000 0.98196  0.84361  0.26785  Biso   1.000  Hf
  Hf31     1.0000 0.01442  0.90895  0.01442  Biso   1.000  Hf
  Hf32     1.0000 0.24819  0.65374  0.24819  Biso   1.000  Hf
  Hf33     1.0000 0.25051  0.59723  0.99931  Biso   1.000  Hf
  Hf34     1.0000 0.26785  0.84361  0.98196  Biso   1.000  Hf
  Hf35     1.0000 0.23539  0.90895  0.23539  Biso   1.000  Hf
  Hf36     1.0000 0.12491  0.50005  0.62491  Biso   1.000  Hf
  Hf37     1.0000 0.12712  0.74939  0.87371  Biso   1.000  Hf
  Hf38     1.0000 0.37504  0.75255  0.62348  Biso   1.000  Hf
  Hf39     1.0000 0.37760  0.49929  0.87221  Biso   1.000  Hf
  Hf40     1.0000 0.99780  0.64643  0.50091  Biso   1.000  Hf
  Hf41     1.0000 0.00198  0.60362  0.75099  Biso   1.000  Hf
  Hf42     1.0000 0.99347  0.85367  0.76201  Biso   1.000  Hf
  Hf43     1.0000 0.00165  0.89616  0.50827  Biso   1.000  Hf
  Hf44     1.0000 0.25202  0.64643  0.74890  Biso   1.000  Hf
  Hf45     1.0000 0.24784  0.60362  0.49882  Biso   1.000  Hf
  Hf46     1.0000 0.25634  0.85367  0.48781  Biso   1.000  Hf
  Hf47     1.0000 0.24817  0.89616  0.74155  Biso   1.000  Hf
  Hf48     1.0000 0.62491  0.00005  0.12491  Biso   1.000  Hf
  Hf49     1.0000 0.62634  0.24756  0.37504  Biso   1.000  Hf
  Hf50     1.0000 0.87371  0.25072  0.12270  Biso   1.000  Hf
  Hf51     1.0000 0.87878  0.99961  0.37104  Biso   1.000  Hf
  Hf52     1.0000 0.48781  0.14644  0.99347  Biso   1.000  Hf
  Hf53     1.0000 0.50827  0.10395  0.24817  Biso   1.000  Hf
  Hf54     1.0000 0.50091  0.35367  0.25202  Biso   1.000  Hf
  Hf55     1.0000 0.49882  0.39649  0.00198  Biso   1.000  Hf
  Hf56     1.0000 0.76201  0.14644  0.25634  Biso   1.000  Hf
  Hf57     1.0000 0.74155  0.10395  0.00165  Biso   1.000  Hf
  Hf58     1.0000 0.74890  0.35367  0.99780  Biso   1.000  Hf
  Hf59     1.0000 0.75099  0.39649  0.24784  Biso   1.000  Hf
  Hf60     1.0000 0.62491  0.00005  0.62491  Biso   1.000  Hf
  Hf61     1.0000 0.62348  0.24756  0.87478  Biso   1.000  Hf
  Hf62     1.0000 0.87478  0.24756  0.62348  Biso   1.000  Hf
  Hf63     1.0000 0.87878  0.00049  0.87878  Biso   1.000  Hf
  Hf64     1.0000 0.49534  0.14715  0.49534  Biso   1.000  Hf
  Hf65     1.0000 0.50204  0.10268  0.74777  Biso   1.000  Hf
  Hf66     1.0000 0.49791  0.35341  0.75191  Biso   1.000  Hf
  Hf67     1.0000 0.50153  0.39609  0.50153  Biso   1.000  Hf
  Hf68     1.0000 0.75448  0.14715  0.75447  Biso   1.000  Hf
  Hf69     1.0000 0.74777  0.10268  0.50205  Biso   1.000  Hf
  Hf70     1.0000 0.75190  0.35341  0.49791  Biso   1.000  Hf
  Hf71     1.0000 0.74829  0.39609  0.74829  Biso   1.000  Hf
  Hf72     1.0000 0.62491  0.50005  0.12491  Biso   1.000  Hf
  Hf73     1.0000 0.62348  0.75255  0.37504  Biso   1.000  Hf
  Hf74     1.0000 0.87371  0.74939  0.12712  Biso   1.000  Hf
  Hf75     1.0000 0.87221  0.49929  0.37760  Biso   1.000  Hf
  Hf76     1.0000 0.50091  0.64643  0.99780  Biso   1.000  Hf
  Hf77     1.0000 0.49882  0.60362  0.24784  Biso   1.000  Hf
  Hf78     1.0000 0.48781  0.85367  0.25634  Biso   1.000  Hf
  Hf79     1.0000 0.50827  0.89616  0.00165  Biso   1.000  Hf
  Hf80     1.0000 0.74890  0.64643  0.25202  Biso   1.000  Hf
  Hf81     1.0000 0.75099  0.60362  0.00198  Biso   1.000  Hf
  Hf82     1.0000 0.76201  0.85367  0.99347  Biso   1.000  Hf
  Hf83     1.0000 0.74155  0.89616  0.24817  Biso   1.000  Hf
  Hf84     1.0000 0.62491  0.50005  0.62491  Biso   1.000  Hf
  Hf85     1.0000 0.62634  0.75255  0.87478  Biso   1.000  Hf
  Hf86     1.0000 0.87478  0.75255  0.62634  Biso   1.000  Hf
  Hf87     1.0000 0.87221  0.50082  0.87221  Biso   1.000  Hf
  Hf88     1.0000 0.49791  0.64670  0.49791  Biso   1.000  Hf
  Hf89     1.0000 0.50153  0.60401  0.74829  Biso   1.000  Hf
  Hf90     1.0000 0.49534  0.85296  0.75448  Biso   1.000  Hf
  Hf91     1.0000 0.50205  0.89743  0.50204  Biso   1.000  Hf
  Hf92     1.0000 0.75190  0.64670  0.75190  Biso   1.000  Hf
  Hf93     1.0000 0.74829  0.60401  0.50153  Biso   1.000  Hf
  Hf94     1.0000 0.75448  0.85296  0.49534  Biso   1.000  Hf
  Hf95     1.0000 0.74777  0.89743  0.74777  Biso   1.000  Hf
