data_image0
_cell_length_a       9.95791
_cell_length_b       5.18021
_cell_length_c       9.98233
_cell_angle_alpha    91.8355
_cell_angle_beta     89.4462
_cell_angle_gamma    90.1026

_symmetry_space_group_name_H-M    "P 1"
_symmetry_int_tables_number       1

loop_
  _symmetry_equiv_pos_as_xyz
  'x, y, z'

loop_
  _atom_site_label
  _atom_site_occupancy
  _atom_site_fract_x
  _atom_site_fract_y
  _atom_site_fract_z
  _atom_site_thermal_displace_type
  _atom_site_B_iso_or_equiv
  _atom_site_type_symbol
  Al1      1.0000 0.11957  0.05877  0.10757  Biso   1.000  Al
  Hf1      1.0000 0.13641  0.43495  0.37167  Biso   1.000  Hf
  Hf2      1.0000 0.38620  0.53001  0.10681  Biso   1.000  Hf
  Hf3      1.0000 0.36269  0.94324  0.37191  Biso   1.000  Hf
  Hf4      1.0000 0.03470  0.36752  0.18784  Biso   1.000  Hf
  Hf5      1.0000 0.03025  0.13199  0.45901  Biso   1.000  Hf
  Hf6      1.0000 0.46899  0.87512  0.18977  Biso   1.000  Hf
  Hf7      1.0000 0.47441  0.64017  0.45897  Biso   1.000  Hf
  Hf8      1.0000 0.22602  0.11436  0.25604  Biso   1.000  Hf
  Hf9      1.0000 0.27520  0.25569  0.50076  Biso   1.000  Hf
  Hf10     1.0000 0.22665  0.75492  0.50358  Biso   1.000  Hf
  Hf11     1.0000 0.27426  0.62129  0.26568  Biso   1.000  Hf
  Hf12     1.0000 0.13735  0.03711  0.63034  Biso   1.000  Hf
  Hf13     1.0000 0.13241  0.48250  0.88505  Biso   1.000  Hf
  Hf14     1.0000 0.36386  0.54047  0.62980  Biso   1.000  Hf
  Hf15     1.0000 0.35647  0.98525  0.88513  Biso   1.000  Hf
  Hf16     1.0000 0.03617  0.37385  0.70075  Biso   1.000  Hf
  Hf17     1.0000 0.03302  0.13805  0.94494  Biso   1.000  Hf
  Hf18     1.0000 0.46043  0.88078  0.69978  Biso   1.000  Hf
  Hf19     1.0000 0.46473  0.66103  0.93210  Biso   1.000  Hf
  Hf20     1.0000 0.27079  0.25089  0.75732  Biso   1.000  Hf
  Hf21     1.0000 0.25833  0.27501  0.01241  Biso   1.000  Hf
  Hf22     1.0000 0.22346  0.78628  0.01568  Biso   1.000  Hf
  Hf23     1.0000 0.22613  0.74775  0.75830  Biso   1.000  Hf
  Hf24     1.0000 0.63714  0.04368  0.12569  Biso   1.000  Hf
  Hf25     1.0000 0.63850  0.46859  0.37814  Biso   1.000  Hf
  Hf26     1.0000 0.86995  0.54177  0.12142  Biso   1.000  Hf
  Hf27     1.0000 0.87143  0.96704  0.37130  Biso   1.000  Hf
  Hf28     1.0000 0.53733  0.37325  0.20336  Biso   1.000  Hf
  Hf29     1.0000 0.53560  0.13117  0.43914  Biso   1.000  Hf
  Hf30     1.0000 0.97897  0.87418  0.18821  Biso   1.000  Hf
  Hf31     1.0000 0.96662  0.62639  0.43620  Biso   1.000  Hf
  Hf32     1.0000 0.77621  0.23680  0.24689  Biso   1.000  Hf
  Hf33     1.0000 0.76920  0.26516  0.49712  Biso   1.000  Hf
  Hf34     1.0000 0.73714  0.76919  0.49548  Biso   1.000  Hf
  Hf35     1.0000 0.73317  0.73761  0.24563  Biso   1.000  Hf
  Hf36     1.0000 0.62827  0.02903  0.61862  Biso   1.000  Hf
  Hf37     1.0000 0.63698  0.47478  0.86874  Biso   1.000  Hf
  Hf38     1.0000 0.87216  0.53104  0.61969  Biso   1.000  Hf
  Hf39     1.0000 0.86489  0.97608  0.87042  Biso   1.000  Hf
  Hf40     1.0000 0.53403  0.37022  0.69322  Biso   1.000  Hf
  Hf41     1.0000 0.52157  0.17488  0.95866  Biso   1.000  Hf
  Hf42     1.0000 0.96582  0.86973  0.69220  Biso   1.000  Hf
  Hf43     1.0000 0.95725  0.63939  0.93906  Biso   1.000  Hf
  Hf44     1.0000 0.76687  0.23184  0.74510  Biso   1.000  Hf
  Hf45     1.0000 0.76692  0.27552  0.99580  Biso   1.000  Hf
  Hf46     1.0000 0.72590  0.77790  0.99372  Biso   1.000  Hf
  Hf47     1.0000 0.73017  0.73308  0.74233  Biso   1.000  Hf
