data_image0
_cell_length_a       10.1297
_cell_length_b       5.18922
_cell_length_c       10.2387
_cell_angle_alpha    89.602
_cell_angle_beta     95.9519
_cell_angle_gamma    90.0248

_symmetry_space_group_name_H-M    "P 1"
_symmetry_int_tables_number       1

loop_
  _symmetry_equiv_pos_as_xyz
  'x, y, z'

loop_
  _atom_site_label
  _atom_site_occupancy
  _atom_site_fract_x
  _atom_site_fract_y
  _atom_site_fract_z
  _atom_site_thermal_displace_type
  _atom_site_B_iso_or_equiv
  _atom_site_type_symbol
  Hf1      1.0000 0.13704  0.02668  0.10611  Biso   1.000  Hf
  Hf2      1.0000 0.14010  0.46316  0.35875  Biso   1.000  Hf
  Hf3      1.0000 0.36561  0.53377  0.12212  Biso   1.000  Hf
  Hf4      1.0000 0.36886  0.96503  0.37236  Biso   1.000  Hf
  Hf5      1.0000 0.03281  0.35631  0.18346  Biso   1.000  Hf
  Hf6      1.0000 0.04134  0.14461  0.42297  Biso   1.000  Hf
  Hf7      1.0000 0.45987  0.87064  0.20119  Biso   1.000  Hf
  Hf8      1.0000 0.46524  0.62846  0.45038  Biso   1.000  Hf
  Hf9      1.0000 0.27171  0.23947  0.24307  Biso   1.000  Hf
  Hf10     1.0000 0.27823  0.25629  0.49305  Biso   1.000  Hf
  Hf11     1.0000 0.23401  0.75949  0.48233  Biso   1.000  Hf
  Hf12     1.0000 0.22842  0.73098  0.23384  Biso   1.000  Hf
  Hf13     1.0000 0.14403  0.03157  0.60093  Biso   1.000  Hf
  Hf14     1.0000 0.15934  0.46031  0.84116  Biso   1.000  Hf
  Hf15     1.0000 0.37806  0.53274  0.62139  Biso   1.000  Hf
  Hf16     1.0000 0.37807  0.96522  0.87360  Biso   1.000  Hf
  Hf17     1.0000 0.04184  0.32978  0.67629  Biso   1.000  Hf
  Hf18     1.0000 0.03098  0.14027  0.93464  Biso   1.000  Hf
  Hf19     1.0000 0.47462  0.86099  0.70110  Biso   1.000  Hf
  Hf20     1.0000 0.46762  0.62101  0.94814  Biso   1.000  Hf
  Hf21     1.0000 0.28627  0.23435  0.73888  Biso   1.000  Hf
  Hf22     1.0000 0.27960  0.25915  0.99065  Biso   1.000  Hf
  Hf23     1.0000 0.24946  0.78254  0.98289  Biso   1.000  Hf
  Hf24     1.0000 0.24114  0.73488  0.72945  Biso   1.000  Hf
  Hf25     1.0000 0.62940  0.03728  0.15393  Biso   1.000  Hf
  Hf26     1.0000 0.63421  0.45791  0.40432  Biso   1.000  Hf
  Hf27     1.0000 0.84533  0.54103  0.18353  Biso   1.000  Hf
  Hf28     1.0000 0.86608  0.95508  0.41949  Biso   1.000  Hf
  Hf29     1.0000 0.53478  0.37047  0.21141  Biso   1.000  Hf
  Hf30     1.0000 0.53834  0.12655  0.46177  Biso   1.000  Hf
  Hf31     1.0000 0.94553  0.90497  0.15154  Biso   1.000  Hf
  Hf32     1.0000 0.95763  0.62804  0.36563  Biso   1.000  Hf
  Hf33     1.0000 0.76529  0.23682  0.29256  Biso   1.000  Hf
  Hf34     1.0000 0.77562  0.25586  0.53989  Biso   1.000  Hf
  Hf35     1.0000 0.72805  0.74031  0.53544  Biso   1.000  Hf
  Hf36     1.0000 0.71675  0.75707  0.28890  Biso   1.000  Hf
  Hf37     1.0000 0.64255  0.03072  0.65146  Biso   1.000  Hf
  Hf38     1.0000 0.63646  0.46429  0.90010  Biso   1.000  Hf
  Hf39     1.0000 0.86678  0.53705  0.66977  Biso   1.000  Hf
  Hf40     1.0000 0.85315  0.96646  0.93553  Biso   1.000  Hf
  Hf41     1.0000 0.54589  0.36354  0.70747  Biso   1.000  Hf
  Hf42     1.0000 0.54146  0.12907  0.95955  Biso   1.000  Hf
  Hf43     1.0000 0.96959  0.83841  0.59680  Biso   1.000  Hf
  Hf44     1.0000 0.98267  0.68218  0.83003  Biso   1.000  Hf
  Hf45     1.0000 0.77822  0.23281  0.79238  Biso   1.000  Hf
  Hf46     1.0000 0.76375  0.26029  0.04339  Biso   1.000  Hf
  Hf47     1.0000 0.71559  0.74740  0.03876  Biso   1.000  Hf
  Hf48     1.0000 0.73498  0.74644  0.78800  Biso   1.000  Hf
  As1      1.0000 0.01288  0.56457  0.01631  Biso   1.000  As
