data_image0
_cell_length_a       9.97595
_cell_length_b       5.27851
_cell_length_c       10.193
_cell_angle_alpha    87.7416
_cell_angle_beta     90.8827
_cell_angle_gamma    90.0436

_symmetry_space_group_name_H-M    "P 1"
_symmetry_int_tables_number       1

loop_
  _symmetry_equiv_pos_as_xyz
  'x, y, z'

loop_
  _atom_site_label
  _atom_site_occupancy
  _atom_site_fract_x
  _atom_site_fract_y
  _atom_site_fract_z
  _atom_site_thermal_displace_type
  _atom_site_B_iso_or_equiv
  _atom_site_type_symbol
  Hf1      1.0000 0.14072  0.07946  0.13561  Biso   1.000  Hf
  Hf2      1.0000 0.13646  0.46653  0.38459  Biso   1.000  Hf
  Hf3      1.0000 0.36988  0.55811  0.12876  Biso   1.000  Hf
  Hf4      1.0000 0.36908  0.96249  0.37923  Biso   1.000  Hf
  Hf5      1.0000 0.02604  0.37252  0.21412  Biso   1.000  Hf
  Hf6      1.0000 0.05033  0.11352  0.43311  Biso   1.000  Hf
  Hf7      1.0000 0.47138  0.87336  0.20989  Biso   1.000  Hf
  Hf8      1.0000 0.46567  0.62484  0.45362  Biso   1.000  Hf
  Hf9      1.0000 0.27721  0.25379  0.25601  Biso   1.000  Hf
  Hf10     1.0000 0.27793  0.25031  0.50356  Biso   1.000  Hf
  Hf11     1.0000 0.23428  0.74848  0.50252  Biso   1.000  Hf
  Hf12     1.0000 0.23034  0.74590  0.25644  Biso   1.000  Hf
  Hf13     1.0000 0.13876  0.00537  0.61547  Biso   1.000  Hf
  Hf14     1.0000 0.12400  0.41179  0.83741  Biso   1.000  Hf
  Hf15     1.0000 0.36970  0.51318  0.62957  Biso   1.000  Hf
  Hf16     1.0000 0.39024  0.95346  0.86596  Biso   1.000  Hf
  Hf17     1.0000 0.05032  0.35182  0.65232  Biso   1.000  Hf
  Hf18     1.0000 0.02932  0.11823  0.94239  Biso   1.000  Hf
  Hf19     1.0000 0.46687  0.84032  0.68913  Biso   1.000  Hf
  Hf20     1.0000 0.47790  0.62663  0.94945  Biso   1.000  Hf
  Hf21     1.0000 0.26905  0.19689  0.75040  Biso   1.000  Hf
  Hf22     1.0000 0.24966  0.34827  0.00764  Biso   1.000  Hf
  Hf23     1.0000 0.27245  0.86867  0.01887  Biso   1.000  Hf
  Hf24     1.0000 0.23440  0.70653  0.75458  Biso   1.000  Hf
  Hf25     1.0000 0.63723  0.04170  0.13647  Biso   1.000  Hf
  Hf26     1.0000 0.63131  0.46263  0.38705  Biso   1.000  Hf
  Hf27     1.0000 0.84408  0.53160  0.15381  Biso   1.000  Hf
  Hf28     1.0000 0.87317  0.96047  0.38730  Biso   1.000  Hf
  Hf29     1.0000 0.53968  0.37513  0.20064  Biso   1.000  Hf
  Hf30     1.0000 0.53612  0.12934  0.45225  Biso   1.000  Hf
  Hf31     1.0000 0.96085  0.88625  0.20564  Biso   1.000  Hf
  Hf32     1.0000 0.96336  0.61981  0.44499  Biso   1.000  Hf
  Hf33     1.0000 0.76579  0.23240  0.26908  Biso   1.000  Hf
  Hf34     1.0000 0.77131  0.26209  0.51243  Biso   1.000  Hf
  Hf35     1.0000 0.73090  0.75566  0.50764  Biso   1.000  Hf
  Hf36     1.0000 0.72467  0.74367  0.26466  Biso   1.000  Hf
  Hf37     1.0000 0.63872  0.02277  0.62852  Biso   1.000  Hf
  Hf38     1.0000 0.64276  0.45412  0.88253  Biso   1.000  Hf
  Hf39     1.0000 0.86756  0.52953  0.63354  Biso   1.000  Hf
  Hf40     1.0000 0.86949  0.92873  0.86613  Biso   1.000  Hf
  Hf41     1.0000 0.52998  0.33087  0.71103  Biso   1.000  Hf
  Hf42     1.0000 0.53850  0.12977  0.95781  Biso   1.000  Hf
  Hf43     1.0000 0.95473  0.89114  0.66496  Biso   1.000  Hf
  Hf44     1.0000 0.93399  0.56546  0.83396  Biso   1.000  Hf
  Hf45     1.0000 0.76851  0.21376  0.76104  Biso   1.000  Hf
  Hf46     1.0000 0.76820  0.28401  0.02056  Biso   1.000  Hf
  Hf47     1.0000 0.74367  0.77104  0.00824  Biso   1.000  Hf
  Hf48     1.0000 0.71679  0.72886  0.75152  Biso   1.000  Hf
  Au1      1.0000 0.06195  0.66100  0.03426  Biso   1.000  Au
