data_image0
_cell_length_a       10.0262
_cell_length_b       10.2248
_cell_length_c       10.0262
_cell_angle_alpha    89.9813
_cell_angle_beta     90.7873
_cell_angle_gamma    89.9813

_symmetry_space_group_name_H-M    "P 1"
_symmetry_int_tables_number       1

loop_
  _symmetry_equiv_pos_as_xyz
  'x, y, z'

loop_
  _atom_site_label
  _atom_site_occupancy
  _atom_site_fract_x
  _atom_site_fract_y
  _atom_site_fract_z
  _atom_site_thermal_displace_type
  _atom_site_B_iso_or_equiv
  _atom_site_type_symbol
  Au1      1.0000 0.12491  0.02337  0.12491  Biso   1.000  Au
  Hf1      1.0000 0.11855  0.25019  0.37983  Biso   1.000  Hf
  Hf2      1.0000 0.37983  0.25019  0.11855  Biso   1.000  Hf
  Hf3      1.0000 0.36922  0.99481  0.36922  Biso   1.000  Hf
  Hf4      1.0000 0.01567  0.15112  0.01567  Biso   1.000  Hf
  Hf5      1.0000 0.98155  0.10993  0.26872  Biso   1.000  Hf
  Hf6      1.0000 0.00397  0.35384  0.24583  Biso   1.000  Hf
  Hf7      1.0000 0.99671  0.39510  0.99671  Biso   1.000  Hf
  Hf8      1.0000 0.23450  0.15073  0.23450  Biso   1.000  Hf
  Hf9      1.0000 0.26872  0.10993  0.98155  Biso   1.000  Hf
  Hf10     1.0000 0.24583  0.35384  0.00397  Biso   1.000  Hf
  Hf11     1.0000 0.25306  0.39502  0.25306  Biso   1.000  Hf
  Hf12     1.0000 0.12488  0.00816  0.62469  Biso   1.000  Hf
  Hf13     1.0000 0.13149  0.24998  0.87000  Biso   1.000  Hf
  Hf14     1.0000 0.37922  0.25128  0.62188  Biso   1.000  Hf
  Hf15     1.0000 0.38150  0.99235  0.86776  Biso   1.000  Hf
  Hf16     1.0000 0.00057  0.15137  0.51361  Biso   1.000  Hf
  Hf17     1.0000 0.00819  0.10027  0.76416  Biso   1.000  Hf
  Hf18     1.0000 0.00169  0.35195  0.74612  Biso   1.000  Hf
  Hf19     1.0000 0.00089  0.39844  0.49515  Biso   1.000  Hf
  Hf20     1.0000 0.25000  0.15085  0.73667  Biso   1.000  Hf
  Hf21     1.0000 0.24229  0.10049  0.48597  Biso   1.000  Hf
  Hf22     1.0000 0.24838  0.35199  0.50371  Biso   1.000  Hf
  Hf23     1.0000 0.24910  0.39818  0.75456  Biso   1.000  Hf
  Hf24     1.0000 0.12482  0.49156  0.12482  Biso   1.000  Hf
  Hf25     1.0000 0.12129  0.74661  0.37098  Biso   1.000  Hf
  Hf26     1.0000 0.37098  0.74661  0.12129  Biso   1.000  Hf
  Hf27     1.0000 0.37481  0.50137  0.37481  Biso   1.000  Hf
  Hf28     1.0000 0.99917  0.64724  0.99917  Biso   1.000  Hf
  Hf29     1.0000 0.00150  0.59961  0.24829  Biso   1.000  Hf
  Hf30     1.0000 0.97487  0.84362  0.27492  Biso   1.000  Hf
  Hf31     1.0000 0.01592  0.89770  0.01592  Biso   1.000  Hf
  Hf32     1.0000 0.25064  0.64714  0.25064  Biso   1.000  Hf
  Hf33     1.0000 0.24829  0.59961  0.00150  Biso   1.000  Hf
  Hf34     1.0000 0.27492  0.84362  0.97487  Biso   1.000  Hf
  Hf35     1.0000 0.23385  0.89746  0.23385  Biso   1.000  Hf
  Hf36     1.0000 0.12485  0.49902  0.62497  Biso   1.000  Hf
  Hf37     1.0000 0.12845  0.74679  0.87878  Biso   1.000  Hf
  Hf38     1.0000 0.37180  0.75040  0.62123  Biso   1.000  Hf
  Hf39     1.0000 0.37512  0.50350  0.87463  Biso   1.000  Hf
  Hf40     1.0000 0.00026  0.64842  0.50109  Biso   1.000  Hf
  Hf41     1.0000 0.99902  0.60057  0.74889  Biso   1.000  Hf
  Hf42     1.0000 0.99787  0.85013  0.76430  Biso   1.000  Hf
  Hf43     1.0000 0.99290  0.89991  0.51609  Biso   1.000  Hf
  Hf44     1.0000 0.24927  0.64823  0.74867  Biso   1.000  Hf
  Hf45     1.0000 0.25058  0.60056  0.50083  Biso   1.000  Hf
  Hf46     1.0000 0.25135  0.85030  0.48564  Biso   1.000  Hf
  Hf47     1.0000 0.25634  0.89949  0.73386  Biso   1.000  Hf
  Hf48     1.0000 0.62469  0.00816  0.12488  Biso   1.000  Hf
  Hf49     1.0000 0.62188  0.25127  0.37922  Biso   1.000  Hf
  Hf50     1.0000 0.87000  0.24998  0.13149  Biso   1.000  Hf
  Hf51     1.0000 0.86776  0.99235  0.38150  Biso   1.000  Hf
  Hf52     1.0000 0.51361  0.15137  0.00058  Biso   1.000  Hf
  Hf53     1.0000 0.48597  0.10049  0.24229  Biso   1.000  Hf
  Hf54     1.0000 0.50370  0.35199  0.24839  Biso   1.000  Hf
  Hf55     1.0000 0.49515  0.39844  0.00089  Biso   1.000  Hf
  Hf56     1.0000 0.73666  0.15085  0.25000  Biso   1.000  Hf
  Hf57     1.0000 0.76416  0.10027  0.00819  Biso   1.000  Hf
  Hf58     1.0000 0.74612  0.35195  0.00169  Biso   1.000  Hf
  Hf59     1.0000 0.75456  0.39818  0.24910  Biso   1.000  Hf
  Hf60     1.0000 0.62454  0.99510  0.62454  Biso   1.000  Hf
  Hf61     1.0000 0.62812  0.25124  0.87079  Biso   1.000  Hf
  Hf62     1.0000 0.87079  0.25124  0.62811  Biso   1.000  Hf
  Hf63     1.0000 0.88011  0.99488  0.88011  Biso   1.000  Hf
  Hf64     1.0000 0.49338  0.14606  0.49339  Biso   1.000  Hf
  Hf65     1.0000 0.50421  0.10349  0.74629  Biso   1.000  Hf
  Hf66     1.0000 0.50045  0.35367  0.74953  Biso   1.000  Hf
  Hf67     1.0000 0.50011  0.39780  0.50011  Biso   1.000  Hf
  Hf68     1.0000 0.75733  0.14624  0.75733  Biso   1.000  Hf
  Hf69     1.0000 0.74628  0.10349  0.50421  Biso   1.000  Hf
  Hf70     1.0000 0.74952  0.35367  0.50045  Biso   1.000  Hf
  Hf71     1.0000 0.74979  0.39787  0.74979  Biso   1.000  Hf
  Hf72     1.0000 0.62497  0.49903  0.12485  Biso   1.000  Hf
  Hf73     1.0000 0.62123  0.75040  0.37181  Biso   1.000  Hf
  Hf74     1.0000 0.87878  0.74679  0.12845  Biso   1.000  Hf
  Hf75     1.0000 0.87463  0.50350  0.37512  Biso   1.000  Hf
  Hf76     1.0000 0.50109  0.64842  0.00026  Biso   1.000  Hf
  Hf77     1.0000 0.50083  0.60056  0.25058  Biso   1.000  Hf
  Hf78     1.0000 0.48564  0.85030  0.25135  Biso   1.000  Hf
  Hf79     1.0000 0.51609  0.89992  0.99289  Biso   1.000  Hf
  Hf80     1.0000 0.74867  0.64823  0.24927  Biso   1.000  Hf
  Hf81     1.0000 0.74889  0.60057  0.99902  Biso   1.000  Hf
  Hf82     1.0000 0.76430  0.85013  0.99787  Biso   1.000  Hf
  Hf83     1.0000 0.73386  0.89949  0.25634  Biso   1.000  Hf
  Hf84     1.0000 0.62491  0.50475  0.62491  Biso   1.000  Hf
  Hf85     1.0000 0.62845  0.75063  0.87772  Biso   1.000  Hf
  Hf86     1.0000 0.87772  0.75063  0.62845  Biso   1.000  Hf
  Hf87     1.0000 0.87498  0.50145  0.87498  Biso   1.000  Hf
  Hf88     1.0000 0.50031  0.64829  0.50031  Biso   1.000  Hf
  Hf89     1.0000 0.49927  0.60228  0.75020  Biso   1.000  Hf
  Hf90     1.0000 0.50463  0.84921  0.74474  Biso   1.000  Hf
  Hf91     1.0000 0.49714  0.89880  0.49713  Biso   1.000  Hf
  Hf92     1.0000 0.74918  0.64836  0.74918  Biso   1.000  Hf
  Hf93     1.0000 0.75020  0.60228  0.49927  Biso   1.000  Hf
  Hf94     1.0000 0.74474  0.84921  0.50463  Biso   1.000  Hf
  Hf95     1.0000 0.75223  0.89899  0.75223  Biso   1.000  Hf
