data_image0
_cell_length_a       9.94608
_cell_length_b       10.3761
_cell_length_c       5.01756
_cell_angle_alpha    90.1358
_cell_angle_beta     89.2081
_cell_angle_gamma    89.766

_symmetry_space_group_name_H-M    "P 1"
_symmetry_int_tables_number       1

loop_
  _symmetry_equiv_pos_as_xyz
  'x, y, z'

loop_
  _atom_site_label
  _atom_site_occupancy
  _atom_site_fract_x
  _atom_site_fract_y
  _atom_site_fract_z
  _atom_site_thermal_displace_type
  _atom_site_B_iso_or_equiv
  _atom_site_type_symbol
  Au1      1.0000 0.11838  0.02431  0.21689  Biso   1.000  Au
  Hf1      1.0000 0.14019  0.23604  0.74854  Biso   1.000  Hf
  Hf2      1.0000 0.36829  0.26871  0.26200  Biso   1.000  Hf
  Hf3      1.0000 0.36606  0.48505  0.75634  Biso   1.000  Hf
  Hf4      1.0000 0.04061  0.18545  0.37491  Biso   1.000  Hf
  Hf5      1.0000 0.03983  0.06477  0.81562  Biso   1.000  Hf
  Hf6      1.0000 0.46447  0.43467  0.39462  Biso   1.000  Hf
  Hf7      1.0000 0.46245  0.31444  0.88771  Biso   1.000  Hf
  Hf8      1.0000 0.29389  0.13663  0.53545  Biso   1.000  Hf
  Hf9      1.0000 0.26215  0.12727  0.02691  Biso   1.000  Hf
  Hf10     1.0000 0.23095  0.38150  0.00273  Biso   1.000  Hf
  Hf11     1.0000 0.22684  0.37314  0.50063  Biso   1.000  Hf
  Hf12     1.0000 0.13411  0.51702  0.25431  Biso   1.000  Hf
  Hf13     1.0000 0.13331  0.73274  0.75667  Biso   1.000  Hf
  Hf14     1.0000 0.36528  0.76695  0.26307  Biso   1.000  Hf
  Hf15     1.0000 0.36172  0.98334  0.75569  Biso   1.000  Hf
  Hf16     1.0000 0.03556  0.68381  0.39197  Biso   1.000  Hf
  Hf17     1.0000 0.03471  0.56405  0.89259  Biso   1.000  Hf
  Hf18     1.0000 0.46654  0.93459  0.39648  Biso   1.000  Hf
  Hf19     1.0000 0.46126  0.81689  0.89895  Biso   1.000  Hf
  Hf20     1.0000 0.26975  0.61512  0.50254  Biso   1.000  Hf
  Hf21     1.0000 0.26986  0.63383  0.00415  Biso   1.000  Hf
  Hf22     1.0000 0.22103  0.88246  0.02676  Biso   1.000  Hf
  Hf23     1.0000 0.24053  0.85935  0.53028  Biso   1.000  Hf
  Hf24     1.0000 0.63281  0.01629  0.24728  Biso   1.000  Hf
  Hf25     1.0000 0.63329  0.23188  0.74971  Biso   1.000  Hf
  Hf26     1.0000 0.86243  0.26636  0.24554  Biso   1.000  Hf
  Hf27     1.0000 0.86643  0.48187  0.75069  Biso   1.000  Hf
  Hf28     1.0000 0.54416  0.18851  0.37734  Biso   1.000  Hf
  Hf29     1.0000 0.53537  0.06576  0.88761  Biso   1.000  Hf
  Hf30     1.0000 0.96431  0.42947  0.38799  Biso   1.000  Hf
  Hf31     1.0000 0.96412  0.31442  0.88527  Biso   1.000  Hf
  Hf32     1.0000 0.77113  0.11706  0.49269  Biso   1.000  Hf
  Hf33     1.0000 0.77381  0.12988  0.99168  Biso   1.000  Hf
  Hf34     1.0000 0.72886  0.38056  0.00077  Biso   1.000  Hf
  Hf35     1.0000 0.72917  0.36816  0.50114  Biso   1.000  Hf
  Hf36     1.0000 0.63456  0.51692  0.25565  Biso   1.000  Hf
  Hf37     1.0000 0.63208  0.73350  0.75436  Biso   1.000  Hf
  Hf38     1.0000 0.86718  0.76369  0.24356  Biso   1.000  Hf
  Hf39     1.0000 0.86223  0.98112  0.74098  Biso   1.000  Hf
  Hf40     1.0000 0.53569  0.68370  0.39742  Biso   1.000  Hf
  Hf41     1.0000 0.53559  0.56600  0.89540  Biso   1.000  Hf
  Hf42     1.0000 0.96035  0.93466  0.36993  Biso   1.000  Hf
  Hf43     1.0000 0.96095  0.81577  0.88185  Biso   1.000  Hf
  Hf44     1.0000 0.77080  0.61626  0.49941  Biso   1.000  Hf
  Hf45     1.0000 0.76922  0.63100  0.99847  Biso   1.000  Hf
  Hf46     1.0000 0.72605  0.88002  0.99582  Biso   1.000  Hf
  Hf47     1.0000 0.73297  0.86610  0.49515  Biso   1.000  Hf
