data_image0
_cell_length_a       10.0679
_cell_length_b       10.2512
_cell_length_c       10.0679
_cell_angle_alpha    90.0003
_cell_angle_beta     89.9991
_cell_angle_gamma    90

_symmetry_space_group_name_H-M    "P 1"
_symmetry_int_tables_number       1

loop_
  _symmetry_equiv_pos_as_xyz
  'x, y, z'

loop_
  _atom_site_label
  _atom_site_occupancy
  _atom_site_fract_x
  _atom_site_fract_y
  _atom_site_fract_z
  _atom_site_thermal_displace_type
  _atom_site_B_iso_or_equiv
  _atom_site_type_symbol
  Ba1      1.0000 0.12568  0.00035  0.12570  Biso   1.000  Ba
  Hf1      1.0000 0.12569  0.00035  0.62570  Biso   1.000  Hf
  Hf2      1.0000 0.12568  0.50035  0.12570  Biso   1.000  Hf
  Hf3      1.0000 0.12568  0.50034  0.62571  Biso   1.000  Hf
  Hf4      1.0000 0.62567  0.00035  0.12572  Biso   1.000  Hf
  Hf5      1.0000 0.62569  0.00036  0.62572  Biso   1.000  Hf
  Hf6      1.0000 0.62569  0.50034  0.12571  Biso   1.000  Hf
  Hf7      1.0000 0.62568  0.50033  0.62570  Biso   1.000  Hf
  Hf8      1.0000 0.12354  0.25418  0.37838  Biso   1.000  Hf
  Hf9      1.0000 0.12783  0.25417  0.87302  Biso   1.000  Hf
  Hf10     1.0000 0.12780  0.74654  0.37840  Biso   1.000  Hf
  Hf11     1.0000 0.12352  0.74652  0.87302  Biso   1.000  Hf
  Hf12     1.0000 0.62570  0.24987  0.37565  Biso   1.000  Hf
  Hf13     1.0000 0.62565  0.24986  0.87577  Biso   1.000  Hf
  Hf14     1.0000 0.62567  0.75084  0.37565  Biso   1.000  Hf
  Hf15     1.0000 0.62572  0.75083  0.87576  Biso   1.000  Hf
  Hf16     1.0000 0.37836  0.25418  0.12357  Biso   1.000  Hf
  Hf17     1.0000 0.37562  0.24987  0.62573  Biso   1.000  Hf
  Hf18     1.0000 0.37837  0.74654  0.12783  Biso   1.000  Hf
  Hf19     1.0000 0.37563  0.75084  0.62570  Biso   1.000  Hf
  Hf20     1.0000 0.87300  0.25417  0.12786  Biso   1.000  Hf
  Hf21     1.0000 0.87574  0.24987  0.62568  Biso   1.000  Hf
  Hf22     1.0000 0.87300  0.74652  0.12355  Biso   1.000  Hf
  Hf23     1.0000 0.87574  0.75084  0.62575  Biso   1.000  Hf
  Hf24     1.0000 0.37821  0.00388  0.37823  Biso   1.000  Hf
  Hf25     1.0000 0.37819  0.99681  0.87319  Biso   1.000  Hf
  Hf26     1.0000 0.37694  0.49938  0.37697  Biso   1.000  Hf
  Hf27     1.0000 0.37695  0.50136  0.87444  Biso   1.000  Hf
  Hf28     1.0000 0.87316  0.99680  0.37822  Biso   1.000  Hf
  Hf29     1.0000 0.87317  0.00391  0.87319  Biso   1.000  Hf
  Hf30     1.0000 0.87441  0.50137  0.37697  Biso   1.000  Hf
  Hf31     1.0000 0.87442  0.49933  0.87444  Biso   1.000  Hf
  Hf32     1.0000 0.99256  0.15878  0.99258  Biso   1.000  Hf
  Hf33     1.0000 0.01003  0.15110  0.51264  Biso   1.000  Hf
  Hf34     1.0000 0.00588  0.64401  0.00591  Biso   1.000  Hf
  Hf35     1.0000 0.00110  0.64718  0.50540  Biso   1.000  Hf
  Hf36     1.0000 0.51260  0.15110  0.01005  Biso   1.000  Hf
  Hf37     1.0000 0.50568  0.14901  0.50570  Biso   1.000  Hf
  Hf38     1.0000 0.50538  0.64718  0.00113  Biso   1.000  Hf
  Hf39     1.0000 0.50024  0.64882  0.50027  Biso   1.000  Hf
  Hf40     1.0000 0.98177  0.12322  0.26965  Biso   1.000  Hf
  Hf41     1.0000 0.99696  0.10078  0.75206  Biso   1.000  Hf
  Hf42     1.0000 0.99812  0.59974  0.25327  Biso   1.000  Hf
  Hf43     1.0000 0.00159  0.60154  0.75474  Biso   1.000  Hf
  Hf44     1.0000 0.49936  0.10079  0.25451  Biso   1.000  Hf
  Hf45     1.0000 0.49866  0.10247  0.75280  Biso   1.000  Hf
  Hf46     1.0000 0.49663  0.60154  0.24975  Biso   1.000  Hf
  Hf47     1.0000 0.50095  0.60226  0.75039  Biso   1.000  Hf
  Hf48     1.0000 0.00589  0.35667  0.24550  Biso   1.000  Hf
  Hf49     1.0000 0.00114  0.35353  0.74600  Biso   1.000  Hf
  Hf50     1.0000 0.99252  0.84192  0.25883  Biso   1.000  Hf
  Hf51     1.0000 0.01000  0.84963  0.73878  Biso   1.000  Hf
  Hf52     1.0000 0.50540  0.35353  0.25024  Biso   1.000  Hf
  Hf53     1.0000 0.50029  0.35190  0.75109  Biso   1.000  Hf
  Hf54     1.0000 0.51255  0.84962  0.24144  Biso   1.000  Hf
  Hf55     1.0000 0.50564  0.85170  0.74577  Biso   1.000  Hf
  Hf56     1.0000 0.99813  0.40096  0.99814  Biso   1.000  Hf
  Hf57     1.0000 0.00159  0.39917  0.49667  Biso   1.000  Hf
  Hf58     1.0000 0.98174  0.87746  0.98177  Biso   1.000  Hf
  Hf59     1.0000 0.99695  0.89993  0.49934  Biso   1.000  Hf
  Hf60     1.0000 0.49665  0.39917  0.00161  Biso   1.000  Hf
  Hf61     1.0000 0.50096  0.39846  0.50098  Biso   1.000  Hf
  Hf62     1.0000 0.49930  0.89993  0.99700  Biso   1.000  Hf
  Hf63     1.0000 0.49865  0.89825  0.49868  Biso   1.000  Hf
  Hf64     1.0000 0.25883  0.15879  0.25885  Biso   1.000  Hf
  Hf65     1.0000 0.24140  0.15107  0.73882  Biso   1.000  Hf
  Hf66     1.0000 0.24548  0.64406  0.24551  Biso   1.000  Hf
  Hf67     1.0000 0.25022  0.64717  0.74600  Biso   1.000  Hf
  Hf68     1.0000 0.73879  0.15107  0.24142  Biso   1.000  Hf
  Hf69     1.0000 0.74576  0.14900  0.74578  Biso   1.000  Hf
  Hf70     1.0000 0.74597  0.64717  0.25024  Biso   1.000  Hf
  Hf71     1.0000 0.75107  0.64880  0.75110  Biso   1.000  Hf
  Hf72     1.0000 0.26961  0.12322  0.98180  Biso   1.000  Hf
  Hf73     1.0000 0.25448  0.10078  0.49939  Biso   1.000  Hf
  Hf74     1.0000 0.25325  0.59974  0.99814  Biso   1.000  Hf
  Hf75     1.0000 0.24973  0.60153  0.49666  Biso   1.000  Hf
  Hf76     1.0000 0.75203  0.10077  0.99697  Biso   1.000  Hf
  Hf77     1.0000 0.75277  0.10247  0.49868  Biso   1.000  Hf
  Hf78     1.0000 0.75472  0.60153  0.00161  Biso   1.000  Hf
  Hf79     1.0000 0.75036  0.60226  0.50098  Biso   1.000  Hf
  Hf80     1.0000 0.24549  0.35667  0.00590  Biso   1.000  Hf
  Hf81     1.0000 0.25022  0.35353  0.50542  Biso   1.000  Hf
  Hf82     1.0000 0.25880  0.84191  0.99255  Biso   1.000  Hf
  Hf83     1.0000 0.24140  0.84962  0.51258  Biso   1.000  Hf
  Hf84     1.0000 0.74599  0.35352  0.00115  Biso   1.000  Hf
  Hf85     1.0000 0.75107  0.35190  0.50031  Biso   1.000  Hf
  Hf86     1.0000 0.73874  0.84961  0.01005  Biso   1.000  Hf
  Hf87     1.0000 0.74574  0.85170  0.50568  Biso   1.000  Hf
  Hf88     1.0000 0.25325  0.40098  0.25327  Biso   1.000  Hf
  Hf89     1.0000 0.24977  0.39916  0.75474  Biso   1.000  Hf
  Hf90     1.0000 0.26958  0.87750  0.26961  Biso   1.000  Hf
  Hf91     1.0000 0.25446  0.89992  0.75202  Biso   1.000  Hf
  Hf92     1.0000 0.75473  0.39916  0.24978  Biso   1.000  Hf
  Hf93     1.0000 0.75040  0.39845  0.75041  Biso   1.000  Hf
  Hf94     1.0000 0.75199  0.89991  0.25449  Biso   1.000  Hf
  Hf95     1.0000 0.75274  0.89822  0.75278  Biso   1.000  Hf
