data_image0
_cell_length_a       10.0191
_cell_length_b       10.4214
_cell_length_c       10.119
_cell_angle_alpha    89.7211
_cell_angle_beta     91.187
_cell_angle_gamma    90.6748

_symmetry_space_group_name_H-M    "P 1"
_symmetry_int_tables_number       1

loop_
  _symmetry_equiv_pos_as_xyz
  'x, y, z'

loop_
  _atom_site_label
  _atom_site_occupancy
  _atom_site_fract_x
  _atom_site_fract_y
  _atom_site_fract_z
  _atom_site_thermal_displace_type
  _atom_site_B_iso_or_equiv
  _atom_site_type_symbol
  Hf1      1.0000 0.13811  0.98492  0.10913  Biso   1.000  Hf
  Hf2      1.0000 0.12701  0.23123  0.39742  Biso   1.000  Hf
  Hf3      1.0000 0.36858  0.26814  0.11955  Biso   1.000  Hf
  Hf4      1.0000 0.36428  0.48493  0.37109  Biso   1.000  Hf
  Hf5      1.0000 0.95557  0.17750  0.28030  Biso   1.000  Hf
  Hf6      1.0000 0.04718  0.05470  0.45498  Biso   1.000  Hf
  Hf7      1.0000 0.45684  0.43854  0.18911  Biso   1.000  Hf
  Hf8      1.0000 0.46395  0.32062  0.44643  Biso   1.000  Hf
  Hf9      1.0000 0.23652  0.11361  0.24232  Biso   1.000  Hf
  Hf10     1.0000 0.27840  0.13294  0.49597  Biso   1.000  Hf
  Hf11     1.0000 0.23483  0.38557  0.49750  Biso   1.000  Hf
  Hf12     1.0000 0.22178  0.36473  0.24934  Biso   1.000  Hf
  Hf13     1.0000 0.14146  0.00498  0.62446  Biso   1.000  Hf
  Hf14     1.0000 0.15092  0.22561  0.83976  Biso   1.000  Hf
  Hf15     1.0000 0.37726  0.26834  0.62135  Biso   1.000  Hf
  Hf16     1.0000 0.37055  0.48500  0.87224  Biso   1.000  Hf
  Hf17     1.0000 0.05432  0.18051  0.66760  Biso   1.000  Hf
  Hf18     1.0000 0.04615  0.06243  0.92749  Biso   1.000  Hf
  Hf19     1.0000 0.46927  0.43492  0.69523  Biso   1.000  Hf
  Hf20     1.0000 0.47237  0.31595  0.94443  Biso   1.000  Hf
  Hf21     1.0000 0.28418  0.11207  0.74057  Biso   1.000  Hf
  Hf22     1.0000 0.27966  0.12289  0.99294  Biso   1.000  Hf
  Hf23     1.0000 0.23805  0.38820  0.99053  Biso   1.000  Hf
  Hf24     1.0000 0.23760  0.36902  0.73878  Biso   1.000  Hf
  Hf25     1.0000 0.13214  0.52464  0.12278  Biso   1.000  Hf
  Hf26     1.0000 0.13311  0.73528  0.37506  Biso   1.000  Hf
  Hf27     1.0000 0.36953  0.76046  0.12500  Biso   1.000  Hf
  Hf28     1.0000 0.36182  0.98785  0.36974  Biso   1.000  Hf
  Hf29     1.0000 0.03437  0.68428  0.19658  Biso   1.000  Hf
  Hf30     1.0000 0.03627  0.57251  0.44058  Biso   1.000  Hf
  Hf31     1.0000 0.45821  0.93514  0.19412  Biso   1.000  Hf
  Hf32     1.0000 0.46709  0.81987  0.44187  Biso   1.000  Hf
  Hf33     1.0000 0.27240  0.61907  0.24868  Biso   1.000  Hf
  Hf34     1.0000 0.27058  0.63430  0.49707  Biso   1.000  Hf
  Hf35     1.0000 0.23669  0.88271  0.49490  Biso   1.000  Hf
  Hf36     1.0000 0.23363  0.85958  0.24492  Biso   1.000  Hf
  Hf37     1.0000 0.13376  0.51766  0.61736  Biso   1.000  Hf
  Hf38     1.0000 0.13670  0.73074  0.86874  Biso   1.000  Hf
  Hf39     1.0000 0.37378  0.76522  0.62045  Biso   1.000  Hf
  Hf40     1.0000 0.37645  0.97918  0.87254  Biso   1.000  Hf
  Hf41     1.0000 0.04182  0.68957  0.68930  Biso   1.000  Hf
  Hf42     1.0000 0.03533  0.56626  0.94465  Biso   1.000  Hf
  Hf43     1.0000 0.47576  0.92986  0.69800  Biso   1.000  Hf
  Hf44     1.0000 0.47740  0.81859  0.95291  Biso   1.000  Hf
  Hf45     1.0000 0.27169  0.61485  0.74657  Biso   1.000  Hf
  Hf46     1.0000 0.27279  0.63239  0.99637  Biso   1.000  Hf
  Hf47     1.0000 0.24221  0.87272  0.98938  Biso   1.000  Hf
  Hf48     1.0000 0.24123  0.86180  0.74565  Biso   1.000  Hf
  Hf49     1.0000 0.62649  0.00609  0.12227  Biso   1.000  Hf
  Hf50     1.0000 0.62635  0.22805  0.39564  Biso   1.000  Hf
  Hf51     1.0000 0.80845  0.26257  0.16384  Biso   1.000  Hf
  Hf52     1.0000 0.86511  0.48338  0.38382  Biso   1.000  Hf
  Hf53     1.0000 0.52466  0.18116  0.20012  Biso   1.000  Hf
  Hf54     1.0000 0.52947  0.06584  0.45630  Biso   1.000  Hf
  Hf55     1.0000 0.94603  0.42793  0.20222  Biso   1.000  Hf
  Hf56     1.0000 0.97448  0.33198  0.47077  Biso   1.000  Hf
  Hf57     1.0000 0.73206  0.10419  0.26550  Biso   1.000  Hf
  Hf58     1.0000 0.77719  0.13785  0.50975  Biso   1.000  Hf
  Hf59     1.0000 0.73314  0.38078  0.51074  Biso   1.000  Hf
  Hf60     1.0000 0.69948  0.37850  0.27206  Biso   1.000  Hf
  Hf61     1.0000 0.64341  0.01585  0.62841  Biso   1.000  Hf
  Hf62     1.0000 0.64082  0.23429  0.87812  Biso   1.000  Hf
  Hf63     1.0000 0.87562  0.27586  0.64347  Biso   1.000  Hf
  Hf64     1.0000 0.86702  0.48381  0.87195  Biso   1.000  Hf
  Hf65     1.0000 0.54515  0.18545  0.69349  Biso   1.000  Hf
  Hf66     1.0000 0.54357  0.06674  0.94156  Biso   1.000  Hf
  Hf67     1.0000 0.95623  0.45795  0.68244  Biso   1.000  Hf
  Hf68     1.0000 0.96197  0.30744  0.86260  Biso   1.000  Hf
  Hf69     1.0000 0.77668  0.11814  0.75887  Biso   1.000  Hf
  Hf70     1.0000 0.77512  0.13333  0.01312  Biso   1.000  Hf
  Hf71     1.0000 0.73731  0.38202  0.00918  Biso   1.000  Hf
  Hf72     1.0000 0.72500  0.37375  0.75592  Biso   1.000  Hf
  Hf73     1.0000 0.63126  0.52204  0.12779  Biso   1.000  Hf
  Hf74     1.0000 0.63691  0.73749  0.37795  Biso   1.000  Hf
  Hf75     1.0000 0.86442  0.76538  0.12931  Biso   1.000  Hf
  Hf76     1.0000 0.87598  0.99745  0.36973  Biso   1.000  Hf
  Hf77     1.0000 0.53823  0.68505  0.19721  Biso   1.000  Hf
  Hf78     1.0000 0.53408  0.56931  0.44641  Biso   1.000  Hf
  Hf79     1.0000 0.96405  0.93864  0.19092  Biso   1.000  Hf
  Hf80     1.0000 0.96679  0.82029  0.44304  Biso   1.000  Hf
  Hf81     1.0000 0.77041  0.61900  0.25290  Biso   1.000  Hf
  Hf82     1.0000 0.77055  0.63504  0.50127  Biso   1.000  Hf
  Hf83     1.0000 0.73495  0.88837  0.49869  Biso   1.000  Hf
  Hf84     1.0000 0.73143  0.86498  0.24778  Biso   1.000  Hf
  Hf85     1.0000 0.63701  0.51797  0.62585  Biso   1.000  Hf
  Hf86     1.0000 0.63937  0.73444  0.87486  Biso   1.000  Hf
  Hf87     1.0000 0.87055  0.77042  0.62195  Biso   1.000  Hf
  Hf88     1.0000 0.87122  0.98151  0.87728  Biso   1.000  Hf
  Hf89     1.0000 0.53878  0.68305  0.69696  Biso   1.000  Hf
  Hf90     1.0000 0.53778  0.56933  0.94700  Biso   1.000  Hf
  Hf91     1.0000 0.97141  0.93254  0.70076  Biso   1.000  Hf
  Hf92     1.0000 0.97785  0.81862  0.95501  Biso   1.000  Hf
  Hf93     1.0000 0.77378  0.62099  0.75173  Biso   1.000  Hf
  Hf94     1.0000 0.77120  0.63393  0.00180  Biso   1.000  Hf
  Hf95     1.0000 0.73652  0.88214  0.99923  Biso   1.000  Hf
  Hf96     1.0000 0.73818  0.86712  0.74971  Biso   1.000  Hf
  Ba1      1.0000 0.06344  0.25227  0.08838  Biso   1.000  Ba
