data_image0
_cell_length_a       10.4253
_cell_length_b       5.44664
_cell_length_c       10.4304
_cell_angle_alpha    101.698
_cell_angle_beta     95.8646
_cell_angle_gamma    77.2183

_symmetry_space_group_name_H-M    "P 1"
_symmetry_int_tables_number       1

loop_
  _symmetry_equiv_pos_as_xyz
  'x, y, z'

loop_
  _atom_site_label
  _atom_site_occupancy
  _atom_site_fract_x
  _atom_site_fract_y
  _atom_site_fract_z
  _atom_site_thermal_displace_type
  _atom_site_B_iso_or_equiv
  _atom_site_type_symbol
  Hf1      1.0000 0.15212  0.01482  0.07521  Biso   1.000  Hf
  Hf2      1.0000 0.11084  0.47968  0.42613  Biso   1.000  Hf
  Hf3      1.0000 0.37306  0.48715  0.14923  Biso   1.000  Hf
  Hf4      1.0000 0.40054  0.04065  0.35251  Biso   1.000  Hf
  Hf5      1.0000 0.98674  0.30756  0.98928  Biso   1.000  Hf
  Hf6      1.0000 0.00178  0.10360  0.22436  Biso   1.000  Hf
  Hf7      1.0000 0.94061  0.59220  0.31497  Biso   1.000  Hf
  Hf8      1.0000 0.00742  0.83703  0.97250  Biso   1.000  Hf
  Hf9      1.0000 0.26679  0.35316  0.28160  Biso   1.000  Hf
  Hf10     1.0000 0.25676  0.20510  0.99760  Biso   1.000  Hf
  Hf11     1.0000 0.24808  0.66534  0.99292  Biso   1.000  Hf
  Hf12     1.0000 0.26999  0.87133  0.22679  Biso   1.000  Hf
  Hf13     1.0000 0.15285  0.02510  0.60481  Biso   1.000  Hf
  Hf14     1.0000 0.10010  0.47454  0.87561  Biso   1.000  Hf
  Hf15     1.0000 0.35936  0.48549  0.65201  Biso   1.000  Hf
  Hf16     1.0000 0.40025  0.02631  0.85278  Biso   1.000  Hf
  Hf17     1.0000 0.99544  0.29810  0.50548  Biso   1.000  Hf
  Hf18     1.0000 0.00474  0.19086  0.74176  Biso   1.000  Hf
  Hf19     1.0000 0.99208  0.66759  0.73887  Biso   1.000  Hf
  Hf20     1.0000 0.01491  0.84242  0.50501  Biso   1.000  Hf
  Hf21     1.0000 0.25090  0.31692  0.75214  Biso   1.000  Hf
  Hf22     1.0000 0.26125  0.18599  0.50228  Biso   1.000  Hf
  Hf23     1.0000 0.25342  0.67474  0.51550  Biso   1.000  Hf
  Hf24     1.0000 0.25806  0.84414  0.75246  Biso   1.000  Hf
  Hf25     1.0000 0.64734  0.01226  0.09869  Biso   1.000  Hf
  Hf26     1.0000 0.60339  0.48135  0.39878  Biso   1.000  Hf
  Hf27     1.0000 0.83461  0.45347  0.14567  Biso   1.000  Hf
  Hf28     1.0000 0.88880  0.99995  0.35767  Biso   1.000  Hf
  Hf29     1.0000 0.49873  0.31398  0.99987  Biso   1.000  Hf
  Hf30     1.0000 0.50894  0.19270  0.24414  Biso   1.000  Hf
  Hf31     1.0000 0.50438  0.67694  0.25872  Biso   1.000  Hf
  Hf32     1.0000 0.50288  0.83586  0.99379  Biso   1.000  Hf
  Hf33     1.0000 0.74103  0.29266  0.25741  Biso   1.000  Hf
  Hf34     1.0000 0.75147  0.17240  0.99032  Biso   1.000  Hf
  Hf35     1.0000 0.74193  0.65416  0.00185  Biso   1.000  Hf
  Hf36     1.0000 0.74738  0.82716  0.23685  Biso   1.000  Hf
  Hf37     1.0000 0.64472  0.01831  0.60145  Biso   1.000  Hf
  Hf38     1.0000 0.60400  0.47776  0.89442  Biso   1.000  Hf
  Hf39     1.0000 0.85162  0.47514  0.64247  Biso   1.000  Hf
  Hf40     1.0000 0.89337  0.02647  0.84172  Biso   1.000  Hf
  Hf41     1.0000 0.49848  0.32130  0.50600  Biso   1.000  Hf
  Hf42     1.0000 0.50570  0.18908  0.74603  Biso   1.000  Hf
  Hf43     1.0000 0.49883  0.67110  0.75472  Biso   1.000  Hf
  Hf44     1.0000 0.50542  0.84198  0.49534  Biso   1.000  Hf
  Hf45     1.0000 0.74561  0.31574  0.75137  Biso   1.000  Hf
  Hf46     1.0000 0.75366  0.17884  0.49734  Biso   1.000  Hf
  Hf47     1.0000 0.74412  0.66077  0.50321  Biso   1.000  Hf
  Hf48     1.0000 0.75276  0.83387  0.74139  Biso   1.000  Hf
  Ba1      1.0000 0.09333  0.59549  0.15930  Biso   1.000  Ba
