data_image0
_cell_length_a       5.00077
_cell_length_b       10.4109
_cell_length_c       10.0491
_cell_angle_alpha    90.0593
_cell_angle_beta     90.0875
_cell_angle_gamma    89.9162

_symmetry_space_group_name_H-M    "P 1"
_symmetry_int_tables_number       1

loop_
  _symmetry_equiv_pos_as_xyz
  'x, y, z'

loop_
  _atom_site_label
  _atom_site_occupancy
  _atom_site_fract_x
  _atom_site_fract_y
  _atom_site_fract_z
  _atom_site_thermal_displace_type
  _atom_site_B_iso_or_equiv
  _atom_site_type_symbol
  Bi1      1.0000 0.25713  0.01433  0.12268  Biso   1.000  Bi
  Hf1      1.0000 0.26877  0.23458  0.37802  Biso   1.000  Hf
  Hf2      1.0000 0.72683  0.26917  0.12643  Biso   1.000  Hf
  Hf3      1.0000 0.73139  0.48346  0.37634  Biso   1.000  Hf
  Hf4      1.0000 0.06750  0.19223  0.19832  Biso   1.000  Hf
  Hf5      1.0000 0.07283  0.06552  0.44344  Biso   1.000  Hf
  Hf6      1.0000 0.92552  0.43584  0.19501  Biso   1.000  Hf
  Hf7      1.0000 0.92727  0.31687  0.44564  Biso   1.000  Hf
  Hf8      1.0000 0.55137  0.12451  0.25581  Biso   1.000  Hf
  Hf9      1.0000 0.53900  0.13257  0.50174  Biso   1.000  Hf
  Hf10     1.0000 0.45975  0.38292  0.50016  Biso   1.000  Hf
  Hf11     1.0000 0.45605  0.36932  0.25055  Biso   1.000  Hf
  Hf12     1.0000 0.26638  0.01665  0.62608  Biso   1.000  Hf
  Hf13     1.0000 0.26986  0.23674  0.87236  Biso   1.000  Hf
  Hf14     1.0000 0.73353  0.26679  0.62506  Biso   1.000  Hf
  Hf15     1.0000 0.73381  0.48315  0.87610  Biso   1.000  Hf
  Hf16     1.0000 0.07576  0.18635  0.69046  Biso   1.000  Hf
  Hf17     1.0000 0.07281  0.06852  0.92787  Biso   1.000  Hf
  Hf18     1.0000 0.93128  0.43366  0.69634  Biso   1.000  Hf
  Hf19     1.0000 0.93201  0.31768  0.94553  Biso   1.000  Hf
  Hf20     1.0000 0.54213  0.11773  0.74779  Biso   1.000  Hf
  Hf21     1.0000 0.55077  0.13570  0.99460  Biso   1.000  Hf
  Hf22     1.0000 0.45939  0.38352  0.99925  Biso   1.000  Hf
  Hf23     1.0000 0.46291  0.36819  0.74882  Biso   1.000  Hf
  Hf24     1.0000 0.26657  0.51601  0.12643  Biso   1.000  Hf
  Hf25     1.0000 0.26640  0.73225  0.37833  Biso   1.000  Hf
  Hf26     1.0000 0.73215  0.76112  0.12596  Biso   1.000  Hf
  Hf27     1.0000 0.72866  0.98353  0.37979  Biso   1.000  Hf
  Hf28     1.0000 0.07422  0.68409  0.19631  Biso   1.000  Hf
  Hf29     1.0000 0.07060  0.56507  0.44599  Biso   1.000  Hf
  Hf30     1.0000 0.90060  0.93133  0.19755  Biso   1.000  Hf
  Hf31     1.0000 0.92948  0.81582  0.44731  Biso   1.000  Hf
  Hf32     1.0000 0.53970  0.61495  0.24989  Biso   1.000  Hf
  Hf33     1.0000 0.54021  0.63216  0.50005  Biso   1.000  Hf
  Hf34     1.0000 0.45777  0.88234  0.50158  Biso   1.000  Hf
  Hf35     1.0000 0.46876  0.85920  0.25542  Biso   1.000  Hf
  Hf36     1.0000 0.26729  0.51622  0.62593  Biso   1.000  Hf
  Hf37     1.0000 0.26810  0.73162  0.87503  Biso   1.000  Hf
  Hf38     1.0000 0.73175  0.76569  0.62544  Biso   1.000  Hf
  Hf39     1.0000 0.73095  0.98218  0.87172  Biso   1.000  Hf
  Hf40     1.0000 0.07093  0.68329  0.69510  Biso   1.000  Hf
  Hf41     1.0000 0.06924  0.56746  0.94620  Biso   1.000  Hf
  Hf42     1.0000 0.92573  0.93363  0.69225  Biso   1.000  Hf
  Hf43     1.0000 0.93800  0.81857  0.94763  Biso   1.000  Hf
  Hf44     1.0000 0.54077  0.61659  0.74944  Biso   1.000  Hf
  Hf45     1.0000 0.53977  0.63006  0.99914  Biso   1.000  Hf
  Hf46     1.0000 0.47244  0.87520  0.99517  Biso   1.000  Hf
  Hf47     1.0000 0.45844  0.86667  0.74872  Biso   1.000  Hf
