data_image0
_cell_length_a       10.0034
_cell_length_b       5.20379
_cell_length_c       10.0473
_cell_angle_alpha    90.0445
_cell_angle_beta     90.0907
_cell_angle_gamma    89.9145

_symmetry_space_group_name_H-M    "P 1"
_symmetry_int_tables_number       1

loop_
  _symmetry_equiv_pos_as_xyz
  'x, y, z'

loop_
  _atom_site_label
  _atom_site_occupancy
  _atom_site_fract_x
  _atom_site_fract_y
  _atom_site_fract_z
  _atom_site_thermal_displace_type
  _atom_site_B_iso_or_equiv
  _atom_site_type_symbol
  Bi1      1.0000 0.12793  0.02956  0.12242  Biso   1.000  Bi
  Hf1      1.0000 0.13460  0.46747  0.37927  Biso   1.000  Hf
  Hf2      1.0000 0.36868  0.53035  0.12609  Biso   1.000  Hf
  Hf3      1.0000 0.36645  0.96577  0.37664  Biso   1.000  Hf
  Hf4      1.0000 0.03218  0.38632  0.19973  Biso   1.000  Hf
  Hf5      1.0000 0.03602  0.12986  0.44375  Biso   1.000  Hf
  Hf6      1.0000 0.46438  0.86894  0.19454  Biso   1.000  Hf
  Hf7      1.0000 0.46490  0.63161  0.44654  Biso   1.000  Hf
  Hf8      1.0000 0.27615  0.24341  0.25412  Biso   1.000  Hf
  Hf9      1.0000 0.27043  0.26373  0.50112  Biso   1.000  Hf
  Hf10     1.0000 0.22999  0.76588  0.50060  Biso   1.000  Hf
  Hf11     1.0000 0.23713  0.72183  0.25466  Biso   1.000  Hf
  Hf12     1.0000 0.13349  0.03275  0.62611  Biso   1.000  Hf
  Hf13     1.0000 0.13451  0.47163  0.87205  Biso   1.000  Hf
  Hf14     1.0000 0.36646  0.53205  0.62551  Biso   1.000  Hf
  Hf15     1.0000 0.36945  0.96823  0.87357  Biso   1.000  Hf
  Hf16     1.0000 0.03800  0.37278  0.68969  Biso   1.000  Hf
  Hf17     1.0000 0.03387  0.13964  0.92912  Biso   1.000  Hf
  Hf18     1.0000 0.46517  0.86721  0.69418  Biso   1.000  Hf
  Hf19     1.0000 0.46778  0.63438  0.94384  Biso   1.000  Hf
  Hf20     1.0000 0.27113  0.23506  0.74826  Biso   1.000  Hf
  Hf21     1.0000 0.27384  0.27013  0.99475  Biso   1.000  Hf
  Hf22     1.0000 0.23645  0.75396  0.99460  Biso   1.000  Hf
  Hf23     1.0000 0.23085  0.73675  0.74766  Biso   1.000  Hf
  Hf24     1.0000 0.63379  0.03093  0.12692  Biso   1.000  Hf
  Hf25     1.0000 0.63313  0.46619  0.37692  Biso   1.000  Hf
  Hf26     1.0000 0.86007  0.53022  0.12647  Biso   1.000  Hf
  Hf27     1.0000 0.86393  0.96803  0.37973  Biso   1.000  Hf
  Hf28     1.0000 0.53832  0.36760  0.19417  Biso   1.000  Hf
  Hf29     1.0000 0.53621  0.13130  0.44538  Biso   1.000  Hf
  Hf30     1.0000 0.94814  0.86897  0.19715  Biso   1.000  Hf
  Hf31     1.0000 0.96374  0.63393  0.44633  Biso   1.000  Hf
  Hf32     1.0000 0.76828  0.23497  0.25171  Biso   1.000  Hf
  Hf33     1.0000 0.76960  0.26569  0.50068  Biso   1.000  Hf
  Hf34     1.0000 0.72892  0.76429  0.50126  Biso   1.000  Hf
  Hf35     1.0000 0.72594  0.73472  0.25166  Biso   1.000  Hf
  Hf36     1.0000 0.63364  0.03316  0.62592  Biso   1.000  Hf
  Hf37     1.0000 0.63436  0.46471  0.87566  Biso   1.000  Hf
  Hf38     1.0000 0.86636  0.53308  0.62524  Biso   1.000  Hf
  Hf39     1.0000 0.86316  0.96210  0.87430  Biso   1.000  Hf
  Hf40     1.0000 0.53578  0.36654  0.69550  Biso   1.000  Hf
  Hf41     1.0000 0.53755  0.13177  0.94480  Biso   1.000  Hf
  Hf42     1.0000 0.96329  0.86786  0.69420  Biso   1.000  Hf
  Hf43     1.0000 0.96678  0.63812  0.94869  Biso   1.000  Hf
  Hf44     1.0000 0.77065  0.23399  0.74921  Biso   1.000  Hf
  Hf45     1.0000 0.77137  0.26030  0.99968  Biso   1.000  Hf
  Hf46     1.0000 0.72866  0.76098  0.00025  Biso   1.000  Hf
  Hf47     1.0000 0.72981  0.73338  0.75011  Biso   1.000  Hf
