data_image0
_cell_length_a       10.321
_cell_length_b       10.4688
_cell_length_c       5.16154
_cell_angle_alpha    91.5377
_cell_angle_beta     84.0067
_cell_angle_gamma    91.2013

_symmetry_space_group_name_H-M    "P 1"
_symmetry_int_tables_number       1

loop_
  _symmetry_equiv_pos_as_xyz
  'x, y, z'

loop_
  _atom_site_label
  _atom_site_occupancy
  _atom_site_fract_x
  _atom_site_fract_y
  _atom_site_fract_z
  _atom_site_thermal_displace_type
  _atom_site_B_iso_or_equiv
  _atom_site_type_symbol
  Hf1      1.0000 0.18582  0.98309  0.37650  Biso   1.000  Hf
  Hf2      1.0000 0.08213  0.26538  0.61237  Biso   1.000  Hf
  Hf3      1.0000 0.33521  0.26222  0.15224  Biso   1.000  Hf
  Hf4      1.0000 0.43061  0.98866  0.85613  Biso   1.000  Hf
  Hf5      1.0000 0.91685  0.19249  0.81252  Biso   1.000  Hf
  Hf6      1.0000 0.08696  0.06524  0.69563  Biso   1.000  Hf
  Hf7      1.0000 0.94712  0.35936  0.39830  Biso   1.000  Hf
  Hf8      1.0000 0.95483  0.41933  0.90697  Biso   1.000  Hf
  Hf9      1.0000 0.25968  0.17389  0.47541  Biso   1.000  Hf
  Hf10     1.0000 0.27477  0.07572  0.04247  Biso   1.000  Hf
  Hf11     1.0000 0.19795  0.33371  0.90849  Biso   1.000  Hf
  Hf12     1.0000 0.20580  0.41077  0.40301  Biso   1.000  Hf
  Hf13     1.0000 0.07551  0.49517  0.15635  Biso   1.000  Hf
  Hf14     1.0000 0.17249  0.76047  0.85012  Biso   1.000  Hf
  Hf15     1.0000 0.42322  0.75942  0.35233  Biso   1.000  Hf
  Hf16     1.0000 0.32947  0.49204  0.65481  Biso   1.000  Hf
  Hf17     1.0000 0.01336  0.66843  0.02408  Biso   1.000  Hf
  Hf18     1.0000 0.98908  0.59168  0.47442  Biso   1.000  Hf
  Hf19     1.0000 0.04802  0.83906  0.59450  Biso   1.000  Hf
  Hf20     1.0000 0.04503  0.90776  0.11174  Biso   1.000  Hf
  Hf21     1.0000 0.26351  0.66537  0.52926  Biso   1.000  Hf
  Hf22     1.0000 0.23663  0.58287  0.97181  Biso   1.000  Hf
  Hf23     1.0000 0.29585  0.83850  0.10625  Biso   1.000  Hf
  Hf24     1.0000 0.30640  0.90049  0.60693  Biso   1.000  Hf
  Hf25     1.0000 0.67096  0.99161  0.35560  Biso   1.000  Hf
  Hf26     1.0000 0.57546  0.26456  0.65204  Biso   1.000  Hf
  Hf27     1.0000 0.81617  0.26936  0.14718  Biso   1.000  Hf
  Hf28     1.0000 0.91373  0.98544  0.84887  Biso   1.000  Hf
  Hf29     1.0000 0.49430  0.17069  0.97725  Biso   1.000  Hf
  Hf30     1.0000 0.51209  0.08158  0.53405  Biso   1.000  Hf
  Hf31     1.0000 0.45749  0.34841  0.40602  Biso   1.000  Hf
  Hf32     1.0000 0.45056  0.40988  0.91078  Biso   1.000  Hf
  Hf33     1.0000 0.73163  0.17525  0.46972  Biso   1.000  Hf
  Hf34     1.0000 0.75706  0.07756  0.04331  Biso   1.000  Hf
  Hf35     1.0000 0.69585  0.35009  0.91189  Biso   1.000  Hf
  Hf36     1.0000 0.70224  0.41354  0.41163  Biso   1.000  Hf
  Hf37     1.0000 0.57798  0.49230  0.15787  Biso   1.000  Hf
  Hf38     1.0000 0.66941  0.75726  0.85045  Biso   1.000  Hf
  Hf39     1.0000 0.92453  0.76335  0.34143  Biso   1.000  Hf
  Hf40     1.0000 0.83144  0.49553  0.65485  Biso   1.000  Hf
  Hf41     1.0000 0.51115  0.66494  0.02951  Biso   1.000  Hf
  Hf42     1.0000 0.48840  0.58709  0.48169  Biso   1.000  Hf
  Hf43     1.0000 0.55086  0.84297  0.59693  Biso   1.000  Hf
  Hf44     1.0000 0.54629  0.90502  0.10145  Biso   1.000  Hf
  Hf45     1.0000 0.76477  0.67101  0.53133  Biso   1.000  Hf
  Hf46     1.0000 0.73647  0.58673  0.97878  Biso   1.000  Hf
  Hf47     1.0000 0.79669  0.84128  0.08430  Biso   1.000  Hf
  Hf48     1.0000 0.80442  0.91519  0.57658  Biso   1.000  Hf
  Cd1      1.0000 0.06497  0.15908  0.11493  Biso   1.000  Cd
