data_image0
_cell_length_a       10.3181
_cell_length_b       5.29588
_cell_length_c       10.2664
_cell_angle_alpha    78.6459
_cell_angle_beta     89.907
_cell_angle_gamma    89.582

_symmetry_space_group_name_H-M    "P 1"
_symmetry_int_tables_number       1

loop_
  _symmetry_equiv_pos_as_xyz
  'x, y, z'

loop_
  _atom_site_label
  _atom_site_occupancy
  _atom_site_fract_x
  _atom_site_fract_y
  _atom_site_fract_z
  _atom_site_thermal_displace_type
  _atom_site_B_iso_or_equiv
  _atom_site_type_symbol
  Hf1      1.0000 0.09858  0.94811  0.10140  Biso   1.000  Hf
  Hf2      1.0000 0.14334  0.57990  0.40716  Biso   1.000  Hf
  Hf3      1.0000 0.40970  0.46272  0.10705  Biso   1.000  Hf
  Hf4      1.0000 0.35783  0.05441  0.39207  Biso   1.000  Hf
  Hf5      1.0000 0.99810  0.24390  0.95473  Biso   1.000  Hf
  Hf6      1.0000 0.94299  0.08541  0.21239  Biso   1.000  Hf
  Hf7      1.0000 0.01895  0.64133  0.24058  Biso   1.000  Hf
  Hf8      1.0000 0.99358  0.75282  0.97130  Biso   1.000  Hf
  Hf9      1.0000 0.30537  0.43743  0.29424  Biso   1.000  Hf
  Hf10     1.0000 0.25987  0.20657  0.01078  Biso   1.000  Hf
  Hf11     1.0000 0.25684  0.71723  0.02581  Biso   1.000  Hf
  Hf12     1.0000 0.21003  0.92250  0.28445  Biso   1.000  Hf
  Hf13     1.0000 0.10259  0.97121  0.61682  Biso   1.000  Hf
  Hf14     1.0000 0.14473  0.52251  0.89117  Biso   1.000  Hf
  Hf15     1.0000 0.39902  0.46274  0.61177  Biso   1.000  Hf
  Hf16     1.0000 0.35461  0.03150  0.88083  Biso   1.000  Hf
  Hf17     1.0000 0.00414  0.28834  0.47517  Biso   1.000  Hf
  Hf18     1.0000 0.95518  0.09462  0.71401  Biso   1.000  Hf
  Hf19     1.0000 0.04086  0.59478  0.71544  Biso   1.000  Hf
  Hf20     1.0000 0.99794  0.79222  0.48135  Biso   1.000  Hf
  Hf21     1.0000 0.28992  0.40058  0.77811  Biso   1.000  Hf
  Hf22     1.0000 0.24546  0.24599  0.52741  Biso   1.000  Hf
  Hf23     1.0000 0.25669  0.75125  0.53085  Biso   1.000  Hf
  Hf24     1.0000 0.20798  0.89484  0.78667  Biso   1.000  Hf
  Hf25     1.0000 0.60512  0.96187  0.11047  Biso   1.000  Hf
  Hf26     1.0000 0.64850  0.54684  0.38768  Biso   1.000  Hf
  Hf27     1.0000 0.89443  0.44642  0.10789  Biso   1.000  Hf
  Hf28     1.0000 0.85030  0.04955  0.38662  Biso   1.000  Hf
  Hf29     1.0000 0.50904  0.27326  0.97356  Biso   1.000  Hf
  Hf30     1.0000 0.45983  0.10220  0.21679  Biso   1.000  Hf
  Hf31     1.0000 0.54466  0.60019  0.21363  Biso   1.000  Hf
  Hf32     1.0000 0.49996  0.77292  0.97243  Biso   1.000  Hf
  Hf33     1.0000 0.78780  0.40842  0.28140  Biso   1.000  Hf
  Hf34     1.0000 0.74827  0.23202  0.02407  Biso   1.000  Hf
  Hf35     1.0000 0.75149  0.73185  0.02339  Biso   1.000  Hf
  Hf36     1.0000 0.70462  0.91133  0.28476  Biso   1.000  Hf
  Hf37     1.0000 0.60525  0.96034  0.60826  Biso   1.000  Hf
  Hf38     1.0000 0.64892  0.54492  0.88537  Biso   1.000  Hf
  Hf39     1.0000 0.89619  0.46218  0.61369  Biso   1.000  Hf
  Hf40     1.0000 0.85092  0.03551  0.88782  Biso   1.000  Hf
  Hf41     1.0000 0.50436  0.27622  0.47206  Biso   1.000  Hf
  Hf42     1.0000 0.46370  0.10180  0.71177  Biso   1.000  Hf
  Hf43     1.0000 0.53924  0.60106  0.71597  Biso   1.000  Hf
  Hf44     1.0000 0.49720  0.77617  0.47318  Biso   1.000  Hf
  Hf45     1.0000 0.78664  0.39970  0.78070  Biso   1.000  Hf
  Hf46     1.0000 0.74591  0.23482  0.52453  Biso   1.000  Hf
  Hf47     1.0000 0.75447  0.73237  0.52296  Biso   1.000  Hf
  Hf48     1.0000 0.71066  0.90108  0.77796  Biso   1.000  Hf
  Cd1      1.0000 0.14532  0.35953  0.18559  Biso   1.000  Cd
