data_image0
_cell_length_a       10.1062
_cell_length_b       5.2576
_cell_length_c       10.1452
_cell_angle_alpha    89.5952
_cell_angle_beta     89.857
_cell_angle_gamma    89.5376

_symmetry_space_group_name_H-M    "P 1"
_symmetry_int_tables_number       1

loop_
  _symmetry_equiv_pos_as_xyz
  'x, y, z'

loop_
  _atom_site_label
  _atom_site_occupancy
  _atom_site_fract_x
  _atom_site_fract_y
  _atom_site_fract_z
  _atom_site_thermal_displace_type
  _atom_site_B_iso_or_equiv
  _atom_site_type_symbol
  Hf1      1.0000 0.13280  0.02936  0.12408  Biso   1.000  Hf
  Hf2      1.0000 0.13141  0.45528  0.39096  Biso   1.000  Hf
  Hf3      1.0000 0.38407  0.54731  0.11600  Biso   1.000  Hf
  Hf4      1.0000 0.36483  0.97744  0.37339  Biso   1.000  Hf
  Hf5      1.0000 0.98709  0.28615  0.24607  Biso   1.000  Hf
  Hf6      1.0000 0.03716  0.12463  0.46243  Biso   1.000  Hf
  Hf7      1.0000 0.46586  0.87576  0.19707  Biso   1.000  Hf
  Hf8      1.0000 0.46981  0.64864  0.44717  Biso   1.000  Hf
  Hf9      1.0000 0.25697  0.24571  0.24784  Biso   1.000  Hf
  Hf10     1.0000 0.27637  0.26359  0.49946  Biso   1.000  Hf
  Hf11     1.0000 0.23568  0.76663  0.50005  Biso   1.000  Hf
  Hf12     1.0000 0.24018  0.74120  0.25559  Biso   1.000  Hf
  Hf13     1.0000 0.13703  0.01697  0.62599  Biso   1.000  Hf
  Hf14     1.0000 0.13544  0.46651  0.84538  Biso   1.000  Hf
  Hf15     1.0000 0.37603  0.53690  0.61926  Biso   1.000  Hf
  Hf16     1.0000 0.37292  0.98312  0.87039  Biso   1.000  Hf
  Hf17     1.0000 0.03015  0.34672  0.68923  Biso   1.000  Hf
  Hf18     1.0000 0.02910  0.14577  0.95589  Biso   1.000  Hf
  Hf19     1.0000 0.47345  0.86786  0.69418  Biso   1.000  Hf
  Hf20     1.0000 0.47576  0.65111  0.94256  Biso   1.000  Hf
  Hf21     1.0000 0.26934  0.22659  0.74142  Biso   1.000  Hf
  Hf22     1.0000 0.27114  0.28836  0.98822  Biso   1.000  Hf
  Hf23     1.0000 0.24351  0.79901  0.99355  Biso   1.000  Hf
  Hf24     1.0000 0.24414  0.72992  0.74546  Biso   1.000  Hf
  Hf25     1.0000 0.62911  0.02855  0.12369  Biso   1.000  Hf
  Hf26     1.0000 0.63251  0.46807  0.37753  Biso   1.000  Hf
  Hf27     1.0000 0.83826  0.51285  0.12753  Biso   1.000  Hf
  Hf28     1.0000 0.87889  0.98245  0.36552  Biso   1.000  Hf
  Hf29     1.0000 0.53218  0.36333  0.20197  Biso   1.000  Hf
  Hf30     1.0000 0.53318  0.14321  0.44951  Biso   1.000  Hf
  Hf31     1.0000 0.96388  0.82554  0.19565  Biso   1.000  Hf
  Hf32     1.0000 0.97017  0.64829  0.45366  Biso   1.000  Hf
  Hf33     1.0000 0.75114  0.21747  0.24990  Biso   1.000  Hf
  Hf34     1.0000 0.77166  0.27989  0.49629  Biso   1.000  Hf
  Hf35     1.0000 0.73726  0.78019  0.49788  Biso   1.000  Hf
  Hf36     1.0000 0.72440  0.73168  0.25136  Biso   1.000  Hf
  Hf37     1.0000 0.63857  0.03295  0.62054  Biso   1.000  Hf
  Hf38     1.0000 0.63741  0.46640  0.86939  Biso   1.000  Hf
  Hf39     1.0000 0.86535  0.53808  0.62172  Biso   1.000  Hf
  Hf40     1.0000 0.86930  0.96170  0.87679  Biso   1.000  Hf
  Hf41     1.0000 0.53727  0.36584  0.69736  Biso   1.000  Hf
  Hf42     1.0000 0.53248  0.15058  0.94884  Biso   1.000  Hf
  Hf43     1.0000 0.97779  0.84648  0.70836  Biso   1.000  Hf
  Hf44     1.0000 0.96284  0.63100  0.94119  Biso   1.000  Hf
  Hf45     1.0000 0.77189  0.22741  0.74661  Biso   1.000  Hf
  Hf46     1.0000 0.76572  0.25717  0.99589  Biso   1.000  Hf
  Hf47     1.0000 0.72818  0.76366  0.99880  Biso   1.000  Hf
  Hf48     1.0000 0.73527  0.73278  0.74792  Biso   1.000  Hf
  Ce1      1.0000 0.11033  0.52618  0.11119  Biso   1.000  Ce
