data_image0
_cell_length_a       10.0566
_cell_length_b       5.11526
_cell_length_c       10.0565
_cell_angle_alpha    90
_cell_angle_beta     90
_cell_angle_gamma    90.0001

_symmetry_space_group_name_H-M    "P 1"
_symmetry_int_tables_number       1

loop_
  _symmetry_equiv_pos_as_xyz
  'x, y, z'

loop_
  _atom_site_label
  _atom_site_occupancy
  _atom_site_fract_x
  _atom_site_fract_y
  _atom_site_fract_z
  _atom_site_thermal_displace_type
  _atom_site_B_iso_or_equiv
  _atom_site_type_symbol
  Ce1      1.0000 0.12491  0.00011  0.12491  Biso   1.000  Ce
  Hf1      1.0000 0.12491  0.50011  0.37802  Biso   1.000  Hf
  Hf2      1.0000 0.37802  0.50011  0.12491  Biso   1.000  Hf
  Hf3      1.0000 0.37634  0.00176  0.37634  Biso   1.000  Hf
  Hf4      1.0000 0.99949  0.29390  0.99949  Biso   1.000  Hf
  Hf5      1.0000 0.99088  0.22456  0.25893  Biso   1.000  Hf
  Hf6      1.0000 0.99949  0.70631  0.25033  Biso   1.000  Hf
  Hf7      1.0000 0.99088  0.77565  0.99089  Biso   1.000  Hf
  Hf8      1.0000 0.25033  0.29391  0.25033  Biso   1.000  Hf
  Hf9      1.0000 0.25893  0.22456  0.99089  Biso   1.000  Hf
  Hf10     1.0000 0.25033  0.70631  0.99949  Biso   1.000  Hf
  Hf11     1.0000 0.25893  0.77565  0.25893  Biso   1.000  Hf
  Hf12     1.0000 0.12491  0.00011  0.62491  Biso   1.000  Hf
  Hf13     1.0000 0.12491  0.50011  0.87180  Biso   1.000  Hf
  Hf14     1.0000 0.37480  0.50011  0.62491  Biso   1.000  Hf
  Hf15     1.0000 0.37634  0.99846  0.87348  Biso   1.000  Hf
  Hf16     1.0000 0.00414  0.29576  0.50748  Biso   1.000  Hf
  Hf17     1.0000 0.99906  0.20377  0.75322  Biso   1.000  Hf
  Hf18     1.0000 0.00414  0.70446  0.74233  Biso   1.000  Hf
  Hf19     1.0000 0.99906  0.79645  0.49659  Biso   1.000  Hf
  Hf20     1.0000 0.24568  0.29576  0.74233  Biso   1.000  Hf
  Hf21     1.0000 0.25076  0.20376  0.49659  Biso   1.000  Hf
  Hf22     1.0000 0.24568  0.70446  0.50748  Biso   1.000  Hf
  Hf23     1.0000 0.25076  0.79645  0.75322  Biso   1.000  Hf
  Hf24     1.0000 0.62491  0.00011  0.12491  Biso   1.000  Hf
  Hf25     1.0000 0.62491  0.50011  0.37480  Biso   1.000  Hf
  Hf26     1.0000 0.87180  0.50011  0.12491  Biso   1.000  Hf
  Hf27     1.0000 0.87347  0.99846  0.37634  Biso   1.000  Hf
  Hf28     1.0000 0.50749  0.29576  0.00414  Biso   1.000  Hf
  Hf29     1.0000 0.49659  0.20377  0.25076  Biso   1.000  Hf
  Hf30     1.0000 0.50749  0.70446  0.24568  Biso   1.000  Hf
  Hf31     1.0000 0.49659  0.79645  0.99906  Biso   1.000  Hf
  Hf32     1.0000 0.74233  0.29576  0.24568  Biso   1.000  Hf
  Hf33     1.0000 0.75322  0.20377  0.99906  Biso   1.000  Hf
  Hf34     1.0000 0.74233  0.70446  0.00414  Biso   1.000  Hf
  Hf35     1.0000 0.75322  0.79645  0.25076  Biso   1.000  Hf
  Hf36     1.0000 0.62491  0.00011  0.62491  Biso   1.000  Hf
  Hf37     1.0000 0.62491  0.50011  0.87502  Biso   1.000  Hf
  Hf38     1.0000 0.87502  0.50011  0.62491  Biso   1.000  Hf
  Hf39     1.0000 0.87347  0.00176  0.87348  Biso   1.000  Hf
  Hf40     1.0000 0.50198  0.29652  0.50198  Biso   1.000  Hf
  Hf41     1.0000 0.49900  0.20435  0.75081  Biso   1.000  Hf
  Hf42     1.0000 0.50198  0.70370  0.74783  Biso   1.000  Hf
  Hf43     1.0000 0.49900  0.79586  0.49900  Biso   1.000  Hf
  Hf44     1.0000 0.74783  0.29652  0.74783  Biso   1.000  Hf
  Hf45     1.0000 0.75082  0.20435  0.49900  Biso   1.000  Hf
  Hf46     1.0000 0.74783  0.70370  0.50198  Biso   1.000  Hf
  Hf47     1.0000 0.75082  0.79586  0.75081  Biso   1.000  Hf
