data_image0
_cell_length_a       5.0062
_cell_length_b       10.3989
_cell_length_c       10.0547
_cell_angle_alpha    90.2961
_cell_angle_beta     90.3681
_cell_angle_gamma    89.9944

_symmetry_space_group_name_H-M    "P 1"
_symmetry_int_tables_number       1

loop_
  _symmetry_equiv_pos_as_xyz
  'x, y, z'

loop_
  _atom_site_label
  _atom_site_occupancy
  _atom_site_fract_x
  _atom_site_fract_y
  _atom_site_fract_z
  _atom_site_thermal_displace_type
  _atom_site_B_iso_or_equiv
  _atom_site_type_symbol
  Ce1      1.0000 0.25244  0.00885  0.11967  Biso   1.000  Ce
  Hf1      1.0000 0.26671  0.23360  0.37629  Biso   1.000  Hf
  Hf2      1.0000 0.72563  0.26783  0.12669  Biso   1.000  Hf
  Hf3      1.0000 0.72973  0.48291  0.37587  Biso   1.000  Hf
  Hf4      1.0000 0.06398  0.18897  0.19733  Biso   1.000  Hf
  Hf5      1.0000 0.07068  0.06506  0.44300  Biso   1.000  Hf
  Hf6      1.0000 0.92357  0.43562  0.19494  Biso   1.000  Hf
  Hf7      1.0000 0.92554  0.31646  0.44430  Biso   1.000  Hf
  Hf8      1.0000 0.54780  0.12290  0.25404  Biso   1.000  Hf
  Hf9      1.0000 0.53655  0.13237  0.50111  Biso   1.000  Hf
  Hf10     1.0000 0.45851  0.38286  0.49926  Biso   1.000  Hf
  Hf11     1.0000 0.45309  0.36809  0.24935  Biso   1.000  Hf
  Hf12     1.0000 0.26629  0.01734  0.62551  Biso   1.000  Hf
  Hf13     1.0000 0.27022  0.23783  0.87138  Biso   1.000  Hf
  Hf14     1.0000 0.73382  0.26722  0.62386  Biso   1.000  Hf
  Hf15     1.0000 0.73493  0.48295  0.87644  Biso   1.000  Hf
  Hf16     1.0000 0.07737  0.18757  0.68757  Biso   1.000  Hf
  Hf17     1.0000 0.07227  0.07277  0.92515  Biso   1.000  Hf
  Hf18     1.0000 0.93252  0.43386  0.69679  Biso   1.000  Hf
  Hf19     1.0000 0.93347  0.31886  0.94624  Biso   1.000  Hf
  Hf20     1.0000 0.54339  0.11847  0.74726  Biso   1.000  Hf
  Hf21     1.0000 0.54898  0.13486  0.99416  Biso   1.000  Hf
  Hf22     1.0000 0.46007  0.38354  0.99875  Biso   1.000  Hf
  Hf23     1.0000 0.46432  0.36895  0.74801  Biso   1.000  Hf
  Hf24     1.0000 0.26414  0.51512  0.12587  Biso   1.000  Hf
  Hf25     1.0000 0.26382  0.73167  0.37903  Biso   1.000  Hf
  Hf26     1.0000 0.73118  0.76138  0.12851  Biso   1.000  Hf
  Hf27     1.0000 0.72448  0.98334  0.37981  Biso   1.000  Hf
  Hf28     1.0000 0.07120  0.68281  0.19772  Biso   1.000  Hf
  Hf29     1.0000 0.06767  0.56525  0.44731  Biso   1.000  Hf
  Hf30     1.0000 0.90112  0.93136  0.20209  Biso   1.000  Hf
  Hf31     1.0000 0.92693  0.81557  0.44766  Biso   1.000  Hf
  Hf32     1.0000 0.53657  0.61423  0.25002  Biso   1.000  Hf
  Hf33     1.0000 0.53851  0.63177  0.50012  Biso   1.000  Hf
  Hf34     1.0000 0.45602  0.88197  0.50185  Biso   1.000  Hf
  Hf35     1.0000 0.46218  0.85806  0.25536  Biso   1.000  Hf
  Hf36     1.0000 0.26760  0.51627  0.62610  Biso   1.000  Hf
  Hf37     1.0000 0.27268  0.73227  0.87561  Biso   1.000  Hf
  Hf38     1.0000 0.73229  0.76539  0.62506  Biso   1.000  Hf
  Hf39     1.0000 0.73338  0.98333  0.87060  Biso   1.000  Hf
  Hf40     1.0000 0.07145  0.68393  0.69649  Biso   1.000  Hf
  Hf41     1.0000 0.06998  0.56950  0.94603  Biso   1.000  Hf
  Hf42     1.0000 0.92819  0.93321  0.69343  Biso   1.000  Hf
  Hf43     1.0000 0.95895  0.82608  0.95703  Biso   1.000  Hf
  Hf44     1.0000 0.54300  0.61711  0.74955  Biso   1.000  Hf
  Hf45     1.0000 0.54234  0.63019  0.99968  Biso   1.000  Hf
  Hf46     1.0000 0.48618  0.87408  0.99408  Biso   1.000  Hf
  Hf47     1.0000 0.46088  0.86741  0.74879  Biso   1.000  Hf
