data_image0
_cell_length_a       10.0322
_cell_length_b       10.2644
_cell_length_c       10.0322
_cell_angle_alpha    89.9989
_cell_angle_beta     90.0254
_cell_angle_gamma    89.9958

_symmetry_space_group_name_H-M    "P 1"
_symmetry_int_tables_number       1

loop_
  _symmetry_equiv_pos_as_xyz
  'x, y, z'

loop_
  _atom_site_label
  _atom_site_occupancy
  _atom_site_fract_x
  _atom_site_fract_y
  _atom_site_fract_z
  _atom_site_thermal_displace_type
  _atom_site_B_iso_or_equiv
  _atom_site_type_symbol
  Hf1      1.0000 0.12484  0.96551  0.12486  Biso   1.000  Hf
  Hf2      1.0000 0.12319  0.25379  0.37913  Biso   1.000  Hf
  Hf3      1.0000 0.37906  0.25381  0.12320  Biso   1.000  Hf
  Hf4      1.0000 0.37740  0.00549  0.37742  Biso   1.000  Hf
  Hf5      1.0000 0.99071  0.15773  0.99073  Biso   1.000  Hf
  Hf6      1.0000 0.00287  0.09486  0.24698  Biso   1.000  Hf
  Hf7      1.0000 0.98705  0.35237  0.26277  Biso   1.000  Hf
  Hf8      1.0000 0.00313  0.40269  0.00306  Biso   1.000  Hf
  Hf9      1.0000 0.25918  0.15784  0.25919  Biso   1.000  Hf
  Hf10     1.0000 0.24694  0.09490  0.00290  Biso   1.000  Hf
  Hf11     1.0000 0.26286  0.35240  0.98696  Biso   1.000  Hf
  Hf12     1.0000 0.24675  0.40274  0.24668  Biso   1.000  Hf
  Hf13     1.0000 0.12486  0.99836  0.62490  Biso   1.000  Hf
  Hf14     1.0000 0.12661  0.25380  0.87080  Biso   1.000  Hf
  Hf15     1.0000 0.37406  0.25172  0.62486  Biso   1.000  Hf
  Hf16     1.0000 0.37460  0.00334  0.87516  Biso   1.000  Hf
  Hf17     1.0000 0.99814  0.14853  0.49926  Biso   1.000  Hf
  Hf18     1.0000 0.99931  0.10280  0.74671  Biso   1.000  Hf
  Hf19     1.0000 0.99689  0.35507  0.75273  Biso   1.000  Hf
  Hf20     1.0000 0.00011  0.39933  0.50497  Biso   1.000  Hf
  Hf21     1.0000 0.25165  0.14854  0.75060  Biso   1.000  Hf
  Hf22     1.0000 0.25046  0.10281  0.50316  Biso   1.000  Hf
  Hf23     1.0000 0.25293  0.35510  0.49706  Biso   1.000  Hf
  Hf24     1.0000 0.24972  0.39934  0.74479  Biso   1.000  Hf
  Hf25     1.0000 0.12490  0.50619  0.12489  Biso   1.000  Hf
  Hf26     1.0000 0.12672  0.74823  0.37993  Biso   1.000  Hf
  Hf27     1.0000 0.37993  0.74824  0.12671  Biso   1.000  Hf
  Hf28     1.0000 0.37380  0.50003  0.37378  Biso   1.000  Hf
  Hf29     1.0000 0.00068  0.65041  0.00068  Biso   1.000  Hf
  Hf30     1.0000 0.99869  0.59930  0.25105  Biso   1.000  Hf
  Hf31     1.0000 0.00317  0.84305  0.24657  Biso   1.000  Hf
  Hf32     1.0000 0.99274  0.89519  0.99276  Biso   1.000  Hf
  Hf33     1.0000 0.24907  0.65046  0.24906  Biso   1.000  Hf
  Hf34     1.0000 0.25106  0.59933  0.99868  Biso   1.000  Hf
  Hf35     1.0000 0.24657  0.84307  0.00318  Biso   1.000  Hf
  Hf36     1.0000 0.25697  0.89528  0.25699  Biso   1.000  Hf
  Hf37     1.0000 0.12492  0.50264  0.62488  Biso   1.000  Hf
  Hf38     1.0000 0.12306  0.74820  0.86984  Biso   1.000  Hf
  Hf39     1.0000 0.37669  0.75124  0.62567  Biso   1.000  Hf
  Hf40     1.0000 0.37559  0.49917  0.87420  Biso   1.000  Hf
  Hf41     1.0000 0.99741  0.64830  0.50091  Biso   1.000  Hf
  Hf42     1.0000 0.00283  0.60324  0.75205  Biso   1.000  Hf
  Hf43     1.0000 0.00087  0.85245  0.74429  Biso   1.000  Hf
  Hf44     1.0000 0.00172  0.89890  0.49517  Biso   1.000  Hf
  Hf45     1.0000 0.25238  0.64831  0.74883  Biso   1.000  Hf
  Hf46     1.0000 0.24696  0.60326  0.49770  Biso   1.000  Hf
  Hf47     1.0000 0.24893  0.85247  0.50545  Biso   1.000  Hf
  Hf48     1.0000 0.24807  0.89891  0.75460  Biso   1.000  Hf
  Hf49     1.0000 0.62487  0.99835  0.12488  Biso   1.000  Hf
  Hf50     1.0000 0.62482  0.25172  0.37408  Biso   1.000  Hf
  Hf51     1.0000 0.87073  0.25379  0.12662  Biso   1.000  Hf
  Hf52     1.0000 0.87513  0.00333  0.37463  Biso   1.000  Hf
  Hf53     1.0000 0.49924  0.14853  0.99815  Biso   1.000  Hf
  Hf54     1.0000 0.50314  0.10281  0.25048  Biso   1.000  Hf
  Hf55     1.0000 0.49710  0.35510  0.25290  Biso   1.000  Hf
  Hf56     1.0000 0.50503  0.39934  0.00007  Biso   1.000  Hf
  Hf57     1.0000 0.75058  0.14853  0.25166  Biso   1.000  Hf
  Hf58     1.0000 0.74668  0.10280  0.99934  Biso   1.000  Hf
  Hf59     1.0000 0.75277  0.35507  0.99686  Biso   1.000  Hf
  Hf60     1.0000 0.74484  0.39933  0.24968  Biso   1.000  Hf
  Hf61     1.0000 0.62488  0.00259  0.62490  Biso   1.000  Hf
  Hf62     1.0000 0.62496  0.25173  0.87575  Biso   1.000  Hf
  Hf63     1.0000 0.87572  0.25172  0.62501  Biso   1.000  Hf
  Hf64     1.0000 0.87234  0.00547  0.87235  Biso   1.000  Hf
  Hf65     1.0000 0.49986  0.15074  0.49988  Biso   1.000  Hf
  Hf66     1.0000 0.50018  0.10283  0.74961  Biso   1.000  Hf
  Hf67     1.0000 0.49872  0.35222  0.75107  Biso   1.000  Hf
  Hf68     1.0000 0.50063  0.40060  0.50059  Biso   1.000  Hf
  Hf69     1.0000 0.74991  0.15073  0.74993  Biso   1.000  Hf
  Hf70     1.0000 0.74959  0.10282  0.50020  Biso   1.000  Hf
  Hf71     1.0000 0.75111  0.35221  0.49869  Biso   1.000  Hf
  Hf72     1.0000 0.74920  0.40059  0.74916  Biso   1.000  Hf
  Hf73     1.0000 0.62489  0.50264  0.12491  Biso   1.000  Hf
  Hf74     1.0000 0.62567  0.75124  0.37668  Biso   1.000  Hf
  Hf75     1.0000 0.86984  0.74820  0.12306  Biso   1.000  Hf
  Hf76     1.0000 0.87422  0.49915  0.37557  Biso   1.000  Hf
  Hf77     1.0000 0.50091  0.64831  0.99740  Biso   1.000  Hf
  Hf78     1.0000 0.49771  0.60326  0.24694  Biso   1.000  Hf
  Hf79     1.0000 0.50544  0.85247  0.24894  Biso   1.000  Hf
  Hf80     1.0000 0.49515  0.89891  0.00173  Biso   1.000  Hf
  Hf81     1.0000 0.74883  0.64830  0.25237  Biso   1.000  Hf
  Hf82     1.0000 0.75206  0.60323  0.00282  Biso   1.000  Hf
  Hf83     1.0000 0.74428  0.85245  0.00088  Biso   1.000  Hf
  Hf84     1.0000 0.75457  0.89890  0.24809  Biso   1.000  Hf
  Hf85     1.0000 0.62490  0.50022  0.62488  Biso   1.000  Hf
  Hf86     1.0000 0.62411  0.75121  0.87310  Biso   1.000  Hf
  Hf87     1.0000 0.87311  0.75121  0.62411  Biso   1.000  Hf
  Hf88     1.0000 0.87601  0.50001  0.87599  Biso   1.000  Hf
  Hf89     1.0000 0.49648  0.65042  0.49647  Biso   1.000  Hf
  Hf90     1.0000 0.50210  0.60354  0.74769  Biso   1.000  Hf
  Hf91     1.0000 0.49958  0.85384  0.75021  Biso   1.000  Hf
  Hf92     1.0000 0.50034  0.90040  0.50035  Biso   1.000  Hf
  Hf93     1.0000 0.75332  0.65042  0.75331  Biso   1.000  Hf
  Hf94     1.0000 0.74771  0.60352  0.50208  Biso   1.000  Hf
  Hf95     1.0000 0.75019  0.85382  0.49960  Biso   1.000  Hf
  Hf96     1.0000 0.74944  0.90039  0.74945  Biso   1.000  Hf
  Co1      1.0000 0.12493  0.18885  0.12499  Biso   1.000  Co
