data_image0
_cell_length_a       10.0081
_cell_length_b       10.4467
_cell_length_c       5.05341
_cell_angle_alpha    89.8483
_cell_angle_beta     89.7276
_cell_angle_gamma    90.2986

_symmetry_space_group_name_H-M    "P 1"
_symmetry_int_tables_number       1

loop_
  _symmetry_equiv_pos_as_xyz
  'x, y, z'

loop_
  _atom_site_label
  _atom_site_occupancy
  _atom_site_fract_x
  _atom_site_fract_y
  _atom_site_fract_z
  _atom_site_thermal_displace_type
  _atom_site_B_iso_or_equiv
  _atom_site_type_symbol
  Cs1      1.0000 0.11225  0.01230  0.24413  Biso   1.000  Cs
  Hf1      1.0000 0.13527  0.51631  0.25501  Biso   1.000  Hf
  Hf2      1.0000 0.63434  0.01583  0.24971  Biso   1.000  Hf
  Hf3      1.0000 0.63201  0.51462  0.25589  Biso   1.000  Hf
  Hf4      1.0000 0.13280  0.23812  0.74706  Biso   1.000  Hf
  Hf5      1.0000 0.13753  0.73098  0.75789  Biso   1.000  Hf
  Hf6      1.0000 0.63076  0.23230  0.75006  Biso   1.000  Hf
  Hf7      1.0000 0.63399  0.73101  0.75411  Biso   1.000  Hf
  Hf8      1.0000 0.36556  0.26712  0.26676  Biso   1.000  Hf
  Hf9      1.0000 0.37025  0.76177  0.25463  Biso   1.000  Hf
  Hf10     1.0000 0.85724  0.27174  0.24744  Biso   1.000  Hf
  Hf11     1.0000 0.86417  0.75687  0.24323  Biso   1.000  Hf
  Hf12     1.0000 0.36507  0.48151  0.75958  Biso   1.000  Hf
  Hf13     1.0000 0.36837  0.97999  0.74667  Biso   1.000  Hf
  Hf14     1.0000 0.86604  0.48301  0.75356  Biso   1.000  Hf
  Hf15     1.0000 0.85791  0.98362  0.75424  Biso   1.000  Hf
  Hf16     1.0000 0.03853  0.22515  0.37226  Biso   1.000  Hf
  Hf17     1.0000 0.03843  0.68918  0.38900  Biso   1.000  Hf
  Hf18     1.0000 0.54127  0.18544  0.38188  Biso   1.000  Hf
  Hf19     1.0000 0.53834  0.68049  0.39790  Biso   1.000  Hf
  Hf20     1.0000 0.02997  0.07339  0.76866  Biso   1.000  Hf
  Hf21     1.0000 0.03450  0.56686  0.89421  Biso   1.000  Hf
  Hf22     1.0000 0.53799  0.06450  0.89048  Biso   1.000  Hf
  Hf23     1.0000 0.53480  0.56458  0.89831  Biso   1.000  Hf
  Hf24     1.0000 0.46538  0.43118  0.40020  Biso   1.000  Hf
  Hf25     1.0000 0.46981  0.93185  0.39468  Biso   1.000  Hf
  Hf26     1.0000 0.95844  0.44253  0.38646  Biso   1.000  Hf
  Hf27     1.0000 0.93800  0.93443  0.37844  Biso   1.000  Hf
  Hf28     1.0000 0.46203  0.31234  0.89453  Biso   1.000  Hf
  Hf29     1.0000 0.47347  0.81584  0.90078  Biso   1.000  Hf
  Hf30     1.0000 0.96094  0.31989  0.88775  Biso   1.000  Hf
  Hf31     1.0000 0.96921  0.82119  0.89480  Biso   1.000  Hf
  Hf32     1.0000 0.29162  0.13644  0.54176  Biso   1.000  Hf
  Hf33     1.0000 0.27049  0.61215  0.50385  Biso   1.000  Hf
  Hf34     1.0000 0.76925  0.11832  0.49739  Biso   1.000  Hf
  Hf35     1.0000 0.77082  0.61509  0.49692  Biso   1.000  Hf
  Hf36     1.0000 0.26121  0.12393  0.02235  Biso   1.000  Hf
  Hf37     1.0000 0.27180  0.62742  0.00539  Biso   1.000  Hf
  Hf38     1.0000 0.77256  0.13205  0.99775  Biso   1.000  Hf
  Hf39     1.0000 0.76963  0.62945  0.99548  Biso   1.000  Hf
  Hf40     1.0000 0.23049  0.38028  0.00857  Biso   1.000  Hf
  Hf41     1.0000 0.24474  0.86909  0.99203  Biso   1.000  Hf
  Hf42     1.0000 0.72596  0.38252  0.00030  Biso   1.000  Hf
  Hf43     1.0000 0.72856  0.87740  0.00725  Biso   1.000  Hf
  Hf44     1.0000 0.22872  0.37418  0.50590  Biso   1.000  Hf
  Hf45     1.0000 0.24825  0.85180  0.51947  Biso   1.000  Hf
  Hf46     1.0000 0.72751  0.36884  0.50375  Biso   1.000  Hf
  Hf47     1.0000 0.73345  0.86430  0.50265  Biso   1.000  Hf
