data_image0
_cell_length_a       9.98358
_cell_length_b       5.21664
_cell_length_c       10.0435
_cell_angle_alpha    90.1735
_cell_angle_beta     90.3283
_cell_angle_gamma    89.8673

_symmetry_space_group_name_H-M    "P 1"
_symmetry_int_tables_number       1

loop_
  _symmetry_equiv_pos_as_xyz
  'x, y, z'

loop_
  _atom_site_label
  _atom_site_occupancy
  _atom_site_fract_x
  _atom_site_fract_y
  _atom_site_fract_z
  _atom_site_thermal_displace_type
  _atom_site_B_iso_or_equiv
  _atom_site_type_symbol
  Hf1      1.0000 0.13245  0.91275  0.13509  Biso   1.000  Hf
  Hf2      1.0000 0.13538  0.53621  0.40264  Biso   1.000  Hf
  Hf3      1.0000 0.36198  0.47069  0.13996  Biso   1.000  Hf
  Hf4      1.0000 0.36573  0.03619  0.39151  Biso   1.000  Hf
  Hf5      1.0000 0.97294  0.37077  0.97654  Biso   1.000  Hf
  Hf6      1.0000 0.96227  0.12410  0.21108  Biso   1.000  Hf
  Hf7      1.0000 0.01704  0.63441  0.23399  Biso   1.000  Hf
  Hf8      1.0000 0.03711  0.86746  0.95470  Biso   1.000  Hf
  Hf9      1.0000 0.22149  0.27324  0.26521  Biso   1.000  Hf
  Hf10     1.0000 0.23062  0.22735  0.01683  Biso   1.000  Hf
  Hf11     1.0000 0.28819  0.74922  0.00789  Biso   1.000  Hf
  Hf12     1.0000 0.27010  0.76121  0.27111  Biso   1.000  Hf
  Hf13     1.0000 0.13450  0.97289  0.64538  Biso   1.000  Hf
  Hf14     1.0000 0.14229  0.54049  0.89028  Biso   1.000  Hf
  Hf15     1.0000 0.36958  0.47186  0.64219  Biso   1.000  Hf
  Hf16     1.0000 0.37087  0.04146  0.89049  Biso   1.000  Hf
  Hf17     1.0000 0.96635  0.36226  0.46668  Biso   1.000  Hf
  Hf18     1.0000 0.96833  0.14354  0.72008  Biso   1.000  Hf
  Hf19     1.0000 0.03748  0.63780  0.71032  Biso   1.000  Hf
  Hf20     1.0000 0.03451  0.86872  0.46870  Biso   1.000  Hf
  Hf21     1.0000 0.23544  0.27056  0.76550  Biso   1.000  Hf
  Hf22     1.0000 0.23135  0.23620  0.51734  Biso   1.000  Hf
  Hf23     1.0000 0.27186  0.74033  0.51900  Biso   1.000  Hf
  Hf24     1.0000 0.27347  0.77237  0.76458  Biso   1.000  Hf
  Hf25     1.0000 0.62884  0.97018  0.14287  Biso   1.000  Hf
  Hf26     1.0000 0.63100  0.53896  0.39344  Biso   1.000  Hf
  Hf27     1.0000 0.85063  0.46845  0.14591  Biso   1.000  Hf
  Hf28     1.0000 0.86740  0.03312  0.39256  Biso   1.000  Hf
  Hf29     1.0000 0.46772  0.37157  0.96158  Biso   1.000  Hf
  Hf30     1.0000 0.46006  0.13608  0.21210  Biso   1.000  Hf
  Hf31     1.0000 0.53293  0.63987  0.21225  Biso   1.000  Hf
  Hf32     1.0000 0.54178  0.87568  0.95764  Biso   1.000  Hf
  Hf33     1.0000 0.72374  0.26456  0.26936  Biso   1.000  Hf
  Hf34     1.0000 0.72863  0.23936  0.01694  Biso   1.000  Hf
  Hf35     1.0000 0.77133  0.73986  0.01722  Biso   1.000  Hf
  Hf36     1.0000 0.76324  0.77116  0.26836  Biso   1.000  Hf
  Hf37     1.0000 0.63733  0.97256  0.64243  Biso   1.000  Hf
  Hf38     1.0000 0.63424  0.53914  0.89136  Biso   1.000  Hf
  Hf39     1.0000 0.86834  0.47118  0.64282  Biso   1.000  Hf
  Hf40     1.0000 0.86623  0.03815  0.89445  Biso   1.000  Hf
  Hf41     1.0000 0.46327  0.37202  0.46111  Biso   1.000  Hf
  Hf42     1.0000 0.46928  0.13894  0.71036  Biso   1.000  Hf
  Hf43     1.0000 0.53925  0.63697  0.71043  Biso   1.000  Hf
  Hf44     1.0000 0.53347  0.87273  0.46343  Biso   1.000  Hf
  Hf45     1.0000 0.73409  0.27241  0.76814  Biso   1.000  Hf
  Hf46     1.0000 0.73121  0.23637  0.51724  Biso   1.000  Hf
  Hf47     1.0000 0.76980  0.73568  0.51663  Biso   1.000  Hf
  Hf48     1.0000 0.77369  0.77257  0.76734  Biso   1.000  Hf
  Fe1      1.0000 0.09743  0.37624  0.12624  Biso   1.000  Fe
