data_image0
_cell_length_a       5.00046
_cell_length_b       10.436
_cell_length_c       10.0305
_cell_angle_alpha    89.677
_cell_angle_beta     90.318
_cell_angle_gamma    90.0828

_symmetry_space_group_name_H-M    "P 1"
_symmetry_int_tables_number       1

loop_
  _symmetry_equiv_pos_as_xyz
  'x, y, z'

loop_
  _atom_site_label
  _atom_site_occupancy
  _atom_site_fract_x
  _atom_site_fract_y
  _atom_site_fract_z
  _atom_site_thermal_displace_type
  _atom_site_B_iso_or_equiv
  _atom_site_type_symbol
  Hf1      1.0000 0.26355  0.02141  0.11961  Biso   1.000  Hf
  Hf2      1.0000 0.26382  0.22932  0.38278  Biso   1.000  Hf
  Hf3      1.0000 0.69678  0.25863  0.12388  Biso   1.000  Hf
  Hf4      1.0000 0.73818  0.48340  0.37441  Biso   1.000  Hf
  Hf5      1.0000 0.03138  0.17612  0.21206  Biso   1.000  Hf
  Hf6      1.0000 0.07004  0.06412  0.45024  Biso   1.000  Hf
  Hf7      1.0000 0.91864  0.43370  0.19418  Biso   1.000  Hf
  Hf8      1.0000 0.93296  0.31858  0.44912  Biso   1.000  Hf
  Hf9      1.0000 0.52067  0.11451  0.25229  Biso   1.000  Hf
  Hf10     1.0000 0.54535  0.13205  0.49977  Biso   1.000  Hf
  Hf11     1.0000 0.46457  0.38281  0.49911  Biso   1.000  Hf
  Hf12     1.0000 0.43303  0.36405  0.24768  Biso   1.000  Hf
  Hf13     1.0000 0.27323  0.01395  0.62624  Biso   1.000  Hf
  Hf14     1.0000 0.28366  0.22484  0.87320  Biso   1.000  Hf
  Hf15     1.0000 0.73876  0.26519  0.62625  Biso   1.000  Hf
  Hf16     1.0000 0.73598  0.48268  0.87698  Biso   1.000  Hf
  Hf17     1.0000 0.07636  0.18087  0.69298  Biso   1.000  Hf
  Hf18     1.0000 0.08943  0.05904  0.93566  Biso   1.000  Hf
  Hf19     1.0000 0.93983  0.43064  0.70234  Biso   1.000  Hf
  Hf20     1.0000 0.94637  0.31260  0.95566  Biso   1.000  Hf
  Hf21     1.0000 0.54988  0.11333  0.74653  Biso   1.000  Hf
  Hf22     1.0000 0.57853  0.12003  0.99189  Biso   1.000  Hf
  Hf23     1.0000 0.45706  0.38604  0.99901  Biso   1.000  Hf
  Hf24     1.0000 0.47201  0.36451  0.75017  Biso   1.000  Hf
  Hf25     1.0000 0.26329  0.53379  0.12374  Biso   1.000  Hf
  Hf26     1.0000 0.27090  0.73558  0.37766  Biso   1.000  Hf
  Hf27     1.0000 0.72783  0.77027  0.12716  Biso   1.000  Hf
  Hf28     1.0000 0.73325  0.98388  0.37384  Biso   1.000  Hf
  Hf29     1.0000 0.06453  0.68780  0.20074  Biso   1.000  Hf
  Hf30     1.0000 0.06794  0.56665  0.44730  Biso   1.000  Hf
  Hf31     1.0000 0.92732  0.93546  0.19313  Biso   1.000  Hf
  Hf32     1.0000 0.92970  0.81625  0.44380  Biso   1.000  Hf
  Hf33     1.0000 0.54368  0.62093  0.25171  Biso   1.000  Hf
  Hf34     1.0000 0.53964  0.63188  0.50029  Biso   1.000  Hf
  Hf35     1.0000 0.46443  0.88288  0.49906  Biso   1.000  Hf
  Hf36     1.0000 0.45795  0.86830  0.24958  Biso   1.000  Hf
  Hf37     1.0000 0.27336  0.51373  0.62636  Biso   1.000  Hf
  Hf38     1.0000 0.27131  0.73539  0.87308  Biso   1.000  Hf
  Hf39     1.0000 0.73980  0.76359  0.62334  Biso   1.000  Hf
  Hf40     1.0000 0.74154  0.97692  0.87330  Biso   1.000  Hf
  Hf41     1.0000 0.07839  0.68145  0.69287  Biso   1.000  Hf
  Hf42     1.0000 0.07028  0.56997  0.94411  Biso   1.000  Hf
  Hf43     1.0000 0.93986  0.92797  0.69423  Biso   1.000  Hf
  Hf44     1.0000 0.93434  0.81388  0.94711  Biso   1.000  Hf
  Hf45     1.0000 0.54621  0.61370  0.75028  Biso   1.000  Hf
  Hf46     1.0000 0.54347  0.63583  0.99823  Biso   1.000  Hf
  Hf47     1.0000 0.46001  0.88084  0.99903  Biso   1.000  Hf
  Hf48     1.0000 0.47078  0.86359  0.74765  Biso   1.000  Hf
  Fe1      1.0000 0.19068  0.30822  0.10708  Biso   1.000  Fe
