data_image0
_cell_length_a       10.0016
_cell_length_b       5.23205
_cell_length_c       10.1411
_cell_angle_alpha    89.1245
_cell_angle_beta     92.4781
_cell_angle_gamma    90.8596

_symmetry_space_group_name_H-M    "P 1"
_symmetry_int_tables_number       1

loop_
  _symmetry_equiv_pos_as_xyz
  'x, y, z'

loop_
  _atom_site_label
  _atom_site_occupancy
  _atom_site_fract_x
  _atom_site_fract_y
  _atom_site_fract_z
  _atom_site_thermal_displace_type
  _atom_site_B_iso_or_equiv
  _atom_site_type_symbol
  Hf1      1.0000 0.12006  0.07065  0.12031  Biso   1.000  Hf
  Hf2      1.0000 0.13058  0.46661  0.38659  Biso   1.000  Hf
  Hf3      1.0000 0.36620  0.52294  0.11930  Biso   1.000  Hf
  Hf4      1.0000 0.36992  0.97227  0.36997  Biso   1.000  Hf
  Hf5      1.0000 0.01015  0.36231  0.21689  Biso   1.000  Hf
  Hf6      1.0000 0.04288  0.12835  0.43963  Biso   1.000  Hf
  Hf7      1.0000 0.45524  0.86836  0.19360  Biso   1.000  Hf
  Hf8      1.0000 0.46204  0.63237  0.44331  Biso   1.000  Hf
  Hf9      1.0000 0.26267  0.23787  0.24916  Biso   1.000  Hf
  Hf10     1.0000 0.27634  0.26268  0.49723  Biso   1.000  Hf
  Hf11     1.0000 0.23426  0.76758  0.48759  Biso   1.000  Hf
  Hf12     1.0000 0.20760  0.71812  0.22910  Biso   1.000  Hf
  Hf13     1.0000 0.14063  0.02056  0.61576  Biso   1.000  Hf
  Hf14     1.0000 0.15009  0.44069  0.85293  Biso   1.000  Hf
  Hf15     1.0000 0.37566  0.52862  0.62262  Biso   1.000  Hf
  Hf16     1.0000 0.37796  0.95772  0.87288  Biso   1.000  Hf
  Hf17     1.0000 0.05743  0.36283  0.66709  Biso   1.000  Hf
  Hf18     1.0000 0.04217  0.11708  0.93124  Biso   1.000  Hf
  Hf19     1.0000 0.47119  0.85927  0.69484  Biso   1.000  Hf
  Hf20     1.0000 0.47807  0.62664  0.95107  Biso   1.000  Hf
  Hf21     1.0000 0.28092  0.21988  0.74360  Biso   1.000  Hf
  Hf22     1.0000 0.29283  0.23968  0.99066  Biso   1.000  Hf
  Hf23     1.0000 0.24140  0.76327  0.98503  Biso   1.000  Hf
  Hf24     1.0000 0.23912  0.72419  0.73829  Biso   1.000  Hf
  Hf25     1.0000 0.63104  0.04418  0.13381  Biso   1.000  Hf
  Hf26     1.0000 0.63204  0.46368  0.39413  Biso   1.000  Hf
  Hf27     1.0000 0.83626  0.55491  0.16110  Biso   1.000  Hf
  Hf28     1.0000 0.86439  0.97030  0.39769  Biso   1.000  Hf
  Hf29     1.0000 0.53125  0.36024  0.20295  Biso   1.000  Hf
  Hf30     1.0000 0.53364  0.12993  0.45370  Biso   1.000  Hf
  Hf31     1.0000 0.94546  0.89592  0.21745  Biso   1.000  Hf
  Hf32     1.0000 0.96101  0.62513  0.44935  Biso   1.000  Hf
  Hf33     1.0000 0.75909  0.24573  0.27318  Biso   1.000  Hf
  Hf34     1.0000 0.77253  0.26420  0.51836  Biso   1.000  Hf
  Hf35     1.0000 0.72796  0.75419  0.51409  Biso   1.000  Hf
  Hf36     1.0000 0.70866  0.75399  0.26834  Biso   1.000  Hf
  Hf37     1.0000 0.64131  0.02859  0.63585  Biso   1.000  Hf
  Hf38     1.0000 0.64309  0.46338  0.88318  Biso   1.000  Hf
  Hf39     1.0000 0.87797  0.53642  0.64446  Biso   1.000  Hf
  Hf40     1.0000 0.87211  0.94363  0.87465  Biso   1.000  Hf
  Hf41     1.0000 0.54184  0.36068  0.69920  Biso   1.000  Hf
  Hf42     1.0000 0.54816  0.12482  0.94655  Biso   1.000  Hf
  Hf43     1.0000 0.95619  0.90237  0.66587  Biso   1.000  Hf
  Hf44     1.0000 0.96174  0.60094  0.85240  Biso   1.000  Hf
  Hf45     1.0000 0.77630  0.22923  0.76655  Biso   1.000  Hf
  Hf46     1.0000 0.77166  0.28658  0.02343  Biso   1.000  Hf
  Hf47     1.0000 0.74427  0.77388  0.01168  Biso   1.000  Hf
  Hf48     1.0000 0.72790  0.73503  0.75790  Biso   1.000  Hf
  Ge1      1.0000 0.08396  0.58380  0.08216  Biso   1.000  Ge
