data_image0
_cell_length_a       9.92797
_cell_length_b       10.3886
_cell_length_c       4.99161
_cell_angle_alpha    90.906
_cell_angle_beta     89.4303
_cell_angle_gamma    90.0985

_symmetry_space_group_name_H-M    "P 1"
_symmetry_int_tables_number       1

loop_
  _symmetry_equiv_pos_as_xyz
  'x, y, z'

loop_
  _atom_site_label
  _atom_site_occupancy
  _atom_site_fract_x
  _atom_site_fract_y
  _atom_site_fract_z
  _atom_site_thermal_displace_type
  _atom_site_B_iso_or_equiv
  _atom_site_type_symbol
  Ge1      1.0000 0.11893  0.02783  0.22765  Biso   1.000  Ge
  Hf1      1.0000 0.13222  0.23365  0.73531  Biso   1.000  Hf
  Hf2      1.0000 0.36748  0.26366  0.23529  Biso   1.000  Hf
  Hf3      1.0000 0.36800  0.48493  0.74728  Biso   1.000  Hf
  Hf4      1.0000 0.03197  0.17951  0.37914  Biso   1.000  Hf
  Hf5      1.0000 0.03595  0.06713  0.90500  Biso   1.000  Hf
  Hf6      1.0000 0.46466  0.43294  0.38467  Biso   1.000  Hf
  Hf7      1.0000 0.46729  0.32064  0.88859  Biso   1.000  Hf
  Hf8      1.0000 0.25202  0.09720  0.46617  Biso   1.000  Hf
  Hf9      1.0000 0.27128  0.14164  0.96788  Biso   1.000  Hf
  Hf10     1.0000 0.22935  0.38558  0.98792  Biso   1.000  Hf
  Hf11     1.0000 0.23292  0.35943  0.48866  Biso   1.000  Hf
  Hf12     1.0000 0.13447  0.51367  0.24853  Biso   1.000  Hf
  Hf13     1.0000 0.13165  0.73120  0.75854  Biso   1.000  Hf
  Hf14     1.0000 0.36546  0.76742  0.26383  Biso   1.000  Hf
  Hf15     1.0000 0.36005  0.98441  0.75687  Biso   1.000  Hf
  Hf16     1.0000 0.03595  0.68233  0.39529  Biso   1.000  Hf
  Hf17     1.0000 0.03171  0.56499  0.89789  Biso   1.000  Hf
  Hf18     1.0000 0.47131  0.93153  0.41025  Biso   1.000  Hf
  Hf19     1.0000 0.46461  0.82289  0.91009  Biso   1.000  Hf
  Hf20     1.0000 0.26729  0.60826  0.49924  Biso   1.000  Hf
  Hf21     1.0000 0.26911  0.63737  0.00182  Biso   1.000  Hf
  Hf22     1.0000 0.22297  0.89918  0.05222  Biso   1.000  Hf
  Hf23     1.0000 0.24735  0.84944  0.55010  Biso   1.000  Hf
  Hf24     1.0000 0.63112  0.01517  0.24683  Biso   1.000  Hf
  Hf25     1.0000 0.63388  0.23284  0.74889  Biso   1.000  Hf
  Hf26     1.0000 0.86394  0.26675  0.24367  Biso   1.000  Hf
  Hf27     1.0000 0.86399  0.48458  0.74816  Biso   1.000  Hf
  Hf28     1.0000 0.52948  0.18199  0.39819  Biso   1.000  Hf
  Hf29     1.0000 0.53270  0.07035  0.89869  Biso   1.000  Hf
  Hf30     1.0000 0.96633  0.43018  0.39195  Biso   1.000  Hf
  Hf31     1.0000 0.96286  0.31505  0.88175  Biso   1.000  Hf
  Hf32     1.0000 0.76871  0.11595  0.49121  Biso   1.000  Hf
  Hf33     1.0000 0.77048  0.13341  0.99112  Biso   1.000  Hf
  Hf34     1.0000 0.72986  0.38424  0.99716  Biso   1.000  Hf
  Hf35     1.0000 0.72791  0.36684  0.49541  Biso   1.000  Hf
  Hf36     1.0000 0.63315  0.51851  0.25162  Biso   1.000  Hf
  Hf37     1.0000 0.63283  0.73789  0.75372  Biso   1.000  Hf
  Hf38     1.0000 0.87219  0.76664  0.24545  Biso   1.000  Hf
  Hf39     1.0000 0.86835  0.98613  0.74446  Biso   1.000  Hf
  Hf40     1.0000 0.53382  0.68370  0.40131  Biso   1.000  Hf
  Hf41     1.0000 0.53530  0.57044  0.89266  Biso   1.000  Hf
  Hf42     1.0000 0.98278  0.93621  0.38544  Biso   1.000  Hf
  Hf43     1.0000 0.96320  0.81894  0.88501  Biso   1.000  Hf
  Hf44     1.0000 0.77061  0.61699  0.49848  Biso   1.000  Hf
  Hf45     1.0000 0.76875  0.63651  0.99933  Biso   1.000  Hf
  Hf46     1.0000 0.73209  0.88624  0.99364  Biso   1.000  Hf
  Hf47     1.0000 0.73931  0.86676  0.49388  Biso   1.000  Hf
