data_image0
_cell_length_a       4.99894
_cell_length_b       10.0065
_cell_length_c       10.1361
_cell_angle_alpha    90.002
_cell_angle_beta     89.9987
_cell_angle_gamma    89.9999

_symmetry_space_group_name_H-M    "P 1"
_symmetry_int_tables_number       1

loop_
  _symmetry_equiv_pos_as_xyz
  'x, y, z'

loop_
  _atom_site_label
  _atom_site_occupancy
  _atom_site_fract_x
  _atom_site_fract_y
  _atom_site_fract_z
  _atom_site_thermal_displace_type
  _atom_site_B_iso_or_equiv
  _atom_site_type_symbol
  Ge1      1.0000 0.24881  0.99998  0.12520  Biso   1.000  Ge
  Hf1      1.0000 0.25898  0.24869  0.37442  Biso   1.000  Hf
  Hf2      1.0000 0.74881  0.24896  0.12521  Biso   1.000  Hf
  Hf3      1.0000 0.74880  0.99999  0.37756  Biso   1.000  Hf
  Hf4      1.0000 0.94209  0.14749  0.97217  Biso   1.000  Hf
  Hf5      1.0000 0.04243  0.10608  0.22269  Biso   1.000  Hf
  Hf6      1.0000 0.98336  0.35723  0.26865  Biso   1.000  Hf
  Hf7      1.0000 0.00299  0.38796  0.01744  Biso   1.000  Hf
  Hf8      1.0000 0.55553  0.14749  0.27824  Biso   1.000  Hf
  Hf9      1.0000 0.45518  0.10609  0.02772  Biso   1.000  Hf
  Hf10     1.0000 0.51428  0.35723  0.98176  Biso   1.000  Hf
  Hf11     1.0000 0.49464  0.38797  0.23296  Biso   1.000  Hf
  Hf12     1.0000 0.24881  0.99998  0.62520  Biso   1.000  Hf
  Hf13     1.0000 0.23862  0.24869  0.87598  Biso   1.000  Hf
  Hf14     1.0000 0.74882  0.25256  0.62520  Biso   1.000  Hf
  Hf15     1.0000 0.74880  0.99999  0.87284  Biso   1.000  Hf
  Hf16     1.0000 0.99744  0.12985  0.47651  Biso   1.000  Hf
  Hf17     1.0000 0.99815  0.12054  0.72748  Biso   1.000  Hf
  Hf18     1.0000 0.99180  0.36987  0.76846  Biso   1.000  Hf
  Hf19     1.0000 0.00092  0.38001  0.51795  Biso   1.000  Hf
  Hf20     1.0000 0.50013  0.12984  0.77389  Biso   1.000  Hf
  Hf21     1.0000 0.49944  0.12054  0.52293  Biso   1.000  Hf
  Hf22     1.0000 0.50580  0.36987  0.48195  Biso   1.000  Hf
  Hf23     1.0000 0.49668  0.38000  0.73246  Biso   1.000  Hf
  Hf24     1.0000 0.24882  0.49997  0.12520  Biso   1.000  Hf
  Hf25     1.0000 0.23862  0.75129  0.37441  Biso   1.000  Hf
  Hf26     1.0000 0.74880  0.75100  0.12520  Biso   1.000  Hf
  Hf27     1.0000 0.74880  0.50000  0.37368  Biso   1.000  Hf
  Hf28     1.0000 0.98332  0.64274  0.98175  Biso   1.000  Hf
  Hf29     1.0000 0.00297  0.61200  0.23295  Biso   1.000  Hf
  Hf30     1.0000 0.94207  0.85247  0.27824  Biso   1.000  Hf
  Hf31     1.0000 0.04244  0.89388  0.02772  Biso   1.000  Hf
  Hf32     1.0000 0.51426  0.64274  0.26865  Biso   1.000  Hf
  Hf33     1.0000 0.49460  0.61201  0.01744  Biso   1.000  Hf
  Hf34     1.0000 0.55554  0.85248  0.97216  Biso   1.000  Hf
  Hf35     1.0000 0.45518  0.89389  0.22268  Biso   1.000  Hf
  Hf36     1.0000 0.24883  0.49998  0.62519  Biso   1.000  Hf
  Hf37     1.0000 0.25898  0.75128  0.87598  Biso   1.000  Hf
  Hf38     1.0000 0.74883  0.74740  0.62520  Biso   1.000  Hf
  Hf39     1.0000 0.74880  0.49998  0.87672  Biso   1.000  Hf
  Hf40     1.0000 0.99184  0.63010  0.48194  Biso   1.000  Hf
  Hf41     1.0000 0.00095  0.61997  0.73245  Biso   1.000  Hf
  Hf42     1.0000 0.99748  0.87013  0.77389  Biso   1.000  Hf
  Hf43     1.0000 0.99813  0.87944  0.52292  Biso   1.000  Hf
  Hf44     1.0000 0.50582  0.63010  0.76845  Biso   1.000  Hf
  Hf45     1.0000 0.49671  0.61997  0.51794  Biso   1.000  Hf
  Hf46     1.0000 0.50013  0.87013  0.47651  Biso   1.000  Hf
  Hf47     1.0000 0.49946  0.87943  0.72747  Biso   1.000  Hf
