data_image0
_cell_length_a       10.0119
_cell_length_b       10.2254
_cell_length_c       10.0119
_cell_angle_alpha    89.9998
_cell_angle_beta     90
_cell_angle_gamma    90.0002

_symmetry_space_group_name_H-M    "P 1"
_symmetry_int_tables_number       1

loop_
  _symmetry_equiv_pos_as_xyz
  'x, y, z'

loop_
  _atom_site_label
  _atom_site_occupancy
  _atom_site_fract_x
  _atom_site_fract_y
  _atom_site_fract_z
  _atom_site_thermal_displace_type
  _atom_site_B_iso_or_equiv
  _atom_site_type_symbol
  In1      1.0000 0.12490  0.00004  0.12489  Biso   1.000  In
  Hf1      1.0000 0.12497  0.25084  0.37414  Biso   1.000  Hf
  Hf2      1.0000 0.37415  0.25085  0.12496  Biso   1.000  Hf
  Hf3      1.0000 0.37305  0.99990  0.37305  Biso   1.000  Hf
  Hf4      1.0000 0.99115  0.15105  0.99114  Biso   1.000  Hf
  Hf5      1.0000 0.99960  0.10738  0.25019  Biso   1.000  Hf
  Hf6      1.0000 0.00047  0.35394  0.24933  Biso   1.000  Hf
  Hf7      1.0000 0.99984  0.39829  0.99981  Biso   1.000  Hf
  Hf8      1.0000 0.25865  0.15105  0.25864  Biso   1.000  Hf
  Hf9      1.0000 0.25020  0.10740  0.99960  Biso   1.000  Hf
  Hf10     1.0000 0.24935  0.35395  0.00046  Biso   1.000  Hf
  Hf11     1.0000 0.24999  0.39828  0.24998  Biso   1.000  Hf
  Hf12     1.0000 0.12490  0.00005  0.62489  Biso   1.000  Hf
  Hf13     1.0000 0.12485  0.25084  0.87566  Biso   1.000  Hf
  Hf14     1.0000 0.37479  0.24910  0.62527  Biso   1.000  Hf
  Hf15     1.0000 0.37304  0.00020  0.87674  Biso   1.000  Hf
  Hf16     1.0000 0.00083  0.14833  0.49899  Biso   1.000  Hf
  Hf17     1.0000 0.99808  0.10156  0.74675  Biso   1.000  Hf
  Hf18     1.0000 0.99934  0.35237  0.74915  Biso   1.000  Hf
  Hf19     1.0000 0.00041  0.39813  0.49927  Biso   1.000  Hf
  Hf20     1.0000 0.24899  0.14833  0.75080  Biso   1.000  Hf
  Hf21     1.0000 0.25174  0.10156  0.50305  Biso   1.000  Hf
  Hf22     1.0000 0.25047  0.35236  0.50065  Biso   1.000  Hf
  Hf23     1.0000 0.24940  0.39813  0.75053  Biso   1.000  Hf
  Hf24     1.0000 0.12491  0.50005  0.12489  Biso   1.000  Hf
  Hf25     1.0000 0.12485  0.74925  0.37414  Biso   1.000  Hf
  Hf26     1.0000 0.37415  0.74926  0.12482  Biso   1.000  Hf
  Hf27     1.0000 0.37534  0.49955  0.37533  Biso   1.000  Hf
  Hf28     1.0000 0.00047  0.64615  0.00047  Biso   1.000  Hf
  Hf29     1.0000 0.99983  0.60180  0.24998  Biso   1.000  Hf
  Hf30     1.0000 0.99115  0.84904  0.25865  Biso   1.000  Hf
  Hf31     1.0000 0.99958  0.89271  0.99960  Biso   1.000  Hf
  Hf32     1.0000 0.24935  0.64615  0.24933  Biso   1.000  Hf
  Hf33     1.0000 0.24999  0.60182  0.99981  Biso   1.000  Hf
  Hf34     1.0000 0.25863  0.84905  0.99115  Biso   1.000  Hf
  Hf35     1.0000 0.25019  0.89270  0.25020  Biso   1.000  Hf
  Hf36     1.0000 0.12490  0.50005  0.62491  Biso   1.000  Hf
  Hf37     1.0000 0.12495  0.74927  0.87565  Biso   1.000  Hf
  Hf38     1.0000 0.37478  0.75100  0.62452  Biso   1.000  Hf
  Hf39     1.0000 0.37535  0.50055  0.87447  Biso   1.000  Hf
  Hf40     1.0000 0.99932  0.64774  0.50065  Biso   1.000  Hf
  Hf41     1.0000 0.00040  0.60198  0.75053  Biso   1.000  Hf
  Hf42     1.0000 0.00081  0.85178  0.75080  Biso   1.000  Hf
  Hf43     1.0000 0.99807  0.89854  0.50304  Biso   1.000  Hf
  Hf44     1.0000 0.25046  0.64774  0.74914  Biso   1.000  Hf
  Hf45     1.0000 0.24938  0.60197  0.49925  Biso   1.000  Hf
  Hf46     1.0000 0.24898  0.85177  0.49900  Biso   1.000  Hf
  Hf47     1.0000 0.25171  0.89854  0.74676  Biso   1.000  Hf
  Hf48     1.0000 0.62489  0.00005  0.12490  Biso   1.000  Hf
  Hf49     1.0000 0.62528  0.24909  0.37478  Biso   1.000  Hf
  Hf50     1.0000 0.87566  0.25083  0.12484  Biso   1.000  Hf
  Hf51     1.0000 0.87674  0.00018  0.37305  Biso   1.000  Hf
  Hf52     1.0000 0.49900  0.14833  0.00083  Biso   1.000  Hf
  Hf53     1.0000 0.50305  0.10155  0.25174  Biso   1.000  Hf
  Hf54     1.0000 0.50065  0.35236  0.25047  Biso   1.000  Hf
  Hf55     1.0000 0.49928  0.39812  0.00041  Biso   1.000  Hf
  Hf56     1.0000 0.75080  0.14832  0.24898  Biso   1.000  Hf
  Hf57     1.0000 0.74675  0.10156  0.99807  Biso   1.000  Hf
  Hf58     1.0000 0.74917  0.35237  0.99934  Biso   1.000  Hf
  Hf59     1.0000 0.75054  0.39812  0.24940  Biso   1.000  Hf
  Hf60     1.0000 0.62489  0.00006  0.62488  Biso   1.000  Hf
  Hf61     1.0000 0.62454  0.24909  0.87502  Biso   1.000  Hf
  Hf62     1.0000 0.87503  0.24909  0.62452  Biso   1.000  Hf
  Hf63     1.0000 0.87674  0.99991  0.87673  Biso   1.000  Hf
  Hf64     1.0000 0.50139  0.14830  0.50139  Biso   1.000  Hf
  Hf65     1.0000 0.49927  0.10184  0.75056  Biso   1.000  Hf
  Hf66     1.0000 0.49923  0.35241  0.75058  Biso   1.000  Hf
  Hf67     1.0000 0.50031  0.39760  0.50032  Biso   1.000  Hf
  Hf68     1.0000 0.74844  0.14831  0.74842  Biso   1.000  Hf
  Hf69     1.0000 0.75056  0.10184  0.49925  Biso   1.000  Hf
  Hf70     1.0000 0.75057  0.35241  0.49924  Biso   1.000  Hf
  Hf71     1.0000 0.74948  0.39760  0.74949  Biso   1.000  Hf
  Hf72     1.0000 0.62492  0.50005  0.12490  Biso   1.000  Hf
  Hf73     1.0000 0.62452  0.75100  0.37477  Biso   1.000  Hf
  Hf74     1.0000 0.87565  0.74927  0.12495  Biso   1.000  Hf
  Hf75     1.0000 0.87447  0.50056  0.37534  Biso   1.000  Hf
  Hf76     1.0000 0.50065  0.64774  0.99932  Biso   1.000  Hf
  Hf77     1.0000 0.49928  0.60197  0.24938  Biso   1.000  Hf
  Hf78     1.0000 0.49900  0.85177  0.24896  Biso   1.000  Hf
  Hf79     1.0000 0.50303  0.89854  0.99806  Biso   1.000  Hf
  Hf80     1.0000 0.74916  0.64773  0.25046  Biso   1.000  Hf
  Hf81     1.0000 0.75054  0.60198  0.00040  Biso   1.000  Hf
  Hf82     1.0000 0.75079  0.85178  0.00081  Biso   1.000  Hf
  Hf83     1.0000 0.74675  0.89853  0.25172  Biso   1.000  Hf
  Hf84     1.0000 0.62491  0.50005  0.62490  Biso   1.000  Hf
  Hf85     1.0000 0.62526  0.75102  0.87500  Biso   1.000  Hf
  Hf86     1.0000 0.87501  0.75101  0.62527  Biso   1.000  Hf
  Hf87     1.0000 0.87447  0.49954  0.87447  Biso   1.000  Hf
  Hf88     1.0000 0.49922  0.64769  0.49922  Biso   1.000  Hf
  Hf89     1.0000 0.50031  0.60250  0.74947  Biso   1.000  Hf
  Hf90     1.0000 0.50136  0.85180  0.74841  Biso   1.000  Hf
  Hf91     1.0000 0.49926  0.89826  0.49923  Biso   1.000  Hf
  Hf92     1.0000 0.75056  0.64769  0.75056  Biso   1.000  Hf
  Hf93     1.0000 0.74947  0.60251  0.50030  Biso   1.000  Hf
  Hf94     1.0000 0.74843  0.85180  0.50136  Biso   1.000  Hf
  Hf95     1.0000 0.75053  0.89827  0.75054  Biso   1.000  Hf
