data_image0
_cell_length_a       10.0367
_cell_length_b       10.4919
_cell_length_c       5.10672
_cell_angle_alpha    90.6503
_cell_angle_beta     88.4044
_cell_angle_gamma    89.3978

_symmetry_space_group_name_H-M    "P 1"
_symmetry_int_tables_number       1

loop_
  _symmetry_equiv_pos_as_xyz
  'x, y, z'

loop_
  _atom_site_label
  _atom_site_occupancy
  _atom_site_fract_x
  _atom_site_fract_y
  _atom_site_fract_z
  _atom_site_thermal_displace_type
  _atom_site_B_iso_or_equiv
  _atom_site_type_symbol
  Hf1      1.0000 0.13621  0.01051  0.29515  Biso   1.000  Hf
  Hf2      1.0000 0.12487  0.21034  0.86717  Biso   1.000  Hf
  Hf3      1.0000 0.37316  0.27093  0.24225  Biso   1.000  Hf
  Hf4      1.0000 0.36940  0.48634  0.73776  Biso   1.000  Hf
  Hf5      1.0000 0.05932  0.05646  0.65638  Biso   1.000  Hf
  Hf6      1.0000 0.98637  0.09696  0.07620  Biso   1.000  Hf
  Hf7      1.0000 0.47822  0.43008  0.39130  Biso   1.000  Hf
  Hf8      1.0000 0.46418  0.31775  0.87654  Biso   1.000  Hf
  Hf9      1.0000 0.28315  0.13600  0.52969  Biso   1.000  Hf
  Hf10     1.0000 0.27974  0.11403  0.03860  Biso   1.000  Hf
  Hf11     1.0000 0.23393  0.38433  0.97953  Biso   1.000  Hf
  Hf12     1.0000 0.24287  0.39302  0.46535  Biso   1.000  Hf
  Hf13     1.0000 0.14448  0.53843  0.22922  Biso   1.000  Hf
  Hf14     1.0000 0.13670  0.73800  0.74284  Biso   1.000  Hf
  Hf15     1.0000 0.37257  0.77068  0.24000  Biso   1.000  Hf
  Hf16     1.0000 0.36410  0.98542  0.75211  Biso   1.000  Hf
  Hf17     1.0000 0.04132  0.69029  0.38064  Biso   1.000  Hf
  Hf18     1.0000 0.03729  0.57359  0.87539  Biso   1.000  Hf
  Hf19     1.0000 0.46564  0.93579  0.37670  Biso   1.000  Hf
  Hf20     1.0000 0.46798  0.82049  0.88276  Biso   1.000  Hf
  Hf21     1.0000 0.27885  0.62724  0.48505  Biso   1.000  Hf
  Hf22     1.0000 0.27514  0.63769  0.98065  Biso   1.000  Hf
  Hf23     1.0000 0.22519  0.88036  0.00567  Biso   1.000  Hf
  Hf24     1.0000 0.23919  0.86815  0.50433  Biso   1.000  Hf
  Hf25     1.0000 0.63170  0.01108  0.22118  Biso   1.000  Hf
  Hf26     1.0000 0.62623  0.23436  0.70630  Biso   1.000  Hf
  Hf27     1.0000 0.83785  0.25413  0.17953  Biso   1.000  Hf
  Hf28     1.0000 0.86891  0.48890  0.73001  Biso   1.000  Hf
  Hf29     1.0000 0.54282  0.18553  0.35296  Biso   1.000  Hf
  Hf30     1.0000 0.53250  0.06709  0.86255  Biso   1.000  Hf
  Hf31     1.0000 0.97005  0.45576  0.37051  Biso   1.000  Hf
  Hf32     1.0000 0.96119  0.32680  0.87873  Biso   1.000  Hf
  Hf33     1.0000 0.77228  0.11076  0.45054  Biso   1.000  Hf
  Hf34     1.0000 0.75336  0.13156  0.93906  Biso   1.000  Hf
  Hf35     1.0000 0.72255  0.38212  0.96766  Biso   1.000  Hf
  Hf36     1.0000 0.73750  0.36656  0.47140  Biso   1.000  Hf
  Hf37     1.0000 0.63729  0.51941  0.23442  Biso   1.000  Hf
  Hf38     1.0000 0.63613  0.73438  0.73704  Biso   1.000  Hf
  Hf39     1.0000 0.86610  0.76463  0.23090  Biso   1.000  Hf
  Hf40     1.0000 0.87375  0.98070  0.71963  Biso   1.000  Hf
  Hf41     1.0000 0.53860  0.68485  0.37974  Biso   1.000  Hf
  Hf42     1.0000 0.53529  0.56949  0.88438  Biso   1.000  Hf
  Hf43     1.0000 0.96268  0.91355  0.37087  Biso   1.000  Hf
  Hf44     1.0000 0.96577  0.82061  0.87471  Biso   1.000  Hf
  Hf45     1.0000 0.77086  0.61739  0.47920  Biso   1.000  Hf
  Hf46     1.0000 0.77103  0.63091  0.97548  Biso   1.000  Hf
  Hf47     1.0000 0.73157  0.87909  0.98458  Biso   1.000  Hf
  Hf48     1.0000 0.72940  0.86632  0.48666  Biso   1.000  Hf
  In1      1.0000 0.07659  0.28327  0.39521  Biso   1.000  In
