data_image0
_cell_length_a       10.0135
_cell_length_b       10.2155
_cell_length_c       10.0135
_cell_angle_alpha    89.9989
_cell_angle_beta     90.7009
_cell_angle_gamma    90.0004

_symmetry_space_group_name_H-M    "P 1"
_symmetry_int_tables_number       1

loop_
  _symmetry_equiv_pos_as_xyz
  'x, y, z'

loop_
  _atom_site_label
  _atom_site_occupancy
  _atom_site_fract_x
  _atom_site_fract_y
  _atom_site_fract_z
  _atom_site_thermal_displace_type
  _atom_site_B_iso_or_equiv
  _atom_site_type_symbol
  Ir1      1.0000 0.12490  0.03081  0.12491  Biso   1.000  Ir
  Hf1      1.0000 0.12342  0.25086  0.37983  Biso   1.000  Hf
  Hf2      1.0000 0.37983  0.25085  0.12342  Biso   1.000  Hf
  Hf3      1.0000 0.36779  0.99644  0.36780  Biso   1.000  Hf
  Hf4      1.0000 0.00679  0.14957  0.00679  Biso   1.000  Hf
  Hf5      1.0000 0.99496  0.09280  0.25485  Biso   1.000  Hf
  Hf6      1.0000 0.00445  0.34597  0.24537  Biso   1.000  Hf
  Hf7      1.0000 0.99670  0.39727  0.99667  Biso   1.000  Hf
  Hf8      1.0000 0.24302  0.14957  0.24302  Biso   1.000  Hf
  Hf9      1.0000 0.25484  0.09280  0.99497  Biso   1.000  Hf
  Hf10     1.0000 0.24540  0.34598  0.00442  Biso   1.000  Hf
  Hf11     1.0000 0.25315  0.39727  0.25312  Biso   1.000  Hf
  Hf12     1.0000 0.12491  0.00684  0.62490  Biso   1.000  Hf
  Hf13     1.0000 0.12640  0.25085  0.86999  Biso   1.000  Hf
  Hf14     1.0000 0.37827  0.24952  0.62374  Biso   1.000  Hf
  Hf15     1.0000 0.37991  0.99351  0.86990  Biso   1.000  Hf
  Hf16     1.0000 0.99557  0.14940  0.50129  Biso   1.000  Hf
  Hf17     1.0000 0.00491  0.10310  0.75537  Biso   1.000  Hf
  Hf18     1.0000 0.99972  0.35311  0.74632  Biso   1.000  Hf
  Hf19     1.0000 0.00257  0.39841  0.49537  Biso   1.000  Hf
  Hf20     1.0000 0.25426  0.14939  0.74852  Biso   1.000  Hf
  Hf21     1.0000 0.24492  0.10312  0.49445  Biso   1.000  Hf
  Hf22     1.0000 0.25011  0.35312  0.50348  Biso   1.000  Hf
  Hf23     1.0000 0.24727  0.39840  0.75441  Biso   1.000  Hf
  Hf24     1.0000 0.12491  0.49197  0.12490  Biso   1.000  Hf
  Hf25     1.0000 0.12182  0.74683  0.37122  Biso   1.000  Hf
  Hf26     1.0000 0.37124  0.74683  0.12179  Biso   1.000  Hf
  Hf27     1.0000 0.37610  0.50219  0.37610  Biso   1.000  Hf
  Hf28     1.0000 0.99994  0.64848  0.99992  Biso   1.000  Hf
  Hf29     1.0000 0.00117  0.59584  0.24865  Biso   1.000  Hf
  Hf30     1.0000 0.97283  0.83978  0.27699  Biso   1.000  Hf
  Hf31     1.0000 0.01734  0.90348  0.01739  Biso   1.000  Hf
  Hf32     1.0000 0.24990  0.64848  0.24988  Biso   1.000  Hf
  Hf33     1.0000 0.24866  0.59584  0.00115  Biso   1.000  Hf
  Hf34     1.0000 0.27696  0.83980  0.97286  Biso   1.000  Hf
  Hf35     1.0000 0.23243  0.90348  0.23247  Biso   1.000  Hf
  Hf36     1.0000 0.12491  0.50074  0.62490  Biso   1.000  Hf
  Hf37     1.0000 0.12802  0.74683  0.87857  Biso   1.000  Hf
  Hf38     1.0000 0.37200  0.75203  0.62124  Biso   1.000  Hf
  Hf39     1.0000 0.37656  0.50230  0.87326  Biso   1.000  Hf
  Hf40     1.0000 0.99995  0.64842  0.50127  Biso   1.000  Hf
  Hf41     1.0000 0.99959  0.60217  0.74937  Biso   1.000  Hf
  Hf42     1.0000 0.99715  0.85213  0.76565  Biso   1.000  Hf
  Hf43     1.0000 0.99517  0.89944  0.51632  Biso   1.000  Hf
  Hf44     1.0000 0.24986  0.64841  0.74853  Biso   1.000  Hf
  Hf45     1.0000 0.25022  0.60218  0.50043  Biso   1.000  Hf
  Hf46     1.0000 0.25262  0.85214  0.48421  Biso   1.000  Hf
  Hf47     1.0000 0.25460  0.89942  0.73354  Biso   1.000  Hf
  Hf48     1.0000 0.62491  0.00685  0.12491  Biso   1.000  Hf
  Hf49     1.0000 0.62374  0.24952  0.37827  Biso   1.000  Hf
  Hf50     1.0000 0.86999  0.25085  0.12640  Biso   1.000  Hf
  Hf51     1.0000 0.86989  0.99351  0.37992  Biso   1.000  Hf
  Hf52     1.0000 0.50130  0.14939  0.99556  Biso   1.000  Hf
  Hf53     1.0000 0.49445  0.10311  0.24492  Biso   1.000  Hf
  Hf54     1.0000 0.50350  0.35311  0.25010  Biso   1.000  Hf
  Hf55     1.0000 0.49540  0.39840  0.00255  Biso   1.000  Hf
  Hf56     1.0000 0.74852  0.14940  0.25426  Biso   1.000  Hf
  Hf57     1.0000 0.75536  0.10311  0.00491  Biso   1.000  Hf
  Hf58     1.0000 0.74634  0.35311  0.99971  Biso   1.000  Hf
  Hf59     1.0000 0.75444  0.39841  0.24725  Biso   1.000  Hf
  Hf60     1.0000 0.62490  0.99616  0.62491  Biso   1.000  Hf
  Hf61     1.0000 0.62608  0.24952  0.87155  Biso   1.000  Hf
  Hf62     1.0000 0.87155  0.24952  0.62608  Biso   1.000  Hf
  Hf63     1.0000 0.88201  0.99644  0.88202  Biso   1.000  Hf
  Hf64     1.0000 0.49381  0.14765  0.49381  Biso   1.000  Hf
  Hf65     1.0000 0.50417  0.10321  0.74566  Biso   1.000  Hf
  Hf66     1.0000 0.49853  0.35403  0.75129  Biso   1.000  Hf
  Hf67     1.0000 0.50106  0.39777  0.50105  Biso   1.000  Hf
  Hf68     1.0000 0.75602  0.14765  0.75602  Biso   1.000  Hf
  Hf69     1.0000 0.74565  0.10322  0.50417  Biso   1.000  Hf
  Hf70     1.0000 0.75131  0.35404  0.49851  Biso   1.000  Hf
  Hf71     1.0000 0.74877  0.39777  0.74876  Biso   1.000  Hf
  Hf72     1.0000 0.62492  0.50074  0.12491  Biso   1.000  Hf
  Hf73     1.0000 0.62125  0.75203  0.37199  Biso   1.000  Hf
  Hf74     1.0000 0.87860  0.74683  0.12800  Biso   1.000  Hf
  Hf75     1.0000 0.87326  0.50232  0.37656  Biso   1.000  Hf
  Hf76     1.0000 0.50128  0.64841  0.99995  Biso   1.000  Hf
  Hf77     1.0000 0.50045  0.60217  0.25022  Biso   1.000  Hf
  Hf78     1.0000 0.48417  0.85213  0.25266  Biso   1.000  Hf
  Hf79     1.0000 0.51628  0.89942  0.99521  Biso   1.000  Hf
  Hf80     1.0000 0.74855  0.64842  0.24986  Biso   1.000  Hf
  Hf81     1.0000 0.74939  0.60218  0.99959  Biso   1.000  Hf
  Hf82     1.0000 0.76562  0.85214  0.99719  Biso   1.000  Hf
  Hf83     1.0000 0.73350  0.89944  0.25464  Biso   1.000  Hf
  Hf84     1.0000 0.62491  0.50460  0.62491  Biso   1.000  Hf
  Hf85     1.0000 0.62858  0.75204  0.87782  Biso   1.000  Hf
  Hf86     1.0000 0.87782  0.75203  0.62857  Biso   1.000  Hf
  Hf87     1.0000 0.87372  0.50219  0.87372  Biso   1.000  Hf
  Hf88     1.0000 0.49974  0.64876  0.49975  Biso   1.000  Hf
  Hf89     1.0000 0.50000  0.60328  0.74981  Biso   1.000  Hf
  Hf90     1.0000 0.50165  0.85076  0.74817  Biso   1.000  Hf
  Hf91     1.0000 0.49810  0.89929  0.49813  Biso   1.000  Hf
  Hf92     1.0000 0.75006  0.64876  0.75007  Biso   1.000  Hf
  Hf93     1.0000 0.74981  0.60328  0.50000  Biso   1.000  Hf
  Hf94     1.0000 0.74814  0.85076  0.50167  Biso   1.000  Hf
  Hf95     1.0000 0.75168  0.89929  0.75171  Biso   1.000  Hf
