data_image0
_cell_length_a       10.1085
_cell_length_b       10.4016
_cell_length_c       5.06678
_cell_angle_alpha    89.9997
_cell_angle_beta     90.0003
_cell_angle_gamma    89.9999

_symmetry_space_group_name_H-M    "P 1"
_symmetry_int_tables_number       1

loop_
  _symmetry_equiv_pos_as_xyz
  'x, y, z'

loop_
  _atom_site_label
  _atom_site_occupancy
  _atom_site_fract_x
  _atom_site_fract_y
  _atom_site_fract_z
  _atom_site_thermal_displace_type
  _atom_site_B_iso_or_equiv
  _atom_site_type_symbol
  Hf1      1.0000 0.12492  0.96931  0.24985  Biso   1.000  Hf
  Hf2      1.0000 0.12491  0.25006  0.74977  Biso   1.000  Hf
  Hf3      1.0000 0.39491  0.25006  0.24982  Biso   1.000  Hf
  Hf4      1.0000 0.37366  0.01152  0.75025  Biso   1.000  Hf
  Hf5      1.0000 0.97394  0.15861  0.96025  Biso   1.000  Hf
  Hf6      1.0000 0.00945  0.08875  0.48566  Biso   1.000  Hf
  Hf7      1.0000 0.97396  0.34155  0.53926  Biso   1.000  Hf
  Hf8      1.0000 0.00950  0.41139  0.01387  Biso   1.000  Hf
  Hf9      1.0000 0.27586  0.15857  0.53927  Biso   1.000  Hf
  Hf10     1.0000 0.24033  0.08872  0.01389  Biso   1.000  Hf
  Hf11     1.0000 0.27589  0.34150  0.96026  Biso   1.000  Hf
  Hf12     1.0000 0.24035  0.41136  0.48567  Biso   1.000  Hf
  Hf13     1.0000 0.12490  0.53080  0.24985  Biso   1.000  Hf
  Hf14     1.0000 0.12491  0.75005  0.74984  Biso   1.000  Hf
  Hf15     1.0000 0.38434  0.75003  0.24982  Biso   1.000  Hf
  Hf16     1.0000 0.37365  0.48858  0.74936  Biso   1.000  Hf
  Hf17     1.0000 0.00526  0.65977  0.02366  Biso   1.000  Hf
  Hf18     1.0000 0.99902  0.60028  0.52519  Biso   1.000  Hf
  Hf19     1.0000 0.00524  0.84037  0.47608  Biso   1.000  Hf
  Hf20     1.0000 0.99900  0.89986  0.97454  Biso   1.000  Hf
  Hf21     1.0000 0.24458  0.65974  0.47610  Biso   1.000  Hf
  Hf22     1.0000 0.25082  0.60025  0.97456  Biso   1.000  Hf
  Hf23     1.0000 0.24456  0.84034  0.02367  Biso   1.000  Hf
  Hf24     1.0000 0.25079  0.89983  0.52520  Biso   1.000  Hf
  Hf25     1.0000 0.62490  0.99097  0.24980  Biso   1.000  Hf
  Hf26     1.0000 0.62491  0.25006  0.74983  Biso   1.000  Hf
  Hf27     1.0000 0.85491  0.25004  0.24982  Biso   1.000  Hf
  Hf28     1.0000 0.87616  0.01153  0.74936  Biso   1.000  Hf
  Hf29     1.0000 0.49507  0.14682  0.97887  Biso   1.000  Hf
  Hf30     1.0000 0.50890  0.10142  0.48752  Biso   1.000  Hf
  Hf31     1.0000 0.49507  0.35328  0.52078  Biso   1.000  Hf
  Hf32     1.0000 0.50891  0.39869  0.01211  Biso   1.000  Hf
  Hf33     1.0000 0.75474  0.14683  0.52078  Biso   1.000  Hf
  Hf34     1.0000 0.74091  0.10141  0.01212  Biso   1.000  Hf
  Hf35     1.0000 0.75475  0.35328  0.97887  Biso   1.000  Hf
  Hf36     1.0000 0.74091  0.39869  0.48753  Biso   1.000  Hf
  Hf37     1.0000 0.62492  0.50914  0.24980  Biso   1.000  Hf
  Hf38     1.0000 0.62491  0.75005  0.74981  Biso   1.000  Hf
  Hf39     1.0000 0.86548  0.75007  0.24982  Biso   1.000  Hf
  Hf40     1.0000 0.87615  0.48858  0.75025  Biso   1.000  Hf
  Hf41     1.0000 0.50430  0.64871  0.99875  Biso   1.000  Hf
  Hf42     1.0000 0.49474  0.60186  0.49482  Biso   1.000  Hf
  Hf43     1.0000 0.50429  0.85139  0.50088  Biso   1.000  Hf
  Hf44     1.0000 0.49471  0.89823  0.00481  Biso   1.000  Hf
  Hf45     1.0000 0.74553  0.64871  0.50088  Biso   1.000  Hf
  Hf46     1.0000 0.75510  0.60188  0.00481  Biso   1.000  Hf
  Hf47     1.0000 0.74551  0.85140  0.99876  Biso   1.000  Hf
  Hf48     1.0000 0.75508  0.89824  0.49481  Biso   1.000  Hf
  K1       1.0000 0.12491  0.25005  0.24976  Biso   1.000  K 
