data_image0
_cell_length_a       9.96105
_cell_length_b       10.3915
_cell_length_c       10.0138
_cell_angle_alpha    89.8472
_cell_angle_beta     90.1314
_cell_angle_gamma    89.9896

_symmetry_space_group_name_H-M    "P 1"
_symmetry_int_tables_number       1

loop_
  _symmetry_equiv_pos_as_xyz
  'x, y, z'

loop_
  _atom_site_label
  _atom_site_occupancy
  _atom_site_fract_x
  _atom_site_fract_y
  _atom_site_fract_z
  _atom_site_thermal_displace_type
  _atom_site_B_iso_or_equiv
  _atom_site_type_symbol
  Hf1      1.0000 0.13309  0.01727  0.12296  Biso   1.000  Hf
  Hf2      1.0000 0.13416  0.23177  0.38023  Biso   1.000  Hf
  Hf3      1.0000 0.36774  0.26537  0.12477  Biso   1.000  Hf
  Hf4      1.0000 0.36599  0.48279  0.37431  Biso   1.000  Hf
  Hf5      1.0000 0.02517  0.18035  0.20196  Biso   1.000  Hf
  Hf6      1.0000 0.03668  0.06469  0.44565  Biso   1.000  Hf
  Hf7      1.0000 0.46023  0.43539  0.19297  Biso   1.000  Hf
  Hf8      1.0000 0.46453  0.31623  0.44501  Biso   1.000  Hf
  Hf9      1.0000 0.26770  0.11869  0.24926  Biso   1.000  Hf
  Hf10     1.0000 0.27200  0.13160  0.49950  Biso   1.000  Hf
  Hf11     1.0000 0.23039  0.38176  0.49886  Biso   1.000  Hf
  Hf12     1.0000 0.22234  0.36749  0.24615  Biso   1.000  Hf
  Hf13     1.0000 0.13433  0.01417  0.62552  Biso   1.000  Hf
  Hf14     1.0000 0.13669  0.22959  0.86902  Biso   1.000  Hf
  Hf15     1.0000 0.36824  0.26636  0.62523  Biso   1.000  Hf
  Hf16     1.0000 0.36553  0.48163  0.87683  Biso   1.000  Hf
  Hf17     1.0000 0.03692  0.18171  0.69121  Biso   1.000  Hf
  Hf18     1.0000 0.03856  0.06374  0.94167  Biso   1.000  Hf
  Hf19     1.0000 0.46635  0.43285  0.69621  Biso   1.000  Hf
  Hf20     1.0000 0.46487  0.31483  0.94446  Biso   1.000  Hf
  Hf21     1.0000 0.27263  0.11557  0.74684  Biso   1.000  Hf
  Hf22     1.0000 0.27700  0.12975  0.99594  Biso   1.000  Hf
  Hf23     1.0000 0.22543  0.38224  0.00128  Biso   1.000  Hf
  Hf24     1.0000 0.23243  0.36697  0.74857  Biso   1.000  Hf
  Hf25     1.0000 0.13668  0.53262  0.12611  Biso   1.000  Hf
  Hf26     1.0000 0.13529  0.73573  0.37893  Biso   1.000  Hf
  Hf27     1.0000 0.36689  0.76897  0.12606  Biso   1.000  Hf
  Hf28     1.0000 0.36535  0.98413  0.37505  Biso   1.000  Hf
  Hf29     1.0000 0.03378  0.68685  0.19957  Biso   1.000  Hf
  Hf30     1.0000 0.03690  0.56604  0.44460  Biso   1.000  Hf
  Hf31     1.0000 0.46262  0.93569  0.19369  Biso   1.000  Hf
  Hf32     1.0000 0.46409  0.81586  0.44338  Biso   1.000  Hf
  Hf33     1.0000 0.27349  0.62308  0.25205  Biso   1.000  Hf
  Hf34     1.0000 0.27116  0.63171  0.50067  Biso   1.000  Hf
  Hf35     1.0000 0.23095  0.88223  0.49984  Biso   1.000  Hf
  Hf36     1.0000 0.22849  0.86905  0.24985  Biso   1.000  Hf
  Hf37     1.0000 0.13523  0.51570  0.62607  Biso   1.000  Hf
  Hf38     1.0000 0.13444  0.73489  0.87381  Biso   1.000  Hf
  Hf39     1.0000 0.36857  0.76527  0.62541  Biso   1.000  Hf
  Hf40     1.0000 0.36709  0.98193  0.87516  Biso   1.000  Hf
  Hf41     1.0000 0.03763  0.68303  0.69292  Biso   1.000  Hf
  Hf42     1.0000 0.03685  0.56902  0.94580  Biso   1.000  Hf
  Hf43     1.0000 0.46594  0.93250  0.69375  Biso   1.000  Hf
  Hf44     1.0000 0.46606  0.81554  0.94500  Biso   1.000  Hf
  Hf45     1.0000 0.27178  0.61635  0.75010  Biso   1.000  Hf
  Hf46     1.0000 0.27313  0.63390  0.99892  Biso   1.000  Hf
  Hf47     1.0000 0.22979  0.88120  0.99949  Biso   1.000  Hf
  Hf48     1.0000 0.23171  0.86633  0.74866  Biso   1.000  Hf
  Hf49     1.0000 0.63274  0.01524  0.12417  Biso   1.000  Hf
  Hf50     1.0000 0.63304  0.23204  0.37788  Biso   1.000  Hf
  Hf51     1.0000 0.85153  0.26353  0.12832  Biso   1.000  Hf
  Hf52     1.0000 0.86826  0.48303  0.37374  Biso   1.000  Hf
  Hf53     1.0000 0.53572  0.18359  0.19557  Biso   1.000  Hf
  Hf54     1.0000 0.53581  0.06529  0.44506  Biso   1.000  Hf
  Hf55     1.0000 0.96552  0.43197  0.19054  Biso   1.000  Hf
  Hf56     1.0000 0.96569  0.31712  0.44728  Biso   1.000  Hf
  Hf57     1.0000 0.76607  0.11570  0.25113  Biso   1.000  Hf
  Hf58     1.0000 0.77174  0.13183  0.49954  Biso   1.000  Hf
  Hf59     1.0000 0.73126  0.38212  0.50016  Biso   1.000  Hf
  Hf60     1.0000 0.72541  0.36930  0.25155  Biso   1.000  Hf
  Hf61     1.0000 0.63550  0.01473  0.62550  Biso   1.000  Hf
  Hf62     1.0000 0.63356  0.23163  0.87366  Biso   1.000  Hf
  Hf63     1.0000 0.86626  0.26618  0.62586  Biso   1.000  Hf
  Hf64     1.0000 0.86876  0.48007  0.87954  Biso   1.000  Hf
  Hf65     1.0000 0.53810  0.18305  0.69254  Biso   1.000  Hf
  Hf66     1.0000 0.53809  0.06452  0.94268  Biso   1.000  Hf
  Hf67     1.0000 0.96807  0.43079  0.70076  Biso   1.000  Hf
  Hf68     1.0000 0.97009  0.31242  0.95521  Biso   1.000  Hf
  Hf69     1.0000 0.77213  0.11615  0.74919  Biso   1.000  Hf
  Hf70     1.0000 0.77169  0.12993  0.99880  Biso   1.000  Hf
  Hf71     1.0000 0.72756  0.38010  0.00073  Biso   1.000  Hf
  Hf72     1.0000 0.73217  0.36647  0.75094  Biso   1.000  Hf
  Hf73     1.0000 0.63271  0.51768  0.12564  Biso   1.000  Hf
  Hf74     1.0000 0.63421  0.73251  0.37639  Biso   1.000  Hf
  Hf75     1.0000 0.86354  0.76692  0.12588  Biso   1.000  Hf
  Hf76     1.0000 0.86686  0.98293  0.37489  Biso   1.000  Hf
  Hf77     1.0000 0.53667  0.68452  0.19444  Biso   1.000  Hf
  Hf78     1.0000 0.53536  0.56496  0.44458  Biso   1.000  Hf
  Hf79     1.0000 0.96264  0.93434  0.19338  Biso   1.000  Hf
  Hf80     1.0000 0.96468  0.81654  0.44608  Biso   1.000  Hf
  Hf81     1.0000 0.77060  0.61767  0.25013  Biso   1.000  Hf
  Hf82     1.0000 0.77124  0.63135  0.49988  Biso   1.000  Hf
  Hf83     1.0000 0.73040  0.88169  0.49952  Biso   1.000  Hf
  Hf84     1.0000 0.72845  0.86714  0.25002  Biso   1.000  Hf
  Hf85     1.0000 0.63606  0.51513  0.62651  Biso   1.000  Hf
  Hf86     1.0000 0.63520  0.73166  0.87574  Biso   1.000  Hf
  Hf87     1.0000 0.86630  0.76496  0.62616  Biso   1.000  Hf
  Hf88     1.0000 0.86696  0.98175  0.87578  Biso   1.000  Hf
  Hf89     1.0000 0.53866  0.68306  0.69355  Biso   1.000  Hf
  Hf90     1.0000 0.53614  0.56509  0.94406  Biso   1.000  Hf
  Hf91     1.0000 0.96557  0.93156  0.69573  Biso   1.000  Hf
  Hf92     1.0000 0.96461  0.81482  0.94559  Biso   1.000  Hf
  Hf93     1.0000 0.77324  0.61501  0.75113  Biso   1.000  Hf
  Hf94     1.0000 0.77140  0.63005  0.00023  Biso   1.000  Hf
  Hf95     1.0000 0.72953  0.88020  0.99990  Biso   1.000  Hf
  Hf96     1.0000 0.73076  0.86594  0.74985  Biso   1.000  Hf
  Li1      1.0000 0.09712  0.30756  0.11280  Biso   1.000  Li
