data_image0
_cell_length_a       10.0142
_cell_length_b       10.5149
_cell_length_c       5.03205
_cell_angle_alpha    89.2162
_cell_angle_beta     89.2314
_cell_angle_gamma    89.861

_symmetry_space_group_name_H-M    "P 1"
_symmetry_int_tables_number       1

loop_
  _symmetry_equiv_pos_as_xyz
  'x, y, z'

loop_
  _atom_site_label
  _atom_site_occupancy
  _atom_site_fract_x
  _atom_site_fract_y
  _atom_site_fract_z
  _atom_site_thermal_displace_type
  _atom_site_B_iso_or_equiv
  _atom_site_type_symbol
  Hf1      1.0000 0.13437  0.01095  0.24641  Biso   1.000  Hf
  Hf2      1.0000 0.12452  0.22072  0.72623  Biso   1.000  Hf
  Hf3      1.0000 0.37348  0.27179  0.26436  Biso   1.000  Hf
  Hf4      1.0000 0.36831  0.48714  0.75299  Biso   1.000  Hf
  Hf5      1.0000 0.01524  0.16444  0.39868  Biso   1.000  Hf
  Hf6      1.0000 0.02924  0.05770  0.89502  Biso   1.000  Hf
  Hf7      1.0000 0.47439  0.43100  0.41040  Biso   1.000  Hf
  Hf8      1.0000 0.46947  0.31840  0.90492  Biso   1.000  Hf
  Hf9      1.0000 0.26607  0.10419  0.51680  Biso   1.000  Hf
  Hf10     1.0000 0.24056  0.16438  0.04204  Biso   1.000  Hf
  Hf11     1.0000 0.24698  0.40433  0.03218  Biso   1.000  Hf
  Hf12     1.0000 0.23685  0.36469  0.52719  Biso   1.000  Hf
  Hf13     1.0000 0.13483  0.53096  0.24448  Biso   1.000  Hf
  Hf14     1.0000 0.13269  0.73838  0.74122  Biso   1.000  Hf
  Hf15     1.0000 0.37144  0.76300  0.24189  Biso   1.000  Hf
  Hf16     1.0000 0.37818  0.97686  0.72963  Biso   1.000  Hf
  Hf17     1.0000 0.02880  0.68387  0.40302  Biso   1.000  Hf
  Hf18     1.0000 0.03650  0.56904  0.88758  Biso   1.000  Hf
  Hf19     1.0000 0.46995  0.92602  0.38488  Biso   1.000  Hf
  Hf20     1.0000 0.47147  0.81420  0.88479  Biso   1.000  Hf
  Hf21     1.0000 0.27418  0.61802  0.49372  Biso   1.000  Hf
  Hf22     1.0000 0.26791  0.64715  0.98830  Biso   1.000  Hf
  Hf23     1.0000 0.23834  0.89443  0.98464  Biso   1.000  Hf
  Hf24     1.0000 0.23315  0.86105  0.48177  Biso   1.000  Hf
  Hf25     1.0000 0.63629  0.01425  0.24727  Biso   1.000  Hf
  Hf26     1.0000 0.63094  0.23369  0.74766  Biso   1.000  Hf
  Hf27     1.0000 0.85669  0.26251  0.23927  Biso   1.000  Hf
  Hf28     1.0000 0.87152  0.48091  0.74522  Biso   1.000  Hf
  Hf29     1.0000 0.53171  0.17425  0.40891  Biso   1.000  Hf
  Hf30     1.0000 0.52557  0.06948  0.90761  Biso   1.000  Hf
  Hf31     1.0000 0.97744  0.41866  0.38541  Biso   1.000  Hf
  Hf32     1.0000 0.96575  0.31831  0.89102  Biso   1.000  Hf
  Hf33     1.0000 0.76483  0.11132  0.49529  Biso   1.000  Hf
  Hf34     1.0000 0.76435  0.13217  0.99066  Biso   1.000  Hf
  Hf35     1.0000 0.72970  0.38370  0.99309  Biso   1.000  Hf
  Hf36     1.0000 0.73281  0.36466  0.49668  Biso   1.000  Hf
  Hf37     1.0000 0.63736  0.51511  0.24985  Biso   1.000  Hf
  Hf38     1.0000 0.63742  0.72852  0.74728  Biso   1.000  Hf
  Hf39     1.0000 0.86470  0.76466  0.24661  Biso   1.000  Hf
  Hf40     1.0000 0.86628  0.98065  0.74240  Biso   1.000  Hf
  Hf41     1.0000 0.53757  0.68035  0.39346  Biso   1.000  Hf
  Hf42     1.0000 0.53423  0.56804  0.90293  Biso   1.000  Hf
  Hf43     1.0000 0.96660  0.92570  0.39490  Biso   1.000  Hf
  Hf44     1.0000 0.96695  0.81607  0.89756  Biso   1.000  Hf
  Hf45     1.0000 0.77162  0.61200  0.49386  Biso   1.000  Hf
  Hf46     1.0000 0.77275  0.63171  0.99384  Biso   1.000  Hf
  Hf47     1.0000 0.73053  0.88259  0.99420  Biso   1.000  Hf
  Hf48     1.0000 0.73048  0.86288  0.49460  Biso   1.000  Hf
  Mn1      1.0000 0.11427  0.29627  0.21077  Biso   1.000  Mn
