data_image0
_cell_length_a       10.007
_cell_length_b       10.2399
_cell_length_c       5.05239
_cell_angle_alpha    92.33
_cell_angle_beta     91.6384
_cell_angle_gamma    88.7202

_symmetry_space_group_name_H-M    "P 1"
_symmetry_int_tables_number       1

loop_
  _symmetry_equiv_pos_as_xyz
  'x, y, z'

loop_
  _atom_site_label
  _atom_site_occupancy
  _atom_site_fract_x
  _atom_site_fract_y
  _atom_site_fract_z
  _atom_site_thermal_displace_type
  _atom_site_B_iso_or_equiv
  _atom_site_type_symbol
  N1       1.0000 0.13856  0.99407  0.22527  Biso   1.000  N 
  Hf1      1.0000 0.09924  0.26316  0.73598  Biso   1.000  Hf
  Hf2      1.0000 0.34662  0.23168  0.32477  Biso   1.000  Hf
  Hf3      1.0000 0.37093  0.97765  0.73616  Biso   1.000  Hf
  Hf4      1.0000 0.96970  0.16784  0.96241  Biso   1.000  Hf
  Hf5      1.0000 0.98550  0.12224  0.48095  Biso   1.000  Hf
  Hf6      1.0000 0.98973  0.36573  0.44840  Biso   1.000  Hf
  Hf7      1.0000 0.00759  0.43039  0.93982  Biso   1.000  Hf
  Hf8      1.0000 0.25485  0.14117  0.62069  Biso   1.000  Hf
  Hf9      1.0000 0.22569  0.05543  0.11443  Biso   1.000  Hf
  Hf10     1.0000 0.21499  0.31320  0.07309  Biso   1.000  Hf
  Hf11     1.0000 0.23846  0.39193  0.54586  Biso   1.000  Hf
  Hf12     1.0000 0.12858  0.49619  0.24316  Biso   1.000  Hf
  Hf13     1.0000 0.13185  0.74664  0.73820  Biso   1.000  Hf
  Hf14     1.0000 0.37219  0.72845  0.24840  Biso   1.000  Hf
  Hf15     1.0000 0.39335  0.50208  0.71737  Biso   1.000  Hf
  Hf16     1.0000 0.03891  0.68454  0.06076  Biso   1.000  Hf
  Hf17     1.0000 0.00451  0.61011  0.51788  Biso   1.000  Hf
  Hf18     1.0000 0.98410  0.86070  0.58959  Biso   1.000  Hf
  Hf19     1.0000 0.05828  0.93004  0.09054  Biso   1.000  Hf
  Hf20     1.0000 0.25605  0.63367  0.50372  Biso   1.000  Hf
  Hf21     1.0000 0.27128  0.57341  0.01398  Biso   1.000  Hf
  Hf22     1.0000 0.29124  0.82667  0.94095  Biso   1.000  Hf
  Hf23     1.0000 0.24444  0.87695  0.46708  Biso   1.000  Hf
  Hf24     1.0000 0.61533  0.00613  0.26504  Biso   1.000  Hf
  Hf25     1.0000 0.59427  0.24137  0.79588  Biso   1.000  Hf
  Hf26     1.0000 0.85418  0.24463  0.25758  Biso   1.000  Hf
  Hf27     1.0000 0.87028  0.02445  0.73560  Biso   1.000  Hf
  Hf28     1.0000 0.46593  0.14313  0.03206  Biso   1.000  Hf
  Hf29     1.0000 0.49457  0.09512  0.52856  Biso   1.000  Hf
  Hf30     1.0000 0.48471  0.33980  0.51882  Biso   1.000  Hf
  Hf31     1.0000 0.50003  0.39855  0.00051  Biso   1.000  Hf
  Hf32     1.0000 0.73739  0.15040  0.52189  Biso   1.000  Hf
  Hf33     1.0000 0.72680  0.11113  0.01593  Biso   1.000  Hf
  Hf34     1.0000 0.75057  0.36203  0.94898  Biso   1.000  Hf
  Hf35     1.0000 0.74049  0.39951  0.44346  Biso   1.000  Hf
  Hf36     1.0000 0.63975  0.51455  0.18548  Biso   1.000  Hf
  Hf37     1.0000 0.64857  0.76732  0.75541  Biso   1.000  Hf
  Hf38     1.0000 0.88789  0.76013  0.28012  Biso   1.000  Hf
  Hf39     1.0000 0.86383  0.49843  0.69549  Biso   1.000  Hf
  Hf40     1.0000 0.51507  0.65273  0.95623  Biso   1.000  Hf
  Hf41     1.0000 0.50195  0.59074  0.44538  Biso   1.000  Hf
  Hf42     1.0000 0.49772  0.84777  0.47907  Biso   1.000  Hf
  Hf43     1.0000 0.53458  0.90579  0.95938  Biso   1.000  Hf
  Hf44     1.0000 0.75319  0.65088  0.47039  Biso   1.000  Hf
  Hf45     1.0000 0.76934  0.62052  0.97245  Biso   1.000  Hf
  Hf46     1.0000 0.79527  0.86622  0.98560  Biso   1.000  Hf
  Hf47     1.0000 0.74375  0.90094  0.49201  Biso   1.000  Hf
