data_image0
_cell_length_a       9.9602
_cell_length_b       10.3796
_cell_length_c       10.0368
_cell_angle_alpha    89.802
_cell_angle_beta     89.5159
_cell_angle_gamma    90.3234

_symmetry_space_group_name_H-M    "P 1"
_symmetry_int_tables_number       1

loop_
  _symmetry_equiv_pos_as_xyz
  'x, y, z'

loop_
  _atom_site_label
  _atom_site_occupancy
  _atom_site_fract_x
  _atom_site_fract_y
  _atom_site_fract_z
  _atom_site_thermal_displace_type
  _atom_site_B_iso_or_equiv
  _atom_site_type_symbol
  Hf1      1.0000 0.14477  0.00413  0.11770  Biso   1.000  Hf
  Hf2      1.0000 0.14382  0.23596  0.39781  Biso   1.000  Hf
  Hf3      1.0000 0.36176  0.26489  0.12871  Biso   1.000  Hf
  Hf4      1.0000 0.36864  0.48468  0.37604  Biso   1.000  Hf
  Hf5      1.0000 0.00547  0.20479  0.24578  Biso   1.000  Hf
  Hf6      1.0000 0.03882  0.06682  0.45347  Biso   1.000  Hf
  Hf7      1.0000 0.46061  0.43452  0.19286  Biso   1.000  Hf
  Hf8      1.0000 0.46492  0.31662  0.44551  Biso   1.000  Hf
  Hf9      1.0000 0.25736  0.11721  0.25443  Biso   1.000  Hf
  Hf10     1.0000 0.27992  0.13016  0.50677  Biso   1.000  Hf
  Hf11     1.0000 0.23622  0.38489  0.50726  Biso   1.000  Hf
  Hf12     1.0000 0.22528  0.36545  0.25619  Biso   1.000  Hf
  Hf13     1.0000 0.13712  0.01657  0.63189  Biso   1.000  Hf
  Hf14     1.0000 0.13254  0.23129  0.88090  Biso   1.000  Hf
  Hf15     1.0000 0.36931  0.26851  0.63235  Biso   1.000  Hf
  Hf16     1.0000 0.36564  0.48265  0.87852  Biso   1.000  Hf
  Hf17     1.0000 0.04224  0.18825  0.69112  Biso   1.000  Hf
  Hf18     1.0000 0.04863  0.05230  0.92316  Biso   1.000  Hf
  Hf19     1.0000 0.46601  0.43497  0.69782  Biso   1.000  Hf
  Hf20     1.0000 0.46199  0.31451  0.94445  Biso   1.000  Hf
  Hf21     1.0000 0.27402  0.12039  0.75356  Biso   1.000  Hf
  Hf22     1.0000 0.27964  0.12614  0.00092  Biso   1.000  Hf
  Hf23     1.0000 0.22721  0.37981  0.00424  Biso   1.000  Hf
  Hf24     1.0000 0.22866  0.36839  0.75479  Biso   1.000  Hf
  Hf25     1.0000 0.13372  0.51700  0.12774  Biso   1.000  Hf
  Hf26     1.0000 0.13550  0.73424  0.37651  Biso   1.000  Hf
  Hf27     1.0000 0.36955  0.76293  0.12518  Biso   1.000  Hf
  Hf28     1.0000 0.36766  0.98401  0.37531  Biso   1.000  Hf
  Hf29     1.0000 0.03862  0.68729  0.19308  Biso   1.000  Hf
  Hf30     1.0000 0.03822  0.56726  0.44297  Biso   1.000  Hf
  Hf31     1.0000 0.46280  0.93481  0.19230  Biso   1.000  Hf
  Hf32     1.0000 0.46579  0.81707  0.44299  Biso   1.000  Hf
  Hf33     1.0000 0.27135  0.61646  0.25030  Biso   1.000  Hf
  Hf34     1.0000 0.27208  0.63355  0.49969  Biso   1.000  Hf
  Hf35     1.0000 0.23048  0.88357  0.49953  Biso   1.000  Hf
  Hf36     1.0000 0.23416  0.86432  0.24879  Biso   1.000  Hf
  Hf37     1.0000 0.13485  0.51802  0.62724  Biso   1.000  Hf
  Hf38     1.0000 0.13515  0.73148  0.87491  Biso   1.000  Hf
  Hf39     1.0000 0.36849  0.76653  0.62447  Biso   1.000  Hf
  Hf40     1.0000 0.37061  0.98284  0.87327  Biso   1.000  Hf
  Hf41     1.0000 0.03819  0.68645  0.69303  Biso   1.000  Hf
  Hf42     1.0000 0.03788  0.56462  0.94355  Biso   1.000  Hf
  Hf43     1.0000 0.46681  0.93473  0.69227  Biso   1.000  Hf
  Hf44     1.0000 0.46779  0.81589  0.94474  Biso   1.000  Hf
  Hf45     1.0000 0.27204  0.61722  0.75015  Biso   1.000  Hf
  Hf46     1.0000 0.27113  0.63021  0.00026  Biso   1.000  Hf
  Hf47     1.0000 0.23518  0.87542  0.99600  Biso   1.000  Hf
  Hf48     1.0000 0.23266  0.86699  0.74901  Biso   1.000  Hf
  Hf49     1.0000 0.63418  0.01620  0.12392  Biso   1.000  Hf
  Hf50     1.0000 0.63428  0.23386  0.37521  Biso   1.000  Hf
  Hf51     1.0000 0.85402  0.27340  0.11359  Biso   1.000  Hf
  Hf52     1.0000 0.86787  0.48346  0.37406  Biso   1.000  Hf
  Hf53     1.0000 0.53150  0.18312  0.19502  Biso   1.000  Hf
  Hf54     1.0000 0.53874  0.06508  0.44327  Biso   1.000  Hf
  Hf55     1.0000 0.95889  0.43847  0.18624  Biso   1.000  Hf
  Hf56     1.0000 0.97152  0.32386  0.45351  Biso   1.000  Hf
  Hf57     1.0000 0.76584  0.11828  0.24575  Biso   1.000  Hf
  Hf58     1.0000 0.77364  0.13598  0.49705  Biso   1.000  Hf
  Hf59     1.0000 0.73186  0.38302  0.49894  Biso   1.000  Hf
  Hf60     1.0000 0.72440  0.37244  0.25065  Biso   1.000  Hf
  Hf61     1.0000 0.63780  0.01739  0.62360  Biso   1.000  Hf
  Hf62     1.0000 0.63254  0.23415  0.87261  Biso   1.000  Hf
  Hf63     1.0000 0.86934  0.26944  0.62737  Biso   1.000  Hf
  Hf64     1.0000 0.86612  0.48738  0.87282  Biso   1.000  Hf
  Hf65     1.0000 0.53960  0.18461  0.69271  Biso   1.000  Hf
  Hf66     1.0000 0.53976  0.06469  0.94096  Biso   1.000  Hf
  Hf67     1.0000 0.96206  0.44036  0.69181  Biso   1.000  Hf
  Hf68     1.0000 0.95450  0.31640  0.92505  Biso   1.000  Hf
  Hf69     1.0000 0.77318  0.11826  0.74707  Biso   1.000  Hf
  Hf70     1.0000 0.76990  0.13224  0.99457  Biso   1.000  Hf
  Hf71     1.0000 0.72439  0.38537  0.99733  Biso   1.000  Hf
  Hf72     1.0000 0.72869  0.36994  0.74812  Biso   1.000  Hf
  Hf73     1.0000 0.63332  0.51909  0.12744  Biso   1.000  Hf
  Hf74     1.0000 0.63772  0.73557  0.37618  Biso   1.000  Hf
  Hf75     1.0000 0.86768  0.76816  0.12556  Biso   1.000  Hf
  Hf76     1.0000 0.87027  0.98928  0.37402  Biso   1.000  Hf
  Hf77     1.0000 0.53796  0.68509  0.19679  Biso   1.000  Hf
  Hf78     1.0000 0.53770  0.56686  0.44421  Biso   1.000  Hf
  Hf79     1.0000 0.96764  0.94068  0.19254  Biso   1.000  Hf
  Hf80     1.0000 0.96461  0.81815  0.43995  Biso   1.000  Hf
  Hf81     1.0000 0.77209  0.62031  0.24968  Biso   1.000  Hf
  Hf82     1.0000 0.77260  0.63313  0.49815  Biso   1.000  Hf
  Hf83     1.0000 0.73291  0.88475  0.49801  Biso   1.000  Hf
  Hf84     1.0000 0.73180  0.86970  0.24866  Biso   1.000  Hf
  Hf85     1.0000 0.63599  0.51705  0.62480  Biso   1.000  Hf
  Hf86     1.0000 0.63603  0.73375  0.87515  Biso   1.000  Hf
  Hf87     1.0000 0.86828  0.76763  0.62278  Biso   1.000  Hf
  Hf88     1.0000 0.86755  0.98310  0.87215  Biso   1.000  Hf
  Hf89     1.0000 0.53776  0.68481  0.69338  Biso   1.000  Hf
  Hf90     1.0000 0.53546  0.56736  0.94621  Biso   1.000  Hf
  Hf91     1.0000 0.96389  0.93346  0.69089  Biso   1.000  Hf
  Hf92     1.0000 0.96557  0.81471  0.94421  Biso   1.000  Hf
  Hf93     1.0000 0.77096  0.61969  0.74780  Biso   1.000  Hf
  Hf94     1.0000 0.77090  0.63396  0.00017  Biso   1.000  Hf
  Hf95     1.0000 0.73180  0.88250  0.99915  Biso   1.000  Hf
  Hf96     1.0000 0.73136  0.86820  0.74818  Biso   1.000  Hf
  N1       1.0000 0.03883  0.18099  0.12069  Biso   1.000  N 
