data_image0
_cell_length_a       9.98592
_cell_length_b       10.404
_cell_length_c       10.04
_cell_angle_alpha    89.8695
_cell_angle_beta     89.9798
_cell_angle_gamma    89.7709

_symmetry_space_group_name_H-M    "P 1"
_symmetry_int_tables_number       1

loop_
  _symmetry_equiv_pos_as_xyz
  'x, y, z'

loop_
  _atom_site_label
  _atom_site_occupancy
  _atom_site_fract_x
  _atom_site_fract_y
  _atom_site_fract_z
  _atom_site_thermal_displace_type
  _atom_site_B_iso_or_equiv
  _atom_site_type_symbol
  Hf1      1.0000 0.12987  0.01116  0.12540  Biso   1.000  Hf
  Hf2      1.0000 0.13432  0.22905  0.38246  Biso   1.000  Hf
  Hf3      1.0000 0.37758  0.26852  0.12032  Biso   1.000  Hf
  Hf4      1.0000 0.36599  0.48167  0.37574  Biso   1.000  Hf
  Hf5      1.0000 0.01127  0.16674  0.21685  Biso   1.000  Hf
  Hf6      1.0000 0.03761  0.06115  0.44913  Biso   1.000  Hf
  Hf7      1.0000 0.46537  0.43473  0.19553  Biso   1.000  Hf
  Hf8      1.0000 0.46438  0.31598  0.44532  Biso   1.000  Hf
  Hf9      1.0000 0.26298  0.11670  0.24657  Biso   1.000  Hf
  Hf10     1.0000 0.27322  0.12987  0.49927  Biso   1.000  Hf
  Hf11     1.0000 0.22859  0.38025  0.49948  Biso   1.000  Hf
  Hf12     1.0000 0.23075  0.36497  0.24935  Biso   1.000  Hf
  Hf13     1.0000 0.13553  0.01033  0.62440  Biso   1.000  Hf
  Hf14     1.0000 0.12973  0.23068  0.85290  Biso   1.000  Hf
  Hf15     1.0000 0.36950  0.26676  0.62426  Biso   1.000  Hf
  Hf16     1.0000 0.36926  0.48759  0.87317  Biso   1.000  Hf
  Hf17     1.0000 0.03655  0.17960  0.68455  Biso   1.000  Hf
  Hf18     1.0000 0.03259  0.06664  0.94598  Biso   1.000  Hf
  Hf19     1.0000 0.46760  0.43355  0.69420  Biso   1.000  Hf
  Hf20     1.0000 0.46829  0.31844  0.94256  Biso   1.000  Hf
  Hf21     1.0000 0.27329  0.11610  0.74517  Biso   1.000  Hf
  Hf22     1.0000 0.26026  0.14392  0.99813  Biso   1.000  Hf
  Hf23     1.0000 0.23857  0.39848  0.99870  Biso   1.000  Hf
  Hf24     1.0000 0.23456  0.36868  0.74822  Biso   1.000  Hf
  Hf25     1.0000 0.13713  0.53128  0.12589  Biso   1.000  Hf
  Hf26     1.0000 0.13548  0.73358  0.37864  Biso   1.000  Hf
  Hf27     1.0000 0.36823  0.76886  0.12521  Biso   1.000  Hf
  Hf28     1.0000 0.36549  0.98431  0.37466  Biso   1.000  Hf
  Hf29     1.0000 0.03376  0.68490  0.19970  Biso   1.000  Hf
  Hf30     1.0000 0.03712  0.56500  0.44453  Biso   1.000  Hf
  Hf31     1.0000 0.46202  0.93528  0.19592  Biso   1.000  Hf
  Hf32     1.0000 0.46592  0.81712  0.44551  Biso   1.000  Hf
  Hf33     1.0000 0.27380  0.62039  0.25054  Biso   1.000  Hf
  Hf34     1.0000 0.27211  0.63083  0.50049  Biso   1.000  Hf
  Hf35     1.0000 0.23172  0.88006  0.49867  Biso   1.000  Hf
  Hf36     1.0000 0.22821  0.86629  0.24915  Biso   1.000  Hf
  Hf37     1.0000 0.13602  0.51580  0.62575  Biso   1.000  Hf
  Hf38     1.0000 0.13233  0.73641  0.87254  Biso   1.000  Hf
  Hf39     1.0000 0.36910  0.76620  0.62533  Biso   1.000  Hf
  Hf40     1.0000 0.36540  0.98589  0.87569  Biso   1.000  Hf
  Hf41     1.0000 0.03678  0.68216  0.69337  Biso   1.000  Hf
  Hf42     1.0000 0.03496  0.56984  0.94707  Biso   1.000  Hf
  Hf43     1.0000 0.46700  0.93283  0.69760  Biso   1.000  Hf
  Hf44     1.0000 0.46675  0.81929  0.94629  Biso   1.000  Hf
  Hf45     1.0000 0.27108  0.61791  0.74916  Biso   1.000  Hf
  Hf46     1.0000 0.26851  0.64208  0.99887  Biso   1.000  Hf
  Hf47     1.0000 0.23075  0.88708  0.99891  Biso   1.000  Hf
  Hf48     1.0000 0.23276  0.86619  0.74939  Biso   1.000  Hf
  Hf49     1.0000 0.63095  0.01312  0.12522  Biso   1.000  Hf
  Hf50     1.0000 0.63309  0.23099  0.37956  Biso   1.000  Hf
  Hf51     1.0000 0.84914  0.26194  0.12964  Biso   1.000  Hf
  Hf52     1.0000 0.86963  0.48152  0.37373  Biso   1.000  Hf
  Hf53     1.0000 0.53500  0.18259  0.19918  Biso   1.000  Hf
  Hf54     1.0000 0.53456  0.06534  0.44671  Biso   1.000  Hf
  Hf55     1.0000 0.96803  0.42795  0.19033  Biso   1.000  Hf
  Hf56     1.0000 0.96523  0.31655  0.44759  Biso   1.000  Hf
  Hf57     1.0000 0.76087  0.11338  0.25080  Biso   1.000  Hf
  Hf58     1.0000 0.77236  0.13131  0.49903  Biso   1.000  Hf
  Hf59     1.0000 0.73023  0.38181  0.49978  Biso   1.000  Hf
  Hf60     1.0000 0.72654  0.36702  0.25210  Biso   1.000  Hf
  Hf61     1.0000 0.63566  0.01485  0.62548  Biso   1.000  Hf
  Hf62     1.0000 0.63550  0.23180  0.87201  Biso   1.000  Hf
  Hf63     1.0000 0.86336  0.26776  0.62442  Biso   1.000  Hf
  Hf64     1.0000 0.86842  0.48164  0.87827  Biso   1.000  Hf
  Hf65     1.0000 0.53902  0.18322  0.69432  Biso   1.000  Hf
  Hf66     1.0000 0.52991  0.07045  0.94966  Biso   1.000  Hf
  Hf67     1.0000 0.97055  0.42901  0.70131  Biso   1.000  Hf
  Hf68     1.0000 0.96543  0.31151  0.94597  Biso   1.000  Hf
  Hf69     1.0000 0.77511  0.11770  0.74802  Biso   1.000  Hf
  Hf70     1.0000 0.76776  0.13030  0.99995  Biso   1.000  Hf
  Hf71     1.0000 0.72919  0.38193  0.00103  Biso   1.000  Hf
  Hf72     1.0000 0.73145  0.36959  0.75118  Biso   1.000  Hf
  Hf73     1.0000 0.63374  0.51851  0.12632  Biso   1.000  Hf
  Hf74     1.0000 0.63492  0.73253  0.37691  Biso   1.000  Hf
  Hf75     1.0000 0.86312  0.76496  0.12595  Biso   1.000  Hf
  Hf76     1.0000 0.86895  0.98419  0.37349  Biso   1.000  Hf
  Hf77     1.0000 0.53716  0.68538  0.19557  Biso   1.000  Hf
  Hf78     1.0000 0.53575  0.56573  0.44487  Biso   1.000  Hf
  Hf79     1.0000 0.96234  0.92837  0.19483  Biso   1.000  Hf
  Hf80     1.0000 0.96603  0.81632  0.44660  Biso   1.000  Hf
  Hf81     1.0000 0.77143  0.61569  0.24950  Biso   1.000  Hf
  Hf82     1.0000 0.77245  0.63109  0.49946  Biso   1.000  Hf
  Hf83     1.0000 0.73195  0.88235  0.49868  Biso   1.000  Hf
  Hf84     1.0000 0.72849  0.86546  0.24960  Biso   1.000  Hf
  Hf85     1.0000 0.63670  0.51659  0.62568  Biso   1.000  Hf
  Hf86     1.0000 0.63496  0.73368  0.87537  Biso   1.000  Hf
  Hf87     1.0000 0.86645  0.76595  0.62521  Biso   1.000  Hf
  Hf88     1.0000 0.86573  0.98235  0.87621  Biso   1.000  Hf
  Hf89     1.0000 0.53750  0.68286  0.69607  Biso   1.000  Hf
  Hf90     1.0000 0.53497  0.56945  0.94832  Biso   1.000  Hf
  Hf91     1.0000 0.96822  0.92972  0.69959  Biso   1.000  Hf
  Hf92     1.0000 0.96486  0.81616  0.94801  Biso   1.000  Hf
  Hf93     1.0000 0.77342  0.61658  0.75033  Biso   1.000  Hf
  Hf94     1.0000 0.77007  0.63161  0.99946  Biso   1.000  Hf
  Hf95     1.0000 0.72887  0.88145  0.99965  Biso   1.000  Hf
  Hf96     1.0000 0.73088  0.86671  0.74952  Biso   1.000  Hf
  Na1      1.0000 0.11052  0.28409  0.10046  Biso   1.000  Na
