data_image0
_cell_length_a       10.0047
_cell_length_b       10.1759
_cell_length_c       5.00105
_cell_angle_alpha    90.0022
_cell_angle_beta     90.0006
_cell_angle_gamma    89.996

_symmetry_space_group_name_H-M    "P 1"
_symmetry_int_tables_number       1

loop_
  _symmetry_equiv_pos_as_xyz
  'x, y, z'

loop_
  _atom_site_label
  _atom_site_occupancy
  _atom_site_fract_x
  _atom_site_fract_y
  _atom_site_fract_z
  _atom_site_thermal_displace_type
  _atom_site_B_iso_or_equiv
  _atom_site_type_symbol
  Nb1      1.0000 0.12501  0.00017  0.24998  Biso   1.000  Nb
  Hf1      1.0000 0.12500  0.25095  0.75002  Biso   1.000  Hf
  Hf2      1.0000 0.37417  0.24916  0.25241  Biso   1.000  Hf
  Hf3      1.0000 0.37504  0.00017  0.74999  Biso   1.000  Hf
  Hf4      1.0000 0.99725  0.14620  0.98496  Biso   1.000  Hf
  Hf5      1.0000 0.99975  0.10119  0.48427  Biso   1.000  Hf
  Hf6      1.0000 0.99984  0.35207  0.50205  Biso   1.000  Hf
  Hf7      1.0000 0.99963  0.39749  0.00259  Biso   1.000  Hf
  Hf8      1.0000 0.25276  0.14620  0.51503  Biso   1.000  Hf
  Hf9      1.0000 0.25026  0.10119  0.01572  Biso   1.000  Hf
  Hf10     1.0000 0.25018  0.35207  0.99792  Biso   1.000  Hf
  Hf11     1.0000 0.25039  0.39749  0.49739  Biso   1.000  Hf
  Hf12     1.0000 0.12500  0.50017  0.25000  Biso   1.000  Hf
  Hf13     1.0000 0.12499  0.74938  0.75003  Biso   1.000  Hf
  Hf14     1.0000 0.37417  0.75118  0.24763  Biso   1.000  Hf
  Hf15     1.0000 0.37613  0.50017  0.75000  Biso   1.000  Hf
  Hf16     1.0000 0.99983  0.64826  0.99795  Biso   1.000  Hf
  Hf17     1.0000 0.99961  0.60284  0.49741  Biso   1.000  Hf
  Hf18     1.0000 0.99726  0.85413  0.51501  Biso   1.000  Hf
  Hf19     1.0000 0.99975  0.89913  0.01571  Biso   1.000  Hf
  Hf20     1.0000 0.25016  0.64827  0.50205  Biso   1.000  Hf
  Hf21     1.0000 0.25037  0.60285  0.00259  Biso   1.000  Hf
  Hf22     1.0000 0.25276  0.85414  0.98495  Biso   1.000  Hf
  Hf23     1.0000 0.25027  0.89915  0.48426  Biso   1.000  Hf
  Hf24     1.0000 0.62501  0.00017  0.24999  Biso   1.000  Hf
  Hf25     1.0000 0.62500  0.24994  0.75002  Biso   1.000  Hf
  Hf26     1.0000 0.87582  0.24916  0.24763  Biso   1.000  Hf
  Hf27     1.0000 0.87497  0.00017  0.74999  Biso   1.000  Hf
  Hf28     1.0000 0.49672  0.14734  0.99242  Biso   1.000  Hf
  Hf29     1.0000 0.50116  0.10334  0.49475  Biso   1.000  Hf
  Hf30     1.0000 0.49944  0.35312  0.50404  Biso   1.000  Hf
  Hf31     1.0000 0.49945  0.39708  0.00410  Biso   1.000  Hf
  Hf32     1.0000 0.75329  0.14734  0.50758  Biso   1.000  Hf
  Hf33     1.0000 0.74885  0.10334  0.00525  Biso   1.000  Hf
  Hf34     1.0000 0.75058  0.35312  0.99591  Biso   1.000  Hf
  Hf35     1.0000 0.75057  0.39708  0.49586  Biso   1.000  Hf
  Hf36     1.0000 0.62500  0.50016  0.25000  Biso   1.000  Hf
  Hf37     1.0000 0.62500  0.75038  0.75003  Biso   1.000  Hf
  Hf38     1.0000 0.87581  0.75118  0.25241  Biso   1.000  Hf
  Hf39     1.0000 0.87387  0.50016  0.75000  Biso   1.000  Hf
  Hf40     1.0000 0.49943  0.64721  0.99593  Biso   1.000  Hf
  Hf41     1.0000 0.49943  0.60325  0.49587  Biso   1.000  Hf
  Hf42     1.0000 0.49672  0.85299  0.50759  Biso   1.000  Hf
  Hf43     1.0000 0.50116  0.89699  0.00527  Biso   1.000  Hf
  Hf44     1.0000 0.75056  0.64720  0.50406  Biso   1.000  Hf
  Hf45     1.0000 0.75055  0.60325  0.00412  Biso   1.000  Hf
  Hf46     1.0000 0.75329  0.85300  0.99241  Biso   1.000  Hf
  Hf47     1.0000 0.74885  0.89699  0.49474  Biso   1.000  Hf
