data_image0
_cell_length_a       5.00266
_cell_length_b       10.4123
_cell_length_c       10.0373
_cell_angle_alpha    89.8033
_cell_angle_beta     89.4893
_cell_angle_gamma    90.0015

_symmetry_space_group_name_H-M    "P 1"
_symmetry_int_tables_number       1

loop_
  _symmetry_equiv_pos_as_xyz
  'x, y, z'

loop_
  _atom_site_label
  _atom_site_occupancy
  _atom_site_fract_x
  _atom_site_fract_y
  _atom_site_fract_z
  _atom_site_thermal_displace_type
  _atom_site_B_iso_or_equiv
  _atom_site_type_symbol
  Hf1      1.0000 0.26825  0.01706  0.12283  Biso   1.000  Hf
  Hf2      1.0000 0.27328  0.23127  0.38402  Biso   1.000  Hf
  Hf3      1.0000 0.71305  0.26036  0.12059  Biso   1.000  Hf
  Hf4      1.0000 0.73998  0.48272  0.37681  Biso   1.000  Hf
  Hf5      1.0000 0.03432  0.16952  0.21507  Biso   1.000  Hf
  Hf6      1.0000 0.07572  0.06437  0.45017  Biso   1.000  Hf
  Hf7      1.0000 0.93293  0.43122  0.19106  Biso   1.000  Hf
  Hf8      1.0000 0.93665  0.31847  0.44932  Biso   1.000  Hf
  Hf9      1.0000 0.52694  0.11535  0.25147  Biso   1.000  Hf
  Hf10     1.0000 0.54892  0.13304  0.50102  Biso   1.000  Hf
  Hf11     1.0000 0.46640  0.38240  0.50272  Biso   1.000  Hf
  Hf12     1.0000 0.47011  0.37067  0.25655  Biso   1.000  Hf
  Hf13     1.0000 0.27240  0.01509  0.62666  Biso   1.000  Hf
  Hf14     1.0000 0.26611  0.22774  0.87374  Biso   1.000  Hf
  Hf15     1.0000 0.73473  0.26769  0.62949  Biso   1.000  Hf
  Hf16     1.0000 0.73272  0.48305  0.87432  Biso   1.000  Hf
  Hf17     1.0000 0.07367  0.18232  0.69290  Biso   1.000  Hf
  Hf18     1.0000 0.08056  0.05976  0.94048  Biso   1.000  Hf
  Hf19     1.0000 0.92620  0.43711  0.69298  Biso   1.000  Hf
  Hf20     1.0000 0.90469  0.31241  0.92833  Biso   1.000  Hf
  Hf21     1.0000 0.54189  0.11607  0.74890  Biso   1.000  Hf
  Hf22     1.0000 0.56214  0.12184  0.99463  Biso   1.000  Hf
  Hf23     1.0000 0.44433  0.38026  0.00297  Biso   1.000  Hf
  Hf24     1.0000 0.45536  0.36841  0.75116  Biso   1.000  Hf
  Hf25     1.0000 0.27015  0.53010  0.12722  Biso   1.000  Hf
  Hf26     1.0000 0.27504  0.73556  0.37772  Biso   1.000  Hf
  Hf27     1.0000 0.73186  0.76817  0.12573  Biso   1.000  Hf
  Hf28     1.0000 0.73955  0.98508  0.37420  Biso   1.000  Hf
  Hf29     1.0000 0.07304  0.68739  0.19733  Biso   1.000  Hf
  Hf30     1.0000 0.08002  0.56653  0.44268  Biso   1.000  Hf
  Hf31     1.0000 0.92860  0.93190  0.19294  Biso   1.000  Hf
  Hf32     1.0000 0.93302  0.81692  0.44371  Biso   1.000  Hf
  Hf33     1.0000 0.54985  0.62104  0.25064  Biso   1.000  Hf
  Hf34     1.0000 0.54612  0.63227  0.49954  Biso   1.000  Hf
  Hf35     1.0000 0.46692  0.88339  0.49901  Biso   1.000  Hf
  Hf36     1.0000 0.46030  0.86879  0.24925  Biso   1.000  Hf
  Hf37     1.0000 0.27103  0.51602  0.62559  Biso   1.000  Hf
  Hf38     1.0000 0.26962  0.73319  0.87406  Biso   1.000  Hf
  Hf39     1.0000 0.73758  0.76547  0.62425  Biso   1.000  Hf
  Hf40     1.0000 0.73601  0.97920  0.87368  Biso   1.000  Hf
  Hf41     1.0000 0.07542  0.68401  0.69344  Biso   1.000  Hf
  Hf42     1.0000 0.07096  0.56645  0.94550  Biso   1.000  Hf
  Hf43     1.0000 0.93381  0.93133  0.69373  Biso   1.000  Hf
  Hf44     1.0000 0.92926  0.81373  0.94423  Biso   1.000  Hf
  Hf45     1.0000 0.54117  0.61701  0.74889  Biso   1.000  Hf
  Hf46     1.0000 0.54141  0.63255  0.99877  Biso   1.000  Hf
  Hf47     1.0000 0.45829  0.87880  0.99944  Biso   1.000  Hf
  Hf48     1.0000 0.46473  0.86583  0.74870  Biso   1.000  Hf
  Ni1      1.0000 0.20546  0.29222  0.11832  Biso   1.000  Ni
