data_image0
_cell_length_a       5.0616
_cell_length_b       10.4564
_cell_length_c       10.112
_cell_angle_alpha    84.7938
_cell_angle_beta     89.455
_cell_angle_gamma    90.0602

_symmetry_space_group_name_H-M    "P 1"
_symmetry_int_tables_number       1

loop_
  _symmetry_equiv_pos_as_xyz
  'x, y, z'

loop_
  _atom_site_label
  _atom_site_occupancy
  _atom_site_fract_x
  _atom_site_fract_y
  _atom_site_fract_z
  _atom_site_thermal_displace_type
  _atom_site_B_iso_or_equiv
  _atom_site_type_symbol
  Hf1      1.0000 0.29287  0.98225  0.13570  Biso   1.000  Hf
  Hf2      1.0000 0.29150  0.23100  0.34321  Biso   1.000  Hf
  Hf3      1.0000 0.80942  0.26429  0.11256  Biso   1.000  Hf
  Hf4      1.0000 0.79439  0.01537  0.37082  Biso   1.000  Hf
  Hf5      1.0000 0.93998  0.16211  0.95979  Biso   1.000  Hf
  Hf6      1.0000 0.04510  0.11323  0.22520  Biso   1.000  Hf
  Hf7      1.0000 0.00624  0.36439  0.26404  Biso   1.000  Hf
  Hf8      1.0000 0.91355  0.44658  0.02922  Biso   1.000  Hf
  Hf9      1.0000 0.54518  0.13570  0.21784  Biso   1.000  Hf
  Hf10     1.0000 0.43281  0.06312  0.96143  Biso   1.000  Hf
  Hf11     1.0000 0.54094  0.30832  0.95991  Biso   1.000  Hf
  Hf12     1.0000 0.50348  0.38677  0.22491  Biso   1.000  Hf
  Hf13     1.0000 0.28952  0.98068  0.63095  Biso   1.000  Hf
  Hf14     1.0000 0.27155  0.21595  0.84244  Biso   1.000  Hf
  Hf15     1.0000 0.78663  0.25984  0.61484  Biso   1.000  Hf
  Hf16     1.0000 0.78243  0.00573  0.87356  Biso   1.000  Hf
  Hf17     1.0000 0.96270  0.17130  0.46288  Biso   1.000  Hf
  Hf18     1.0000 0.02963  0.10515  0.72481  Biso   1.000  Hf
  Hf19     1.0000 0.98975  0.35732  0.75959  Biso   1.000  Hf
  Hf20     1.0000 0.96258  0.42468  0.51815  Biso   1.000  Hf
  Hf21     1.0000 0.53262  0.12651  0.71605  Biso   1.000  Hf
  Hf22     1.0000 0.44564  0.06755  0.46096  Biso   1.000  Hf
  Hf23     1.0000 0.51768  0.31684  0.47119  Biso   1.000  Hf
  Hf24     1.0000 0.48954  0.37999  0.71577  Biso   1.000  Hf
  Hf25     1.0000 0.20944  0.52630  0.15761  Biso   1.000  Hf
  Hf26     1.0000 0.28807  0.73487  0.39469  Biso   1.000  Hf
  Hf27     1.0000 0.78629  0.76900  0.16166  Biso   1.000  Hf
  Hf28     1.0000 0.70488  0.47753  0.36836  Biso   1.000  Hf
  Hf29     1.0000 0.02894  0.68115  0.04242  Biso   1.000  Hf
  Hf30     1.0000 0.98273  0.61705  0.29228  Biso   1.000  Hf
  Hf31     1.0000 0.03843  0.86493  0.28507  Biso   1.000  Hf
  Hf32     1.0000 0.95101  0.92593  0.04300  Biso   1.000  Hf
  Hf33     1.0000 0.49220  0.63782  0.24856  Biso   1.000  Hf
  Hf34     1.0000 0.45484  0.56786  0.98877  Biso   1.000  Hf
  Hf35     1.0000 0.47348  0.82379  0.03825  Biso   1.000  Hf
  Hf36     1.0000 0.53839  0.88622  0.27867  Biso   1.000  Hf
  Hf37     1.0000 0.20243  0.51308  0.64252  Biso   1.000  Hf
  Hf38     1.0000 0.28981  0.73315  0.89183  Biso   1.000  Hf
  Hf39     1.0000 0.78309  0.76455  0.65949  Biso   1.000  Hf
  Hf40     1.0000 0.69780  0.47890  0.85687  Biso   1.000  Hf
  Hf41     1.0000 0.01729  0.67477  0.53771  Biso   1.000  Hf
  Hf42     1.0000 0.98987  0.60963  0.78419  Biso   1.000  Hf
  Hf43     1.0000 0.02714  0.85825  0.78546  Biso   1.000  Hf
  Hf44     1.0000 0.94559  0.92456  0.53960  Biso   1.000  Hf
  Hf45     1.0000 0.49256  0.63288  0.74523  Biso   1.000  Hf
  Hf46     1.0000 0.46021  0.56918  0.48960  Biso   1.000  Hf
  Hf47     1.0000 0.46197  0.82288  0.54115  Biso   1.000  Hf
  Hf48     1.0000 0.52744  0.88114  0.77666  Biso   1.000  Hf
  Ni1      1.0000 0.23490  0.39761  0.97358  Biso   1.000  Ni
