data_image0
_cell_length_a       9.93398
_cell_length_b       5.1861
_cell_length_c       9.96037
_cell_angle_alpha    91.8792
_cell_angle_beta     89.2388
_cell_angle_gamma    90.2471

_symmetry_space_group_name_H-M    "P 1"
_symmetry_int_tables_number       1

loop_
  _symmetry_equiv_pos_as_xyz
  'x, y, z'

loop_
  _atom_site_label
  _atom_site_occupancy
  _atom_site_fract_x
  _atom_site_fract_y
  _atom_site_fract_z
  _atom_site_thermal_displace_type
  _atom_site_B_iso_or_equiv
  _atom_site_type_symbol
  Ni1      1.0000 0.12057  0.07357  0.10616  Biso   1.000  Ni
  Hf1      1.0000 0.13723  0.03799  0.63194  Biso   1.000  Hf
  Hf2      1.0000 0.63967  0.04539  0.12688  Biso   1.000  Hf
  Hf3      1.0000 0.62459  0.02609  0.61430  Biso   1.000  Hf
  Hf4      1.0000 0.13732  0.43592  0.37220  Biso   1.000  Hf
  Hf5      1.0000 0.13076  0.48402  0.88683  Biso   1.000  Hf
  Hf6      1.0000 0.63852  0.47205  0.37881  Biso   1.000  Hf
  Hf7      1.0000 0.63544  0.47028  0.86640  Biso   1.000  Hf
  Hf8      1.0000 0.38876  0.53155  0.11010  Biso   1.000  Hf
  Hf9      1.0000 0.36364  0.54182  0.63074  Biso   1.000  Hf
  Hf10     1.0000 0.87013  0.54370  0.11923  Biso   1.000  Hf
  Hf11     1.0000 0.87349  0.52758  0.61721  Biso   1.000  Hf
  Hf12     1.0000 0.36198  0.94039  0.37101  Biso   1.000  Hf
  Hf13     1.0000 0.35631  0.98367  0.88576  Biso   1.000  Hf
  Hf14     1.0000 0.87329  0.97253  0.37150  Biso   1.000  Hf
  Hf15     1.0000 0.86218  0.97164  0.86748  Biso   1.000  Hf
  Hf16     1.0000 0.04172  0.36926  0.18046  Biso   1.000  Hf
  Hf17     1.0000 0.03389  0.37011  0.70631  Biso   1.000  Hf
  Hf18     1.0000 0.54112  0.37680  0.20211  Biso   1.000  Hf
  Hf19     1.0000 0.53327  0.36943  0.69125  Biso   1.000  Hf
  Hf20     1.0000 0.02787  0.13984  0.46403  Biso   1.000  Hf
  Hf21     1.0000 0.03416  0.13282  0.94325  Biso   1.000  Hf
  Hf22     1.0000 0.53581  0.13403  0.43537  Biso   1.000  Hf
  Hf23     1.0000 0.52006  0.17309  0.96011  Biso   1.000  Hf
  Hf24     1.0000 0.46889  0.87713  0.18782  Biso   1.000  Hf
  Hf25     1.0000 0.45827  0.88233  0.70131  Biso   1.000  Hf
  Hf26     1.0000 0.97925  0.88001  0.18461  Biso   1.000  Hf
  Hf27     1.0000 0.96571  0.86608  0.69088  Biso   1.000  Hf
  Hf28     1.0000 0.47610  0.64833  0.46191  Biso   1.000  Hf
  Hf29     1.0000 0.45946  0.65322  0.92951  Biso   1.000  Hf
  Hf30     1.0000 0.96639  0.62708  0.43174  Biso   1.000  Hf
  Hf31     1.0000 0.95514  0.63830  0.93715  Biso   1.000  Hf
  Hf32     1.0000 0.21850  0.10690  0.26080  Biso   1.000  Hf
  Hf33     1.0000 0.27033  0.25283  0.76058  Biso   1.000  Hf
  Hf34     1.0000 0.77938  0.24381  0.24654  Biso   1.000  Hf
  Hf35     1.0000 0.76360  0.22469  0.74353  Biso   1.000  Hf
  Hf36     1.0000 0.27509  0.25471  0.50095  Biso   1.000  Hf
  Hf37     1.0000 0.25459  0.26966  0.01900  Biso   1.000  Hf
  Hf38     1.0000 0.76738  0.26665  0.49628  Biso   1.000  Hf
  Hf39     1.0000 0.76738  0.27385  0.99460  Biso   1.000  Hf
  Hf40     1.0000 0.22534  0.75392  0.50522  Biso   1.000  Hf
  Hf41     1.0000 0.22201  0.78915  0.01894  Biso   1.000  Hf
  Hf42     1.0000 0.73945  0.77105  0.49460  Biso   1.000  Hf
  Hf43     1.0000 0.72339  0.77468  0.99279  Biso   1.000  Hf
  Hf44     1.0000 0.27968  0.61405  0.26979  Biso   1.000  Hf
  Hf45     1.0000 0.22436  0.74731  0.76029  Biso   1.000  Hf
  Hf46     1.0000 0.73572  0.74365  0.24430  Biso   1.000  Hf
  Hf47     1.0000 0.73072  0.72665  0.74101  Biso   1.000  Hf
