data_image0
_cell_length_a       5.05617
_cell_length_b       9.98716
_cell_length_c       9.98714
_cell_angle_alpha    90
_cell_angle_beta     90.0003
_cell_angle_gamma    89.9999

_symmetry_space_group_name_H-M    "P 1"
_symmetry_int_tables_number       1

loop_
  _symmetry_equiv_pos_as_xyz
  'x, y, z'

loop_
  _atom_site_label
  _atom_site_occupancy
  _atom_site_fract_x
  _atom_site_fract_y
  _atom_site_fract_z
  _atom_site_thermal_displace_type
  _atom_site_B_iso_or_equiv
  _atom_site_type_symbol
  Os1      1.0000 0.24982  0.00003  0.12491  Biso   1.000  Os
  Hf1      1.0000 0.24606  0.24895  0.37382  Biso   1.000  Hf
  Hf2      1.0000 0.74983  0.24652  0.12491  Biso   1.000  Hf
  Hf3      1.0000 0.74982  0.00003  0.37140  Biso   1.000  Hf
  Hf4      1.0000 0.97957  0.12523  0.99972  Biso   1.000  Hf
  Hf5      1.0000 0.02982  0.11957  0.24444  Biso   1.000  Hf
  Hf6      1.0000 0.95669  0.36854  0.25545  Biso   1.000  Hf
  Hf7      1.0000 0.04042  0.37727  0.00285  Biso   1.000  Hf
  Hf8      1.0000 0.52008  0.12523  0.25010  Biso   1.000  Hf
  Hf9      1.0000 0.46982  0.11957  0.00537  Biso   1.000  Hf
  Hf10     1.0000 0.54296  0.36854  0.99437  Biso   1.000  Hf
  Hf11     1.0000 0.45923  0.37727  0.24696  Biso   1.000  Hf
  Hf12     1.0000 0.24982  0.00004  0.62491  Biso   1.000  Hf
  Hf13     1.0000 0.25360  0.24895  0.87599  Biso   1.000  Hf
  Hf14     1.0000 0.74983  0.25070  0.62491  Biso   1.000  Hf
  Hf15     1.0000 0.74983  0.00004  0.87842  Biso   1.000  Hf
  Hf16     1.0000 0.95669  0.13058  0.49341  Biso   1.000  Hf
  Hf17     1.0000 0.04042  0.12208  0.74767  Biso   1.000  Hf
  Hf18     1.0000 0.96078  0.37009  0.75485  Biso   1.000  Hf
  Hf19     1.0000 0.03855  0.37797  0.50284  Biso   1.000  Hf
  Hf20     1.0000 0.54296  0.13058  0.75641  Biso   1.000  Hf
  Hf21     1.0000 0.45923  0.12208  0.50214  Biso   1.000  Hf
  Hf22     1.0000 0.53887  0.37009  0.49497  Biso   1.000  Hf
  Hf23     1.0000 0.46110  0.37797  0.74698  Biso   1.000  Hf
  Hf24     1.0000 0.24982  0.50004  0.12491  Biso   1.000  Hf
  Hf25     1.0000 0.25360  0.75112  0.37382  Biso   1.000  Hf
  Hf26     1.0000 0.74983  0.75354  0.12491  Biso   1.000  Hf
  Hf27     1.0000 0.74982  0.50003  0.37558  Biso   1.000  Hf
  Hf28     1.0000 0.95670  0.63152  0.99437  Biso   1.000  Hf
  Hf29     1.0000 0.04042  0.62279  0.24697  Biso   1.000  Hf
  Hf30     1.0000 0.97956  0.87484  0.25010  Biso   1.000  Hf
  Hf31     1.0000 0.02982  0.88050  0.00538  Biso   1.000  Hf
  Hf32     1.0000 0.54295  0.63152  0.25544  Biso   1.000  Hf
  Hf33     1.0000 0.45923  0.62279  0.00285  Biso   1.000  Hf
  Hf34     1.0000 0.52009  0.87484  0.99971  Biso   1.000  Hf
  Hf35     1.0000 0.46983  0.88049  0.24444  Biso   1.000  Hf
  Hf36     1.0000 0.24982  0.50004  0.62491  Biso   1.000  Hf
  Hf37     1.0000 0.24605  0.75112  0.87599  Biso   1.000  Hf
  Hf38     1.0000 0.74983  0.74937  0.62491  Biso   1.000  Hf
  Hf39     1.0000 0.74982  0.50003  0.87424  Biso   1.000  Hf
  Hf40     1.0000 0.96078  0.62997  0.49497  Biso   1.000  Hf
  Hf41     1.0000 0.03855  0.62210  0.74698  Biso   1.000  Hf
  Hf42     1.0000 0.95669  0.86949  0.75641  Biso   1.000  Hf
  Hf43     1.0000 0.04043  0.87798  0.50215  Biso   1.000  Hf
  Hf44     1.0000 0.53887  0.62997  0.75484  Biso   1.000  Hf
  Hf45     1.0000 0.46110  0.62210  0.50284  Biso   1.000  Hf
  Hf46     1.0000 0.54296  0.86949  0.49341  Biso   1.000  Hf
  Hf47     1.0000 0.45922  0.87798  0.74766  Biso   1.000  Hf
