data_image0
_cell_length_a       9.95018
_cell_length_b       10.3759
_cell_length_c       10.0062
_cell_angle_alpha    90.1944
_cell_angle_beta     89.6026
_cell_angle_gamma    90.1675

_symmetry_space_group_name_H-M    "P 1"
_symmetry_int_tables_number       1

loop_
  _symmetry_equiv_pos_as_xyz
  'x, y, z'

loop_
  _atom_site_label
  _atom_site_occupancy
  _atom_site_fract_x
  _atom_site_fract_y
  _atom_site_fract_z
  _atom_site_thermal_displace_type
  _atom_site_B_iso_or_equiv
  _atom_site_type_symbol
  Pt1      1.0000 0.12658  0.04088  0.10206  Biso   1.000  Pt
  Hf1      1.0000 0.13512  0.23022  0.37672  Biso   1.000  Hf
  Hf2      1.0000 0.36857  0.26747  0.12654  Biso   1.000  Hf
  Hf3      1.0000 0.36680  0.48271  0.37667  Biso   1.000  Hf
  Hf4      1.0000 0.03547  0.18857  0.18958  Biso   1.000  Hf
  Hf5      1.0000 0.03691  0.06618  0.44907  Biso   1.000  Hf
  Hf6      1.0000 0.46514  0.43323  0.19407  Biso   1.000  Hf
  Hf7      1.0000 0.46437  0.31586  0.44526  Biso   1.000  Hf
  Hf8      1.0000 0.25914  0.10442  0.24882  Biso   1.000  Hf
  Hf9      1.0000 0.27276  0.13161  0.49899  Biso   1.000  Hf
  Hf10     1.0000 0.22885  0.38103  0.50003  Biso   1.000  Hf
  Hf11     1.0000 0.23166  0.36173  0.25007  Biso   1.000  Hf
  Hf12     1.0000 0.13465  0.01690  0.62906  Biso   1.000  Hf
  Hf13     1.0000 0.13189  0.23930  0.87209  Biso   1.000  Hf
  Hf14     1.0000 0.36651  0.26610  0.62571  Biso   1.000  Hf
  Hf15     1.0000 0.36586  0.48597  0.87604  Biso   1.000  Hf
  Hf16     1.0000 0.03634  0.18642  0.69361  Biso   1.000  Hf
  Hf17     1.0000 0.03570  0.06125  0.92695  Biso   1.000  Hf
  Hf18     1.0000 0.46377  0.43396  0.69557  Biso   1.000  Hf
  Hf19     1.0000 0.46144  0.31511  0.94385  Biso   1.000  Hf
  Hf20     1.0000 0.27173  0.11955  0.75113  Biso   1.000  Hf
  Hf21     1.0000 0.26689  0.13606  0.99922  Biso   1.000  Hf
  Hf22     1.0000 0.22956  0.38451  0.99924  Biso   1.000  Hf
  Hf23     1.0000 0.22922  0.36929  0.74920  Biso   1.000  Hf
  Hf24     1.0000 0.13315  0.51468  0.12605  Biso   1.000  Hf
  Hf25     1.0000 0.13609  0.73195  0.37700  Biso   1.000  Hf
  Hf26     1.0000 0.36689  0.76417  0.12823  Biso   1.000  Hf
  Hf27     1.0000 0.36372  0.97863  0.37511  Biso   1.000  Hf
  Hf28     1.0000 0.03819  0.68416  0.19428  Biso   1.000  Hf
  Hf29     1.0000 0.03591  0.56353  0.44633  Biso   1.000  Hf
  Hf30     1.0000 0.47008  0.93145  0.19690  Biso   1.000  Hf
  Hf31     1.0000 0.46888  0.81676  0.45225  Biso   1.000  Hf
  Hf32     1.0000 0.26954  0.60775  0.24900  Biso   1.000  Hf
  Hf33     1.0000 0.27253  0.63174  0.50067  Biso   1.000  Hf
  Hf34     1.0000 0.22888  0.88168  0.50625  Biso   1.000  Hf
  Hf35     1.0000 0.24886  0.84856  0.26396  Biso   1.000  Hf
  Hf36     1.0000 0.13411  0.51711  0.62602  Biso   1.000  Hf
  Hf37     1.0000 0.13218  0.73531  0.87837  Biso   1.000  Hf
  Hf38     1.0000 0.36603  0.76689  0.62863  Biso   1.000  Hf
  Hf39     1.0000 0.36578  0.98356  0.87816  Biso   1.000  Hf
  Hf40     1.0000 0.03636  0.68501  0.69551  Biso   1.000  Hf
  Hf41     1.0000 0.03468  0.56616  0.94504  Biso   1.000  Hf
  Hf42     1.0000 0.46346  0.93457  0.69737  Biso   1.000  Hf
  Hf43     1.0000 0.45959  0.81621  0.94283  Biso   1.000  Hf
  Hf44     1.0000 0.26930  0.61816  0.75122  Biso   1.000  Hf
  Hf45     1.0000 0.26812  0.63559  0.00011  Biso   1.000  Hf
  Hf46     1.0000 0.22644  0.89195  0.01105  Biso   1.000  Hf
  Hf47     1.0000 0.22905  0.86849  0.75553  Biso   1.000  Hf
  Hf48     1.0000 0.63502  0.01622  0.12704  Biso   1.000  Hf
  Hf49     1.0000 0.63396  0.23239  0.37736  Biso   1.000  Hf
  Hf50     1.0000 0.86116  0.26813  0.12487  Biso   1.000  Hf
  Hf51     1.0000 0.86618  0.48365  0.37631  Biso   1.000  Hf
  Hf52     1.0000 0.53349  0.18278  0.19745  Biso   1.000  Hf
  Hf53     1.0000 0.53625  0.06511  0.44357  Biso   1.000  Hf
  Hf54     1.0000 0.96316  0.43262  0.19518  Biso   1.000  Hf
  Hf55     1.0000 0.96318  0.31387  0.44160  Biso   1.000  Hf
  Hf56     1.0000 0.77019  0.11928  0.24904  Biso   1.000  Hf
  Hf57     1.0000 0.77114  0.13246  0.49831  Biso   1.000  Hf
  Hf58     1.0000 0.73006  0.38225  0.50040  Biso   1.000  Hf
  Hf59     1.0000 0.72724  0.36865  0.25035  Biso   1.000  Hf
  Hf60     1.0000 0.63223  0.01495  0.62190  Biso   1.000  Hf
  Hf61     1.0000 0.63293  0.23329  0.87445  Biso   1.000  Hf
  Hf62     1.0000 0.86544  0.26608  0.62422  Biso   1.000  Hf
  Hf63     1.0000 0.86474  0.48486  0.87525  Biso   1.000  Hf
  Hf64     1.0000 0.53634  0.18428  0.69356  Biso   1.000  Hf
  Hf65     1.0000 0.53417  0.06766  0.94758  Biso   1.000  Hf
  Hf66     1.0000 0.96381  0.43397  0.69452  Biso   1.000  Hf
  Hf67     1.0000 0.96218  0.31622  0.94407  Biso   1.000  Hf
  Hf68     1.0000 0.76829  0.11663  0.74740  Biso   1.000  Hf
  Hf69     1.0000 0.77085  0.13233  0.99754  Biso   1.000  Hf
  Hf70     1.0000 0.72774  0.38258  0.99983  Biso   1.000  Hf
  Hf71     1.0000 0.72921  0.36741  0.74966  Biso   1.000  Hf
  Hf72     1.0000 0.63580  0.51852  0.12838  Biso   1.000  Hf
  Hf73     1.0000 0.63639  0.73525  0.37627  Biso   1.000  Hf
  Hf74     1.0000 0.87251  0.76902  0.12435  Biso   1.000  Hf
  Hf75     1.0000 0.87196  0.98557  0.37287  Biso   1.000  Hf
  Hf76     1.0000 0.53723  0.68408  0.19790  Biso   1.000  Hf
  Hf77     1.0000 0.53757  0.56584  0.44431  Biso   1.000  Hf
  Hf78     1.0000 0.97324  0.94143  0.18929  Biso   1.000  Hf
  Hf79     1.0000 0.96491  0.81571  0.44204  Biso   1.000  Hf
  Hf80     1.0000 0.77327  0.61820  0.25035  Biso   1.000  Hf
  Hf81     1.0000 0.77017  0.63289  0.50011  Biso   1.000  Hf
  Hf82     1.0000 0.73315  0.88372  0.49752  Biso   1.000  Hf
  Hf83     1.0000 0.73772  0.86837  0.24799  Biso   1.000  Hf
  Hf84     1.0000 0.63362  0.51690  0.62569  Biso   1.000  Hf
  Hf85     1.0000 0.63257  0.73296  0.87695  Biso   1.000  Hf
  Hf86     1.0000 0.86755  0.76661  0.62375  Biso   1.000  Hf
  Hf87     1.0000 0.85887  0.98122  0.87184  Biso   1.000  Hf
  Hf88     1.0000 0.53466  0.68255  0.69729  Biso   1.000  Hf
  Hf89     1.0000 0.53497  0.56660  0.94791  Biso   1.000  Hf
  Hf90     1.0000 0.96233  0.93436  0.69185  Biso   1.000  Hf
  Hf91     1.0000 0.96043  0.81633  0.94129  Biso   1.000  Hf
  Hf92     1.0000 0.76964  0.61752  0.75016  Biso   1.000  Hf
  Hf93     1.0000 0.77066  0.63362  0.00080  Biso   1.000  Hf
  Hf94     1.0000 0.72569  0.88185  0.99861  Biso   1.000  Hf
  Hf95     1.0000 0.72767  0.86589  0.74757  Biso   1.000  Hf
