data_image0
_cell_length_a       9.99731
_cell_length_b       5.30258
_cell_length_c       10.1959
_cell_angle_alpha    86.7104
_cell_angle_beta     90.6275
_cell_angle_gamma    90.5369

_symmetry_space_group_name_H-M    "P 1"
_symmetry_int_tables_number       1

loop_
  _symmetry_equiv_pos_as_xyz
  'x, y, z'

loop_
  _atom_site_label
  _atom_site_occupancy
  _atom_site_fract_x
  _atom_site_fract_y
  _atom_site_fract_z
  _atom_site_thermal_displace_type
  _atom_site_B_iso_or_equiv
  _atom_site_type_symbol
  Hf1      1.0000 0.14051  0.09068  0.14687  Biso   1.000  Hf
  Hf2      1.0000 0.13308  0.46213  0.38832  Biso   1.000  Hf
  Hf3      1.0000 0.37154  0.56302  0.13304  Biso   1.000  Hf
  Hf4      1.0000 0.36851  0.95707  0.38017  Biso   1.000  Hf
  Hf5      1.0000 0.02812  0.38209  0.21141  Biso   1.000  Hf
  Hf6      1.0000 0.05600  0.10294  0.42526  Biso   1.000  Hf
  Hf7      1.0000 0.47421  0.87596  0.21224  Biso   1.000  Hf
  Hf8      1.0000 0.46030  0.61649  0.45375  Biso   1.000  Hf
  Hf9      1.0000 0.27768  0.26005  0.26122  Biso   1.000  Hf
  Hf10     1.0000 0.27803  0.23635  0.50624  Biso   1.000  Hf
  Hf11     1.0000 0.23121  0.73752  0.50557  Biso   1.000  Hf
  Hf12     1.0000 0.22807  0.74624  0.25620  Biso   1.000  Hf
  Hf13     1.0000 0.13618  0.99745  0.61583  Biso   1.000  Hf
  Hf14     1.0000 0.12091  0.36335  0.83274  Biso   1.000  Hf
  Hf15     1.0000 0.36373  0.50397  0.63101  Biso   1.000  Hf
  Hf16     1.0000 0.39276  0.93932  0.86516  Biso   1.000  Hf
  Hf17     1.0000 0.05674  0.35931  0.63571  Biso   1.000  Hf
  Hf18     1.0000 0.01592  0.13617  0.96325  Biso   1.000  Hf
  Hf19     1.0000 0.47036  0.81602  0.69168  Biso   1.000  Hf
  Hf20     1.0000 0.48009  0.61848  0.95476  Biso   1.000  Hf
  Hf21     1.0000 0.27424  0.18550  0.74989  Biso   1.000  Hf
  Hf22     1.0000 0.24203  0.36110  0.01392  Biso   1.000  Hf
  Hf23     1.0000 0.28020  0.88605  0.02298  Biso   1.000  Hf
  Hf24     1.0000 0.23280  0.68862  0.76167  Biso   1.000  Hf
  Hf25     1.0000 0.64287  0.05243  0.13639  Biso   1.000  Hf
  Hf26     1.0000 0.62601  0.45790  0.38859  Biso   1.000  Hf
  Hf27     1.0000 0.84569  0.55181  0.16616  Biso   1.000  Hf
  Hf28     1.0000 0.87331  0.95985  0.39399  Biso   1.000  Hf
  Hf29     1.0000 0.53732  0.37387  0.20582  Biso   1.000  Hf
  Hf30     1.0000 0.53406  0.12006  0.45529  Biso   1.000  Hf
  Hf31     1.0000 0.96398  0.88230  0.21212  Biso   1.000  Hf
  Hf32     1.0000 0.95198  0.60322  0.43340  Biso   1.000  Hf
  Hf33     1.0000 0.76780  0.23706  0.27187  Biso   1.000  Hf
  Hf34     1.0000 0.76728  0.25660  0.51259  Biso   1.000  Hf
  Hf35     1.0000 0.72227  0.74182  0.51011  Biso   1.000  Hf
  Hf36     1.0000 0.72112  0.74991  0.26874  Biso   1.000  Hf
  Hf37     1.0000 0.63831  0.01324  0.62773  Biso   1.000  Hf
  Hf38     1.0000 0.63208  0.44413  0.87453  Biso   1.000  Hf
  Hf39     1.0000 0.86892  0.52572  0.62719  Biso   1.000  Hf
  Hf40     1.0000 0.87547  0.93899  0.84822  Biso   1.000  Hf
  Hf41     1.0000 0.52684  0.31081  0.70984  Biso   1.000  Hf
  Hf42     1.0000 0.54248  0.11417  0.95657  Biso   1.000  Hf
  Hf43     1.0000 0.93832  0.89829  0.62998  Biso   1.000  Hf
  Hf44     1.0000 0.95165  0.58599  0.81859  Biso   1.000  Hf
  Hf45     1.0000 0.77036  0.22046  0.75902  Biso   1.000  Hf
  Hf46     1.0000 0.75354  0.34518  0.02666  Biso   1.000  Hf
  Hf47     1.0000 0.77717  0.82903  0.01817  Biso   1.000  Hf
  Hf48     1.0000 0.71995  0.72784  0.75778  Biso   1.000  Hf
  Rb1      1.0000 0.06728  0.67582  0.02050  Biso   1.000  Rb
