data_image0
_cell_length_a       9.94364
_cell_length_b       10.3322
_cell_length_c       4.98661
_cell_angle_alpha    89.7628
_cell_angle_beta     89.9139
_cell_angle_gamma    90.0428

_symmetry_space_group_name_H-M    "P 1"
_symmetry_int_tables_number       1

loop_
  _symmetry_equiv_pos_as_xyz
  'x, y, z'

loop_
  _atom_site_label
  _atom_site_occupancy
  _atom_site_fract_x
  _atom_site_fract_y
  _atom_site_fract_z
  _atom_site_thermal_displace_type
  _atom_site_B_iso_or_equiv
  _atom_site_type_symbol
  Re1      1.0000 0.13662  0.02178  0.25234  Biso   1.000  Re
  Hf1      1.0000 0.13416  0.23220  0.75629  Biso   1.000  Hf
  Hf2      1.0000 0.36647  0.26761  0.25076  Biso   1.000  Hf
  Hf3      1.0000 0.36595  0.48461  0.75170  Biso   1.000  Hf
  Hf4      1.0000 0.03241  0.17663  0.41156  Biso   1.000  Hf
  Hf5      1.0000 0.03556  0.06576  0.93069  Biso   1.000  Hf
  Hf6      1.0000 0.46276  0.43541  0.38545  Biso   1.000  Hf
  Hf7      1.0000 0.46179  0.31490  0.88454  Biso   1.000  Hf
  Hf8      1.0000 0.27046  0.11806  0.49153  Biso   1.000  Hf
  Hf9      1.0000 0.27153  0.12805  0.99829  Biso   1.000  Hf
  Hf10     1.0000 0.22905  0.38160  0.00097  Biso   1.000  Hf
  Hf11     1.0000 0.22918  0.36726  0.50218  Biso   1.000  Hf
  Hf12     1.0000 0.13408  0.51634  0.25287  Biso   1.000  Hf
  Hf13     1.0000 0.13334  0.73451  0.75115  Biso   1.000  Hf
  Hf14     1.0000 0.36451  0.76840  0.25198  Biso   1.000  Hf
  Hf15     1.0000 0.36386  0.98234  0.75204  Biso   1.000  Hf
  Hf16     1.0000 0.03668  0.68294  0.38649  Biso   1.000  Hf
  Hf17     1.0000 0.03629  0.56554  0.88874  Biso   1.000  Hf
  Hf18     1.0000 0.46432  0.93386  0.38953  Biso   1.000  Hf
  Hf19     1.0000 0.46138  0.81531  0.88662  Biso   1.000  Hf
  Hf20     1.0000 0.27094  0.61970  0.49953  Biso   1.000  Hf
  Hf21     1.0000 0.27086  0.63247  0.99910  Biso   1.000  Hf
  Hf22     1.0000 0.22296  0.88325  0.00441  Biso   1.000  Hf
  Hf23     1.0000 0.22668  0.87215  0.49702  Biso   1.000  Hf
  Hf24     1.0000 0.63389  0.01588  0.24791  Biso   1.000  Hf
  Hf25     1.0000 0.63331  0.23281  0.75091  Biso   1.000  Hf
  Hf26     1.0000 0.86556  0.26436  0.25402  Biso   1.000  Hf
  Hf27     1.0000 0.86578  0.48327  0.75237  Biso   1.000  Hf
  Hf28     1.0000 0.53647  0.18495  0.38482  Biso   1.000  Hf
  Hf29     1.0000 0.53544  0.06516  0.88579  Biso   1.000  Hf
  Hf30     1.0000 0.96492  0.43109  0.39140  Biso   1.000  Hf
  Hf31     1.0000 0.96496  0.31504  0.89426  Biso   1.000  Hf
  Hf32     1.0000 0.76822  0.11702  0.49795  Biso   1.000  Hf
  Hf33     1.0000 0.77122  0.13253  0.99627  Biso   1.000  Hf
  Hf34     1.0000 0.72920  0.38161  0.00038  Biso   1.000  Hf
  Hf35     1.0000 0.72954  0.36766  0.49960  Biso   1.000  Hf
  Hf36     1.0000 0.63466  0.51749  0.25122  Biso   1.000  Hf
  Hf37     1.0000 0.63471  0.73478  0.74849  Biso   1.000  Hf
  Hf38     1.0000 0.86871  0.76797  0.24741  Biso   1.000  Hf
  Hf39     1.0000 0.87083  0.98505  0.74554  Biso   1.000  Hf
  Hf40     1.0000 0.53670  0.68555  0.38555  Biso   1.000  Hf
  Hf41     1.0000 0.53743  0.56566  0.88482  Biso   1.000  Hf
  Hf42     1.0000 0.97034  0.93382  0.38383  Biso   1.000  Hf
  Hf43     1.0000 0.96207  0.81534  0.88058  Biso   1.000  Hf
  Hf44     1.0000 0.77131  0.61800  0.49857  Biso   1.000  Hf
  Hf45     1.0000 0.77083  0.63278  0.99815  Biso   1.000  Hf
  Hf46     1.0000 0.72987  0.88384  0.99176  Biso   1.000  Hf
  Hf47     1.0000 0.73346  0.86875  0.49417  Biso   1.000  Hf
