data_image0
_cell_length_a       9.93566
_cell_length_b       5.1689
_cell_length_c       9.97758
_cell_angle_alpha    89.8318
_cell_angle_beta     89.924
_cell_angle_gamma    89.9952

_symmetry_space_group_name_H-M    "P 1"
_symmetry_int_tables_number       1

loop_
  _symmetry_equiv_pos_as_xyz
  'x, y, z'

loop_
  _atom_site_label
  _atom_site_occupancy
  _atom_site_fract_x
  _atom_site_fract_y
  _atom_site_fract_z
  _atom_site_thermal_displace_type
  _atom_site_B_iso_or_equiv
  _atom_site_type_symbol
  Re1      1.0000 0.13868  0.04103  0.12321  Biso   1.000  Re
  Hf1      1.0000 0.13260  0.46690  0.37398  Biso   1.000  Hf
  Hf2      1.0000 0.36532  0.54020  0.12654  Biso   1.000  Hf
  Hf3      1.0000 0.36468  0.96910  0.37506  Biso   1.000  Hf
  Hf4      1.0000 0.03852  0.35674  0.19383  Biso   1.000  Hf
  Hf5      1.0000 0.03402  0.13676  0.44959  Biso   1.000  Hf
  Hf6      1.0000 0.46471  0.86925  0.19489  Biso   1.000  Hf
  Hf7      1.0000 0.46298  0.63316  0.44253  Biso   1.000  Hf
  Hf8      1.0000 0.27007  0.24056  0.24623  Biso   1.000  Hf
  Hf9      1.0000 0.27015  0.26547  0.49838  Biso   1.000  Hf
  Hf10     1.0000 0.22897  0.76497  0.49974  Biso   1.000  Hf
  Hf11     1.0000 0.22521  0.74789  0.24846  Biso   1.000  Hf
  Hf12     1.0000 0.13377  0.03254  0.62656  Biso   1.000  Hf
  Hf13     1.0000 0.13377  0.46543  0.87817  Biso   1.000  Hf
  Hf14     1.0000 0.36566  0.53330  0.62535  Biso   1.000  Hf
  Hf15     1.0000 0.36484  0.96560  0.87666  Biso   1.000  Hf
  Hf16     1.0000 0.03357  0.36241  0.70083  Biso   1.000  Hf
  Hf17     1.0000 0.03622  0.12751  0.95821  Biso   1.000  Hf
  Hf18     1.0000 0.46239  0.86961  0.69351  Biso   1.000  Hf
  Hf19     1.0000 0.46024  0.62792  0.94354  Biso   1.000  Hf
  Hf20     1.0000 0.27035  0.23554  0.75041  Biso   1.000  Hf
  Hf21     1.0000 0.27141  0.25686  0.00193  Biso   1.000  Hf
  Hf22     1.0000 0.22366  0.76246  0.00189  Biso   1.000  Hf
  Hf23     1.0000 0.22891  0.73299  0.75110  Biso   1.000  Hf
  Hf24     1.0000 0.63512  0.03467  0.12564  Biso   1.000  Hf
  Hf25     1.0000 0.63474  0.46936  0.37450  Biso   1.000  Hf
  Hf26     1.0000 0.86964  0.53334  0.12457  Biso   1.000  Hf
  Hf27     1.0000 0.86911  0.96851  0.37368  Biso   1.000  Hf
  Hf28     1.0000 0.53683  0.37114  0.19255  Biso   1.000  Hf
  Hf29     1.0000 0.53576  0.13387  0.44286  Biso   1.000  Hf
  Hf30     1.0000 0.97392  0.86105  0.19308  Biso   1.000  Hf
  Hf31     1.0000 0.96481  0.63317  0.44629  Biso   1.000  Hf
  Hf32     1.0000 0.77169  0.23652  0.24897  Biso   1.000  Hf
  Hf33     1.0000 0.77032  0.26613  0.49891  Biso   1.000  Hf
  Hf34     1.0000 0.72996  0.76656  0.49810  Biso   1.000  Hf
  Hf35     1.0000 0.73375  0.73743  0.24793  Biso   1.000  Hf
  Hf36     1.0000 0.63358  0.03291  0.62451  Biso   1.000  Hf
  Hf37     1.0000 0.63341  0.46590  0.87563  Biso   1.000  Hf
  Hf38     1.0000 0.86568  0.53179  0.62626  Biso   1.000  Hf
  Hf39     1.0000 0.86594  0.96650  0.87631  Biso   1.000  Hf
  Hf40     1.0000 0.53634  0.36984  0.69322  Biso   1.000  Hf
  Hf41     1.0000 0.53652  0.12843  0.94297  Biso   1.000  Hf
  Hf42     1.0000 0.96429  0.86623  0.69617  Biso   1.000  Hf
  Hf43     1.0000 0.96141  0.62736  0.94143  Biso   1.000  Hf
  Hf44     1.0000 0.76947  0.23383  0.74956  Biso   1.000  Hf
  Hf45     1.0000 0.77082  0.26422  0.99911  Biso   1.000  Hf
  Hf46     1.0000 0.72863  0.76390  0.99874  Biso   1.000  Hf
  Hf47     1.0000 0.72887  0.73527  0.74916  Biso   1.000  Hf
