data_image0
_cell_length_a       10.0886
_cell_length_b       10.3112
_cell_length_c       5.07315
_cell_angle_alpha    90.433
_cell_angle_beta     91.4981
_cell_angle_gamma    89.4417

_symmetry_space_group_name_H-M    "P 1"
_symmetry_int_tables_number       1

loop_
  _symmetry_equiv_pos_as_xyz
  'x, y, z'

loop_
  _atom_site_label
  _atom_site_occupancy
  _atom_site_fract_x
  _atom_site_fract_y
  _atom_site_fract_z
  _atom_site_thermal_displace_type
  _atom_site_B_iso_or_equiv
  _atom_site_type_symbol
  Hf1      1.0000 0.10974  0.97927  0.25188  Biso   1.000  Hf
  Hf2      1.0000 0.12425  0.24198  0.69555  Biso   1.000  Hf
  Hf3      1.0000 0.38580  0.26707  0.20916  Biso   1.000  Hf
  Hf4      1.0000 0.36554  0.48751  0.72911  Biso   1.000  Hf
  Hf5      1.0000 0.99631  0.13707  0.42970  Biso   1.000  Hf
  Hf6      1.0000 0.03106  0.08316  0.93018  Biso   1.000  Hf
  Hf7      1.0000 0.47210  0.43673  0.38267  Biso   1.000  Hf
  Hf8      1.0000 0.47667  0.33183  0.88111  Biso   1.000  Hf
  Hf9      1.0000 0.24789  0.11272  0.43754  Biso   1.000  Hf
  Hf10     1.0000 0.27542  0.15381  0.93436  Biso   1.000  Hf
  Hf11     1.0000 0.22967  0.39287  0.96461  Biso   1.000  Hf
  Hf12     1.0000 0.24531  0.36439  0.45807  Biso   1.000  Hf
  Hf13     1.0000 0.14196  0.52408  0.23831  Biso   1.000  Hf
  Hf14     1.0000 0.12363  0.74342  0.74198  Biso   1.000  Hf
  Hf15     1.0000 0.37154  0.77036  0.23360  Biso   1.000  Hf
  Hf16     1.0000 0.35951  0.99729  0.73097  Biso   1.000  Hf
  Hf17     1.0000 0.02267  0.65859  0.42166  Biso   1.000  Hf
  Hf18     1.0000 0.02659  0.58119  0.91010  Biso   1.000  Hf
  Hf19     1.0000 0.46645  0.93555  0.39757  Biso   1.000  Hf
  Hf20     1.0000 0.47500  0.83202  0.89842  Biso   1.000  Hf
  Hf21     1.0000 0.27343  0.62152  0.48348  Biso   1.000  Hf
  Hf22     1.0000 0.26600  0.64242  0.98292  Biso   1.000  Hf
  Hf23     1.0000 0.23947  0.89486  0.98415  Biso   1.000  Hf
  Hf24     1.0000 0.23846  0.85831  0.49031  Biso   1.000  Hf
  Hf25     1.0000 0.62831  0.01080  0.24523  Biso   1.000  Hf
  Hf26     1.0000 0.63386  0.23425  0.74787  Biso   1.000  Hf
  Hf27     1.0000 0.85193  0.26103  0.25875  Biso   1.000  Hf
  Hf28     1.0000 0.87171  0.48022  0.75430  Biso   1.000  Hf
  Hf29     1.0000 0.53219  0.17830  0.40809  Biso   1.000  Hf
  Hf30     1.0000 0.52573  0.07957  0.90941  Biso   1.000  Hf
  Hf31     1.0000 0.99517  0.39447  0.43219  Biso   1.000  Hf
  Hf32     1.0000 0.96609  0.32187  0.92619  Biso   1.000  Hf
  Hf33     1.0000 0.75779  0.10910  0.50694  Biso   1.000  Hf
  Hf34     1.0000 0.76345  0.13291  0.00245  Biso   1.000  Hf
  Hf35     1.0000 0.73267  0.38686  0.99822  Biso   1.000  Hf
  Hf36     1.0000 0.73276  0.36790  0.50240  Biso   1.000  Hf
  Hf37     1.0000 0.63176  0.51891  0.23985  Biso   1.000  Hf
  Hf38     1.0000 0.63175  0.73849  0.74826  Biso   1.000  Hf
  Hf39     1.0000 0.86178  0.75780  0.26783  Biso   1.000  Hf
  Hf40     1.0000 0.87150  0.99252  0.76425  Biso   1.000  Hf
  Hf41     1.0000 0.53826  0.68773  0.38839  Biso   1.000  Hf
  Hf42     1.0000 0.53004  0.57791  0.88967  Biso   1.000  Hf
  Hf43     1.0000 0.98608  0.88882  0.50786  Biso   1.000  Hf
  Hf44     1.0000 0.99180  0.83817  0.00070  Biso   1.000  Hf
  Hf45     1.0000 0.76939  0.61057  0.49548  Biso   1.000  Hf
  Hf46     1.0000 0.76969  0.63597  0.99264  Biso   1.000  Hf
  Hf47     1.0000 0.74188  0.88539  0.99850  Biso   1.000  Hf
  Hf48     1.0000 0.73439  0.86525  0.49789  Biso   1.000  Hf
  Sc1      1.0000 0.12081  0.24835  0.19268  Biso   1.000  Sc
