data_image0
_cell_length_a       5.09692
_cell_length_b       10.0779
_cell_length_c       10.0779
_cell_angle_alpha    90
_cell_angle_beta     90.0002
_cell_angle_gamma    89.9996

_symmetry_space_group_name_H-M    "P 1"
_symmetry_int_tables_number       1

loop_
  _symmetry_equiv_pos_as_xyz
  'x, y, z'

loop_
  _atom_site_label
  _atom_site_occupancy
  _atom_site_fract_x
  _atom_site_fract_y
  _atom_site_fract_z
  _atom_site_thermal_displace_type
  _atom_site_B_iso_or_equiv
  _atom_site_type_symbol
  Hf1      1.0000 0.24982  0.98275  0.12491  Biso   1.000  Hf
  Hf2      1.0000 0.24981  0.25005  0.39222  Biso   1.000  Hf
  Hf3      1.0000 0.74982  0.25005  0.12491  Biso   1.000  Hf
  Hf4      1.0000 0.74809  0.00506  0.36990  Biso   1.000  Hf
  Hf5      1.0000 0.98026  0.12753  0.00239  Biso   1.000  Hf
  Hf6      1.0000 0.03014  0.12021  0.25475  Biso   1.000  Hf
  Hf7      1.0000 0.98026  0.37257  0.24743  Biso   1.000  Hf
  Hf8      1.0000 0.03014  0.37989  0.99507  Biso   1.000  Hf
  Hf9      1.0000 0.51938  0.12753  0.24743  Biso   1.000  Hf
  Hf10     1.0000 0.46949  0.12021  0.99507  Biso   1.000  Hf
  Hf11     1.0000 0.51937  0.37257  0.00239  Biso   1.000  Hf
  Hf12     1.0000 0.46949  0.37989  0.25475  Biso   1.000  Hf
  Hf13     1.0000 0.24982  0.99528  0.62491  Biso   1.000  Hf
  Hf14     1.0000 0.24981  0.25005  0.85760  Biso   1.000  Hf
  Hf15     1.0000 0.74981  0.25005  0.62491  Biso   1.000  Hf
  Hf16     1.0000 0.75155  0.00506  0.87992  Biso   1.000  Hf
  Hf17     1.0000 0.96360  0.13057  0.50219  Biso   1.000  Hf
  Hf18     1.0000 0.03211  0.11625  0.75054  Biso   1.000  Hf
  Hf19     1.0000 0.96360  0.36954  0.74763  Biso   1.000  Hf
  Hf20     1.0000 0.03212  0.38386  0.49928  Biso   1.000  Hf
  Hf21     1.0000 0.53603  0.13057  0.74763  Biso   1.000  Hf
  Hf22     1.0000 0.46752  0.11625  0.49928  Biso   1.000  Hf
  Hf23     1.0000 0.53603  0.36954  0.50219  Biso   1.000  Hf
  Hf24     1.0000 0.46751  0.38386  0.75054  Biso   1.000  Hf
  Hf25     1.0000 0.24982  0.51736  0.12491  Biso   1.000  Hf
  Hf26     1.0000 0.24982  0.75006  0.37968  Biso   1.000  Hf
  Hf27     1.0000 0.74982  0.75005  0.12491  Biso   1.000  Hf
  Hf28     1.0000 0.75154  0.49504  0.36990  Biso   1.000  Hf
  Hf29     1.0000 0.96360  0.62734  0.00543  Biso   1.000  Hf
  Hf30     1.0000 0.03212  0.62442  0.25872  Biso   1.000  Hf
  Hf31     1.0000 0.96360  0.87277  0.24439  Biso   1.000  Hf
  Hf32     1.0000 0.03212  0.87568  0.99110  Biso   1.000  Hf
  Hf33     1.0000 0.53604  0.62733  0.24439  Biso   1.000  Hf
  Hf34     1.0000 0.46752  0.62443  0.99110  Biso   1.000  Hf
  Hf35     1.0000 0.53604  0.87277  0.00543  Biso   1.000  Hf
  Hf36     1.0000 0.46752  0.87568  0.25872  Biso   1.000  Hf
  Hf37     1.0000 0.24982  0.50482  0.62491  Biso   1.000  Hf
  Hf38     1.0000 0.24982  0.75005  0.87014  Biso   1.000  Hf
  Hf39     1.0000 0.74982  0.75005  0.62491  Biso   1.000  Hf
  Hf40     1.0000 0.74809  0.49504  0.87992  Biso   1.000  Hf
  Hf41     1.0000 0.95964  0.62926  0.50412  Biso   1.000  Hf
  Hf42     1.0000 0.04073  0.61797  0.75699  Biso   1.000  Hf
  Hf43     1.0000 0.95964  0.87084  0.74570  Biso   1.000  Hf
  Hf44     1.0000 0.04073  0.88214  0.49282  Biso   1.000  Hf
  Hf45     1.0000 0.53999  0.62926  0.74570  Biso   1.000  Hf
  Hf46     1.0000 0.45890  0.61797  0.49283  Biso   1.000  Hf
  Hf47     1.0000 0.53999  0.87084  0.50412  Biso   1.000  Hf
  Hf48     1.0000 0.45890  0.88213  0.75699  Biso   1.000  Hf
  Sc1      1.0000 0.24982  0.25005  0.12491  Biso   1.000  Sc
