data_image0
_cell_length_a       9.94606
_cell_length_b       10.3591
_cell_length_c       9.99418
_cell_angle_alpha    89.9703
_cell_angle_beta     89.9429
_cell_angle_gamma    89.9784

_symmetry_space_group_name_H-M    "P 1"
_symmetry_int_tables_number       1

loop_
  _symmetry_equiv_pos_as_xyz
  'x, y, z'

loop_
  _atom_site_label
  _atom_site_occupancy
  _atom_site_fract_x
  _atom_site_fract_y
  _atom_site_fract_z
  _atom_site_thermal_displace_type
  _atom_site_B_iso_or_equiv
  _atom_site_type_symbol
  Ta1      1.0000 0.13600  0.01883  0.12603  Biso   1.000  Ta
  Hf1      1.0000 0.13394  0.23292  0.37558  Biso   1.000  Hf
  Hf2      1.0000 0.36693  0.26746  0.12587  Biso   1.000  Hf
  Hf3      1.0000 0.36605  0.48388  0.37625  Biso   1.000  Hf
  Hf4      1.0000 0.03945  0.18246  0.19225  Biso   1.000  Hf
  Hf5      1.0000 0.03504  0.06683  0.44734  Biso   1.000  Hf
  Hf6      1.0000 0.46344  0.43494  0.19371  Biso   1.000  Hf
  Hf7      1.0000 0.46372  0.31591  0.44386  Biso   1.000  Hf
  Hf8      1.0000 0.27067  0.11782  0.24760  Biso   1.000  Hf
  Hf9      1.0000 0.27082  0.13208  0.49915  Biso   1.000  Hf
  Hf10     1.0000 0.22921  0.38189  0.49996  Biso   1.000  Hf
  Hf11     1.0000 0.22992  0.36831  0.25029  Biso   1.000  Hf
  Hf12     1.0000 0.13418  0.01644  0.62654  Biso   1.000  Hf
  Hf13     1.0000 0.13392  0.23364  0.87697  Biso   1.000  Hf
  Hf14     1.0000 0.36591  0.26649  0.62595  Biso   1.000  Hf
  Hf15     1.0000 0.36572  0.48382  0.87590  Biso   1.000  Hf
  Hf16     1.0000 0.03517  0.18289  0.69801  Biso   1.000  Hf
  Hf17     1.0000 0.03660  0.06462  0.95212  Biso   1.000  Hf
  Hf18     1.0000 0.46307  0.43458  0.69356  Biso   1.000  Hf
  Hf19     1.0000 0.46276  0.31509  0.94349  Biso   1.000  Hf
  Hf20     1.0000 0.27085  0.11804  0.75030  Biso   1.000  Hf
  Hf21     1.0000 0.26987  0.13027  0.00136  Biso   1.000  Hf
  Hf22     1.0000 0.22909  0.38179  0.00014  Biso   1.000  Hf
  Hf23     1.0000 0.22890  0.36742  0.75025  Biso   1.000  Hf
  Hf24     1.0000 0.13449  0.51670  0.12655  Biso   1.000  Hf
  Hf25     1.0000 0.13418  0.73384  0.37616  Biso   1.000  Hf
  Hf26     1.0000 0.36487  0.76800  0.12622  Biso   1.000  Hf
  Hf27     1.0000 0.36618  0.98333  0.37562  Biso   1.000  Hf
  Hf28     1.0000 0.03680  0.68420  0.19387  Biso   1.000  Hf
  Hf29     1.0000 0.03663  0.56564  0.44371  Biso   1.000  Hf
  Hf30     1.0000 0.46416  0.93430  0.19481  Biso   1.000  Hf
  Hf31     1.0000 0.46358  0.81576  0.44362  Biso   1.000  Hf
  Hf32     1.0000 0.27132  0.61928  0.25030  Biso   1.000  Hf
  Hf33     1.0000 0.27083  0.63209  0.50004  Biso   1.000  Hf
  Hf34     1.0000 0.22948  0.88228  0.49973  Biso   1.000  Hf
  Hf35     1.0000 0.22540  0.87091  0.24880  Biso   1.000  Hf
  Hf36     1.0000 0.13384  0.51614  0.62584  Biso   1.000  Hf
  Hf37     1.0000 0.13348  0.73295  0.87572  Biso   1.000  Hf
  Hf38     1.0000 0.36607  0.76638  0.62588  Biso   1.000  Hf
  Hf39     1.0000 0.36527  0.98311  0.87640  Biso   1.000  Hf
  Hf40     1.0000 0.03621  0.68389  0.69381  Biso   1.000  Hf
  Hf41     1.0000 0.03632  0.56487  0.94456  Biso   1.000  Hf
  Hf42     1.0000 0.46308  0.93457  0.69429  Biso   1.000  Hf
  Hf43     1.0000 0.46182  0.81568  0.94428  Biso   1.000  Hf
  Hf44     1.0000 0.27047  0.61749  0.74977  Biso   1.000  Hf
  Hf45     1.0000 0.27070  0.63226  0.00007  Biso   1.000  Hf
  Hf46     1.0000 0.22402  0.88306  0.00091  Biso   1.000  Hf
  Hf47     1.0000 0.22953  0.86728  0.75009  Biso   1.000  Hf
  Hf48     1.0000 0.63477  0.01669  0.12575  Biso   1.000  Hf
  Hf49     1.0000 0.63436  0.23359  0.37610  Biso   1.000  Hf
  Hf50     1.0000 0.86586  0.26615  0.12578  Biso   1.000  Hf
  Hf51     1.0000 0.86597  0.48349  0.37594  Biso   1.000  Hf
  Hf52     1.0000 0.53716  0.18466  0.19409  Biso   1.000  Hf
  Hf53     1.0000 0.53612  0.06582  0.44398  Biso   1.000  Hf
  Hf54     1.0000 0.96449  0.43286  0.19452  Biso   1.000  Hf
  Hf55     1.0000 0.96382  0.31542  0.44441  Biso   1.000  Hf
  Hf56     1.0000 0.77234  0.11835  0.24967  Biso   1.000  Hf
  Hf57     1.0000 0.77059  0.13196  0.49976  Biso   1.000  Hf
  Hf58     1.0000 0.72943  0.38214  0.50003  Biso   1.000  Hf
  Hf59     1.0000 0.72930  0.36824  0.24995  Biso   1.000  Hf
  Hf60     1.0000 0.63383  0.01621  0.62584  Biso   1.000  Hf
  Hf61     1.0000 0.63388  0.23313  0.87582  Biso   1.000  Hf
  Hf62     1.0000 0.86598  0.26588  0.62619  Biso   1.000  Hf
  Hf63     1.0000 0.86567  0.48341  0.87598  Biso   1.000  Hf
  Hf64     1.0000 0.53658  0.18453  0.69372  Biso   1.000  Hf
  Hf65     1.0000 0.53573  0.06549  0.94427  Biso   1.000  Hf
  Hf66     1.0000 0.96333  0.43392  0.69396  Biso   1.000  Hf
  Hf67     1.0000 0.96314  0.31507  0.94387  Biso   1.000  Hf
  Hf68     1.0000 0.77017  0.11724  0.74985  Biso   1.000  Hf
  Hf69     1.0000 0.77078  0.13202  0.99955  Biso   1.000  Hf
  Hf70     1.0000 0.72917  0.38169  0.00024  Biso   1.000  Hf
  Hf71     1.0000 0.72911  0.36751  0.74988  Biso   1.000  Hf
  Hf72     1.0000 0.63442  0.51710  0.12616  Biso   1.000  Hf
  Hf73     1.0000 0.63481  0.73404  0.37500  Biso   1.000  Hf
  Hf74     1.0000 0.86740  0.76703  0.12443  Biso   1.000  Hf
  Hf75     1.0000 0.86714  0.98368  0.37566  Biso   1.000  Hf
  Hf76     1.0000 0.53642  0.68532  0.19316  Biso   1.000  Hf
  Hf77     1.0000 0.53692  0.56612  0.44357  Biso   1.000  Hf
  Hf78     1.0000 0.96950  0.93543  0.19188  Biso   1.000  Hf
  Hf79     1.0000 0.96410  0.81606  0.44451  Biso   1.000  Hf
  Hf80     1.0000 0.77118  0.61806  0.24978  Biso   1.000  Hf
  Hf81     1.0000 0.77082  0.63243  0.49977  Biso   1.000  Hf
  Hf82     1.0000 0.72934  0.88246  0.49905  Biso   1.000  Hf
  Hf83     1.0000 0.73192  0.86860  0.24890  Biso   1.000  Hf
  Hf84     1.0000 0.63401  0.51659  0.62582  Biso   1.000  Hf
  Hf85     1.0000 0.63361  0.73353  0.87616  Biso   1.000  Hf
  Hf86     1.0000 0.86583  0.76655  0.62604  Biso   1.000  Hf
  Hf87     1.0000 0.86652  0.98335  0.87595  Biso   1.000  Hf
  Hf88     1.0000 0.53633  0.68449  0.69425  Biso   1.000  Hf
  Hf89     1.0000 0.53665  0.56521  0.94357  Biso   1.000  Hf
  Hf90     1.0000 0.96390  0.93400  0.69485  Biso   1.000  Hf
  Hf91     1.0000 0.96176  0.81444  0.94198  Biso   1.000  Hf
  Hf92     1.0000 0.77040  0.61770  0.74996  Biso   1.000  Hf
  Hf93     1.0000 0.77063  0.63194  0.00002  Biso   1.000  Hf
  Hf94     1.0000 0.72847  0.88238  0.99888  Biso   1.000  Hf
  Hf95     1.0000 0.72895  0.86773  0.74952  Biso   1.000  Hf
