data_image0
_cell_length_a       10.1566
_cell_length_b       5.25846
_cell_length_c       10.2597
_cell_angle_alpha    84.6351
_cell_angle_beta     91.5034
_cell_angle_gamma    92.8524

_symmetry_space_group_name_H-M    "P 1"
_symmetry_int_tables_number       1

loop_
  _symmetry_equiv_pos_as_xyz
  'x, y, z'

loop_
  _atom_site_label
  _atom_site_occupancy
  _atom_site_fract_x
  _atom_site_fract_y
  _atom_site_fract_z
  _atom_site_thermal_displace_type
  _atom_site_B_iso_or_equiv
  _atom_site_type_symbol
  Hf1      1.0000 0.14687  0.96772  0.10810  Biso   1.000  Hf
  Hf2      1.0000 0.11912  0.50516  0.40026  Biso   1.000  Hf
  Hf3      1.0000 0.35614  0.49331  0.12780  Biso   1.000  Hf
  Hf4      1.0000 0.38973  0.99164  0.35519  Biso   1.000  Hf
  Hf5      1.0000 0.95251  0.41552  0.28300  Biso   1.000  Hf
  Hf6      1.0000 0.05233  0.14349  0.44643  Biso   1.000  Hf
  Hf7      1.0000 0.45244  0.84956  0.18308  Biso   1.000  Hf
  Hf8      1.0000 0.47484  0.65395  0.44486  Biso   1.000  Hf
  Hf9      1.0000 0.24876  0.17925  0.23785  Biso   1.000  Hf
  Hf10     1.0000 0.27912  0.29416  0.49024  Biso   1.000  Hf
  Hf11     1.0000 0.25037  0.79548  0.48778  Biso   1.000  Hf
  Hf12     1.0000 0.21730  0.66885  0.23801  Biso   1.000  Hf
  Hf13     1.0000 0.15132  0.02152  0.61048  Biso   1.000  Hf
  Hf14     1.0000 0.15365  0.42174  0.84241  Biso   1.000  Hf
  Hf15     1.0000 0.37586  0.52972  0.61154  Biso   1.000  Hf
  Hf16     1.0000 0.37617  0.93413  0.87297  Biso   1.000  Hf
  Hf17     1.0000 0.07109  0.37643  0.65629  Biso   1.000  Hf
  Hf18     1.0000 0.05583  0.06714  0.92219  Biso   1.000  Hf
  Hf19     1.0000 0.49722  0.80569  0.72291  Biso   1.000  Hf
  Hf20     1.0000 0.47024  0.61058  0.96168  Biso   1.000  Hf
  Hf21     1.0000 0.28616  0.20969  0.74026  Biso   1.000  Hf
  Hf22     1.0000 0.28697  0.21874  0.98990  Biso   1.000  Hf
  Hf23     1.0000 0.23530  0.72169  0.98448  Biso   1.000  Hf
  Hf24     1.0000 0.25225  0.71920  0.73562  Biso   1.000  Hf
  Hf25     1.0000 0.62374  0.07070  0.12532  Biso   1.000  Hf
  Hf26     1.0000 0.63536  0.47134  0.40456  Biso   1.000  Hf
  Hf27     1.0000 0.81357  0.60171  0.16166  Biso   1.000  Hf
  Hf28     1.0000 0.87859  0.03320  0.37733  Biso   1.000  Hf
  Hf29     1.0000 0.49890  0.31781  0.23315  Biso   1.000  Hf
  Hf30     1.0000 0.53853  0.13071  0.46740  Biso   1.000  Hf
  Hf31     1.0000 0.96633  0.92290  0.20633  Biso   1.000  Hf
  Hf32     1.0000 0.97589  0.69424  0.46844  Biso   1.000  Hf
  Hf33     1.0000 0.73194  0.26124  0.26743  Biso   1.000  Hf
  Hf34     1.0000 0.78478  0.28358  0.51439  Biso   1.000  Hf
  Hf35     1.0000 0.74015  0.77398  0.51263  Biso   1.000  Hf
  Hf36     1.0000 0.69872  0.78023  0.26885  Biso   1.000  Hf
  Hf37     1.0000 0.65444  0.01812  0.63490  Biso   1.000  Hf
  Hf38     1.0000 0.60772  0.47199  0.85459  Biso   1.000  Hf
  Hf39     1.0000 0.88800  0.54616  0.64266  Biso   1.000  Hf
  Hf40     1.0000 0.88514  0.92436  0.86019  Biso   1.000  Hf
  Hf41     1.0000 0.54110  0.33826  0.68116  Biso   1.000  Hf
  Hf42     1.0000 0.53732  0.12103  0.93905  Biso   1.000  Hf
  Hf43     1.0000 0.96897  0.91268  0.67470  Biso   1.000  Hf
  Hf44     1.0000 0.96993  0.56565  0.84531  Biso   1.000  Hf
  Hf45     1.0000 0.77672  0.21411  0.76589  Biso   1.000  Hf
  Hf46     1.0000 0.71864  0.40344  0.02607  Biso   1.000  Hf
  Hf47     1.0000 0.76833  0.89862  0.02246  Biso   1.000  Hf
  Hf48     1.0000 0.74294  0.71563  0.75859  Biso   1.000  Hf
  Tl1      1.0000 0.03836  0.43630  0.08099  Biso   1.000  Tl
