data_image0
_cell_length_a       10.0595
_cell_length_b       10.2538
_cell_length_c       5.00884
_cell_angle_alpha    89.9999
_cell_angle_beta     89.9997
_cell_angle_gamma    90

_symmetry_space_group_name_H-M    "P 1"
_symmetry_int_tables_number       1

loop_
  _symmetry_equiv_pos_as_xyz
  'x, y, z'

loop_
  _atom_site_label
  _atom_site_occupancy
  _atom_site_fract_x
  _atom_site_fract_y
  _atom_site_fract_z
  _atom_site_thermal_displace_type
  _atom_site_B_iso_or_equiv
  _atom_site_type_symbol
  Tl1      1.0000 0.12491  0.00005  0.24982  Biso   1.000  Tl
  Hf1      1.0000 0.12491  0.25398  0.74982  Biso   1.000  Hf
  Hf2      1.0000 0.37619  0.25203  0.24883  Biso   1.000  Hf
  Hf3      1.0000 0.37621  0.00006  0.74982  Biso   1.000  Hf
  Hf4      1.0000 0.99190  0.15145  0.98469  Biso   1.000  Hf
  Hf5      1.0000 0.99516  0.11079  0.50496  Biso   1.000  Hf
  Hf6      1.0000 0.00104  0.35444  0.49299  Biso   1.000  Hf
  Hf7      1.0000 0.00044  0.39869  0.99480  Biso   1.000  Hf
  Hf8      1.0000 0.25792  0.15145  0.51495  Biso   1.000  Hf
  Hf9      1.0000 0.25465  0.11079  0.99467  Biso   1.000  Hf
  Hf10     1.0000 0.24878  0.35444  0.00665  Biso   1.000  Hf
  Hf11     1.0000 0.24938  0.39869  0.50483  Biso   1.000  Hf
  Hf12     1.0000 0.12491  0.50005  0.24982  Biso   1.000  Hf
  Hf13     1.0000 0.12491  0.74613  0.74982  Biso   1.000  Hf
  Hf14     1.0000 0.37618  0.74808  0.25081  Biso   1.000  Hf
  Hf15     1.0000 0.37561  0.50005  0.74982  Biso   1.000  Hf
  Hf16     1.0000 0.00104  0.64567  0.00665  Biso   1.000  Hf
  Hf17     1.0000 0.00044  0.60142  0.50483  Biso   1.000  Hf
  Hf18     1.0000 0.99190  0.84866  0.51494  Biso   1.000  Hf
  Hf19     1.0000 0.99516  0.88932  0.99466  Biso   1.000  Hf
  Hf20     1.0000 0.24878  0.64567  0.49299  Biso   1.000  Hf
  Hf21     1.0000 0.24938  0.60142  0.99480  Biso   1.000  Hf
  Hf22     1.0000 0.25792  0.84866  0.98469  Biso   1.000  Hf
  Hf23     1.0000 0.25465  0.88932  0.50497  Biso   1.000  Hf
  Hf24     1.0000 0.62491  0.00005  0.24982  Biso   1.000  Hf
  Hf25     1.0000 0.62491  0.24843  0.74982  Biso   1.000  Hf
  Hf26     1.0000 0.87363  0.25203  0.25080  Biso   1.000  Hf
  Hf27     1.0000 0.87361  0.00006  0.74982  Biso   1.000  Hf
  Hf28     1.0000 0.50135  0.14925  0.00375  Biso   1.000  Hf
  Hf29     1.0000 0.50230  0.10093  0.50314  Biso   1.000  Hf
  Hf30     1.0000 0.50102  0.35227  0.50293  Biso   1.000  Hf
  Hf31     1.0000 0.49837  0.39856  0.00348  Biso   1.000  Hf
  Hf32     1.0000 0.74846  0.14925  0.49588  Biso   1.000  Hf
  Hf33     1.0000 0.74752  0.10093  0.99649  Biso   1.000  Hf
  Hf34     1.0000 0.74879  0.35227  0.99670  Biso   1.000  Hf
  Hf35     1.0000 0.75144  0.39856  0.49616  Biso   1.000  Hf
  Hf36     1.0000 0.62491  0.50005  0.24982  Biso   1.000  Hf
  Hf37     1.0000 0.62491  0.75167  0.74982  Biso   1.000  Hf
  Hf38     1.0000 0.87363  0.74808  0.24883  Biso   1.000  Hf
  Hf39     1.0000 0.87420  0.50005  0.74982  Biso   1.000  Hf
  Hf40     1.0000 0.50102  0.64784  0.99670  Biso   1.000  Hf
  Hf41     1.0000 0.49837  0.60154  0.49616  Biso   1.000  Hf
  Hf42     1.0000 0.50135  0.85085  0.49589  Biso   1.000  Hf
  Hf43     1.0000 0.50229  0.89918  0.99649  Biso   1.000  Hf
  Hf44     1.0000 0.74879  0.64784  0.50293  Biso   1.000  Hf
  Hf45     1.0000 0.75145  0.60154  0.00348  Biso   1.000  Hf
  Hf46     1.0000 0.74846  0.85085  0.00375  Biso   1.000  Hf
  Hf47     1.0000 0.74752  0.89917  0.50315  Biso   1.000  Hf
