data_image0
_cell_length_a       9.97795
_cell_length_b       10.3753
_cell_length_c       10.0236
_cell_angle_alpha    90.0321
_cell_angle_beta     90.0045
_cell_angle_gamma    89.9838

_symmetry_space_group_name_H-M    "P 1"
_symmetry_int_tables_number       1

loop_
  _symmetry_equiv_pos_as_xyz
  'x, y, z'

loop_
  _atom_site_label
  _atom_site_occupancy
  _atom_site_fract_x
  _atom_site_fract_y
  _atom_site_fract_z
  _atom_site_thermal_displace_type
  _atom_site_B_iso_or_equiv
  _atom_site_type_symbol
  Tl1      1.0000 0.12715  0.01482  0.12094  Biso   1.000  Tl
  Hf1      1.0000 0.13523  0.23308  0.37750  Biso   1.000  Hf
  Hf2      1.0000 0.36537  0.26664  0.12753  Biso   1.000  Hf
  Hf3      1.0000 0.36529  0.48352  0.37634  Biso   1.000  Hf
  Hf4      1.0000 0.03176  0.19280  0.20083  Biso   1.000  Hf
  Hf5      1.0000 0.03578  0.06554  0.44510  Biso   1.000  Hf
  Hf6      1.0000 0.46426  0.43377  0.19561  Biso   1.000  Hf
  Hf7      1.0000 0.46349  0.31550  0.44442  Biso   1.000  Hf
  Hf8      1.0000 0.27854  0.12534  0.25486  Biso   1.000  Hf
  Hf9      1.0000 0.27043  0.13117  0.50193  Biso   1.000  Hf
  Hf10     1.0000 0.22989  0.38264  0.50040  Biso   1.000  Hf
  Hf11     1.0000 0.22810  0.36938  0.25054  Biso   1.000  Hf
  Hf12     1.0000 0.13370  0.01712  0.62810  Biso   1.000  Hf
  Hf13     1.0000 0.13426  0.23550  0.87361  Biso   1.000  Hf
  Hf14     1.0000 0.36653  0.26642  0.62590  Biso   1.000  Hf
  Hf15     1.0000 0.36605  0.48338  0.87634  Biso   1.000  Hf
  Hf16     1.0000 0.03924  0.18905  0.68767  Biso   1.000  Hf
  Hf17     1.0000 0.03603  0.06765  0.91867  Biso   1.000  Hf
  Hf18     1.0000 0.46428  0.43406  0.69481  Biso   1.000  Hf
  Hf19     1.0000 0.46467  0.31591  0.94380  Biso   1.000  Hf
  Hf20     1.0000 0.27304  0.11879  0.74893  Biso   1.000  Hf
  Hf21     1.0000 0.27561  0.13558  0.99481  Biso   1.000  Hf
  Hf22     1.0000 0.23010  0.38278  0.00008  Biso   1.000  Hf
  Hf23     1.0000 0.23033  0.36885  0.74921  Biso   1.000  Hf
  Hf24     1.0000 0.13438  0.51609  0.12635  Biso   1.000  Hf
  Hf25     1.0000 0.13474  0.73378  0.37666  Biso   1.000  Hf
  Hf26     1.0000 0.36723  0.76472  0.12642  Biso   1.000  Hf
  Hf27     1.0000 0.36425  0.98345  0.37513  Biso   1.000  Hf
  Hf28     1.0000 0.03653  0.68473  0.19458  Biso   1.000  Hf
  Hf29     1.0000 0.03588  0.56539  0.44557  Biso   1.000  Hf
  Hf30     1.0000 0.46525  0.93419  0.19423  Biso   1.000  Hf
  Hf31     1.0000 0.46485  0.81637  0.44702  Biso   1.000  Hf
  Hf32     1.0000 0.27036  0.61501  0.24989  Biso   1.000  Hf
  Hf33     1.0000 0.27064  0.63271  0.50031  Biso   1.000  Hf
  Hf34     1.0000 0.22843  0.88307  0.50163  Biso   1.000  Hf
  Hf35     1.0000 0.23860  0.85901  0.25560  Biso   1.000  Hf
  Hf36     1.0000 0.13428  0.51696  0.62630  Biso   1.000  Hf
  Hf37     1.0000 0.13476  0.73350  0.87709  Biso   1.000  Hf
  Hf38     1.0000 0.36578  0.76717  0.62649  Biso   1.000  Hf
  Hf39     1.0000 0.36694  0.98366  0.87611  Biso   1.000  Hf
  Hf40     1.0000 0.03622  0.68455  0.69488  Biso   1.000  Hf
  Hf41     1.0000 0.03578  0.56639  0.94483  Biso   1.000  Hf
  Hf42     1.0000 0.46405  0.93421  0.69469  Biso   1.000  Hf
  Hf43     1.0000 0.46550  0.81567  0.94415  Biso   1.000  Hf
  Hf44     1.0000 0.27056  0.61795  0.75031  Biso   1.000  Hf
  Hf45     1.0000 0.27103  0.63077  0.00028  Biso   1.000  Hf
  Hf46     1.0000 0.23473  0.87674  0.99767  Biso   1.000  Hf
  Hf47     1.0000 0.22923  0.86818  0.75011  Biso   1.000  Hf
  Hf48     1.0000 0.63455  0.01563  0.12592  Biso   1.000  Hf
  Hf49     1.0000 0.63316  0.23327  0.37516  Biso   1.000  Hf
  Hf50     1.0000 0.86322  0.26678  0.12638  Biso   1.000  Hf
  Hf51     1.0000 0.86580  0.48390  0.37653  Biso   1.000  Hf
  Hf52     1.0000 0.53862  0.18540  0.19162  Biso   1.000  Hf
  Hf53     1.0000 0.53574  0.06576  0.44418  Biso   1.000  Hf
  Hf54     1.0000 0.96231  0.43620  0.19434  Biso   1.000  Hf
  Hf55     1.0000 0.96379  0.31735  0.44488  Biso   1.000  Hf
  Hf56     1.0000 0.76882  0.11744  0.25092  Biso   1.000  Hf
  Hf57     1.0000 0.76941  0.13340  0.49983  Biso   1.000  Hf
  Hf58     1.0000 0.72913  0.38274  0.49983  Biso   1.000  Hf
  Hf59     1.0000 0.72901  0.36823  0.25046  Biso   1.000  Hf
  Hf60     1.0000 0.63320  0.01659  0.62534  Biso   1.000  Hf
  Hf61     1.0000 0.63476  0.23281  0.87590  Biso   1.000  Hf
  Hf62     1.0000 0.86567  0.26707  0.62488  Biso   1.000  Hf
  Hf63     1.0000 0.86602  0.48321  0.87648  Biso   1.000  Hf
  Hf64     1.0000 0.53683  0.18458  0.69425  Biso   1.000  Hf
  Hf65     1.0000 0.53883  0.06473  0.94273  Biso   1.000  Hf
  Hf66     1.0000 0.96430  0.43484  0.69567  Biso   1.000  Hf
  Hf67     1.0000 0.96452  0.31674  0.94603  Biso   1.000  Hf
  Hf68     1.0000 0.77074  0.11770  0.74861  Biso   1.000  Hf
  Hf69     1.0000 0.77294  0.13116  0.99957  Biso   1.000  Hf
  Hf70     1.0000 0.72867  0.38199  0.99968  Biso   1.000  Hf
  Hf71     1.0000 0.72997  0.36752  0.75003  Biso   1.000  Hf
  Hf72     1.0000 0.63379  0.51588  0.12668  Biso   1.000  Hf
  Hf73     1.0000 0.63330  0.73360  0.37704  Biso   1.000  Hf
  Hf74     1.0000 0.86457  0.76481  0.12596  Biso   1.000  Hf
  Hf75     1.0000 0.86510  0.98392  0.37828  Biso   1.000  Hf
  Hf76     1.0000 0.53688  0.68291  0.19617  Biso   1.000  Hf
  Hf77     1.0000 0.53565  0.56555  0.44527  Biso   1.000  Hf
  Hf78     1.0000 0.95123  0.93214  0.19750  Biso   1.000  Hf
  Hf79     1.0000 0.96361  0.81495  0.44477  Biso   1.000  Hf
  Hf80     1.0000 0.77048  0.61724  0.24993  Biso   1.000  Hf
  Hf81     1.0000 0.76992  0.63229  0.49978  Biso   1.000  Hf
  Hf82     1.0000 0.72913  0.88225  0.50037  Biso   1.000  Hf
  Hf83     1.0000 0.72696  0.86662  0.25062  Biso   1.000  Hf
  Hf84     1.0000 0.63376  0.51619  0.62631  Biso   1.000  Hf
  Hf85     1.0000 0.63426  0.73291  0.87580  Biso   1.000  Hf
  Hf86     1.0000 0.86599  0.76564  0.62542  Biso   1.000  Hf
  Hf87     1.0000 0.86393  0.98185  0.87349  Biso   1.000  Hf
  Hf88     1.0000 0.53569  0.68356  0.69499  Biso   1.000  Hf
  Hf89     1.0000 0.53561  0.56580  0.94583  Biso   1.000  Hf
  Hf90     1.0000 0.96131  0.93417  0.69017  Biso   1.000  Hf
  Hf91     1.0000 0.96435  0.81642  0.94530  Biso   1.000  Hf
  Hf92     1.0000 0.77059  0.61698  0.74968  Biso   1.000  Hf
  Hf93     1.0000 0.77000  0.63084  0.99940  Biso   1.000  Hf
  Hf94     1.0000 0.72858  0.88018  0.00010  Biso   1.000  Hf
  Hf95     1.0000 0.72879  0.86681  0.74924  Biso   1.000  Hf
