data_image0
_cell_length_a       10.0314
_cell_length_b       10.2236
_cell_length_c       10.0314
_cell_angle_alpha    89.9998
_cell_angle_beta     89.9999
_cell_angle_gamma    90

_symmetry_space_group_name_H-M    "P 1"
_symmetry_int_tables_number       1

loop_
  _symmetry_equiv_pos_as_xyz
  'x, y, z'

loop_
  _atom_site_label
  _atom_site_occupancy
  _atom_site_fract_x
  _atom_site_fract_y
  _atom_site_fract_z
  _atom_site_thermal_displace_type
  _atom_site_B_iso_or_equiv
  _atom_site_type_symbol
  Tl1      1.0000 0.12491  0.00005  0.12491  Biso   1.000  Tl
  Hf1      1.0000 0.12468  0.25165  0.37546  Biso   1.000  Hf
  Hf2      1.0000 0.37546  0.25166  0.12468  Biso   1.000  Hf
  Hf3      1.0000 0.37479  0.00128  0.37479  Biso   1.000  Hf
  Hf4      1.0000 0.99079  0.15336  0.99079  Biso   1.000  Hf
  Hf5      1.0000 0.99557  0.10989  0.25425  Biso   1.000  Hf
  Hf6      1.0000 0.00130  0.35340  0.24852  Biso   1.000  Hf
  Hf7      1.0000 0.99927  0.39969  0.99927  Biso   1.000  Hf
  Hf8      1.0000 0.25903  0.15336  0.25903  Biso   1.000  Hf
  Hf9      1.0000 0.25425  0.10988  0.99557  Biso   1.000  Hf
  Hf10     1.0000 0.24852  0.35340  0.00130  Biso   1.000  Hf
  Hf11     1.0000 0.25055  0.39969  0.25055  Biso   1.000  Hf
  Hf12     1.0000 0.12491  0.00005  0.62491  Biso   1.000  Hf
  Hf13     1.0000 0.12513  0.25165  0.87435  Biso   1.000  Hf
  Hf14     1.0000 0.37499  0.24909  0.62531  Biso   1.000  Hf
  Hf15     1.0000 0.37479  0.99883  0.87502  Biso   1.000  Hf
  Hf16     1.0000 0.00198  0.14905  0.50120  Biso   1.000  Hf
  Hf17     1.0000 0.99781  0.10107  0.74739  Biso   1.000  Hf
  Hf18     1.0000 0.99912  0.35228  0.74830  Biso   1.000  Hf
  Hf19     1.0000 0.00092  0.39865  0.49850  Biso   1.000  Hf
  Hf20     1.0000 0.24784  0.14905  0.74862  Biso   1.000  Hf
  Hf21     1.0000 0.25200  0.10106  0.50242  Biso   1.000  Hf
  Hf22     1.0000 0.25070  0.35228  0.50152  Biso   1.000  Hf
  Hf23     1.0000 0.24890  0.39865  0.75132  Biso   1.000  Hf
  Hf24     1.0000 0.12491  0.50005  0.12491  Biso   1.000  Hf
  Hf25     1.0000 0.12513  0.74845  0.37546  Biso   1.000  Hf
  Hf26     1.0000 0.37546  0.74845  0.12513  Biso   1.000  Hf
  Hf27     1.0000 0.37580  0.49958  0.37581  Biso   1.000  Hf
  Hf28     1.0000 0.00130  0.64671  0.00130  Biso   1.000  Hf
  Hf29     1.0000 0.99926  0.60042  0.25055  Biso   1.000  Hf
  Hf30     1.0000 0.99079  0.84675  0.25902  Biso   1.000  Hf
  Hf31     1.0000 0.99557  0.89022  0.99556  Biso   1.000  Hf
  Hf32     1.0000 0.24852  0.64671  0.24852  Biso   1.000  Hf
  Hf33     1.0000 0.25055  0.60042  0.99927  Biso   1.000  Hf
  Hf34     1.0000 0.25902  0.84674  0.99079  Biso   1.000  Hf
  Hf35     1.0000 0.25425  0.89022  0.25425  Biso   1.000  Hf
  Hf36     1.0000 0.12491  0.50005  0.62491  Biso   1.000  Hf
  Hf37     1.0000 0.12468  0.74845  0.87436  Biso   1.000  Hf
  Hf38     1.0000 0.37499  0.75101  0.62451  Biso   1.000  Hf
  Hf39     1.0000 0.37581  0.50052  0.87401  Biso   1.000  Hf
  Hf40     1.0000 0.99912  0.64783  0.50152  Biso   1.000  Hf
  Hf41     1.0000 0.00091  0.60146  0.75133  Biso   1.000  Hf
  Hf42     1.0000 0.00198  0.85106  0.74862  Biso   1.000  Hf
  Hf43     1.0000 0.99781  0.89904  0.50242  Biso   1.000  Hf
  Hf44     1.0000 0.25070  0.64783  0.74830  Biso   1.000  Hf
  Hf45     1.0000 0.24890  0.60146  0.49850  Biso   1.000  Hf
  Hf46     1.0000 0.24784  0.85106  0.50120  Biso   1.000  Hf
  Hf47     1.0000 0.25200  0.89904  0.74740  Biso   1.000  Hf
  Hf48     1.0000 0.62491  0.00005  0.12491  Biso   1.000  Hf
  Hf49     1.0000 0.62531  0.24909  0.37499  Biso   1.000  Hf
  Hf50     1.0000 0.87436  0.25166  0.12513  Biso   1.000  Hf
  Hf51     1.0000 0.87503  0.99883  0.37479  Biso   1.000  Hf
  Hf52     1.0000 0.50120  0.14905  0.00198  Biso   1.000  Hf
  Hf53     1.0000 0.50242  0.10107  0.25200  Biso   1.000  Hf
  Hf54     1.0000 0.50151  0.35228  0.25070  Biso   1.000  Hf
  Hf55     1.0000 0.49850  0.39865  0.00092  Biso   1.000  Hf
  Hf56     1.0000 0.74862  0.14905  0.24784  Biso   1.000  Hf
  Hf57     1.0000 0.74739  0.10106  0.99781  Biso   1.000  Hf
  Hf58     1.0000 0.74830  0.35228  0.99912  Biso   1.000  Hf
  Hf59     1.0000 0.75133  0.39865  0.24890  Biso   1.000  Hf
  Hf60     1.0000 0.62491  0.00005  0.62491  Biso   1.000  Hf
  Hf61     1.0000 0.62451  0.24910  0.87483  Biso   1.000  Hf
  Hf62     1.0000 0.87483  0.24909  0.62451  Biso   1.000  Hf
  Hf63     1.0000 0.87503  0.00128  0.87502  Biso   1.000  Hf
  Hf64     1.0000 0.50172  0.14855  0.50172  Biso   1.000  Hf
  Hf65     1.0000 0.49930  0.10166  0.75051  Biso   1.000  Hf
  Hf66     1.0000 0.49881  0.35207  0.75100  Biso   1.000  Hf
  Hf67     1.0000 0.50057  0.39787  0.50057  Biso   1.000  Hf
  Hf68     1.0000 0.74810  0.14855  0.74810  Biso   1.000  Hf
  Hf69     1.0000 0.75052  0.10166  0.49930  Biso   1.000  Hf
  Hf70     1.0000 0.75101  0.35207  0.49881  Biso   1.000  Hf
  Hf71     1.0000 0.74925  0.39787  0.74925  Biso   1.000  Hf
  Hf72     1.0000 0.62491  0.50005  0.12491  Biso   1.000  Hf
  Hf73     1.0000 0.62451  0.75101  0.37499  Biso   1.000  Hf
  Hf74     1.0000 0.87435  0.74845  0.12468  Biso   1.000  Hf
  Hf75     1.0000 0.87401  0.50053  0.37581  Biso   1.000  Hf
  Hf76     1.0000 0.50152  0.64783  0.99912  Biso   1.000  Hf
  Hf77     1.0000 0.49849  0.60146  0.24890  Biso   1.000  Hf
  Hf78     1.0000 0.50120  0.85106  0.24784  Biso   1.000  Hf
  Hf79     1.0000 0.50242  0.89905  0.99781  Biso   1.000  Hf
  Hf80     1.0000 0.74830  0.64783  0.25070  Biso   1.000  Hf
  Hf81     1.0000 0.75132  0.60146  0.00092  Biso   1.000  Hf
  Hf82     1.0000 0.74862  0.85106  0.00198  Biso   1.000  Hf
  Hf83     1.0000 0.74740  0.89904  0.25200  Biso   1.000  Hf
  Hf84     1.0000 0.62491  0.50005  0.62491  Biso   1.000  Hf
  Hf85     1.0000 0.62531  0.75101  0.87483  Biso   1.000  Hf
  Hf86     1.0000 0.87483  0.75102  0.62531  Biso   1.000  Hf
  Hf87     1.0000 0.87401  0.49958  0.87401  Biso   1.000  Hf
  Hf88     1.0000 0.49881  0.64804  0.49882  Biso   1.000  Hf
  Hf89     1.0000 0.50056  0.60223  0.74925  Biso   1.000  Hf
  Hf90     1.0000 0.50172  0.85156  0.74810  Biso   1.000  Hf
  Hf91     1.0000 0.49930  0.89845  0.49930  Biso   1.000  Hf
  Hf92     1.0000 0.75100  0.64804  0.75100  Biso   1.000  Hf
  Hf93     1.0000 0.74925  0.60224  0.50057  Biso   1.000  Hf
  Hf94     1.0000 0.74810  0.85156  0.50172  Biso   1.000  Hf
  Hf95     1.0000 0.75051  0.89845  0.75051  Biso   1.000  Hf
