data_image0
_cell_length_a       10.0429
_cell_length_b       10.0551
_cell_length_c       5.08486
_cell_angle_alpha    90.0001
_cell_angle_beta     89.9986
_cell_angle_gamma    89.9997

_symmetry_space_group_name_H-M    "P 1"
_symmetry_int_tables_number       1

loop_
  _symmetry_equiv_pos_as_xyz
  'x, y, z'

loop_
  _atom_site_label
  _atom_site_occupancy
  _atom_site_fract_x
  _atom_site_fract_y
  _atom_site_fract_z
  _atom_site_thermal_displace_type
  _atom_site_B_iso_or_equiv
  _atom_site_type_symbol
  Hf1      1.0000 0.12487  0.98822  0.24982  Biso   1.000  Hf
  Hf2      1.0000 0.12487  0.25009  0.74982  Biso   1.000  Hf
  Hf3      1.0000 0.39242  0.25008  0.24982  Biso   1.000  Hf
  Hf4      1.0000 0.37265  0.00009  0.74863  Biso   1.000  Hf
  Hf5      1.0000 0.00583  0.12873  0.98512  Biso   1.000  Hf
  Hf6      1.0000 0.99908  0.12522  0.46848  Biso   1.000  Hf
  Hf7      1.0000 0.00582  0.37142  0.51452  Biso   1.000  Hf
  Hf8      1.0000 0.99910  0.37493  0.03117  Biso   1.000  Hf
  Hf9      1.0000 0.24392  0.12873  0.51451  Biso   1.000  Hf
  Hf10     1.0000 0.25067  0.12522  0.03115  Biso   1.000  Hf
  Hf11     1.0000 0.24393  0.37142  0.98511  Biso   1.000  Hf
  Hf12     1.0000 0.25065  0.37492  0.46846  Biso   1.000  Hf
  Hf13     1.0000 0.12488  0.51193  0.24983  Biso   1.000  Hf
  Hf14     1.0000 0.12487  0.75008  0.74983  Biso   1.000  Hf
  Hf15     1.0000 0.37988  0.75009  0.24981  Biso   1.000  Hf
  Hf16     1.0000 0.37266  0.50009  0.75102  Biso   1.000  Hf
  Hf17     1.0000 0.00610  0.62644  0.96560  Biso   1.000  Hf
  Hf18     1.0000 0.99153  0.62357  0.46763  Biso   1.000  Hf
  Hf19     1.0000 0.00610  0.87371  0.53404  Biso   1.000  Hf
  Hf20     1.0000 0.99154  0.87658  0.03200  Biso   1.000  Hf
  Hf21     1.0000 0.24364  0.62643  0.53407  Biso   1.000  Hf
  Hf22     1.0000 0.25821  0.62357  0.03204  Biso   1.000  Hf
  Hf23     1.0000 0.24366  0.87371  0.96561  Biso   1.000  Hf
  Hf24     1.0000 0.25821  0.87658  0.46764  Biso   1.000  Hf
  Hf25     1.0000 0.62488  0.00348  0.24982  Biso   1.000  Hf
  Hf26     1.0000 0.62488  0.25008  0.74982  Biso   1.000  Hf
  Hf27     1.0000 0.85732  0.25008  0.24981  Biso   1.000  Hf
  Hf28     1.0000 0.87710  0.00009  0.75101  Biso   1.000  Hf
  Hf29     1.0000 0.49979  0.12999  0.96415  Biso   1.000  Hf
  Hf30     1.0000 0.49366  0.11215  0.47609  Biso   1.000  Hf
  Hf31     1.0000 0.49977  0.37016  0.53550  Biso   1.000  Hf
  Hf32     1.0000 0.49367  0.38801  0.02356  Biso   1.000  Hf
  Hf33     1.0000 0.74997  0.12999  0.53548  Biso   1.000  Hf
  Hf34     1.0000 0.75609  0.11215  0.02354  Biso   1.000  Hf
  Hf35     1.0000 0.74998  0.37016  0.96415  Biso   1.000  Hf
  Hf36     1.0000 0.75608  0.38801  0.47609  Biso   1.000  Hf
  Hf37     1.0000 0.62487  0.49668  0.24982  Biso   1.000  Hf
  Hf38     1.0000 0.62488  0.75010  0.74982  Biso   1.000  Hf
  Hf39     1.0000 0.86988  0.75008  0.24982  Biso   1.000  Hf
  Hf40     1.0000 0.87709  0.50009  0.74863  Biso   1.000  Hf
  Hf41     1.0000 0.50263  0.63208  0.96062  Biso   1.000  Hf
  Hf42     1.0000 0.49177  0.61487  0.46060  Biso   1.000  Hf
  Hf43     1.0000 0.50263  0.86808  0.53899  Biso   1.000  Hf
  Hf44     1.0000 0.49179  0.88528  0.03901  Biso   1.000  Hf
  Hf45     1.0000 0.74711  0.63207  0.53901  Biso   1.000  Hf
  Hf46     1.0000 0.75796  0.61488  0.03903  Biso   1.000  Hf
  Hf47     1.0000 0.74712  0.86809  0.96063  Biso   1.000  Hf
  Hf48     1.0000 0.75796  0.88528  0.46061  Biso   1.000  Hf
  V1       1.0000 0.12487  0.25007  0.24981  Biso   1.000  V 
