data_image0
_cell_length_a       10.0509
_cell_length_b       5.08815
_cell_length_c       10.0509
_cell_angle_alpha    90
_cell_angle_beta     89.998
_cell_angle_gamma    90.0003

_symmetry_space_group_name_H-M    "P 1"
_symmetry_int_tables_number       1

loop_
  _symmetry_equiv_pos_as_xyz
  'x, y, z'

loop_
  _atom_site_label
  _atom_site_occupancy
  _atom_site_fract_x
  _atom_site_fract_y
  _atom_site_fract_z
  _atom_site_thermal_displace_type
  _atom_site_B_iso_or_equiv
  _atom_site_type_symbol
  Hf1      1.0000 0.12491  0.00016  0.12491  Biso   1.000  Hf
  Hf2      1.0000 0.12491  0.50016  0.38902  Biso   1.000  Hf
  Hf3      1.0000 0.38902  0.50016  0.12491  Biso   1.000  Hf
  Hf4      1.0000 0.37239  0.99497  0.37239  Biso   1.000  Hf
  Hf5      1.0000 0.00048  0.27995  0.00047  Biso   1.000  Hf
  Hf6      1.0000 0.00467  0.23787  0.24516  Biso   1.000  Hf
  Hf7      1.0000 0.00047  0.72039  0.24936  Biso   1.000  Hf
  Hf8      1.0000 0.00467  0.76247  0.00468  Biso   1.000  Hf
  Hf9      1.0000 0.24935  0.27995  0.24935  Biso   1.000  Hf
  Hf10     1.0000 0.24516  0.23787  0.00467  Biso   1.000  Hf
  Hf11     1.0000 0.24936  0.72039  0.00046  Biso   1.000  Hf
  Hf12     1.0000 0.24516  0.76247  0.24515  Biso   1.000  Hf
  Hf13     1.0000 0.12491  0.00015  0.62491  Biso   1.000  Hf
  Hf14     1.0000 0.12492  0.50016  0.86081  Biso   1.000  Hf
  Hf15     1.0000 0.38443  0.50019  0.62492  Biso   1.000  Hf
  Hf16     1.0000 0.37239  0.00538  0.87743  Biso   1.000  Hf
  Hf17     1.0000 0.98960  0.28606  0.49864  Biso   1.000  Hf
  Hf18     1.0000 0.00794  0.21073  0.75138  Biso   1.000  Hf
  Hf19     1.0000 0.98961  0.71426  0.75119  Biso   1.000  Hf
  Hf20     1.0000 0.00793  0.78957  0.49846  Biso   1.000  Hf
  Hf21     1.0000 0.26022  0.28605  0.75119  Biso   1.000  Hf
  Hf22     1.0000 0.24189  0.21074  0.49845  Biso   1.000  Hf
  Hf23     1.0000 0.26021  0.71426  0.49863  Biso   1.000  Hf
  Hf24     1.0000 0.24190  0.78958  0.75136  Biso   1.000  Hf
  Hf25     1.0000 0.62491  0.00014  0.12491  Biso   1.000  Hf
  Hf26     1.0000 0.62492  0.50019  0.38443  Biso   1.000  Hf
  Hf27     1.0000 0.86081  0.50016  0.12492  Biso   1.000  Hf
  Hf28     1.0000 0.87743  0.00538  0.37240  Biso   1.000  Hf
  Hf29     1.0000 0.49864  0.28606  0.98960  Biso   1.000  Hf
  Hf30     1.0000 0.49844  0.21073  0.24188  Biso   1.000  Hf
  Hf31     1.0000 0.49864  0.71426  0.26022  Biso   1.000  Hf
  Hf32     1.0000 0.49846  0.78958  0.00793  Biso   1.000  Hf
  Hf33     1.0000 0.75118  0.28605  0.26023  Biso   1.000  Hf
  Hf34     1.0000 0.75138  0.21073  0.00795  Biso   1.000  Hf
  Hf35     1.0000 0.75119  0.71426  0.98961  Biso   1.000  Hf
  Hf36     1.0000 0.75137  0.78958  0.24190  Biso   1.000  Hf
  Hf37     1.0000 0.62491  0.00018  0.62491  Biso   1.000  Hf
  Hf38     1.0000 0.62491  0.50019  0.86540  Biso   1.000  Hf
  Hf39     1.0000 0.86540  0.50019  0.62491  Biso   1.000  Hf
  Hf40     1.0000 0.87744  0.99497  0.87744  Biso   1.000  Hf
  Hf41     1.0000 0.48810  0.27784  0.48810  Biso   1.000  Hf
  Hf42     1.0000 0.50355  0.21259  0.74628  Biso   1.000  Hf
  Hf43     1.0000 0.48812  0.72257  0.76171  Biso   1.000  Hf
  Hf44     1.0000 0.50354  0.78782  0.50354  Biso   1.000  Hf
  Hf45     1.0000 0.76172  0.27784  0.76173  Biso   1.000  Hf
  Hf46     1.0000 0.74628  0.21259  0.50355  Biso   1.000  Hf
  Hf47     1.0000 0.76171  0.72256  0.48812  Biso   1.000  Hf
  Hf48     1.0000 0.74629  0.78783  0.74628  Biso   1.000  Hf
  V1       1.0000 0.12491  0.50016  0.12491  Biso   1.000  V 
