data_image0
_cell_length_a       10.0018
_cell_length_b       10.1785
_cell_length_c       10.0018
_cell_angle_alpha    90
_cell_angle_beta     90
_cell_angle_gamma    90

_symmetry_space_group_name_H-M    "P 1"
_symmetry_int_tables_number       1

loop_
  _symmetry_equiv_pos_as_xyz
  'x, y, z'

loop_
  _atom_site_label
  _atom_site_occupancy
  _atom_site_fract_x
  _atom_site_fract_y
  _atom_site_fract_z
  _atom_site_thermal_displace_type
  _atom_site_B_iso_or_equiv
  _atom_site_type_symbol
  W1       1.0000 0.12491  0.00005  0.12491  Biso   1.000  W 
  Hf1      1.0000 0.12562  0.24972  0.37401  Biso   1.000  Hf
  Hf2      1.0000 0.37401  0.24972  0.12562  Biso   1.000  Hf
  Hf3      1.0000 0.37429  0.99980  0.37429  Biso   1.000  Hf
  Hf4      1.0000 0.99749  0.14386  0.99750  Biso   1.000  Hf
  Hf5      1.0000 0.00415  0.10180  0.24567  Biso   1.000  Hf
  Hf6      1.0000 0.99903  0.35260  0.25079  Biso   1.000  Hf
  Hf7      1.0000 0.00051  0.39645  0.00051  Biso   1.000  Hf
  Hf8      1.0000 0.25232  0.14386  0.25232  Biso   1.000  Hf
  Hf9      1.0000 0.24566  0.10180  0.00415  Biso   1.000  Hf
  Hf10     1.0000 0.25079  0.35260  0.99903  Biso   1.000  Hf
  Hf11     1.0000 0.24930  0.39645  0.24930  Biso   1.000  Hf
  Hf12     1.0000 0.12491  0.00005  0.62491  Biso   1.000  Hf
  Hf13     1.0000 0.12420  0.24972  0.87581  Biso   1.000  Hf
  Hf14     1.0000 0.37494  0.24973  0.62526  Biso   1.000  Hf
  Hf15     1.0000 0.37429  0.00031  0.87552  Biso   1.000  Hf
  Hf16     1.0000 0.99699  0.14743  0.49531  Biso   1.000  Hf
  Hf17     1.0000 0.00092  0.10290  0.74750  Biso   1.000  Hf
  Hf18     1.0000 0.99881  0.35239  0.75096  Biso   1.000  Hf
  Hf19     1.0000 0.00055  0.39742  0.50041  Biso   1.000  Hf
  Hf20     1.0000 0.25282  0.14743  0.75451  Biso   1.000  Hf
  Hf21     1.0000 0.24889  0.10290  0.50232  Biso   1.000  Hf
  Hf22     1.0000 0.25101  0.35239  0.49886  Biso   1.000  Hf
  Hf23     1.0000 0.24927  0.39742  0.74941  Biso   1.000  Hf
  Hf24     1.0000 0.12491  0.50005  0.12491  Biso   1.000  Hf
  Hf25     1.0000 0.12420  0.75039  0.37401  Biso   1.000  Hf
  Hf26     1.0000 0.37401  0.75039  0.12420  Biso   1.000  Hf
  Hf27     1.0000 0.37528  0.50002  0.37528  Biso   1.000  Hf
  Hf28     1.0000 0.99903  0.64751  0.99903  Biso   1.000  Hf
  Hf29     1.0000 0.00051  0.60366  0.24930  Biso   1.000  Hf
  Hf30     1.0000 0.99749  0.85625  0.25232  Biso   1.000  Hf
  Hf31     1.0000 0.00415  0.89831  0.00415  Biso   1.000  Hf
  Hf32     1.0000 0.25079  0.64750  0.25078  Biso   1.000  Hf
  Hf33     1.0000 0.24930  0.60366  0.00051  Biso   1.000  Hf
  Hf34     1.0000 0.25232  0.85625  0.99750  Biso   1.000  Hf
  Hf35     1.0000 0.24566  0.89831  0.24567  Biso   1.000  Hf
  Hf36     1.0000 0.12491  0.50005  0.62491  Biso   1.000  Hf
  Hf37     1.0000 0.12562  0.75039  0.87581  Biso   1.000  Hf
  Hf38     1.0000 0.37494  0.75038  0.62455  Biso   1.000  Hf
  Hf39     1.0000 0.37528  0.50008  0.87454  Biso   1.000  Hf
  Hf40     1.0000 0.99881  0.64772  0.49886  Biso   1.000  Hf
  Hf41     1.0000 0.00055  0.60269  0.74941  Biso   1.000  Hf
  Hf42     1.0000 0.99699  0.85267  0.75451  Biso   1.000  Hf
  Hf43     1.0000 0.00092  0.89720  0.50231  Biso   1.000  Hf
  Hf44     1.0000 0.25101  0.64772  0.75096  Biso   1.000  Hf
  Hf45     1.0000 0.24927  0.60269  0.50041  Biso   1.000  Hf
  Hf46     1.0000 0.25282  0.85268  0.49531  Biso   1.000  Hf
  Hf47     1.0000 0.24889  0.89720  0.74750  Biso   1.000  Hf
  Hf48     1.0000 0.62491  0.00005  0.12491  Biso   1.000  Hf
  Hf49     1.0000 0.62526  0.24973  0.37494  Biso   1.000  Hf
  Hf50     1.0000 0.87581  0.24972  0.12420  Biso   1.000  Hf
  Hf51     1.0000 0.87552  0.00031  0.37429  Biso   1.000  Hf
  Hf52     1.0000 0.49530  0.14743  0.99700  Biso   1.000  Hf
  Hf53     1.0000 0.50232  0.10290  0.24890  Biso   1.000  Hf
  Hf54     1.0000 0.49886  0.35239  0.25101  Biso   1.000  Hf
  Hf55     1.0000 0.50041  0.39742  0.00055  Biso   1.000  Hf
  Hf56     1.0000 0.75451  0.14743  0.25282  Biso   1.000  Hf
  Hf57     1.0000 0.74750  0.10290  0.00092  Biso   1.000  Hf
  Hf58     1.0000 0.75096  0.35239  0.99881  Biso   1.000  Hf
  Hf59     1.0000 0.74941  0.39742  0.24927  Biso   1.000  Hf
  Hf60     1.0000 0.62491  0.00005  0.62491  Biso   1.000  Hf
  Hf61     1.0000 0.62455  0.24973  0.87488  Biso   1.000  Hf
  Hf62     1.0000 0.87488  0.24973  0.62455  Biso   1.000  Hf
  Hf63     1.0000 0.87552  0.99980  0.87552  Biso   1.000  Hf
  Hf64     1.0000 0.49747  0.14725  0.49747  Biso   1.000  Hf
  Hf65     1.0000 0.50119  0.10294  0.74863  Biso   1.000  Hf
  Hf66     1.0000 0.49884  0.35307  0.75097  Biso   1.000  Hf
  Hf67     1.0000 0.50059  0.39710  0.50059  Biso   1.000  Hf
  Hf68     1.0000 0.75235  0.14725  0.75235  Biso   1.000  Hf
  Hf69     1.0000 0.74863  0.10295  0.50118  Biso   1.000  Hf
  Hf70     1.0000 0.75097  0.35307  0.49885  Biso   1.000  Hf
  Hf71     1.0000 0.74923  0.39710  0.74923  Biso   1.000  Hf
  Hf72     1.0000 0.62491  0.50005  0.12491  Biso   1.000  Hf
  Hf73     1.0000 0.62455  0.75038  0.37494  Biso   1.000  Hf
  Hf74     1.0000 0.87581  0.75039  0.12562  Biso   1.000  Hf
  Hf75     1.0000 0.87454  0.50008  0.37528  Biso   1.000  Hf
  Hf76     1.0000 0.49886  0.64772  0.99881  Biso   1.000  Hf
  Hf77     1.0000 0.50041  0.60269  0.24927  Biso   1.000  Hf
  Hf78     1.0000 0.49530  0.85268  0.25282  Biso   1.000  Hf
  Hf79     1.0000 0.50232  0.89721  0.00092  Biso   1.000  Hf
  Hf80     1.0000 0.75096  0.64772  0.25101  Biso   1.000  Hf
  Hf81     1.0000 0.74941  0.60269  0.00055  Biso   1.000  Hf
  Hf82     1.0000 0.75451  0.85268  0.99699  Biso   1.000  Hf
  Hf83     1.0000 0.74750  0.89720  0.24890  Biso   1.000  Hf
  Hf84     1.0000 0.62491  0.50005  0.62491  Biso   1.000  Hf
  Hf85     1.0000 0.62526  0.75038  0.87488  Biso   1.000  Hf
  Hf86     1.0000 0.87488  0.75038  0.62526  Biso   1.000  Hf
  Hf87     1.0000 0.87454  0.50002  0.87454  Biso   1.000  Hf
  Hf88     1.0000 0.49884  0.64704  0.49885  Biso   1.000  Hf
  Hf89     1.0000 0.50059  0.60301  0.74923  Biso   1.000  Hf
  Hf90     1.0000 0.49747  0.85286  0.75235  Biso   1.000  Hf
  Hf91     1.0000 0.50118  0.89716  0.50118  Biso   1.000  Hf
  Hf92     1.0000 0.75097  0.64704  0.75097  Biso   1.000  Hf
  Hf93     1.0000 0.74923  0.60301  0.50058  Biso   1.000  Hf
  Hf94     1.0000 0.75235  0.85286  0.49747  Biso   1.000  Hf
  Hf95     1.0000 0.74863  0.89716  0.74864  Biso   1.000  Hf
