data_image0
_cell_length_a       5.00444
_cell_length_b       10.1558
_cell_length_c       10.0091
_cell_angle_alpha    89.9998
_cell_angle_beta     90
_cell_angle_gamma    89.9998

_symmetry_space_group_name_H-M    "P 1"
_symmetry_int_tables_number       1

loop_
  _symmetry_equiv_pos_as_xyz
  'x, y, z'

loop_
  _atom_site_label
  _atom_site_occupancy
  _atom_site_fract_x
  _atom_site_fract_y
  _atom_site_fract_z
  _atom_site_thermal_displace_type
  _atom_site_B_iso_or_equiv
  _atom_site_type_symbol
  W1       1.0000 0.24981  0.00006  0.12491  Biso   1.000  W 
  Hf1      1.0000 0.25552  0.24870  0.37445  Biso   1.000  Hf
  Hf2      1.0000 0.74982  0.25451  0.12491  Biso   1.000  Hf
  Hf3      1.0000 0.74981  0.00006  0.37331  Biso   1.000  Hf
  Hf4      1.0000 0.96854  0.14458  0.99850  Biso   1.000  Hf
  Hf5      1.0000 0.04208  0.09874  0.25808  Biso   1.000  Hf
  Hf6      1.0000 0.99631  0.35199  0.24922  Biso   1.000  Hf
  Hf7      1.0000 0.00608  0.39712  0.99775  Biso   1.000  Hf
  Hf8      1.0000 0.53108  0.14458  0.25132  Biso   1.000  Hf
  Hf9      1.0000 0.45754  0.09873  0.99174  Biso   1.000  Hf
  Hf10     1.0000 0.50334  0.35199  0.00060  Biso   1.000  Hf
  Hf11     1.0000 0.49356  0.39712  0.25207  Biso   1.000  Hf
  Hf12     1.0000 0.24982  0.00006  0.62491  Biso   1.000  Hf
  Hf13     1.0000 0.24411  0.24870  0.87538  Biso   1.000  Hf
  Hf14     1.0000 0.74981  0.24833  0.62491  Biso   1.000  Hf
  Hf15     1.0000 0.74982  0.00006  0.87651  Biso   1.000  Hf
  Hf16     1.0000 0.98773  0.14632  0.49743  Biso   1.000  Hf
  Hf17     1.0000 0.01123  0.10453  0.75088  Biso   1.000  Hf
  Hf18     1.0000 0.98529  0.35508  0.74965  Biso   1.000  Hf
  Hf19     1.0000 0.01568  0.39549  0.49599  Biso   1.000  Hf
  Hf20     1.0000 0.51189  0.14632  0.75239  Biso   1.000  Hf
  Hf21     1.0000 0.48841  0.10453  0.49894  Biso   1.000  Hf
  Hf22     1.0000 0.51435  0.35508  0.50016  Biso   1.000  Hf
  Hf23     1.0000 0.48395  0.39549  0.75383  Biso   1.000  Hf
  Hf24     1.0000 0.24982  0.50006  0.12491  Biso   1.000  Hf
  Hf25     1.0000 0.24411  0.75142  0.37445  Biso   1.000  Hf
  Hf26     1.0000 0.74982  0.74561  0.12491  Biso   1.000  Hf
  Hf27     1.0000 0.74981  0.50007  0.37829  Biso   1.000  Hf
  Hf28     1.0000 0.99629  0.64812  0.00059  Biso   1.000  Hf
  Hf29     1.0000 0.00607  0.60300  0.25207  Biso   1.000  Hf
  Hf30     1.0000 0.96855  0.85554  0.25132  Biso   1.000  Hf
  Hf31     1.0000 0.04208  0.90138  0.99174  Biso   1.000  Hf
  Hf32     1.0000 0.50333  0.64813  0.24922  Biso   1.000  Hf
  Hf33     1.0000 0.49356  0.60300  0.99775  Biso   1.000  Hf
  Hf34     1.0000 0.53108  0.85553  0.99850  Biso   1.000  Hf
  Hf35     1.0000 0.45754  0.90138  0.25808  Biso   1.000  Hf
  Hf36     1.0000 0.24982  0.50005  0.62491  Biso   1.000  Hf
  Hf37     1.0000 0.25552  0.75141  0.87537  Biso   1.000  Hf
  Hf38     1.0000 0.74982  0.75179  0.62491  Biso   1.000  Hf
  Hf39     1.0000 0.74982  0.50006  0.87152  Biso   1.000  Hf
  Hf40     1.0000 0.98527  0.64504  0.50016  Biso   1.000  Hf
  Hf41     1.0000 0.01570  0.60463  0.75383  Biso   1.000  Hf
  Hf42     1.0000 0.98773  0.85380  0.75239  Biso   1.000  Hf
  Hf43     1.0000 0.01124  0.89559  0.49894  Biso   1.000  Hf
  Hf44     1.0000 0.51435  0.64504  0.74965  Biso   1.000  Hf
  Hf45     1.0000 0.48393  0.60463  0.49599  Biso   1.000  Hf
  Hf46     1.0000 0.51191  0.85380  0.49742  Biso   1.000  Hf
  Hf47     1.0000 0.48840  0.89559  0.75088  Biso   1.000  Hf
