data_image0
_cell_length_a       10.0374
_cell_length_b       10.3995
_cell_length_c       10.0846
_cell_angle_alpha    89.7922
_cell_angle_beta     90.1305
_cell_angle_gamma    90.0659

_symmetry_space_group_name_H-M    "P 1"
_symmetry_int_tables_number       1

loop_
  _symmetry_equiv_pos_as_xyz
  'x, y, z'

loop_
  _atom_site_label
  _atom_site_occupancy
  _atom_site_fract_x
  _atom_site_fract_y
  _atom_site_fract_z
  _atom_site_thermal_displace_type
  _atom_site_B_iso_or_equiv
  _atom_site_type_symbol
  Hf1      1.0000 0.13461  0.98679  0.11529  Biso   1.000  Hf
  Hf2      1.0000 0.12713  0.22908  0.39205  Biso   1.000  Hf
  Hf3      1.0000 0.37896  0.27268  0.11632  Biso   1.000  Hf
  Hf4      1.0000 0.36703  0.48458  0.37367  Biso   1.000  Hf
  Hf5      1.0000 0.97299  0.16682  0.26018  Biso   1.000  Hf
  Hf6      1.0000 0.03595  0.06212  0.46444  Biso   1.000  Hf
  Hf7      1.0000 0.46885  0.43708  0.19499  Biso   1.000  Hf
  Hf8      1.0000 0.46729  0.32047  0.44662  Biso   1.000  Hf
  Hf9      1.0000 0.23905  0.11048  0.24588  Biso   1.000  Hf
  Hf10     1.0000 0.27600  0.13176  0.49802  Biso   1.000  Hf
  Hf11     1.0000 0.23409  0.38491  0.49914  Biso   1.000  Hf
  Hf12     1.0000 0.23617  0.36719  0.25073  Biso   1.000  Hf
  Hf13     1.0000 0.13783  0.00930  0.62743  Biso   1.000  Hf
  Hf14     1.0000 0.13550  0.23590  0.85123  Biso   1.000  Hf
  Hf15     1.0000 0.37268  0.26780  0.62105  Biso   1.000  Hf
  Hf16     1.0000 0.36906  0.48732  0.87098  Biso   1.000  Hf
  Hf17     1.0000 0.03131  0.17535  0.69239  Biso   1.000  Hf
  Hf18     1.0000 0.02957  0.07441  0.95761  Biso   1.000  Hf
  Hf19     1.0000 0.47060  0.43432  0.69456  Biso   1.000  Hf
  Hf20     1.0000 0.46822  0.32044  0.93952  Biso   1.000  Hf
  Hf21     1.0000 0.27172  0.11619  0.74437  Biso   1.000  Hf
  Hf22     1.0000 0.26606  0.13518  0.99445  Biso   1.000  Hf
  Hf23     1.0000 0.23317  0.39139  0.99368  Biso   1.000  Hf
  Hf24     1.0000 0.23853  0.36865  0.74281  Biso   1.000  Hf
  Hf25     1.0000 0.13690  0.52903  0.12408  Biso   1.000  Hf
  Hf26     1.0000 0.13355  0.73468  0.37735  Biso   1.000  Hf
  Hf27     1.0000 0.37291  0.76219  0.12249  Biso   1.000  Hf
  Hf28     1.0000 0.36331  0.98787  0.36993  Biso   1.000  Hf
  Hf29     1.0000 0.03301  0.68255  0.20070  Biso   1.000  Hf
  Hf30     1.0000 0.03533  0.56925  0.44546  Biso   1.000  Hf
  Hf31     1.0000 0.45855  0.93369  0.19259  Biso   1.000  Hf
  Hf32     1.0000 0.46780  0.82107  0.44348  Biso   1.000  Hf
  Hf33     1.0000 0.27485  0.61850  0.24713  Biso   1.000  Hf
  Hf34     1.0000 0.27091  0.63409  0.49713  Biso   1.000  Hf
  Hf35     1.0000 0.23384  0.88400  0.49560  Biso   1.000  Hf
  Hf36     1.0000 0.23415  0.85764  0.24618  Biso   1.000  Hf
  Hf37     1.0000 0.13387  0.51518  0.62201  Biso   1.000  Hf
  Hf38     1.0000 0.13290  0.73312  0.86858  Biso   1.000  Hf
  Hf39     1.0000 0.37137  0.76627  0.62053  Biso   1.000  Hf
  Hf40     1.0000 0.36985  0.98527  0.87184  Biso   1.000  Hf
  Hf41     1.0000 0.03569  0.68181  0.69240  Biso   1.000  Hf
  Hf42     1.0000 0.03379  0.57202  0.94754  Biso   1.000  Hf
  Hf43     1.0000 0.46959  0.93333  0.69583  Biso   1.000  Hf
  Hf44     1.0000 0.47404  0.82155  0.94720  Biso   1.000  Hf
  Hf45     1.0000 0.26985  0.61566  0.74502  Biso   1.000  Hf
  Hf46     1.0000 0.27048  0.63731  0.99451  Biso   1.000  Hf
  Hf47     1.0000 0.23909  0.87844  0.99061  Biso   1.000  Hf
  Hf48     1.0000 0.23735  0.86347  0.74569  Biso   1.000  Hf
  Hf49     1.0000 0.62667  0.00932  0.12097  Biso   1.000  Hf
  Hf50     1.0000 0.62937  0.23086  0.37715  Biso   1.000  Hf
  Hf51     1.0000 0.84004  0.26047  0.12812  Biso   1.000  Hf
  Hf52     1.0000 0.86895  0.48152  0.37416  Biso   1.000  Hf
  Hf53     1.0000 0.52291  0.17557  0.20469  Biso   1.000  Hf
  Hf54     1.0000 0.53141  0.06719  0.44960  Biso   1.000  Hf
  Hf55     1.0000 0.96988  0.42326  0.19556  Biso   1.000  Hf
  Hf56     1.0000 0.97099  0.32806  0.46374  Biso   1.000  Hf
  Hf57     1.0000 0.74425  0.10873  0.24826  Biso   1.000  Hf
  Hf58     1.0000 0.77083  0.13829  0.49689  Biso   1.000  Hf
  Hf59     1.0000 0.73273  0.38511  0.50049  Biso   1.000  Hf
  Hf60     1.0000 0.72424  0.37003  0.25415  Biso   1.000  Hf
  Hf61     1.0000 0.63705  0.01478  0.62217  Biso   1.000  Hf
  Hf62     1.0000 0.63472  0.23364  0.87088  Biso   1.000  Hf
  Hf63     1.0000 0.86429  0.26833  0.62725  Biso   1.000  Hf
  Hf64     1.0000 0.86830  0.48112  0.87883  Biso   1.000  Hf
  Hf65     1.0000 0.53864  0.18357  0.69385  Biso   1.000  Hf
  Hf66     1.0000 0.53159  0.07199  0.94564  Biso   1.000  Hf
  Hf67     1.0000 0.97335  0.42895  0.70711  Biso   1.000  Hf
  Hf68     1.0000 0.96268  0.31460  0.94695  Biso   1.000  Hf
  Hf69     1.0000 0.77152  0.11556  0.74825  Biso   1.000  Hf
  Hf70     1.0000 0.76443  0.12922  0.99686  Biso   1.000  Hf
  Hf71     1.0000 0.72375  0.38397  0.99913  Biso   1.000  Hf
  Hf72     1.0000 0.73296  0.36831  0.75001  Biso   1.000  Hf
  Hf73     1.0000 0.63529  0.51976  0.12592  Biso   1.000  Hf
  Hf74     1.0000 0.63704  0.73711  0.37661  Biso   1.000  Hf
  Hf75     1.0000 0.86404  0.76412  0.12686  Biso   1.000  Hf
  Hf76     1.0000 0.87518  0.99751  0.36542  Biso   1.000  Hf
  Hf77     1.0000 0.53994  0.68602  0.19636  Biso   1.000  Hf
  Hf78     1.0000 0.53575  0.57028  0.44570  Biso   1.000  Hf
  Hf79     1.0000 0.96515  0.92739  0.19645  Biso   1.000  Hf
  Hf80     1.0000 0.96849  0.82217  0.44635  Biso   1.000  Hf
  Hf81     1.0000 0.77270  0.61616  0.24903  Biso   1.000  Hf
  Hf82     1.0000 0.77225  0.63519  0.49795  Biso   1.000  Hf
  Hf83     1.0000 0.73531  0.88810  0.49603  Biso   1.000  Hf
  Hf84     1.0000 0.73008  0.86497  0.24607  Biso   1.000  Hf
  Hf85     1.0000 0.63717  0.51818  0.62338  Biso   1.000  Hf
  Hf86     1.0000 0.63760  0.73376  0.87273  Biso   1.000  Hf
  Hf87     1.0000 0.86851  0.76927  0.62145  Biso   1.000  Hf
  Hf88     1.0000 0.86907  0.98445  0.87700  Biso   1.000  Hf
  Hf89     1.0000 0.53736  0.68408  0.69543  Biso   1.000  Hf
  Hf90     1.0000 0.53414  0.57162  0.94773  Biso   1.000  Hf
  Hf91     1.0000 0.97380  0.92698  0.70762  Biso   1.000  Hf
  Hf92     1.0000 0.97573  0.82267  0.95590  Biso   1.000  Hf
  Hf93     1.0000 0.77304  0.61603  0.74835  Biso   1.000  Hf
  Hf94     1.0000 0.77149  0.63317  0.99819  Biso   1.000  Hf
  Hf95     1.0000 0.73455  0.88170  0.99697  Biso   1.000  Hf
  Hf96     1.0000 0.73435  0.86674  0.74700  Biso   1.000  Hf
  Y1       1.0000 0.10765  0.25412  0.11498  Biso   1.000  Y 
