data_image0
_cell_length_a       5.10115
_cell_length_b       10.4098
_cell_length_c       10.1193
_cell_angle_alpha    89.9709
_cell_angle_beta     89.6843
_cell_angle_gamma    93.6899

_symmetry_space_group_name_H-M    "P 1"
_symmetry_int_tables_number       1

loop_
  _symmetry_equiv_pos_as_xyz
  'x, y, z'

loop_
  _atom_site_label
  _atom_site_occupancy
  _atom_site_fract_x
  _atom_site_fract_y
  _atom_site_fract_z
  _atom_site_thermal_displace_type
  _atom_site_B_iso_or_equiv
  _atom_site_type_symbol
  Hf1      1.0000 0.27402  0.97403  0.15053  Biso   1.000  Hf
  Hf2      1.0000 0.21400  0.24359  0.39104  Biso   1.000  Hf
  Hf3      1.0000 0.67589  0.26758  0.11434  Biso   1.000  Hf
  Hf4      1.0000 0.72410  0.01689  0.39385  Biso   1.000  Hf
  Hf5      1.0000 0.89719  0.18647  0.96749  Biso   1.000  Hf
  Hf6      1.0000 0.01045  0.07850  0.26143  Biso   1.000  Hf
  Hf7      1.0000 0.90749  0.31968  0.27920  Biso   1.000  Hf
  Hf8      1.0000 0.94233  0.42905  0.03532  Biso   1.000  Hf
  Hf9      1.0000 0.48139  0.14007  0.25409  Biso   1.000  Hf
  Hf10     1.0000 0.41419  0.11336  0.00283  Biso   1.000  Hf
  Hf11     1.0000 0.44193  0.37190  0.98199  Biso   1.000  Hf
  Hf12     1.0000 0.43939  0.39399  0.23583  Biso   1.000  Hf
  Hf13     1.0000 0.27100  0.97875  0.64336  Biso   1.000  Hf
  Hf14     1.0000 0.22840  0.23440  0.84370  Biso   1.000  Hf
  Hf15     1.0000 0.70215  0.26616  0.61385  Biso   1.000  Hf
  Hf16     1.0000 0.71408  0.02001  0.89618  Biso   1.000  Hf
  Hf17     1.0000 0.93245  0.15929  0.50573  Biso   1.000  Hf
  Hf18     1.0000 0.03249  0.06853  0.76723  Biso   1.000  Hf
  Hf19     1.0000 0.94106  0.33454  0.76151  Biso   1.000  Hf
  Hf20     1.0000 0.97902  0.41020  0.51175  Biso   1.000  Hf
  Hf21     1.0000 0.52256  0.13364  0.74756  Biso   1.000  Hf
  Hf22     1.0000 0.43959  0.11167  0.50314  Biso   1.000  Hf
  Hf23     1.0000 0.48099  0.36768  0.48780  Biso   1.000  Hf
  Hf24     1.0000 0.46553  0.38727  0.73535  Biso   1.000  Hf
  Hf25     1.0000 0.27844  0.53155  0.10498  Biso   1.000  Hf
  Hf26     1.0000 0.31007  0.73029  0.36243  Biso   1.000  Hf
  Hf27     1.0000 0.77735  0.76899  0.10533  Biso   1.000  Hf
  Hf28     1.0000 0.74535  0.48289  0.35251  Biso   1.000  Hf
  Hf29     1.0000 0.08387  0.68094  0.01852  Biso   1.000  Hf
  Hf30     1.0000 0.07768  0.57433  0.27649  Biso   1.000  Hf
  Hf31     1.0000 0.06405  0.82187  0.24440  Biso   1.000  Hf
  Hf32     1.0000 0.96685  0.93220  0.02054  Biso   1.000  Hf
  Hf33     1.0000 0.56578  0.63946  0.23494  Biso   1.000  Hf
  Hf34     1.0000 0.56950  0.62149  0.98271  Biso   1.000  Hf
  Hf35     1.0000 0.48615  0.86483  0.00055  Biso   1.000  Hf
  Hf36     1.0000 0.56122  0.88499  0.25377  Biso   1.000  Hf
  Hf37     1.0000 0.27315  0.51377  0.60959  Biso   1.000  Hf
  Hf38     1.0000 0.31748  0.73448  0.85522  Biso   1.000  Hf
  Hf39     1.0000 0.77723  0.76283  0.60487  Biso   1.000  Hf
  Hf40     1.0000 0.74900  0.48399  0.86157  Biso   1.000  Hf
  Hf41     1.0000 0.07759  0.66613  0.52279  Biso   1.000  Hf
  Hf42     1.0000 0.08540  0.57215  0.78105  Biso   1.000  Hf
  Hf43     1.0000 0.06387  0.82072  0.73881  Biso   1.000  Hf
  Hf44     1.0000 0.97687  0.91849  0.50997  Biso   1.000  Hf
  Hf45     1.0000 0.56955  0.63427  0.73458  Biso   1.000  Hf
  Hf46     1.0000 0.55720  0.61062  0.48494  Biso   1.000  Hf
  Hf47     1.0000 0.49028  0.86004  0.50099  Biso   1.000  Hf
  Hf48     1.0000 0.55665  0.88577  0.75085  Biso   1.000  Hf
  Yb1      1.0000 0.17404  0.24818  0.12227  Biso   1.000  Yb
