data_image0
_cell_length_a       9.99351
_cell_length_b       10.3781
_cell_length_c       10.0465
_cell_angle_alpha    89.8205
_cell_angle_beta     89.6369
_cell_angle_gamma    90.04

_symmetry_space_group_name_H-M    "P 1"
_symmetry_int_tables_number       1

loop_
  _symmetry_equiv_pos_as_xyz
  'x, y, z'

loop_
  _atom_site_label
  _atom_site_occupancy
  _atom_site_fract_x
  _atom_site_fract_y
  _atom_site_fract_z
  _atom_site_thermal_displace_type
  _atom_site_B_iso_or_equiv
  _atom_site_type_symbol
  Hf1      1.0000 0.13561  0.02025  0.11791  Biso   1.000  Hf
  Hf2      1.0000 0.13411  0.22706  0.39777  Biso   1.000  Hf
  Hf3      1.0000 0.36621  0.26528  0.12133  Biso   1.000  Hf
  Hf4      1.0000 0.36812  0.48354  0.37711  Biso   1.000  Hf
  Hf5      1.0000 0.99208  0.16355  0.25229  Biso   1.000  Hf
  Hf6      1.0000 0.03819  0.06256  0.46567  Biso   1.000  Hf
  Hf7      1.0000 0.46167  0.43343  0.19550  Biso   1.000  Hf
  Hf8      1.0000 0.46308  0.31650  0.44545  Biso   1.000  Hf
  Hf9      1.0000 0.26121  0.12002  0.25508  Biso   1.000  Hf
  Hf10     1.0000 0.27582  0.12897  0.50704  Biso   1.000  Hf
  Hf11     1.0000 0.23248  0.38167  0.50325  Biso   1.000  Hf
  Hf12     1.0000 0.22238  0.36739  0.25310  Biso   1.000  Hf
  Hf13     1.0000 0.13762  0.01479  0.63628  Biso   1.000  Hf
  Hf14     1.0000 0.13697  0.23135  0.88000  Biso   1.000  Hf
  Hf15     1.0000 0.36788  0.26737  0.63030  Biso   1.000  Hf
  Hf16     1.0000 0.36988  0.48740  0.87167  Biso   1.000  Hf
  Hf17     1.0000 0.03796  0.18419  0.69688  Biso   1.000  Hf
  Hf18     1.0000 0.04126  0.05853  0.93593  Biso   1.000  Hf
  Hf19     1.0000 0.46645  0.43451  0.69302  Biso   1.000  Hf
  Hf20     1.0000 0.46443  0.31533  0.93990  Biso   1.000  Hf
  Hf21     1.0000 0.27368  0.11890  0.75305  Biso   1.000  Hf
  Hf22     1.0000 0.29069  0.12230  0.99507  Biso   1.000  Hf
  Hf23     1.0000 0.23771  0.39392  0.99792  Biso   1.000  Hf
  Hf24     1.0000 0.23041  0.36857  0.75162  Biso   1.000  Hf
  Hf25     1.0000 0.13788  0.53143  0.12348  Biso   1.000  Hf
  Hf26     1.0000 0.13547  0.73594  0.37833  Biso   1.000  Hf
  Hf27     1.0000 0.36644  0.76859  0.12673  Biso   1.000  Hf
  Hf28     1.0000 0.36419  0.98377  0.37690  Biso   1.000  Hf
  Hf29     1.0000 0.03470  0.68411  0.19702  Biso   1.000  Hf
  Hf30     1.0000 0.03661  0.56739  0.44297  Biso   1.000  Hf
  Hf31     1.0000 0.46096  0.93535  0.19554  Biso   1.000  Hf
  Hf32     1.0000 0.46583  0.81647  0.44289  Biso   1.000  Hf
  Hf33     1.0000 0.27358  0.62043  0.24970  Biso   1.000  Hf
  Hf34     1.0000 0.27145  0.63168  0.49906  Biso   1.000  Hf
  Hf35     1.0000 0.23065  0.88181  0.50229  Biso   1.000  Hf
  Hf36     1.0000 0.22938  0.86866  0.25080  Biso   1.000  Hf
  Hf37     1.0000 0.13364  0.51566  0.62624  Biso   1.000  Hf
  Hf38     1.0000 0.13272  0.73537  0.87258  Biso   1.000  Hf
  Hf39     1.0000 0.36909  0.76523  0.62365  Biso   1.000  Hf
  Hf40     1.0000 0.37120  0.98010  0.87414  Biso   1.000  Hf
  Hf41     1.0000 0.03797  0.68552  0.69026  Biso   1.000  Hf
  Hf42     1.0000 0.03595  0.56768  0.94487  Biso   1.000  Hf
  Hf43     1.0000 0.46782  0.93278  0.69057  Biso   1.000  Hf
  Hf44     1.0000 0.46865  0.81623  0.94793  Biso   1.000  Hf
  Hf45     1.0000 0.26979  0.61745  0.74822  Biso   1.000  Hf
  Hf46     1.0000 0.27021  0.63836  0.99790  Biso   1.000  Hf
  Hf47     1.0000 0.23004  0.88152  0.00007  Biso   1.000  Hf
  Hf48     1.0000 0.23562  0.86576  0.75081  Biso   1.000  Hf
  Hf49     1.0000 0.62913  0.01129  0.12129  Biso   1.000  Hf
  Hf50     1.0000 0.63030  0.23195  0.37602  Biso   1.000  Hf
  Hf51     1.0000 0.84485  0.26181  0.12262  Biso   1.000  Hf
  Hf52     1.0000 0.86812  0.48257  0.37600  Biso   1.000  Hf
  Hf53     1.0000 0.53118  0.18311  0.19172  Biso   1.000  Hf
  Hf54     1.0000 0.53515  0.06576  0.44346  Biso   1.000  Hf
  Hf55     1.0000 0.96947  0.42290  0.18518  Biso   1.000  Hf
  Hf56     1.0000 0.96962  0.32391  0.45579  Biso   1.000  Hf
  Hf57     1.0000 0.75347  0.11336  0.24521  Biso   1.000  Hf
  Hf58     1.0000 0.77273  0.13772  0.49469  Biso   1.000  Hf
  Hf59     1.0000 0.73102  0.38403  0.49836  Biso   1.000  Hf
  Hf60     1.0000 0.72807  0.36794  0.25083  Biso   1.000  Hf
  Hf61     1.0000 0.63774  0.01568  0.62092  Biso   1.000  Hf
  Hf62     1.0000 0.63295  0.23180  0.87108  Biso   1.000  Hf
  Hf63     1.0000 0.86809  0.26709  0.62837  Biso   1.000  Hf
  Hf64     1.0000 0.86613  0.48243  0.87590  Biso   1.000  Hf
  Hf65     1.0000 0.53929  0.18429  0.69092  Biso   1.000  Hf
  Hf66     1.0000 0.54280  0.06239  0.93765  Biso   1.000  Hf
  Hf67     1.0000 0.96369  0.43661  0.69628  Biso   1.000  Hf
  Hf68     1.0000 0.95315  0.31287  0.93392  Biso   1.000  Hf
  Hf69     1.0000 0.77250  0.11589  0.74612  Biso   1.000  Hf
  Hf70     1.0000 0.77022  0.12856  0.99597  Biso   1.000  Hf
  Hf71     1.0000 0.72291  0.38019  0.00079  Biso   1.000  Hf
  Hf72     1.0000 0.72898  0.36888  0.74878  Biso   1.000  Hf
  Hf73     1.0000 0.63122  0.51832  0.12693  Biso   1.000  Hf
  Hf74     1.0000 0.63731  0.73632  0.37448  Biso   1.000  Hf
  Hf75     1.0000 0.86495  0.76559  0.12383  Biso   1.000  Hf
  Hf76     1.0000 0.87814  0.99531  0.36386  Biso   1.000  Hf
  Hf77     1.0000 0.53736  0.68567  0.19504  Biso   1.000  Hf
  Hf78     1.0000 0.53642  0.56723  0.44410  Biso   1.000  Hf
  Hf79     1.0000 0.96536  0.93225  0.18450  Biso   1.000  Hf
  Hf80     1.0000 0.96531  0.82048  0.43871  Biso   1.000  Hf
  Hf81     1.0000 0.77234  0.61491  0.24825  Biso   1.000  Hf
  Hf82     1.0000 0.77201  0.63315  0.49701  Biso   1.000  Hf
  Hf83     1.0000 0.73465  0.88679  0.49445  Biso   1.000  Hf
  Hf84     1.0000 0.73133  0.86662  0.24588  Biso   1.000  Hf
  Hf85     1.0000 0.63703  0.51706  0.62435  Biso   1.000  Hf
  Hf86     1.0000 0.63700  0.73277  0.87426  Biso   1.000  Hf
  Hf87     1.0000 0.86815  0.76874  0.62040  Biso   1.000  Hf
  Hf88     1.0000 0.86695  0.98108  0.87289  Biso   1.000  Hf
  Hf89     1.0000 0.53623  0.68250  0.69606  Biso   1.000  Hf
  Hf90     1.0000 0.53626  0.56731  0.94688  Biso   1.000  Hf
  Hf91     1.0000 0.96758  0.92947  0.69794  Biso   1.000  Hf
  Hf92     1.0000 0.96261  0.81289  0.94268  Biso   1.000  Hf
  Hf93     1.0000 0.77186  0.61820  0.74763  Biso   1.000  Hf
  Hf94     1.0000 0.76971  0.63034  0.99921  Biso   1.000  Hf
  Hf95     1.0000 0.73061  0.87967  0.99705  Biso   1.000  Hf
  Hf96     1.0000 0.73134  0.86689  0.74612  Biso   1.000  Hf
  Zn1      1.0000 0.09754  0.27499  0.13100  Biso   1.000  Zn
