data_image0
_cell_length_a       10.0136
_cell_length_b       5.21599
_cell_length_c       10.0779
_cell_angle_alpha    90.0846
_cell_angle_beta     88.8751
_cell_angle_gamma    90.0733

_symmetry_space_group_name_H-M    "P 1"
_symmetry_int_tables_number       1

loop_
  _symmetry_equiv_pos_as_xyz
  'x, y, z'

loop_
  _atom_site_label
  _atom_site_occupancy
  _atom_site_fract_x
  _atom_site_fract_y
  _atom_site_fract_z
  _atom_site_thermal_displace_type
  _atom_site_B_iso_or_equiv
  _atom_site_type_symbol
  Hf1      1.0000 0.12903  0.10425  0.11421  Biso   1.000  Hf
  Hf2      1.0000 0.13734  0.45214  0.39717  Biso   1.000  Hf
  Hf3      1.0000 0.37209  0.52957  0.12396  Biso   1.000  Hf
  Hf4      1.0000 0.36636  0.96163  0.37813  Biso   1.000  Hf
  Hf5      1.0000 0.99467  0.30739  0.24684  Biso   1.000  Hf
  Hf6      1.0000 0.03993  0.12253  0.46339  Biso   1.000  Hf
  Hf7      1.0000 0.46246  0.86398  0.19739  Biso   1.000  Hf
  Hf8      1.0000 0.46724  0.63371  0.44675  Biso   1.000  Hf
  Hf9      1.0000 0.26512  0.23026  0.25243  Biso   1.000  Hf
  Hf10     1.0000 0.27745  0.25576  0.50558  Biso   1.000  Hf
  Hf11     1.0000 0.23308  0.75924  0.50801  Biso   1.000  Hf
  Hf12     1.0000 0.23218  0.71035  0.26159  Biso   1.000  Hf
  Hf13     1.0000 0.13735  0.02889  0.63552  Biso   1.000  Hf
  Hf14     1.0000 0.13317  0.47004  0.87470  Biso   1.000  Hf
  Hf15     1.0000 0.37042  0.53330  0.62909  Biso   1.000  Hf
  Hf16     1.0000 0.37104  0.97096  0.87423  Biso   1.000  Hf
  Hf17     1.0000 0.03990  0.37446  0.69066  Biso   1.000  Hf
  Hf18     1.0000 0.03560  0.12881  0.93337  Biso   1.000  Hf
  Hf19     1.0000 0.46864  0.86718  0.69261  Biso   1.000  Hf
  Hf20     1.0000 0.46754  0.63560  0.94391  Biso   1.000  Hf
  Hf21     1.0000 0.27189  0.23782  0.75155  Biso   1.000  Hf
  Hf22     1.0000 0.28478  0.26798  0.99144  Biso   1.000  Hf
  Hf23     1.0000 0.23437  0.79336  0.00565  Biso   1.000  Hf
  Hf24     1.0000 0.23494  0.73681  0.75571  Biso   1.000  Hf
  Hf25     1.0000 0.62942  0.02332  0.12326  Biso   1.000  Hf
  Hf26     1.0000 0.63577  0.46692  0.37467  Biso   1.000  Hf
  Hf27     1.0000 0.85189  0.51667  0.11874  Biso   1.000  Hf
  Hf28     1.0000 0.88050  0.98469  0.36565  Biso   1.000  Hf
  Hf29     1.0000 0.53379  0.36526  0.19447  Biso   1.000  Hf
  Hf30     1.0000 0.53589  0.13240  0.44306  Biso   1.000  Hf
  Hf31     1.0000 0.97159  0.84702  0.17905  Biso   1.000  Hf
  Hf32     1.0000 0.97049  0.64668  0.44588  Biso   1.000  Hf
  Hf33     1.0000 0.75728  0.21841  0.24417  Biso   1.000  Hf
  Hf34     1.0000 0.77427  0.27365  0.49208  Biso   1.000  Hf
  Hf35     1.0000 0.73625  0.77428  0.49340  Biso   1.000  Hf
  Hf36     1.0000 0.73299  0.72711  0.24603  Biso   1.000  Hf
  Hf37     1.0000 0.63795  0.03123  0.61876  Biso   1.000  Hf
  Hf38     1.0000 0.63495  0.46213  0.87041  Biso   1.000  Hf
  Hf39     1.0000 0.86958  0.53736  0.62100  Biso   1.000  Hf
  Hf40     1.0000 0.86299  0.95986  0.87009  Biso   1.000  Hf
  Hf41     1.0000 0.53786  0.36514  0.69382  Biso   1.000  Hf
  Hf42     1.0000 0.53945  0.13156  0.94372  Biso   1.000  Hf
  Hf43     1.0000 0.96587  0.86531  0.69580  Biso   1.000  Hf
  Hf44     1.0000 0.95131  0.62578  0.92987  Biso   1.000  Hf
  Hf45     1.0000 0.77168  0.23272  0.74315  Biso   1.000  Hf
  Hf46     1.0000 0.76881  0.25346  0.99494  Biso   1.000  Hf
  Hf47     1.0000 0.72458  0.75357  0.99806  Biso   1.000  Hf
  Hf48     1.0000 0.72926  0.73480  0.74480  Biso   1.000  Hf
  Zn1      1.0000 0.10428  0.59697  0.12793  Biso   1.000  Zn
