data_image0
_cell_length_a       10.0105
_cell_length_b       10.2047
_cell_length_c       5.00522
_cell_angle_alpha    90.0004
_cell_angle_beta     90.0002
_cell_angle_gamma    89.9998

_symmetry_space_group_name_H-M    "P 1"
_symmetry_int_tables_number       1

loop_
  _symmetry_equiv_pos_as_xyz
  'x, y, z'

loop_
  _atom_site_label
  _atom_site_occupancy
  _atom_site_fract_x
  _atom_site_fract_y
  _atom_site_fract_z
  _atom_site_thermal_displace_type
  _atom_site_B_iso_or_equiv
  _atom_site_type_symbol
  Zr1      1.0000 0.12490  0.00005  0.24982  Biso   1.000  Zr
  Hf1      1.0000 0.12490  0.25029  0.74982  Biso   1.000  Hf
  Hf2      1.0000 0.37496  0.25015  0.24979  Biso   1.000  Hf
  Hf3      1.0000 0.37517  0.00005  0.74982  Biso   1.000  Hf
  Hf4      1.0000 0.00001  0.14807  0.00018  Biso   1.000  Hf
  Hf5      1.0000 0.99909  0.10289  0.50126  Biso   1.000  Hf
  Hf6      1.0000 0.00024  0.35240  0.49892  Biso   1.000  Hf
  Hf7      1.0000 0.99980  0.39789  0.99926  Biso   1.000  Hf
  Hf8      1.0000 0.24980  0.14807  0.49947  Biso   1.000  Hf
  Hf9      1.0000 0.25072  0.10288  0.99839  Biso   1.000  Hf
  Hf10     1.0000 0.24956  0.35240  0.00075  Biso   1.000  Hf
  Hf11     1.0000 0.25000  0.39789  0.50042  Biso   1.000  Hf
  Hf12     1.0000 0.12490  0.50006  0.24982  Biso   1.000  Hf
  Hf13     1.0000 0.12490  0.74982  0.74982  Biso   1.000  Hf
  Hf14     1.0000 0.37496  0.74996  0.24986  Biso   1.000  Hf
  Hf15     1.0000 0.37491  0.50005  0.74983  Biso   1.000  Hf
  Hf16     1.0000 0.00024  0.64771  0.00073  Biso   1.000  Hf
  Hf17     1.0000 0.99980  0.60222  0.50040  Biso   1.000  Hf
  Hf18     1.0000 0.00001  0.85203  0.49947  Biso   1.000  Hf
  Hf19     1.0000 0.99909  0.89722  0.99838  Biso   1.000  Hf
  Hf20     1.0000 0.24956  0.64771  0.49891  Biso   1.000  Hf
  Hf21     1.0000 0.25000  0.60222  0.99924  Biso   1.000  Hf
  Hf22     1.0000 0.24980  0.85203  0.00018  Biso   1.000  Hf
  Hf23     1.0000 0.25072  0.89722  0.50126  Biso   1.000  Hf
  Hf24     1.0000 0.62491  0.00005  0.24982  Biso   1.000  Hf
  Hf25     1.0000 0.62491  0.25001  0.74983  Biso   1.000  Hf
  Hf26     1.0000 0.87485  0.25015  0.24986  Biso   1.000  Hf
  Hf27     1.0000 0.87464  0.00005  0.74982  Biso   1.000  Hf
  Hf28     1.0000 0.50052  0.14796  0.00091  Biso   1.000  Hf
  Hf29     1.0000 0.49974  0.10216  0.50030  Biso   1.000  Hf
  Hf30     1.0000 0.50014  0.35220  0.49960  Biso   1.000  Hf
  Hf31     1.0000 0.49969  0.39794  0.99980  Biso   1.000  Hf
  Hf32     1.0000 0.74928  0.14796  0.49874  Biso   1.000  Hf
  Hf33     1.0000 0.75007  0.10216  0.99935  Biso   1.000  Hf
  Hf34     1.0000 0.74966  0.35220  0.00008  Biso   1.000  Hf
  Hf35     1.0000 0.75010  0.39794  0.49988  Biso   1.000  Hf
  Hf36     1.0000 0.62490  0.50005  0.24982  Biso   1.000  Hf
  Hf37     1.0000 0.62490  0.75009  0.74982  Biso   1.000  Hf
  Hf38     1.0000 0.87485  0.74996  0.24979  Biso   1.000  Hf
  Hf39     1.0000 0.87490  0.50005  0.74982  Biso   1.000  Hf
  Hf40     1.0000 0.50014  0.64791  0.00005  Biso   1.000  Hf
  Hf41     1.0000 0.49970  0.60216  0.49985  Biso   1.000  Hf
  Hf42     1.0000 0.50053  0.85214  0.49874  Biso   1.000  Hf
  Hf43     1.0000 0.49974  0.89794  0.99935  Biso   1.000  Hf
  Hf44     1.0000 0.74966  0.64791  0.49958  Biso   1.000  Hf
  Hf45     1.0000 0.75011  0.60217  0.99978  Biso   1.000  Hf
  Hf46     1.0000 0.74928  0.85215  0.00090  Biso   1.000  Hf
  Hf47     1.0000 0.75007  0.89795  0.50028  Biso   1.000  Hf
