data_image0
_cell_length_a       10.0512
_cell_length_b       5.28417
_cell_length_c       10.124
_cell_angle_alpha    89.8312
_cell_angle_beta     90.2175
_cell_angle_gamma    90.0297

_symmetry_space_group_name_H-M    "P 1"
_symmetry_int_tables_number       1

loop_
  _symmetry_equiv_pos_as_xyz
  'x, y, z'

loop_
  _atom_site_label
  _atom_site_occupancy
  _atom_site_fract_x
  _atom_site_fract_y
  _atom_site_fract_z
  _atom_site_thermal_displace_type
  _atom_site_B_iso_or_equiv
  _atom_site_type_symbol
  Zr1      1.0000 0.13920  0.13037  0.10962  Biso   1.000  Zr
  Zr2      1.0000 0.13701  0.46219  0.39165  Biso   1.000  Zr
  Zr3      1.0000 0.36585  0.52913  0.12229  Biso   1.000  Zr
  Zr4      1.0000 0.36354  0.96153  0.37449  Biso   1.000  Zr
  Zr5      1.0000 0.01503  0.39341  0.21188  Biso   1.000  Zr
  Zr6      1.0000 0.03553  0.12830  0.44779  Biso   1.000  Zr
  Zr7      1.0000 0.45682  0.86664  0.19391  Biso   1.000  Zr
  Zr8      1.0000 0.46372  0.62520  0.44371  Biso   1.000  Zr
  Zr9      1.0000 0.27363  0.24535  0.25547  Biso   1.000  Zr
  Zr10     1.0000 0.27282  0.25374  0.50292  Biso   1.000  Zr
  Zr11     1.0000 0.23146  0.75823  0.50067  Biso   1.000  Zr
  Zr12     1.0000 0.21706  0.72301  0.24868  Biso   1.000  Zr
  Zr13     1.0000 0.13506  0.02233  0.62853  Biso   1.000  Zr
  Zr14     1.0000 0.14250  0.45963  0.86833  Biso   1.000  Zr
  Zr15     1.0000 0.37106  0.52529  0.62448  Biso   1.000  Zr
  Zr16     1.0000 0.37130  0.95837  0.87192  Biso   1.000  Zr
  Zr17     1.0000 0.03864  0.35911  0.68787  Biso   1.000  Zr
  Zr18     1.0000 0.03626  0.13909  0.93118  Biso   1.000  Zr
  Zr19     1.0000 0.47282  0.85513  0.69390  Biso   1.000  Zr
  Zr20     1.0000 0.46820  0.63118  0.94386  Biso   1.000  Zr
  Zr21     1.0000 0.27243  0.22533  0.74537  Biso   1.000  Zr
  Zr22     1.0000 0.29443  0.25749  0.98450  Biso   1.000  Zr
  Zr23     1.0000 0.22585  0.78206  0.00202  Biso   1.000  Zr
  Zr24     1.0000 0.23851  0.73018  0.74767  Biso   1.000  Zr
  Zr25     1.0000 0.62550  0.02752  0.12397  Biso   1.000  Zr
  Zr26     1.0000 0.63025  0.45468  0.37856  Biso   1.000  Zr
  Zr27     1.0000 0.83531  0.52362  0.12785  Biso   1.000  Zr
  Zr28     1.0000 0.86916  0.96372  0.37371  Biso   1.000  Zr
  Zr29     1.0000 0.53624  0.36204  0.19395  Biso   1.000  Zr
  Zr30     1.0000 0.53332  0.12229  0.44548  Biso   1.000  Zr
  Zr31     1.0000 0.97119  0.87382  0.18663  Biso   1.000  Zr
  Zr32     1.0000 0.96698  0.63817  0.44922  Biso   1.000  Zr
  Zr33     1.0000 0.76353  0.22267  0.24952  Biso   1.000  Zr
  Zr34     1.0000 0.77167  0.25813  0.49757  Biso   1.000  Zr
  Zr35     1.0000 0.73277  0.75999  0.49944  Biso   1.000  Zr
  Zr36     1.0000 0.72246  0.73510  0.25307  Biso   1.000  Zr
  Zr37     1.0000 0.63942  0.02128  0.62443  Biso   1.000  Zr
  Zr38     1.0000 0.63239  0.45878  0.87051  Biso   1.000  Zr
  Zr39     1.0000 0.86791  0.52451  0.62440  Biso   1.000  Zr
  Zr40     1.0000 0.86753  0.95811  0.87708  Biso   1.000  Zr
  Zr41     1.0000 0.53953  0.35744  0.69172  Biso   1.000  Zr
  Zr42     1.0000 0.54206  0.12396  0.93928  Biso   1.000  Zr
  Zr43     1.0000 0.97193  0.84655  0.70613  Biso   1.000  Zr
  Zr44     1.0000 0.97455  0.63167  0.96943  Biso   1.000  Zr
  Zr45     1.0000 0.77498  0.22312  0.74851  Biso   1.000  Zr
  Zr46     1.0000 0.76867  0.25932  0.99799  Biso   1.000  Zr
  Zr47     1.0000 0.72777  0.75915  0.99945  Biso   1.000  Zr
  Zr48     1.0000 0.73623  0.72385  0.75042  Biso   1.000  Zr
  Al1      1.0000 0.09388  0.64644  0.11671  Biso   1.000  Al
