data_image0
_cell_length_a       10.0918
_cell_length_b       5.02496
_cell_length_c       10.092
_cell_angle_alpha    90.0009
_cell_angle_beta     90.0014
_cell_angle_gamma    89.9983

_symmetry_space_group_name_H-M    "P 1"
_symmetry_int_tables_number       1

loop_
  _symmetry_equiv_pos_as_xyz
  'x, y, z'

loop_
  _atom_site_label
  _atom_site_occupancy
  _atom_site_fract_x
  _atom_site_fract_y
  _atom_site_fract_z
  _atom_site_thermal_displace_type
  _atom_site_B_iso_or_equiv
  _atom_site_type_symbol
  Al1      1.0000 0.12518  0.00069  0.12518  Biso   1.000  Al
  Zr1      1.0000 0.12518  0.00070  0.62519  Biso   1.000  Zr
  Zr2      1.0000 0.62518  0.00068  0.12519  Biso   1.000  Zr
  Zr3      1.0000 0.62518  0.00068  0.62519  Biso   1.000  Zr
  Zr4      1.0000 0.12517  0.50068  0.37371  Biso   1.000  Zr
  Zr5      1.0000 0.12518  0.50068  0.87668  Biso   1.000  Zr
  Zr6      1.0000 0.62517  0.50068  0.37579  Biso   1.000  Zr
  Zr7      1.0000 0.62517  0.50067  0.87459  Biso   1.000  Zr
  Zr8      1.0000 0.37368  0.50068  0.12519  Biso   1.000  Zr
  Zr9      1.0000 0.37580  0.50069  0.62519  Biso   1.000  Zr
  Zr10     1.0000 0.87669  0.50066  0.12520  Biso   1.000  Zr
  Zr11     1.0000 0.87456  0.50068  0.62520  Biso   1.000  Zr
  Zr12     1.0000 0.37381  0.00364  0.37381  Biso   1.000  Zr
  Zr13     1.0000 0.37381  0.99772  0.87656  Biso   1.000  Zr
  Zr14     1.0000 0.87654  0.99771  0.37383  Biso   1.000  Zr
  Zr15     1.0000 0.87653  0.00363  0.87656  Biso   1.000  Zr
  Zr16     1.0000 0.97782  0.30083  0.97780  Biso   1.000  Zr
  Zr17     1.0000 0.98783  0.26878  0.48213  Biso   1.000  Zr
  Zr18     1.0000 0.48216  0.26881  0.98779  Biso   1.000  Zr
  Zr19     1.0000 0.48823  0.26457  0.48819  Biso   1.000  Zr
  Zr20     1.0000 0.02134  0.20593  0.22897  Biso   1.000  Zr
  Zr21     1.0000 0.00989  0.24081  0.73509  Biso   1.000  Zr
  Zr22     1.0000 0.51522  0.24076  0.24042  Biso   1.000  Zr
  Zr23     1.0000 0.51056  0.24279  0.73976  Biso   1.000  Zr
  Zr24     1.0000 0.97782  0.70051  0.27258  Biso   1.000  Zr
  Zr25     1.0000 0.98782  0.73261  0.76825  Biso   1.000  Zr
  Zr26     1.0000 0.48216  0.73255  0.26260  Biso   1.000  Zr
  Zr27     1.0000 0.48822  0.73676  0.76219  Biso   1.000  Zr
  Zr28     1.0000 0.02135  0.79540  0.02141  Biso   1.000  Zr
  Zr29     1.0000 0.00988  0.76057  0.51529  Biso   1.000  Zr
  Zr30     1.0000 0.51523  0.76058  0.00996  Biso   1.000  Zr
  Zr31     1.0000 0.51056  0.75854  0.51063  Biso   1.000  Zr
  Zr32     1.0000 0.27254  0.30089  0.27257  Biso   1.000  Zr
  Zr33     1.0000 0.26252  0.26875  0.76824  Biso   1.000  Zr
  Zr34     1.0000 0.76820  0.26879  0.26259  Biso   1.000  Zr
  Zr35     1.0000 0.76212  0.26456  0.76218  Biso   1.000  Zr
  Zr36     1.0000 0.22902  0.20592  0.02139  Biso   1.000  Zr
  Zr37     1.0000 0.24047  0.24079  0.51528  Biso   1.000  Zr
  Zr38     1.0000 0.73513  0.24079  0.00996  Biso   1.000  Zr
  Zr39     1.0000 0.73981  0.24278  0.51063  Biso   1.000  Zr
  Zr40     1.0000 0.27254  0.70051  0.97781  Biso   1.000  Zr
  Zr41     1.0000 0.26253  0.73260  0.48214  Biso   1.000  Zr
  Zr42     1.0000 0.76820  0.73256  0.98779  Biso   1.000  Zr
  Zr43     1.0000 0.76212  0.73675  0.48819  Biso   1.000  Zr
  Zr44     1.0000 0.22903  0.79548  0.22899  Biso   1.000  Zr
  Zr45     1.0000 0.24046  0.76056  0.73510  Biso   1.000  Zr
  Zr46     1.0000 0.73513  0.76058  0.24043  Biso   1.000  Zr
  Zr47     1.0000 0.73978  0.75853  0.73975  Biso   1.000  Zr
