data_image0
_cell_length_a       10.0204
_cell_length_b       10.4096
_cell_length_c       10.0586
_cell_angle_alpha    90.3543
_cell_angle_beta     89.6413
_cell_angle_gamma    90.1881

_symmetry_space_group_name_H-M    "P 1"
_symmetry_int_tables_number       1

loop_
  _symmetry_equiv_pos_as_xyz
  'x, y, z'

loop_
  _atom_site_label
  _atom_site_occupancy
  _atom_site_fract_x
  _atom_site_fract_y
  _atom_site_fract_z
  _atom_site_thermal_displace_type
  _atom_site_B_iso_or_equiv
  _atom_site_type_symbol
  Al1      1.0000 0.12509  0.03153  0.10708  Biso   1.000  Al
  Zr1      1.0000 0.13521  0.01691  0.62771  Biso   1.000  Zr
  Zr2      1.0000 0.13481  0.51368  0.12502  Biso   1.000  Zr
  Zr3      1.0000 0.13514  0.51643  0.62609  Biso   1.000  Zr
  Zr4      1.0000 0.63379  0.01613  0.12464  Biso   1.000  Zr
  Zr5      1.0000 0.63123  0.01374  0.62227  Biso   1.000  Zr
  Zr6      1.0000 0.63424  0.51654  0.12687  Biso   1.000  Zr
  Zr7      1.0000 0.63374  0.51661  0.62500  Biso   1.000  Zr
  Zr8      1.0000 0.13404  0.22858  0.37090  Biso   1.000  Zr
  Zr9      1.0000 0.13186  0.23647  0.87532  Biso   1.000  Zr
  Zr10     1.0000 0.13676  0.73291  0.37807  Biso   1.000  Zr
  Zr11     1.0000 0.13369  0.73773  0.88016  Biso   1.000  Zr
  Zr12     1.0000 0.63431  0.23284  0.37610  Biso   1.000  Zr
  Zr13     1.0000 0.63200  0.23522  0.87317  Biso   1.000  Zr
  Zr14     1.0000 0.63589  0.73636  0.37501  Biso   1.000  Zr
  Zr15     1.0000 0.63257  0.73651  0.87599  Biso   1.000  Zr
  Zr16     1.0000 0.36526  0.26080  0.12379  Biso   1.000  Zr
  Zr17     1.0000 0.36537  0.26602  0.62497  Biso   1.000  Zr
  Zr18     1.0000 0.36565  0.76458  0.12744  Biso   1.000  Zr
  Zr19     1.0000 0.36665  0.76837  0.62901  Biso   1.000  Zr
  Zr20     1.0000 0.86478  0.26513  0.12348  Biso   1.000  Zr
  Zr21     1.0000 0.86590  0.26511  0.62334  Biso   1.000  Zr
  Zr22     1.0000 0.87210  0.76845  0.12246  Biso   1.000  Zr
  Zr23     1.0000 0.86752  0.76648  0.62455  Biso   1.000  Zr
  Zr24     1.0000 0.36715  0.48252  0.37527  Biso   1.000  Zr
  Zr25     1.0000 0.36584  0.48627  0.87545  Biso   1.000  Zr
  Zr26     1.0000 0.36178  0.98326  0.37162  Biso   1.000  Zr
  Zr27     1.0000 0.35943  0.98602  0.88335  Biso   1.000  Zr
  Zr28     1.0000 0.86630  0.48414  0.37552  Biso   1.000  Zr
  Zr29     1.0000 0.86482  0.48658  0.87458  Biso   1.000  Zr
  Zr30     1.0000 0.87240  0.98530  0.37081  Biso   1.000  Zr
  Zr31     1.0000 0.86539  0.98693  0.87300  Biso   1.000  Zr
  Zr32     1.0000 0.03278  0.17789  0.18878  Biso   1.000  Zr
  Zr33     1.0000 0.03383  0.18444  0.69641  Biso   1.000  Zr
  Zr34     1.0000 0.03589  0.68290  0.19588  Biso   1.000  Zr
  Zr35     1.0000 0.03591  0.68502  0.69584  Biso   1.000  Zr
  Zr36     1.0000 0.53204  0.18194  0.19836  Biso   1.000  Zr
  Zr37     1.0000 0.53520  0.18446  0.69260  Biso   1.000  Zr
  Zr38     1.0000 0.53559  0.68322  0.19780  Biso   1.000  Zr
  Zr39     1.0000 0.53426  0.68304  0.69693  Biso   1.000  Zr
  Zr40     1.0000 0.03516  0.06665  0.44974  Biso   1.000  Zr
  Zr41     1.0000 0.03242  0.06726  0.94657  Biso   1.000  Zr
  Zr42     1.0000 0.03521  0.56448  0.44654  Biso   1.000  Zr
  Zr43     1.0000 0.03364  0.56831  0.94662  Biso   1.000  Zr
  Zr44     1.0000 0.53434  0.06613  0.44404  Biso   1.000  Zr
  Zr45     1.0000 0.52993  0.07035  0.94903  Biso   1.000  Zr
  Zr46     1.0000 0.53650  0.56702  0.44415  Biso   1.000  Zr
  Zr47     1.0000 0.53408  0.56863  0.94681  Biso   1.000  Zr
  Zr48     1.0000 0.46530  0.43125  0.19392  Biso   1.000  Zr
  Zr49     1.0000 0.46429  0.43413  0.69501  Biso   1.000  Zr
  Zr50     1.0000 0.47093  0.93052  0.19739  Biso   1.000  Zr
  Zr51     1.0000 0.46403  0.93491  0.70066  Biso   1.000  Zr
  Zr52     1.0000 0.96652  0.43095  0.19570  Biso   1.000  Zr
  Zr53     1.0000 0.96443  0.43405  0.69369  Biso   1.000  Zr
  Zr54     1.0000 0.98551  0.93666  0.18972  Biso   1.000  Zr
  Zr55     1.0000 0.96494  0.93465  0.69384  Biso   1.000  Zr
  Zr56     1.0000 0.46620  0.31696  0.44595  Biso   1.000  Zr
  Zr57     1.0000 0.46237  0.31672  0.94333  Biso   1.000  Zr
  Zr58     1.0000 0.46997  0.81899  0.45236  Biso   1.000  Zr
  Zr59     1.0000 0.46011  0.81874  0.94494  Biso   1.000  Zr
  Zr60     1.0000 0.96439  0.31400  0.44109  Biso   1.000  Zr
  Zr61     1.0000 0.96322  0.31911  0.94419  Biso   1.000  Zr
  Zr62     1.0000 0.96638  0.81680  0.44319  Biso   1.000  Zr
  Zr63     1.0000 0.96041  0.81669  0.93955  Biso   1.000  Zr
  Zr64     1.0000 0.25756  0.10271  0.24130  Biso   1.000  Zr
  Zr65     1.0000 0.27010  0.11895  0.74979  Biso   1.000  Zr
  Zr66     1.0000 0.26834  0.60827  0.24892  Biso   1.000  Zr
  Zr67     1.0000 0.26902  0.61930  0.75110  Biso   1.000  Zr
  Zr68     1.0000 0.76991  0.11613  0.24645  Biso   1.000  Zr
  Zr69     1.0000 0.76729  0.11653  0.74619  Biso   1.000  Zr
  Zr70     1.0000 0.77204  0.61638  0.24833  Biso   1.000  Zr
  Zr71     1.0000 0.76875  0.61798  0.74881  Biso   1.000  Zr
  Zr72     1.0000 0.27041  0.13313  0.49642  Biso   1.000  Zr
  Zr73     1.0000 0.26034  0.13468  0.99991  Biso   1.000  Zr
  Zr74     1.0000 0.27225  0.63269  0.50042  Biso   1.000  Zr
  Zr75     1.0000 0.26802  0.63475  0.99997  Biso   1.000  Zr
  Zr76     1.0000 0.77040  0.13274  0.49623  Biso   1.000  Zr
  Zr77     1.0000 0.76686  0.13521  0.99604  Biso   1.000  Zr
  Zr78     1.0000 0.76936  0.63411  0.49873  Biso   1.000  Zr
  Zr79     1.0000 0.76873  0.63568  0.99910  Biso   1.000  Zr
  Zr80     1.0000 0.22983  0.38184  0.49769  Biso   1.000  Zr
  Zr81     1.0000 0.23026  0.38423  0.99785  Biso   1.000  Zr
  Zr82     1.0000 0.23078  0.88308  0.50499  Biso   1.000  Zr
  Zr83     1.0000 0.22170  0.89233  0.01471  Biso   1.000  Zr
  Zr84     1.0000 0.73101  0.38324  0.49866  Biso   1.000  Zr
  Zr85     1.0000 0.72897  0.38464  0.99773  Biso   1.000  Zr
  Zr86     1.0000 0.73464  0.88489  0.49571  Biso   1.000  Zr
  Zr87     1.0000 0.72916  0.88544  0.99673  Biso   1.000  Zr
  Zr88     1.0000 0.23189  0.36024  0.24709  Biso   1.000  Zr
  Zr89     1.0000 0.22949  0.36873  0.74840  Biso   1.000  Zr
  Zr90     1.0000 0.24689  0.85000  0.26243  Biso   1.000  Zr
  Zr91     1.0000 0.22905  0.86962  0.75576  Biso   1.000  Zr
  Zr92     1.0000 0.73010  0.36622  0.24825  Biso   1.000  Zr
  Zr93     1.0000 0.73009  0.36762  0.74772  Biso   1.000  Zr
  Zr94     1.0000 0.73907  0.86713  0.24583  Biso   1.000  Zr
  Zr95     1.0000 0.72927  0.86652  0.74628  Biso   1.000  Zr
