data_image0
_cell_length_a       10.2622
_cell_length_b       5.21938
_cell_length_c       10.5613
_cell_angle_alpha    90.189
_cell_angle_beta     79.1342
_cell_angle_gamma    90.3452

_symmetry_space_group_name_H-M    "P 1"
_symmetry_int_tables_number       1

loop_
  _symmetry_equiv_pos_as_xyz
  'x, y, z'

loop_
  _atom_site_label
  _atom_site_occupancy
  _atom_site_fract_x
  _atom_site_fract_y
  _atom_site_fract_z
  _atom_site_thermal_displace_type
  _atom_site_B_iso_or_equiv
  _atom_site_type_symbol
  Zr1      1.0000 0.13477  0.04970  0.14133  Biso   1.000  Zr
  Zr2      1.0000 0.13113  0.46105  0.39572  Biso   1.000  Zr
  Zr3      1.0000 0.35392  0.54728  0.09958  Biso   1.000  Zr
  Zr4      1.0000 0.34873  0.89627  0.34087  Biso   1.000  Zr
  O1       1.0000 0.03087  0.34906  0.07939  Biso   1.000  O
  O2       1.0000 0.03334  0.16914  0.32639  Biso   1.000  O
  O3       1.0000 0.46304  0.84812  0.16032  Biso   1.000  O
  O4       1.0000 0.47471  0.64286  0.42267  Biso   1.000  O
  O5       1.0000 0.28175  0.23264  0.23995  Biso   1.000  O
  O6       1.0000 0.28892  0.25429  0.48010  Biso   1.000  O
  O7       1.0000 0.22083  0.76727  0.00463  Biso   1.000  O
  O8       1.0000 0.19735  0.74433  0.24919  Biso   1.000  O
  Zr5      1.0000 0.14036  0.04540  0.64387  Biso   1.000  Zr
  Zr6      1.0000 0.13514  0.46270  0.89543  Biso   1.000  Zr
  Zr7      1.0000 0.36379  0.54675  0.61501  Biso   1.000  Zr
  Zr8      1.0000 0.35979  0.96118  0.85564  Biso   1.000  Zr
  O9       1.0000 0.03800  0.34046  0.58082  Biso   1.000  O
  O10      1.0000 0.03573  0.16433  0.82936  Biso   1.000  O
  O11      1.0000 0.46718  0.84298  0.67167  Biso   1.000  O
  O12      1.0000 0.46351  0.66392  0.91794  Biso   1.000  O
  O13      1.0000 0.27561  0.25892  0.73911  Biso   1.000  O
  O14      1.0000 0.27280  0.24957  0.98894  Biso   1.000  O
  O15      1.0000 0.22671  0.75194  0.51265  Biso   1.000  O
  O16      1.0000 0.22359  0.74768  0.75968  Biso   1.000  O
  Zr9      1.0000 0.63838  0.04627  0.14499  Biso   1.000  Zr
  Zr10     1.0000 0.65762  0.46017  0.40548  Biso   1.000  Zr
  Zr11     1.0000 0.85788  0.54835  0.10596  Biso   1.000  Zr
  Zr12     1.0000 0.86232  0.95795  0.35388  Biso   1.000  Zr
  O17      1.0000 0.53244  0.34815  0.08744  Biso   1.000  O
  O18      1.0000 0.52664  0.16873  0.33108  Biso   1.000  O
  O19      1.0000 0.95824  0.85118  0.16682  Biso   1.000  O
  O20      1.0000 0.96207  0.67022  0.42388  Biso   1.000  O
  O21      1.0000 0.77187  0.26077  0.24537  Biso   1.000  O
  O22      1.0000 0.78319  0.23987  0.49621  Biso   1.000  O
  O23      1.0000 0.72242  0.76190  0.01235  Biso   1.000  O
  O24      1.0000 0.71964  0.74770  0.26399  Biso   1.000  O
  Zr13     1.0000 0.64127  0.04710  0.65192  Biso   1.000  Zr
  Zr14     1.0000 0.63672  0.46225  0.90018  Biso   1.000  Zr
  Zr15     1.0000 0.86334  0.54805  0.61087  Biso   1.000  Zr
  Zr16     1.0000 0.86100  0.96194  0.85745  Biso   1.000  Zr
  O25      1.0000 0.54026  0.34043  0.58485  Biso   1.000  O
  O26      1.0000 0.53473  0.16535  0.83452  Biso   1.000  O
  O27      1.0000 0.96719  0.84141  0.67238  Biso   1.000  O
  O28      1.0000 0.96164  0.66454  0.91971  Biso   1.000  O
  O29      1.0000 0.77688  0.26364  0.74544  Biso   1.000  O
  O30      1.0000 0.77327  0.24632  0.99417  Biso   1.000  O
  O31      1.0000 0.72544  0.75813  0.51515  Biso   1.000  O
  O32      1.0000 0.72527  0.74717  0.76370  Biso   1.000  O
  Al1      1.0000 0.40005  0.39475  0.33691  Biso   1.000  Al
