data_image0
_cell_length_a       10.0639
_cell_length_b       10.1832
_cell_length_c       10.0639
_cell_angle_alpha    90.0008
_cell_angle_beta     89.9997
_cell_angle_gamma    90.001

_symmetry_space_group_name_H-M    "P 1"
_symmetry_int_tables_number       1

loop_
  _symmetry_equiv_pos_as_xyz
  'x, y, z'

loop_
  _atom_site_label
  _atom_site_occupancy
  _atom_site_fract_x
  _atom_site_fract_y
  _atom_site_fract_z
  _atom_site_thermal_displace_type
  _atom_site_B_iso_or_equiv
  _atom_site_type_symbol
  Al1      1.0000 0.12509  0.00003  0.12508  Biso   1.000  Al
  Zr1      1.0000 0.12509  0.00004  0.62508  Biso   1.000  Zr
  Zr2      1.0000 0.12509  0.50004  0.12508  Biso   1.000  Zr
  Zr3      1.0000 0.12510  0.50004  0.62508  Biso   1.000  Zr
  Zr4      1.0000 0.62509  0.00004  0.12508  Biso   1.000  Zr
  Zr5      1.0000 0.62509  0.00004  0.62508  Biso   1.000  Zr
  Zr6      1.0000 0.62509  0.50004  0.12508  Biso   1.000  Zr
  Zr7      1.0000 0.62510  0.50004  0.62508  Biso   1.000  Zr
  Zr8      1.0000 0.12703  0.25004  0.37608  Biso   1.000  Zr
  Zr9      1.0000 0.12315  0.25004  0.87406  Biso   1.000  Zr
  Zr10     1.0000 0.12316  0.75004  0.37608  Biso   1.000  Zr
  Zr11     1.0000 0.12703  0.75004  0.87406  Biso   1.000  Zr
  Zr12     1.0000 0.62610  0.24834  0.37518  Biso   1.000  Zr
  Zr13     1.0000 0.62407  0.24834  0.87497  Biso   1.000  Zr
  Zr14     1.0000 0.62408  0.75173  0.37518  Biso   1.000  Zr
  Zr15     1.0000 0.62610  0.75173  0.87497  Biso   1.000  Zr
  Zr16     1.0000 0.37609  0.25004  0.12701  Biso   1.000  Zr
  Zr17     1.0000 0.37519  0.24834  0.62609  Biso   1.000  Zr
  Zr18     1.0000 0.37610  0.75004  0.12314  Biso   1.000  Zr
  Zr19     1.0000 0.37520  0.75173  0.62406  Biso   1.000  Zr
  Zr20     1.0000 0.87408  0.25004  0.12314  Biso   1.000  Zr
  Zr21     1.0000 0.87499  0.24834  0.62406  Biso   1.000  Zr
  Zr22     1.0000 0.87408  0.75004  0.12701  Biso   1.000  Zr
  Zr23     1.0000 0.87498  0.75173  0.62608  Biso   1.000  Zr
  Zr24     1.0000 0.37189  0.00057  0.37187  Biso   1.000  Zr
  Zr25     1.0000 0.37189  0.99951  0.87828  Biso   1.000  Zr
  Zr26     1.0000 0.37711  0.50095  0.37710  Biso   1.000  Zr
  Zr27     1.0000 0.37711  0.49912  0.87306  Biso   1.000  Zr
  Zr28     1.0000 0.87830  0.99951  0.37187  Biso   1.000  Zr
  Zr29     1.0000 0.87829  0.00057  0.87828  Biso   1.000  Zr
  Zr30     1.0000 0.87308  0.49913  0.37709  Biso   1.000  Zr
  Zr31     1.0000 0.87307  0.50095  0.87306  Biso   1.000  Zr
  Zr32     1.0000 0.98230  0.15485  0.98228  Biso   1.000  Zr
  Zr33     1.0000 0.99307  0.14464  0.48788  Biso   1.000  Zr
  Zr34     1.0000 0.99906  0.65170  0.99904  Biso   1.000  Zr
  Zr35     1.0000 0.99708  0.64453  0.49894  Biso   1.000  Zr
  Zr36     1.0000 0.48790  0.14464  0.99306  Biso   1.000  Zr
  Zr37     1.0000 0.49444  0.14509  0.49443  Biso   1.000  Zr
  Zr38     1.0000 0.49896  0.64453  0.99706  Biso   1.000  Zr
  Zr39     1.0000 0.49759  0.64475  0.49757  Biso   1.000  Zr
  Zr40     1.0000 0.01552  0.09237  0.23464  Biso   1.000  Zr
  Zr41     1.0000 0.00273  0.10600  0.74157  Biso   1.000  Zr
  Zr42     1.0000 0.00072  0.59942  0.24944  Biso   1.000  Zr
  Zr43     1.0000 0.00212  0.60559  0.74931  Biso   1.000  Zr
  Zr44     1.0000 0.50859  0.10600  0.24743  Biso   1.000  Zr
  Zr45     1.0000 0.50303  0.10506  0.74714  Biso   1.000  Zr
  Zr46     1.0000 0.50085  0.60560  0.24805  Biso   1.000  Zr
  Zr47     1.0000 0.50202  0.60577  0.74815  Biso   1.000  Zr
  Zr48     1.0000 0.99906  0.34839  0.25110  Biso   1.000  Zr
  Zr49     1.0000 0.99708  0.35554  0.75120  Biso   1.000  Zr
  Zr50     1.0000 0.98231  0.84524  0.26785  Biso   1.000  Zr
  Zr51     1.0000 0.99307  0.85543  0.76226  Biso   1.000  Zr
  Zr52     1.0000 0.49896  0.35554  0.25309  Biso   1.000  Zr
  Zr53     1.0000 0.49758  0.35533  0.75259  Biso   1.000  Zr
  Zr54     1.0000 0.48791  0.85544  0.25709  Biso   1.000  Zr
  Zr55     1.0000 0.49444  0.85498  0.75573  Biso   1.000  Zr
  Zr56     1.0000 0.00073  0.40067  0.00070  Biso   1.000  Zr
  Zr57     1.0000 0.00212  0.39448  0.50083  Biso   1.000  Zr
  Zr58     1.0000 0.01551  0.90773  0.01549  Biso   1.000  Zr
  Zr59     1.0000 0.00273  0.89408  0.50857  Biso   1.000  Zr
  Zr60     1.0000 0.50085  0.39448  0.00210  Biso   1.000  Zr
  Zr61     1.0000 0.50201  0.39431  0.50200  Biso   1.000  Zr
  Zr62     1.0000 0.50859  0.89408  0.00272  Biso   1.000  Zr
  Zr63     1.0000 0.50303  0.89501  0.50302  Biso   1.000  Zr
  Zr64     1.0000 0.26788  0.15484  0.26787  Biso   1.000  Zr
  Zr65     1.0000 0.25711  0.14464  0.76227  Biso   1.000  Zr
  Zr66     1.0000 0.25113  0.65170  0.25111  Biso   1.000  Zr
  Zr67     1.0000 0.25310  0.64453  0.75121  Biso   1.000  Zr
  Zr68     1.0000 0.76228  0.14464  0.25709  Biso   1.000  Zr
  Zr69     1.0000 0.75574  0.14509  0.75572  Biso   1.000  Zr
  Zr70     1.0000 0.75123  0.64453  0.25309  Biso   1.000  Zr
  Zr71     1.0000 0.75260  0.64475  0.75259  Biso   1.000  Zr
  Zr72     1.0000 0.23466  0.09237  0.01550  Biso   1.000  Zr
  Zr73     1.0000 0.24745  0.10600  0.50858  Biso   1.000  Zr
  Zr74     1.0000 0.24946  0.59942  0.00071  Biso   1.000  Zr
  Zr75     1.0000 0.24807  0.60560  0.50084  Biso   1.000  Zr
  Zr76     1.0000 0.74159  0.10600  0.00271  Biso   1.000  Zr
  Zr77     1.0000 0.74715  0.10506  0.50301  Biso   1.000  Zr
  Zr78     1.0000 0.74933  0.60559  0.00210  Biso   1.000  Zr
  Zr79     1.0000 0.74817  0.60577  0.50200  Biso   1.000  Zr
  Zr80     1.0000 0.25112  0.34838  0.99904  Biso   1.000  Zr
  Zr81     1.0000 0.25310  0.35554  0.49894  Biso   1.000  Zr
  Zr82     1.0000 0.26787  0.84524  0.98230  Biso   1.000  Zr
  Zr83     1.0000 0.25711  0.85544  0.48789  Biso   1.000  Zr
  Zr84     1.0000 0.75122  0.35554  0.99706  Biso   1.000  Zr
  Zr85     1.0000 0.75260  0.35533  0.49756  Biso   1.000  Zr
  Zr86     1.0000 0.76228  0.85544  0.99305  Biso   1.000  Zr
  Zr87     1.0000 0.75575  0.85498  0.49442  Biso   1.000  Zr
  Zr88     1.0000 0.24946  0.40067  0.24945  Biso   1.000  Zr
  Zr89     1.0000 0.24806  0.39448  0.74932  Biso   1.000  Zr
  Zr90     1.0000 0.23467  0.90772  0.23466  Biso   1.000  Zr
  Zr91     1.0000 0.24745  0.89408  0.74158  Biso   1.000  Zr
  Zr92     1.0000 0.74933  0.39448  0.24805  Biso   1.000  Zr
  Zr93     1.0000 0.74817  0.39431  0.74815  Biso   1.000  Zr
  Zr94     1.0000 0.74160  0.89407  0.24743  Biso   1.000  Zr
  Zr95     1.0000 0.74715  0.89502  0.74713  Biso   1.000  Zr
