data_image0
_cell_length_a       10.3291
_cell_length_b       10.4611
_cell_length_c       5.27382
_cell_angle_alpha    89.4285
_cell_angle_beta     79.2462
_cell_angle_gamma    89.2611

_symmetry_space_group_name_H-M    "P 1"
_symmetry_int_tables_number       1

loop_
  _symmetry_equiv_pos_as_xyz
  'x, y, z'

loop_
  _atom_site_label
  _atom_site_occupancy
  _atom_site_fract_x
  _atom_site_fract_y
  _atom_site_fract_z
  _atom_site_thermal_displace_type
  _atom_site_B_iso_or_equiv
  _atom_site_type_symbol
  Zr1      1.0000 0.13163  0.01830  0.28625  Biso   1.000  Zr
  Zr2      1.0000 0.13709  0.22643  0.78034  Biso   1.000  Zr
  Zr3      1.0000 0.35643  0.27045  0.19622  Biso   1.000  Zr
  Zr4      1.0000 0.35594  0.48593  0.70986  Biso   1.000  Zr
  O1       1.0000 0.03470  0.16944  0.15845  Biso   1.000  O
  O2       1.0000 0.02746  0.08150  0.66110  Biso   1.000  O
  O3       1.0000 0.46886  0.41825  0.36153  Biso   1.000  O
  O4       1.0000 0.48082  0.37803  0.89261  Biso   1.000  O
  O5       1.0000 0.26077  0.11960  0.46586  Biso   1.000  O
  O6       1.0000 0.26769  0.11425  0.97285  Biso   1.000  O
  O7       1.0000 0.22225  0.37813  0.00687  Biso   1.000  O
  O8       1.0000 0.22119  0.37215  0.50788  Biso   1.000  O
  Zr5      1.0000 0.13836  0.52063  0.28945  Biso   1.000  Zr
  Zr6      1.0000 0.13301  0.72767  0.79285  Biso   1.000  Zr
  Zr7      1.0000 0.35789  0.77014  0.20511  Biso   1.000  Zr
  Zr8      1.0000 0.34881  0.96819  0.70364  Biso   1.000  Zr
  O9       1.0000 0.02886  0.66622  0.15987  Biso   1.000  O
  O10      1.0000 0.03478  0.58292  0.65780  Biso   1.000  O
  O11      1.0000 0.46028  0.91484  0.33036  Biso   1.000  O
  O12      1.0000 0.45682  0.82675  0.83823  Biso   1.000  O
  O13      1.0000 0.27203  0.62789  0.47927  Biso   1.000  O
  O14      1.0000 0.26929  0.62246  0.98303  Biso   1.000  O
  O15      1.0000 0.21704  0.87409  0.01711  Biso   1.000  O
  O16      1.0000 0.21777  0.86639  0.51439  Biso   1.000  O
  Zr9      1.0000 0.63590  0.01537  0.29452  Biso   1.000  Zr
  Zr10     1.0000 0.66306  0.24243  0.82491  Biso   1.000  Zr
  Zr11     1.0000 0.86571  0.27276  0.23061  Biso   1.000  Zr
  Zr12     1.0000 0.86507  0.48322  0.71898  Biso   1.000  Zr
  O17      1.0000 0.52907  0.16324  0.13989  Biso   1.000  O
  O18      1.0000 0.52704  0.05550  0.66313  Biso   1.000  O
  O19      1.0000 0.96880  0.41889  0.34626  Biso   1.000  O
  O20      1.0000 0.96270  0.33019  0.84553  Biso   1.000  O
  O21      1.0000 0.77207  0.13101  0.50175  Biso   1.000  O
  O22      1.0000 0.78008  0.11759  0.00731  Biso   1.000  O
  O23      1.0000 0.73142  0.38200  0.04626  Biso   1.000  O
  O24      1.0000 0.73419  0.38071  0.53906  Biso   1.000  O
  Zr13     1.0000 0.63691  0.52727  0.30235  Biso   1.000  Zr
  Zr14     1.0000 0.63439  0.72896  0.79225  Biso   1.000  Zr
  Zr15     1.0000 0.85828  0.77203  0.21152  Biso   1.000  Zr
  Zr16     1.0000 0.85743  0.97914  0.71257  Biso   1.000  Zr
  O25      1.0000 0.53028  0.66538  0.15213  Biso   1.000  O
  O26      1.0000 0.52815  0.59545  0.64717  Biso   1.000  O
  O27      1.0000 0.95867  0.91727  0.34469  Biso   1.000  O
  O28      1.0000 0.96132  0.83165  0.84373  Biso   1.000  O
  O29      1.0000 0.77346  0.63150  0.48708  Biso   1.000  O
  O30      1.0000 0.77217  0.62339  0.98575  Biso   1.000  O
  O31      1.0000 0.71970  0.87813  0.02027  Biso   1.000  O
  O32      1.0000 0.72088  0.87270  0.52004  Biso   1.000  O
  As1      1.0000 0.47480  0.23365  0.60129  Biso   1.000  As
