data_image0
_cell_length_a       5.01046
_cell_length_b       10.4325
_cell_length_c       10.0599
_cell_angle_alpha    90.2058
_cell_angle_beta     89.2903
_cell_angle_gamma    89.8517

_symmetry_space_group_name_H-M    "P 1"
_symmetry_int_tables_number       1

loop_
  _symmetry_equiv_pos_as_xyz
  'x, y, z'

loop_
  _atom_site_label
  _atom_site_occupancy
  _atom_site_fract_x
  _atom_site_fract_y
  _atom_site_fract_z
  _atom_site_thermal_displace_type
  _atom_site_B_iso_or_equiv
  _atom_site_type_symbol
  As1      1.0000 0.21612  0.02733  0.10698  Biso   1.000  As
  Zr1      1.0000 0.26138  0.01473  0.62569  Biso   1.000  Zr
  Zr2      1.0000 0.26850  0.51624  0.12885  Biso   1.000  Zr
  Zr3      1.0000 0.26881  0.51678  0.62432  Biso   1.000  Zr
  Zr4      1.0000 0.28050  0.23111  0.37462  Biso   1.000  Zr
  Zr5      1.0000 0.26815  0.23802  0.87450  Biso   1.000  Zr
  Zr6      1.0000 0.27825  0.73605  0.37643  Biso   1.000  Zr
  Zr7      1.0000 0.26071  0.73347  0.87791  Biso   1.000  Zr
  Zr8      1.0000 0.72458  0.26569  0.12581  Biso   1.000  Zr
  Zr9      1.0000 0.73499  0.26493  0.62475  Biso   1.000  Zr
  Zr10     1.0000 0.73424  0.76236  0.12403  Biso   1.000  Zr
  Zr11     1.0000 0.73474  0.76741  0.62620  Biso   1.000  Zr
  Zr12     1.0000 0.73801  0.48316  0.37645  Biso   1.000  Zr
  Zr13     1.0000 0.73146  0.48518  0.87464  Biso   1.000  Zr
  Zr14     1.0000 0.73174  0.98602  0.37447  Biso   1.000  Zr
  Zr15     1.0000 0.70932  0.98206  0.87807  Biso   1.000  Zr
  Zr16     1.0000 0.09453  0.18201  0.18106  Biso   1.000  Zr
  Zr17     1.0000 0.06781  0.18313  0.69786  Biso   1.000  Zr
  Zr18     1.0000 0.07516  0.68596  0.19638  Biso   1.000  Zr
  Zr19     1.0000 0.06947  0.68334  0.69575  Biso   1.000  Zr
  Zr20     1.0000 0.07489  0.06657  0.44273  Biso   1.000  Zr
  Zr21     1.0000 0.06127  0.06441  0.94973  Biso   1.000  Zr
  Zr22     1.0000 0.07725  0.56546  0.44370  Biso   1.000  Zr
  Zr23     1.0000 0.06472  0.56622  0.94810  Biso   1.000  Zr
  Zr24     1.0000 0.93197  0.42850  0.19519  Biso   1.000  Zr
  Zr25     1.0000 0.92951  0.43388  0.69336  Biso   1.000  Zr
  Zr26     1.0000 0.94116  0.94018  0.18075  Biso   1.000  Zr
  Zr27     1.0000 0.92253  0.93529  0.69792  Biso   1.000  Zr
  Zr28     1.0000 0.93441  0.31452  0.44352  Biso   1.000  Zr
  Zr29     1.0000 0.92280  0.31445  0.94089  Biso   1.000  Zr
  Zr30     1.0000 0.94180  0.81948  0.44848  Biso   1.000  Zr
  Zr31     1.0000 0.91161  0.81577  0.93952  Biso   1.000  Zr
  Zr32     1.0000 0.57392  0.12790  0.25622  Biso   1.000  Zr
  Zr33     1.0000 0.53288  0.11624  0.75032  Biso   1.000  Zr
  Zr34     1.0000 0.54412  0.61236  0.24858  Biso   1.000  Zr
  Zr35     1.0000 0.53620  0.61739  0.74987  Biso   1.000  Zr
  Zr36     1.0000 0.53854  0.13167  0.50269  Biso   1.000  Zr
  Zr37     1.0000 0.52693  0.13273  0.99951  Biso   1.000  Zr
  Zr38     1.0000 0.54497  0.63350  0.49967  Biso   1.000  Zr
  Zr39     1.0000 0.53400  0.63244  0.99959  Biso   1.000  Zr
  Zr40     1.0000 0.46490  0.38153  0.49920  Biso   1.000  Zr
  Zr41     1.0000 0.45967  0.38319  0.99971  Biso   1.000  Zr
  Zr42     1.0000 0.46625  0.88403  0.50267  Biso   1.000  Zr
  Zr43     1.0000 0.43914  0.88154  0.00407  Biso   1.000  Zr
  Zr44     1.0000 0.45747  0.36960  0.24951  Biso   1.000  Zr
  Zr45     1.0000 0.46054  0.36735  0.74883  Biso   1.000  Zr
  Zr46     1.0000 0.50378  0.85714  0.25854  Biso   1.000  Zr
  Zr47     1.0000 0.45311  0.86730  0.75181  Biso   1.000  Zr
