data_image0
_cell_length_a       5.07303
_cell_length_b       10.4458
_cell_length_c       10.2698
_cell_angle_alpha    88.9853
_cell_angle_beta     92.3374
_cell_angle_gamma    91.3145

_symmetry_space_group_name_H-M    "P 1"
_symmetry_int_tables_number       1

loop_
  _symmetry_equiv_pos_as_xyz
  'x, y, z'

loop_
  _atom_site_label
  _atom_site_occupancy
  _atom_site_fract_x
  _atom_site_fract_y
  _atom_site_fract_z
  _atom_site_thermal_displace_type
  _atom_site_B_iso_or_equiv
  _atom_site_type_symbol
  Zr1      1.0000 0.26580  0.98939  0.09952  Biso   1.000  Zr
  Zr2      1.0000 0.23492  0.23050  0.39945  Biso   1.000  Zr
  Zr3      1.0000 0.61469  0.25672  0.15385  Biso   1.000  Zr
  Zr4      1.0000 0.73087  0.49017  0.38087  Biso   1.000  Zr
  Zr5      1.0000 0.89190  0.18040  0.27933  Biso   1.000  Zr
  Zr6      1.0000 0.06441  0.06172  0.46743  Biso   1.000  Zr
  Zr7      1.0000 0.89224  0.44105  0.20806  Biso   1.000  Zr
  Zr8      1.0000 0.95759  0.33931  0.47064  Biso   1.000  Zr
  Zr9      1.0000 0.40902  0.10686  0.25108  Biso   1.000  Zr
  Zr10     1.0000 0.55145  0.13990  0.49902  Biso   1.000  Zr
  Zr11     1.0000 0.47942  0.38650  0.50419  Biso   1.000  Zr
  Zr12     1.0000 0.40058  0.37312  0.26553  Biso   1.000  Zr
  Zr13     1.0000 0.29415  0.01138  0.62651  Biso   1.000  Zr
  Zr14     1.0000 0.34047  0.22402  0.86097  Biso   1.000  Zr
  Zr15     1.0000 0.76452  0.27005  0.62966  Biso   1.000  Zr
  Zr16     1.0000 0.74321  0.48879  0.86974  Biso   1.000  Zr
  Zr17     1.0000 0.12038  0.18457  0.68137  Biso   1.000  Zr
  Zr18     1.0000 0.11104  0.05765  0.91981  Biso   1.000  Zr
  Zr19     1.0000 0.94229  0.44349  0.69606  Biso   1.000  Zr
  Zr20     1.0000 0.98383  0.31022  0.89331  Biso   1.000  Zr
  Zr21     1.0000 0.58655  0.11269  0.74791  Biso   1.000  Zr
  Zr22     1.0000 0.58009  0.11492  0.00330  Biso   1.000  Zr
  Zr23     1.0000 0.51664  0.38156  0.99484  Biso   1.000  Zr
  Zr24     1.0000 0.49029  0.36658  0.74494  Biso   1.000  Zr
  Zr25     1.0000 0.24733  0.52047  0.13387  Biso   1.000  Zr
  Zr26     1.0000 0.27190  0.74402  0.37660  Biso   1.000  Zr
  Zr27     1.0000 0.73361  0.76145  0.12912  Biso   1.000  Zr
  Zr28     1.0000 0.73996  0.00246  0.36101  Biso   1.000  Zr
  Zr29     1.0000 0.07067  0.68348  0.20001  Biso   1.000  Zr
  Zr30     1.0000 0.06492  0.58081  0.44973  Biso   1.000  Zr
  Zr31     1.0000 0.93084  0.94084  0.18934  Biso   1.000  Zr
  Zr32     1.0000 0.93599  0.82493  0.43944  Biso   1.000  Zr
  Zr33     1.0000 0.53314  0.62061  0.25212  Biso   1.000  Zr
  Zr34     1.0000 0.53740  0.63910  0.49860  Biso   1.000  Zr
  Zr35     1.0000 0.47605  0.89140  0.49312  Biso   1.000  Zr
  Zr36     1.0000 0.47298  0.86441  0.24089  Biso   1.000  Zr
  Zr37     1.0000 0.27210  0.51329  0.61897  Biso   1.000  Zr
  Zr38     1.0000 0.28140  0.72947  0.87061  Biso   1.000  Zr
  Zr39     1.0000 0.75386  0.76941  0.61635  Biso   1.000  Zr
  Zr40     1.0000 0.76180  0.97312  0.87226  Biso   1.000  Zr
  Zr41     1.0000 0.07403  0.68194  0.69848  Biso   1.000  Zr
  Zr42     1.0000 0.07602  0.56555  0.95273  Biso   1.000  Zr
  Zr43     1.0000 0.96395  0.92620  0.70158  Biso   1.000  Zr
  Zr44     1.0000 0.97788  0.81954  0.96318  Biso   1.000  Zr
  Zr45     1.0000 0.53992  0.61474  0.74794  Biso   1.000  Zr
  Zr46     1.0000 0.54644  0.63171  0.99984  Biso   1.000  Zr
  Zr47     1.0000 0.49136  0.87201  0.99072  Biso   1.000  Zr
  Zr48     1.0000 0.49410  0.86080  0.74515  Biso   1.000  Zr
  As1      1.0000 0.05819  0.26286  0.06193  Biso   1.000  As
