data_image0
_cell_length_a       10.2083
_cell_length_b       5.21984
_cell_length_c       10.3033
_cell_angle_alpha    89.6216
_cell_angle_beta     96.0189
_cell_angle_gamma    90.0043

_symmetry_space_group_name_H-M    "P 1"
_symmetry_int_tables_number       1

loop_
  _symmetry_equiv_pos_as_xyz
  'x, y, z'

loop_
  _atom_site_label
  _atom_site_occupancy
  _atom_site_fract_x
  _atom_site_fract_y
  _atom_site_fract_z
  _atom_site_thermal_displace_type
  _atom_site_B_iso_or_equiv
  _atom_site_type_symbol
  Zr1      1.0000 0.13796  0.02665  0.10482  Biso   1.000  Zr
  Zr2      1.0000 0.13989  0.46441  0.35793  Biso   1.000  Zr
  Zr3      1.0000 0.36573  0.53233  0.12214  Biso   1.000  Zr
  Zr4      1.0000 0.36882  0.96646  0.37194  Biso   1.000  Zr
  Zr5      1.0000 0.03255  0.35732  0.18202  Biso   1.000  Zr
  Zr6      1.0000 0.04072  0.14527  0.42227  Biso   1.000  Zr
  Zr7      1.0000 0.45989  0.87033  0.20064  Biso   1.000  Zr
  Zr8      1.0000 0.46580  0.62964  0.45036  Biso   1.000  Zr
  Zr9      1.0000 0.27104  0.23884  0.24238  Biso   1.000  Zr
  Zr10     1.0000 0.27727  0.25789  0.49189  Biso   1.000  Zr
  Zr11     1.0000 0.23473  0.76083  0.48112  Biso   1.000  Zr
  Zr12     1.0000 0.22910  0.73045  0.23279  Biso   1.000  Zr
  Zr13     1.0000 0.14417  0.03169  0.60013  Biso   1.000  Zr
  Zr14     1.0000 0.15996  0.46136  0.84035  Biso   1.000  Zr
  Zr15     1.0000 0.37836  0.53171  0.62085  Biso   1.000  Zr
  Zr16     1.0000 0.37811  0.96540  0.87341  Biso   1.000  Zr
  Zr17     1.0000 0.04192  0.33017  0.67557  Biso   1.000  Zr
  Zr18     1.0000 0.02988  0.14558  0.93490  Biso   1.000  Zr
  Zr19     1.0000 0.47546  0.85972  0.70146  Biso   1.000  Zr
  Zr20     1.0000 0.46795  0.62088  0.94837  Biso   1.000  Zr
  Zr21     1.0000 0.28593  0.23340  0.73784  Biso   1.000  Zr
  Zr22     1.0000 0.27928  0.25899  0.98998  Biso   1.000  Zr
  Zr23     1.0000 0.24904  0.78092  0.98132  Biso   1.000  Zr
  Zr24     1.0000 0.24214  0.73442  0.72817  Biso   1.000  Zr
  Zr25     1.0000 0.62917  0.03647  0.15398  Biso   1.000  Zr
  Zr26     1.0000 0.63419  0.45820  0.40510  Biso   1.000  Zr
  Zr27     1.0000 0.84450  0.54027  0.18318  Biso   1.000  Zr
  Zr28     1.0000 0.86599  0.95544  0.41947  Biso   1.000  Zr
  Zr29     1.0000 0.53412  0.36978  0.21163  Biso   1.000  Zr
  Zr30     1.0000 0.53753  0.12760  0.46204  Biso   1.000  Zr
  Zr31     1.0000 0.94713  0.90141  0.14855  Biso   1.000  Zr
  Zr32     1.0000 0.95758  0.62872  0.36500  Biso   1.000  Zr
  Zr33     1.0000 0.76452  0.23659  0.29261  Biso   1.000  Zr
  Zr34     1.0000 0.77482  0.25568  0.54004  Biso   1.000  Zr
  Zr35     1.0000 0.72888  0.74067  0.53556  Biso   1.000  Zr
  Zr36     1.0000 0.71697  0.75672  0.28896  Biso   1.000  Zr
  Zr37     1.0000 0.64254  0.02972  0.65214  Biso   1.000  Zr
  Zr38     1.0000 0.63625  0.46491  0.90017  Biso   1.000  Zr
  Zr39     1.0000 0.86697  0.53657  0.66956  Biso   1.000  Zr
  Zr40     1.0000 0.85344  0.96568  0.93475  Biso   1.000  Zr
  Zr41     1.0000 0.54521  0.36251  0.70755  Biso   1.000  Zr
  Zr42     1.0000 0.54087  0.12912  0.95951  Biso   1.000  Zr
  Zr43     1.0000 0.97031  0.83850  0.59660  Biso   1.000  Zr
  Zr44     1.0000 0.98269  0.68049  0.83088  Biso   1.000  Zr
  Zr45     1.0000 0.77736  0.23310  0.79210  Biso   1.000  Zr
  Zr46     1.0000 0.76298  0.26009  0.04325  Biso   1.000  Zr
  Zr47     1.0000 0.71616  0.74817  0.03844  Biso   1.000  Zr
  Zr48     1.0000 0.73537  0.74544  0.78776  Biso   1.000  Zr
  As1      1.0000 0.01270  0.56168  0.01628  Biso   1.000  As
