data_image0
_cell_length_a       10.0667
_cell_length_b       5.27639
_cell_length_c       10.2343
_cell_angle_alpha    89.0066
_cell_angle_beta     91.1375
_cell_angle_gamma    89.8186

_symmetry_space_group_name_H-M    "P 1"
_symmetry_int_tables_number       1

loop_
  _symmetry_equiv_pos_as_xyz
  'x, y, z'

loop_
  _atom_site_label
  _atom_site_occupancy
  _atom_site_fract_x
  _atom_site_fract_y
  _atom_site_fract_z
  _atom_site_thermal_displace_type
  _atom_site_B_iso_or_equiv
  _atom_site_type_symbol
  Zr1      1.0000 0.13666  0.06639  0.12970  Biso   1.000  Zr
  Zr2      1.0000 0.13592  0.46781  0.38291  Biso   1.000  Zr
  Zr3      1.0000 0.36978  0.54312  0.12489  Biso   1.000  Zr
  Zr4      1.0000 0.36748  0.96613  0.37647  Biso   1.000  Zr
  Zr5      1.0000 0.02066  0.35633  0.21639  Biso   1.000  Zr
  Zr6      1.0000 0.04866  0.11489  0.43230  Biso   1.000  Zr
  Zr7      1.0000 0.46845  0.87143  0.20462  Biso   1.000  Zr
  Zr8      1.0000 0.46698  0.63323  0.45275  Biso   1.000  Zr
  Zr9      1.0000 0.27279  0.24865  0.24858  Biso   1.000  Zr
  Zr10     1.0000 0.27651  0.25777  0.49782  Biso   1.000  Zr
  Zr11     1.0000 0.23609  0.75449  0.49981  Biso   1.000  Zr
  Zr12     1.0000 0.23144  0.74001  0.25468  Biso   1.000  Zr
  Zr13     1.0000 0.13634  0.00913  0.61294  Biso   1.000  Zr
  Zr14     1.0000 0.13201  0.42360  0.83602  Biso   1.000  Zr
  Zr15     1.0000 0.37258  0.52375  0.62780  Biso   1.000  Zr
  Zr16     1.0000 0.37941  0.97263  0.87478  Biso   1.000  Zr
  Zr17     1.0000 0.05043  0.35861  0.65473  Biso   1.000  Zr
  Zr18     1.0000 0.03562  0.11668  0.94030  Biso   1.000  Zr
  Zr19     1.0000 0.46626  0.85504  0.69559  Biso   1.000  Zr
  Zr20     1.0000 0.47885  0.63843  0.95096  Biso   1.000  Zr
  Zr21     1.0000 0.27196  0.20583  0.74115  Biso   1.000  Zr
  Zr22     1.0000 0.27262  0.29904  0.99165  Biso   1.000  Zr
  Zr23     1.0000 0.26147  0.82723  0.01461  Biso   1.000  Zr
  Zr24     1.0000 0.23487  0.71676  0.75192  Biso   1.000  Zr
  Zr25     1.0000 0.63442  0.03349  0.13477  Biso   1.000  Zr
  Zr26     1.0000 0.63198  0.46184  0.39009  Biso   1.000  Zr
  Zr27     1.0000 0.83998  0.52282  0.15557  Biso   1.000  Zr
  Zr28     1.0000 0.87087  0.96131  0.39043  Biso   1.000  Zr
  Zr29     1.0000 0.53975  0.37212  0.19978  Biso   1.000  Zr
  Zr30     1.0000 0.53489  0.13221  0.45290  Biso   1.000  Zr
  Zr31     1.0000 0.95919  0.87578  0.20402  Biso   1.000  Zr
  Zr32     1.0000 0.96369  0.62161  0.44619  Biso   1.000  Zr
  Zr33     1.0000 0.76312  0.22635  0.26846  Biso   1.000  Zr
  Zr34     1.0000 0.77162  0.26223  0.51289  Biso   1.000  Zr
  Zr35     1.0000 0.73087  0.75617  0.51001  Biso   1.000  Zr
  Zr36     1.0000 0.72236  0.74135  0.26662  Biso   1.000  Zr
  Zr37     1.0000 0.63617  0.02634  0.63181  Biso   1.000  Zr
  Zr38     1.0000 0.64223  0.46429  0.88425  Biso   1.000  Zr
  Zr39     1.0000 0.86811  0.53624  0.63707  Biso   1.000  Zr
  Zr40     1.0000 0.86702  0.94765  0.87211  Biso   1.000  Zr
  Zr41     1.0000 0.53423  0.35049  0.70743  Biso   1.000  Zr
  Zr42     1.0000 0.54104  0.13438  0.95476  Biso   1.000  Zr
  Zr43     1.0000 0.95383  0.89943  0.66470  Biso   1.000  Zr
  Zr44     1.0000 0.94234  0.58648  0.83847  Biso   1.000  Zr
  Zr45     1.0000 0.76985  0.22428  0.76101  Biso   1.000  Zr
  Zr46     1.0000 0.77174  0.26990  0.01643  Biso   1.000  Zr
  Zr47     1.0000 0.74400  0.76237  0.01002  Biso   1.000  Zr
  Zr48     1.0000 0.71959  0.73763  0.75499  Biso   1.000  Zr
  Au1      1.0000 0.06311  0.62503  0.04647  Biso   1.000  Au
