data_image0
_cell_length_a       10.1373
_cell_length_b       10.3323
_cell_length_c       10.5562
_cell_angle_alpha    89.8572
_cell_angle_beta     90.44
_cell_angle_gamma    89.9285

_symmetry_space_group_name_H-M    "P 1"
_symmetry_int_tables_number       1

loop_
  _symmetry_equiv_pos_as_xyz
  'x, y, z'

loop_
  _atom_site_label
  _atom_site_occupancy
  _atom_site_fract_x
  _atom_site_fract_y
  _atom_site_fract_z
  _atom_site_thermal_displace_type
  _atom_site_B_iso_or_equiv
  _atom_site_type_symbol
  Zr1      1.0000 0.13655  0.01912  0.17177  Biso   1.000  Zr
  Zr2      1.0000 0.13534  0.22742  0.42624  Biso   1.000  Zr
  Zr3      1.0000 0.34553  0.26641  0.18439  Biso   1.000  Zr
  Zr4      1.0000 0.36318  0.47880  0.42139  Biso   1.000  Zr
  Zr5      1.0000 0.63962  0.02017  0.07354  Biso   1.000  Zr
  Zr6      1.0000 0.63825  0.22503  0.33111  Biso   1.000  Zr
  Zr7      1.0000 0.86344  0.27116  0.07736  Biso   1.000  Zr
  Zr8      1.0000 0.86257  0.47940  0.32991  Biso   1.000  Zr
  O1       1.0000 0.03379  0.16449  0.08340  Biso   1.000  O
  O2       1.0000 0.02929  0.08629  0.33272  Biso   1.000  O
  O3       1.0000 0.44901  0.44545  0.10520  Biso   1.000  O
  O4       1.0000 0.46630  0.33239  0.33312  Biso   1.000  O
  O5       1.0000 0.26757  0.12443  0.30075  Biso   1.000  O
  O6       1.0000 0.27547  0.12262  0.04758  Biso   1.000  O
  O7       1.0000 0.21985  0.37499  0.29997  Biso   1.000  O
  O8       1.0000 0.22392  0.37370  0.04722  Biso   1.000  O
  O9       1.0000 0.51297  0.13086  0.19522  Biso   1.000  O
  O10      1.0000 0.53027  0.08892  0.42817  Biso   1.000  O
  O11      1.0000 0.96879  0.41385  0.16863  Biso   1.000  O
  O12      1.0000 0.96775  0.33651  0.41988  Biso   1.000  O
  O13      1.0000 0.77486  0.12384  0.45396  Biso   1.000  O
  O14      1.0000 0.77268  0.12773  0.20429  Biso   1.000  O
  O15      1.0000 0.72486  0.37344  0.45586  Biso   1.000  O
  O16      1.0000 0.72756  0.38077  0.20964  Biso   1.000  O
  Zr9      1.0000 0.14057  0.01993  0.67286  Biso   1.000  Zr
  Zr10     1.0000 0.14076  0.22765  0.92181  Biso   1.000  Zr
  Zr11     1.0000 0.36258  0.27143  0.67261  Biso   1.000  Zr
  Zr12     1.0000 0.36042  0.48205  0.92321  Biso   1.000  Zr
  Zr13     1.0000 0.64010  0.01944  0.57990  Biso   1.000  Zr
  Zr14     1.0000 0.64441  0.22616  0.82031  Biso   1.000  Zr
  Zr15     1.0000 0.86186  0.27142  0.57863  Biso   1.000  Zr
  Zr16     1.0000 0.86680  0.48090  0.82732  Biso   1.000  Zr
  O17      1.0000 0.03149  0.16270  0.58393  Biso   1.000  O
  O18      1.0000 0.03629  0.08307  0.83279  Biso   1.000  O
  O19      1.0000 0.46995  0.41324  0.58043  Biso   1.000  O
  O20      1.0000 0.47183  0.34040  0.82835  Biso   1.000  O
  O21      1.0000 0.27810  0.12429  0.79590  Biso   1.000  O
  O22      1.0000 0.27489  0.12448  0.54762  Biso   1.000  O
  O23      1.0000 0.22717  0.37391  0.79685  Biso   1.000  O
  O24      1.0000 0.22644  0.37481  0.54709  Biso   1.000  O
  O25      1.0000 0.53356  0.16387  0.66742  Biso   1.000  O
  O26      1.0000 0.53720  0.07042  0.90412  Biso   1.000  O
  O27      1.0000 0.97069  0.41354  0.66738  Biso   1.000  O
  O28      1.0000 0.97341  0.33504  0.91651  Biso   1.000  O
  O29      1.0000 0.78596  0.12127  0.94837  Biso   1.000  O
  O30      1.0000 0.77905  0.12280  0.70074  Biso   1.000  O
  O31      1.0000 0.74060  0.38416  0.95291  Biso   1.000  O
  O32      1.0000 0.72822  0.37452  0.70373  Biso   1.000  O
  Zr17     1.0000 0.13827  0.52210  0.17088  Biso   1.000  Zr
  Zr18     1.0000 0.13951  0.72862  0.42102  Biso   1.000  Zr
  Zr19     1.0000 0.36177  0.77303  0.17205  Biso   1.000  Zr
  Zr20     1.0000 0.36266  0.97830  0.42454  Biso   1.000  Zr
  Zr21     1.0000 0.64105  0.53076  0.08155  Biso   1.000  Zr
  Zr22     1.0000 0.64009  0.73185  0.32957  Biso   1.000  Zr
  Zr23     1.0000 0.86207  0.77223  0.07892  Biso   1.000  Zr
  Zr24     1.0000 0.86123  0.97918  0.32867  Biso   1.000  Zr
  O33      1.0000 0.03213  0.66392  0.08198  Biso   1.000  O
  O34      1.0000 0.03340  0.58644  0.33161  Biso   1.000  O
  O35      1.0000 0.46900  0.91040  0.07810  Biso   1.000  O
  O36      1.0000 0.46895  0.83802  0.33344  Biso   1.000  O
  O37      1.0000 0.27603  0.62472  0.29450  Biso   1.000  O
  O38      1.0000 0.27387  0.62784  0.04392  Biso   1.000  O
  O39      1.0000 0.22582  0.87497  0.29634  Biso   1.000  O
  O40      1.0000 0.22382  0.87516  0.04671  Biso   1.000  O
  O41      1.0000 0.53745  0.67446  0.16654  Biso   1.000  O
  O42      1.0000 0.53308  0.58588  0.41559  Biso   1.000  O
  O43      1.0000 0.96769  0.91483  0.16788  Biso   1.000  O
  O44      1.0000 0.96817  0.83495  0.41706  Biso   1.000  O
  O45      1.0000 0.77605  0.62425  0.45493  Biso   1.000  O
  O46      1.0000 0.77776  0.62867  0.20579  Biso   1.000  O
  O47      1.0000 0.72608  0.87490  0.45594  Biso   1.000  O
  O48      1.0000 0.72637  0.87717  0.20534  Biso   1.000  O
  Zr25     1.0000 0.14100  0.51993  0.67103  Biso   1.000  Zr
  Zr26     1.0000 0.13961  0.72987  0.92163  Biso   1.000  Zr
  Zr27     1.0000 0.36298  0.76885  0.67163  Biso   1.000  Zr
  Zr28     1.0000 0.36257  0.97633  0.92084  Biso   1.000  Zr
  Zr29     1.0000 0.63996  0.52048  0.57744  Biso   1.000  Zr
  Zr30     1.0000 0.64003  0.72819  0.82774  Biso   1.000  Zr
  Zr31     1.0000 0.86379  0.77035  0.57889  Biso   1.000  Zr
  Zr32     1.0000 0.86439  0.97730  0.82856  Biso   1.000  Zr
  O49      1.0000 0.03412  0.66315  0.58177  Biso   1.000  O
  O50      1.0000 0.03570  0.58652  0.83174  Biso   1.000  O
  O51      1.0000 0.46973  0.91157  0.58400  Biso   1.000  O
  O52      1.0000 0.46705  0.82917  0.83276  Biso   1.000  O
  O53      1.0000 0.27721  0.62288  0.79557  Biso   1.000  O
  O54      1.0000 0.27642  0.62407  0.54471  Biso   1.000  O
  O55      1.0000 0.22626  0.87298  0.79540  Biso   1.000  O
  O56      1.0000 0.22655  0.87456  0.54564  Biso   1.000  O
  O57      1.0000 0.53345  0.66204  0.66702  Biso   1.000  O
  O58      1.0000 0.53464  0.58269  0.91831  Biso   1.000  O
  O59      1.0000 0.97069  0.91244  0.66694  Biso   1.000  O
  O60      1.0000 0.96974  0.83593  0.91892  Biso   1.000  O
  O61      1.0000 0.77656  0.62865  0.95471  Biso   1.000  O
  O62      1.0000 0.77696  0.62458  0.70405  Biso   1.000  O
  O63      1.0000 0.72648  0.87387  0.95504  Biso   1.000  O
  O64      1.0000 0.72721  0.87328  0.70569  Biso   1.000  O
  Au1      1.0000 0.56156  0.27861  0.05029  Biso   1.000  Au
