data_image0
_cell_length_a       10.0514
_cell_length_b       10.1497
_cell_length_c       10.0515
_cell_angle_alpha    89.9989
_cell_angle_beta     90.0049
_cell_angle_gamma    89.9986

_symmetry_space_group_name_H-M    "P 1"
_symmetry_int_tables_number       1

loop_
  _symmetry_equiv_pos_as_xyz
  'x, y, z'

loop_
  _atom_site_label
  _atom_site_occupancy
  _atom_site_fract_x
  _atom_site_fract_y
  _atom_site_fract_z
  _atom_site_thermal_displace_type
  _atom_site_B_iso_or_equiv
  _atom_site_type_symbol
  B1       1.0000 0.12506  0.00030  0.12511  Biso   1.000  B 
  Zr1      1.0000 0.12507  0.00018  0.62510  Biso   1.000  Zr
  Zr2      1.0000 0.12507  0.50024  0.12511  Biso   1.000  Zr
  Zr3      1.0000 0.12507  0.50016  0.62511  Biso   1.000  Zr
  Zr4      1.0000 0.62506  0.00018  0.12511  Biso   1.000  Zr
  Zr5      1.0000 0.62506  0.00017  0.62511  Biso   1.000  Zr
  Zr6      1.0000 0.62507  0.50016  0.12511  Biso   1.000  Zr
  Zr7      1.0000 0.62507  0.50016  0.62511  Biso   1.000  Zr
  Zr8      1.0000 0.12932  0.25080  0.37555  Biso   1.000  Zr
  Zr9      1.0000 0.12082  0.25079  0.87468  Biso   1.000  Zr
  Zr10     1.0000 0.12076  0.74954  0.37559  Biso   1.000  Zr
  Zr11     1.0000 0.12938  0.74954  0.87464  Biso   1.000  Zr
  Zr12     1.0000 0.62730  0.24793  0.37505  Biso   1.000  Zr
  Zr13     1.0000 0.62283  0.24792  0.87518  Biso   1.000  Zr
  Zr14     1.0000 0.62280  0.75241  0.37505  Biso   1.000  Zr
  Zr15     1.0000 0.62734  0.75241  0.87517  Biso   1.000  Zr
  Zr16     1.0000 0.37551  0.25080  0.12936  Biso   1.000  Zr
  Zr17     1.0000 0.37501  0.24793  0.62735  Biso   1.000  Zr
  Zr18     1.0000 0.37555  0.74954  0.12080  Biso   1.000  Zr
  Zr19     1.0000 0.37501  0.75241  0.62284  Biso   1.000  Zr
  Zr20     1.0000 0.87464  0.25078  0.12087  Biso   1.000  Zr
  Zr21     1.0000 0.87513  0.24792  0.62287  Biso   1.000  Zr
  Zr22     1.0000 0.87460  0.74955  0.12942  Biso   1.000  Zr
  Zr23     1.0000 0.87513  0.75241  0.62738  Biso   1.000  Zr
  Zr24     1.0000 0.37046  0.00292  0.37050  Biso   1.000  Zr
  Zr25     1.0000 0.37051  0.99741  0.87966  Biso   1.000  Zr
  Zr26     1.0000 0.37754  0.50163  0.37759  Biso   1.000  Zr
  Zr27     1.0000 0.37756  0.49869  0.87262  Biso   1.000  Zr
  Zr28     1.0000 0.87962  0.99741  0.37056  Biso   1.000  Zr
  Zr29     1.0000 0.87967  0.00292  0.87971  Biso   1.000  Zr
  Zr30     1.0000 0.87258  0.49869  0.37760  Biso   1.000  Zr
  Zr31     1.0000 0.87259  0.50162  0.87263  Biso   1.000  Zr
  Zr32     1.0000 0.97300  0.15906  0.97304  Biso   1.000  Zr
  Zr33     1.0000 0.99077  0.14184  0.47904  Biso   1.000  Zr
  Zr34     1.0000 0.99794  0.65486  0.99798  Biso   1.000  Zr
  Zr35     1.0000 0.99473  0.64171  0.49741  Biso   1.000  Zr
  Zr36     1.0000 0.47900  0.14184  0.99082  Biso   1.000  Zr
  Zr37     1.0000 0.49139  0.14269  0.49143  Biso   1.000  Zr
  Zr38     1.0000 0.49737  0.64171  0.99477  Biso   1.000  Zr
  Zr39     1.0000 0.49559  0.64237  0.49564  Biso   1.000  Zr
  Zr40     1.0000 0.03346  0.08124  0.21669  Biso   1.000  Zr
  Zr41     1.0000 0.00417  0.11009  0.73600  Biso   1.000  Zr
  Zr42     1.0000 0.00153  0.59899  0.24865  Biso   1.000  Zr
  Zr43     1.0000 0.00359  0.60880  0.74809  Biso   1.000  Zr
  Zr44     1.0000 0.51418  0.11009  0.24602  Biso   1.000  Zr
  Zr45     1.0000 0.50484  0.10827  0.74535  Biso   1.000  Zr
  Zr46     1.0000 0.50210  0.60880  0.24659  Biso   1.000  Zr
  Zr47     1.0000 0.50346  0.60888  0.74672  Biso   1.000  Zr
  Zr48     1.0000 0.99788  0.34562  0.25230  Biso   1.000  Zr
  Zr49     1.0000 0.99475  0.35862  0.75284  Biso   1.000  Zr
  Zr50     1.0000 0.97307  0.84141  0.27711  Biso   1.000  Zr
  Zr51     1.0000 0.99078  0.85848  0.77119  Biso   1.000  Zr
  Zr52     1.0000 0.49734  0.35862  0.25543  Biso   1.000  Zr
  Zr53     1.0000 0.49562  0.35796  0.75457  Biso   1.000  Zr
  Zr54     1.0000 0.47899  0.85849  0.25940  Biso   1.000  Zr
  Zr55     1.0000 0.49139  0.85765  0.75880  Biso   1.000  Zr
  Zr56     1.0000 0.00157  0.40141  0.00161  Biso   1.000  Zr
  Zr57     1.0000 0.00357  0.39152  0.50217  Biso   1.000  Zr
  Zr58     1.0000 0.03345  0.91940  0.03349  Biso   1.000  Zr
  Zr59     1.0000 0.00416  0.89023  0.51423  Biso   1.000  Zr
  Zr60     1.0000 0.50213  0.39152  0.00361  Biso   1.000  Zr
  Zr61     1.0000 0.50344  0.39145  0.50348  Biso   1.000  Zr
  Zr62     1.0000 0.51419  0.89022  0.00420  Biso   1.000  Zr
  Zr63     1.0000 0.50483  0.89205  0.50488  Biso   1.000  Zr
  Zr64     1.0000 0.27713  0.15906  0.27717  Biso   1.000  Zr
  Zr65     1.0000 0.25937  0.14184  0.77118  Biso   1.000  Zr
  Zr66     1.0000 0.25221  0.65486  0.25225  Biso   1.000  Zr
  Zr67     1.0000 0.25540  0.64171  0.75282  Biso   1.000  Zr
  Zr68     1.0000 0.77113  0.14184  0.25941  Biso   1.000  Zr
  Zr69     1.0000 0.75875  0.14269  0.75879  Biso   1.000  Zr
  Zr70     1.0000 0.75278  0.64171  0.25545  Biso   1.000  Zr
  Zr71     1.0000 0.75454  0.64237  0.75458  Biso   1.000  Zr
  Zr72     1.0000 0.21666  0.08123  0.03351  Biso   1.000  Zr
  Zr73     1.0000 0.24597  0.11010  0.51422  Biso   1.000  Zr
  Zr74     1.0000 0.24861  0.59899  0.00157  Biso   1.000  Zr
  Zr75     1.0000 0.24655  0.60880  0.50214  Biso   1.000  Zr
  Zr76     1.0000 0.73596  0.11009  0.00421  Biso   1.000  Zr
  Zr77     1.0000 0.74530  0.10827  0.50488  Biso   1.000  Zr
  Zr78     1.0000 0.74805  0.60880  0.00363  Biso   1.000  Zr
  Zr79     1.0000 0.74668  0.60888  0.50350  Biso   1.000  Zr
  Zr80     1.0000 0.25226  0.34561  0.99792  Biso   1.000  Zr
  Zr81     1.0000 0.25539  0.35862  0.49738  Biso   1.000  Zr
  Zr82     1.0000 0.27707  0.84140  0.97311  Biso   1.000  Zr
  Zr83     1.0000 0.25936  0.85849  0.47903  Biso   1.000  Zr
  Zr84     1.0000 0.75280  0.35862  0.99479  Biso   1.000  Zr
  Zr85     1.0000 0.75452  0.35796  0.49566  Biso   1.000  Zr
  Zr86     1.0000 0.77115  0.85848  0.99082  Biso   1.000  Zr
  Zr87     1.0000 0.75875  0.85765  0.49143  Biso   1.000  Zr
  Zr88     1.0000 0.24857  0.40142  0.24862  Biso   1.000  Zr
  Zr89     1.0000 0.24657  0.39152  0.74806  Biso   1.000  Zr
  Zr90     1.0000 0.21668  0.91940  0.21673  Biso   1.000  Zr
  Zr91     1.0000 0.24598  0.89023  0.73599  Biso   1.000  Zr
  Zr92     1.0000 0.74801  0.39152  0.24661  Biso   1.000  Zr
  Zr93     1.0000 0.74670  0.39145  0.74674  Biso   1.000  Zr
  Zr94     1.0000 0.73595  0.89023  0.24602  Biso   1.000  Zr
  Zr95     1.0000 0.74530  0.89205  0.74535  Biso   1.000  Zr
