data_image0
_cell_length_a       10.3031
_cell_length_b       10.363
_cell_length_c       5.26113
_cell_angle_alpha    90.0072
_cell_angle_beta     79.8616
_cell_angle_gamma    90.3004

_symmetry_space_group_name_H-M    "P 1"
_symmetry_int_tables_number       1

loop_
  _symmetry_equiv_pos_as_xyz
  'x, y, z'

loop_
  _atom_site_label
  _atom_site_occupancy
  _atom_site_fract_x
  _atom_site_fract_y
  _atom_site_fract_z
  _atom_site_thermal_displace_type
  _atom_site_B_iso_or_equiv
  _atom_site_type_symbol
  Zr1      1.0000 0.12273  0.01522  0.29832  Biso   1.000  Zr
  Zr2      1.0000 0.14031  0.23615  0.77517  Biso   1.000  Zr
  Zr3      1.0000 0.36682  0.26656  0.26103  Biso   1.000  Zr
  Zr4      1.0000 0.35067  0.47771  0.70296  Biso   1.000  Zr
  O1       1.0000 0.04441  0.16763  0.14638  Biso   1.000  O
  O2       1.0000 0.02878  0.08106  0.66266  Biso   1.000  O
  O3       1.0000 0.45998  0.42828  0.33778  Biso   1.000  O
  O4       1.0000 0.46892  0.32307  0.85252  Biso   1.000  O
  O5       1.0000 0.26072  0.11655  0.45937  Biso   1.000  O
  O6       1.0000 0.31360  0.15100  0.91566  Biso   1.000  O
  O7       1.0000 0.22027  0.38413  0.01246  Biso   1.000  O
  O8       1.0000 0.20314  0.37978  0.50341  Biso   1.000  O
  Zr5      1.0000 0.13893  0.52394  0.28107  Biso   1.000  Zr
  Zr6      1.0000 0.13490  0.72928  0.78834  Biso   1.000  Zr
  Zr7      1.0000 0.35947  0.77232  0.20461  Biso   1.000  Zr
  Zr8      1.0000 0.36454  0.97642  0.69301  Biso   1.000  Zr
  O9       1.0000 0.03050  0.67001  0.15518  Biso   1.000  O
  O10      1.0000 0.03038  0.58718  0.65474  Biso   1.000  O
  O11      1.0000 0.46631  0.91952  0.33846  Biso   1.000  O
  O12      1.0000 0.46279  0.83035  0.83721  Biso   1.000  O
  O13      1.0000 0.27374  0.62923  0.47937  Biso   1.000  O
  O14      1.0000 0.27178  0.62872  0.97762  Biso   1.000  O
  O15      1.0000 0.22644  0.89375  0.01105  Biso   1.000  O
  O16      1.0000 0.22387  0.86780  0.51296  Biso   1.000  O
  Zr9      1.0000 0.64358  0.01903  0.29776  Biso   1.000  Zr
  Zr10     1.0000 0.65282  0.22376  0.80122  Biso   1.000  Zr
  Zr11     1.0000 0.86646  0.27249  0.21218  Biso   1.000  Zr
  Zr12     1.0000 0.86076  0.47947  0.71042  Biso   1.000  Zr
  O17      1.0000 0.54262  0.16802  0.17396  Biso   1.000  O
  O18      1.0000 0.54610  0.07581  0.67086  Biso   1.000  O
  O19      1.0000 0.96120  0.42173  0.33904  Biso   1.000  O
  O20      1.0000 0.96321  0.33361  0.84119  Biso   1.000  O
  O21      1.0000 0.78270  0.12762  0.48607  Biso   1.000  O
  O22      1.0000 0.78106  0.11916  0.99010  Biso   1.000  O
  O23      1.0000 0.72546  0.37623  0.02846  Biso   1.000  O
  O24      1.0000 0.72393  0.36831  0.52633  Biso   1.000  O
  Zr13     1.0000 0.63562  0.52060  0.29912  Biso   1.000  Zr
  Zr14     1.0000 0.63364  0.72524  0.79498  Biso   1.000  Zr
  Zr15     1.0000 0.85605  0.76623  0.21025  Biso   1.000  Zr
  Zr16     1.0000 0.85849  0.97473  0.71760  Biso   1.000  Zr
  O25      1.0000 0.53294  0.67123  0.16825  Biso   1.000  O
  O26      1.0000 0.53196  0.57644  0.67031  Biso   1.000  O
  O27      1.0000 0.95830  0.91100  0.35388  Biso   1.000  O
  O28      1.0000 0.96402  0.83385  0.84955  Biso   1.000  O
  O29      1.0000 0.77127  0.62615  0.48539  Biso   1.000  O
  O30      1.0000 0.77101  0.61939  0.98452  Biso   1.000  O
  O31      1.0000 0.72296  0.87629  0.02311  Biso   1.000  O
  O32      1.0000 0.72192  0.86726  0.52371  Biso   1.000  O
  B1       1.0000 0.38921  0.24079  0.73039  Biso   1.000  B
