data_image0
_cell_length_a       10.2753
_cell_length_b       10.7208
_cell_length_c       5.28714
_cell_angle_alpha    88.6696
_cell_angle_beta     79.413
_cell_angle_gamma    90.9738

_symmetry_space_group_name_H-M    "P 1"
_symmetry_int_tables_number       1

loop_
  _symmetry_equiv_pos_as_xyz
  'x, y, z'

loop_
  _atom_site_label
  _atom_site_occupancy
  _atom_site_fract_x
  _atom_site_fract_y
  _atom_site_fract_z
  _atom_site_thermal_displace_type
  _atom_site_B_iso_or_equiv
  _atom_site_type_symbol
  Zr1      1.0000 0.14176  0.01997  0.28229  Biso   1.000  Zr
  Zr2      1.0000 0.12506  0.22382  0.78150  Biso   1.000  Zr
  Zr3      1.0000 0.32523  0.28735  0.18954  Biso   1.000  Zr
  Zr4      1.0000 0.34093  0.49388  0.71115  Biso   1.000  Zr
  O1       1.0000 0.05312  0.17855  0.17388  Biso   1.000  O
  O2       1.0000 0.03819  0.07485  0.65577  Biso   1.000  O
  O3       1.0000 0.44791  0.43019  0.35589  Biso   1.000  O
  O4       1.0000 0.44068  0.37344  0.89584  Biso   1.000  O
  O5       1.0000 0.27898  0.13121  0.46405  Biso   1.000  O
  O6       1.0000 0.28172  0.13035  0.94982  Biso   1.000  O
  O7       1.0000 0.19580  0.39015  0.01477  Biso   1.000  O
  O8       1.0000 0.20859  0.37174  0.51961  Biso   1.000  O
  Zr5      1.0000 0.12613  0.52863  0.29701  Biso   1.000  Zr
  Zr6      1.0000 0.13164  0.73187  0.78896  Biso   1.000  Zr
  Zr7      1.0000 0.35343  0.77115  0.19543  Biso   1.000  Zr
  Zr8      1.0000 0.35603  0.96905  0.69202  Biso   1.000  Zr
  O9       1.0000 0.02852  0.67470  0.16864  Biso   1.000  O
  O10      1.0000 0.03110  0.58132  0.67715  Biso   1.000  O
  O11      1.0000 0.45413  0.91883  0.29934  Biso   1.000  O
  O12      1.0000 0.44918  0.81402  0.81757  Biso   1.000  O
  O13      1.0000 0.26422  0.63503  0.47755  Biso   1.000  O
  O14      1.0000 0.26223  0.62714  0.98154  Biso   1.000  O
  O15      1.0000 0.21978  0.88316  0.00990  Biso   1.000  O
  O16      1.0000 0.21800  0.86977  0.50862  Biso   1.000  O
  Zr9      1.0000 0.63884  0.99858  0.27724  Biso   1.000  Zr
  Zr10     1.0000 0.71910  0.23271  0.88555  Biso   1.000  Zr
  Zr11     1.0000 0.87224  0.26714  0.25913  Biso   1.000  Zr
  Zr12     1.0000 0.85257  0.48792  0.73051  Biso   1.000  Zr
  O17      1.0000 0.55824  0.15816  0.11075  Biso   1.000  O
  O18      1.0000 0.54071  0.02604  0.64360  Biso   1.000  O
  O19      1.0000 0.95887  0.42874  0.35989  Biso   1.000  O
  O20      1.0000 0.93781  0.31054  0.84829  Biso   1.000  O
  O21      1.0000 0.77960  0.12908  0.52696  Biso   1.000  O
  O22      1.0000 0.81322  0.08351  0.02852  Biso   1.000  O
  O23      1.0000 0.72764  0.40034  0.07269  Biso   1.000  O
  O24      1.0000 0.72769  0.37151  0.56950  Biso   1.000  O
  Zr13     1.0000 0.62838  0.53469  0.30163  Biso   1.000  Zr
  Zr14     1.0000 0.62992  0.72736  0.78770  Biso   1.000  Zr
  Zr15     1.0000 0.85925  0.77167  0.20580  Biso   1.000  Zr
  Zr16     1.0000 0.86004  0.97190  0.70256  Biso   1.000  Zr
  O25      1.0000 0.52575  0.67181  0.15770  Biso   1.000  O
  O26      1.0000 0.52393  0.58715  0.65881  Biso   1.000  O
  O27      1.0000 0.96789  0.91903  0.33369  Biso   1.000  O
  O28      1.0000 0.96183  0.82847  0.83794  Biso   1.000  O
  O29      1.0000 0.76945  0.62934  0.48960  Biso   1.000  O
  O30      1.0000 0.76820  0.63053  0.98626  Biso   1.000  O
  O31      1.0000 0.71633  0.86803  0.00527  Biso   1.000  O
  O32      1.0000 0.72769  0.86383  0.50395  Biso   1.000  O
  Ba1      1.0000 0.52380  0.24185  0.55861  Biso   1.000  Ba
