data_image0
_cell_length_a       10.1003
_cell_length_b       10.2767
_cell_length_c       10.1003
_cell_angle_alpha    89.9764
_cell_angle_beta     90.0566
_cell_angle_gamma    89.975

_symmetry_space_group_name_H-M    "P 1"
_symmetry_int_tables_number       1

loop_
  _symmetry_equiv_pos_as_xyz
  'x, y, z'

loop_
  _atom_site_label
  _atom_site_occupancy
  _atom_site_fract_x
  _atom_site_fract_y
  _atom_site_fract_z
  _atom_site_thermal_displace_type
  _atom_site_B_iso_or_equiv
  _atom_site_type_symbol
  Zr1      1.0000 0.12227  0.99036  0.12219  Biso   1.000  Zr
  Zr2      1.0000 0.14692  0.25907  0.38732  Biso   1.000  Zr
  Zr3      1.0000 0.38741  0.25907  0.14685  Biso   1.000  Zr
  Zr4      1.0000 0.37856  0.99663  0.37848  Biso   1.000  Zr
  Zr5      1.0000 0.02073  0.16693  0.02065  Biso   1.000  Zr
  Zr6      1.0000 0.97633  0.08883  0.23894  Biso   1.000  Zr
  Zr7      1.0000 0.03178  0.33063  0.22083  Biso   1.000  Zr
  Zr8      1.0000 0.99157  0.40759  0.99145  Biso   1.000  Zr
  Zr9      1.0000 0.21607  0.15785  0.21599  Biso   1.000  Zr
  Zr10     1.0000 0.23902  0.08883  0.97625  Biso   1.000  Zr
  Zr11     1.0000 0.22093  0.33062  0.03169  Biso   1.000  Zr
  Zr12     1.0000 0.25815  0.40762  0.25806  Biso   1.000  Zr
  Zr13     1.0000 0.12503  0.00041  0.62478  Biso   1.000  Zr
  Zr14     1.0000 0.12766  0.24948  0.85999  Biso   1.000  Zr
  Zr15     1.0000 0.38259  0.24542  0.61326  Biso   1.000  Zr
  Zr16     1.0000 0.37643  0.99913  0.87495  Biso   1.000  Zr
  Zr17     1.0000 0.00672  0.14670  0.50301  Biso   1.000  Zr
  Zr18     1.0000 0.00047  0.10623  0.75880  Biso   1.000  Zr
  Zr19     1.0000 0.00010  0.35618  0.73471  Biso   1.000  Zr
  Zr20     1.0000 0.00619  0.39668  0.48424  Biso   1.000  Zr
  Zr21     1.0000 0.24643  0.14899  0.73142  Biso   1.000  Zr
  Zr22     1.0000 0.24869  0.10348  0.48998  Biso   1.000  Zr
  Zr23     1.0000 0.24694  0.36708  0.52634  Biso   1.000  Zr
  Zr24     1.0000 0.23966  0.40173  0.77584  Biso   1.000  Zr
  Zr25     1.0000 0.12297  0.50695  0.12289  Biso   1.000  Zr
  Zr26     1.0000 0.12665  0.74841  0.37670  Biso   1.000  Zr
  Zr27     1.0000 0.37678  0.74842  0.12657  Biso   1.000  Zr
  Zr28     1.0000 0.38232  0.49834  0.38224  Biso   1.000  Zr
  Zr29     1.0000 0.00943  0.65477  0.00935  Biso   1.000  Zr
  Zr30     1.0000 0.99743  0.59647  0.25607  Biso   1.000  Zr
  Zr31     1.0000 0.00571  0.84532  0.24516  Biso   1.000  Zr
  Zr32     1.0000 0.99406  0.90048  0.99399  Biso   1.000  Zr
  Zr33     1.0000 0.24332  0.65300  0.24324  Biso   1.000  Zr
  Zr34     1.0000 0.25615  0.59646  0.99734  Biso   1.000  Zr
  Zr35     1.0000 0.24523  0.84532  0.00564  Biso   1.000  Zr
  Zr36     1.0000 0.25340  0.90191  0.25332  Biso   1.000  Zr
  Zr37     1.0000 0.12397  0.50373  0.62793  Biso   1.000  Zr
  Zr38     1.0000 0.12540  0.75038  0.87300  Biso   1.000  Zr
  Zr39     1.0000 0.37469  0.75065  0.62329  Biso   1.000  Zr
  Zr40     1.0000 0.38118  0.50309  0.87205  Biso   1.000  Zr
  Zr41     1.0000 0.00414  0.64586  0.50782  Biso   1.000  Zr
  Zr42     1.0000 0.99753  0.60830  0.75655  Biso   1.000  Zr
  Zr43     1.0000 0.00516  0.85686  0.74468  Biso   1.000  Zr
  Zr44     1.0000 0.99779  0.89478  0.49776  Biso   1.000  Zr
  Zr45     1.0000 0.24739  0.64711  0.74440  Biso   1.000  Zr
  Zr46     1.0000 0.25314  0.60807  0.49655  Biso   1.000  Zr
  Zr47     1.0000 0.24692  0.85651  0.50382  Biso   1.000  Zr
  Zr48     1.0000 0.25372  0.89571  0.75065  Biso   1.000  Zr
  Zr49     1.0000 0.62486  0.00041  0.12495  Biso   1.000  Zr
  Zr50     1.0000 0.61332  0.24541  0.38252  Biso   1.000  Zr
  Zr51     1.0000 0.86007  0.24948  0.12759  Biso   1.000  Zr
  Zr52     1.0000 0.87504  0.99913  0.37635  Biso   1.000  Zr
  Zr53     1.0000 0.50309  0.14670  0.00664  Biso   1.000  Zr
  Zr54     1.0000 0.49006  0.10348  0.24862  Biso   1.000  Zr
  Zr55     1.0000 0.52643  0.36708  0.24687  Biso   1.000  Zr
  Zr56     1.0000 0.48433  0.39668  0.00611  Biso   1.000  Zr
  Zr57     1.0000 0.73150  0.14900  0.24635  Biso   1.000  Zr
  Zr58     1.0000 0.75888  0.10623  0.00039  Biso   1.000  Zr
  Zr59     1.0000 0.73481  0.35618  0.00001  Biso   1.000  Zr
  Zr60     1.0000 0.77593  0.40174  0.23956  Biso   1.000  Zr
  Zr61     1.0000 0.62696  0.99552  0.62688  Biso   1.000  Zr
  Zr62     1.0000 0.61838  0.24787  0.87315  Biso   1.000  Zr
  Zr63     1.0000 0.87322  0.24787  0.61830  Biso   1.000  Zr
  Zr64     1.0000 0.87161  0.99992  0.87152  Biso   1.000  Zr
  Zr65     1.0000 0.51083  0.12940  0.51076  Biso   1.000  Zr
  Zr66     1.0000 0.50044  0.10349  0.75413  Biso   1.000  Zr
  Zr67     1.0000 0.49725  0.35534  0.75038  Biso   1.000  Zr
  Zr68     1.0000 0.50552  0.39274  0.50544  Biso   1.000  Zr
  Zr69     1.0000 0.74730  0.14447  0.74721  Biso   1.000  Zr
  Zr70     1.0000 0.75420  0.10349  0.50036  Biso   1.000  Zr
  Zr71     1.0000 0.75046  0.35534  0.49716  Biso   1.000  Zr
  Zr72     1.0000 0.74922  0.39387  0.74912  Biso   1.000  Zr
  Zr73     1.0000 0.62801  0.50373  0.12389  Biso   1.000  Zr
  Zr74     1.0000 0.62337  0.75065  0.37461  Biso   1.000  Zr
  Zr75     1.0000 0.87308  0.75038  0.12532  Biso   1.000  Zr
  Zr76     1.0000 0.87214  0.50309  0.38109  Biso   1.000  Zr
  Zr77     1.0000 0.50790  0.64586  0.00406  Biso   1.000  Zr
  Zr78     1.0000 0.49663  0.60807  0.25306  Biso   1.000  Zr
  Zr79     1.0000 0.50390  0.85652  0.24684  Biso   1.000  Zr
  Zr80     1.0000 0.49783  0.89478  0.99771  Biso   1.000  Zr
  Zr81     1.0000 0.74449  0.64712  0.24731  Biso   1.000  Zr
  Zr82     1.0000 0.75663  0.60829  0.99745  Biso   1.000  Zr
  Zr83     1.0000 0.74475  0.85686  0.00508  Biso   1.000  Zr
  Zr84     1.0000 0.75073  0.89572  0.25364  Biso   1.000  Zr
  Zr85     1.0000 0.62792  0.50215  0.62783  Biso   1.000  Zr
  Zr86     1.0000 0.62635  0.75132  0.87639  Biso   1.000  Zr
  Zr87     1.0000 0.87647  0.75132  0.62628  Biso   1.000  Zr
  Zr88     1.0000 0.87129  0.50001  0.87121  Biso   1.000  Zr
  Zr89     1.0000 0.50444  0.64353  0.50436  Biso   1.000  Zr
  Zr90     1.0000 0.50034  0.60635  0.75184  Biso   1.000  Zr
  Zr91     1.0000 0.50695  0.85268  0.74457  Biso   1.000  Zr
  Zr92     1.0000 0.49787  0.89012  0.49779  Biso   1.000  Zr
  Zr93     1.0000 0.74634  0.64681  0.74626  Biso   1.000  Zr
  Zr94     1.0000 0.75192  0.60635  0.50026  Biso   1.000  Zr
  Zr95     1.0000 0.74465  0.85268  0.50687  Biso   1.000  Zr
  Zr96     1.0000 0.75471  0.89309  0.75464  Biso   1.000  Zr
  Be1      1.0000 0.12101  0.24591  0.12093  Biso   1.000  Be
