data_image0
_cell_length_a       10.0613
_cell_length_b       10.1824
_cell_length_c       10.0613
_cell_angle_alpha    89.9993
_cell_angle_beta     90.0003
_cell_angle_gamma    89.9992

_symmetry_space_group_name_H-M    "P 1"
_symmetry_int_tables_number       1

loop_
  _symmetry_equiv_pos_as_xyz
  'x, y, z'

loop_
  _atom_site_label
  _atom_site_occupancy
  _atom_site_fract_x
  _atom_site_fract_y
  _atom_site_fract_z
  _atom_site_thermal_displace_type
  _atom_site_B_iso_or_equiv
  _atom_site_type_symbol
  Be1      1.0000 0.12503  0.00009  0.12501  Biso   1.000  Be
  Zr1      1.0000 0.12502  0.00013  0.62502  Biso   1.000  Zr
  Zr2      1.0000 0.12502  0.50010  0.12501  Biso   1.000  Zr
  Zr3      1.0000 0.12502  0.50013  0.62501  Biso   1.000  Zr
  Zr4      1.0000 0.62503  0.00013  0.12502  Biso   1.000  Zr
  Zr5      1.0000 0.62503  0.00013  0.62502  Biso   1.000  Zr
  Zr6      1.0000 0.62501  0.50013  0.12501  Biso   1.000  Zr
  Zr7      1.0000 0.62502  0.50013  0.62501  Biso   1.000  Zr
  Zr8      1.0000 0.12879  0.25042  0.37735  Biso   1.000  Zr
  Zr9      1.0000 0.12125  0.25043  0.87267  Biso   1.000  Zr
  Zr10     1.0000 0.12128  0.74983  0.37734  Biso   1.000  Zr
  Zr11     1.0000 0.12878  0.74983  0.87269  Biso   1.000  Zr
  Zr12     1.0000 0.62659  0.24708  0.37583  Biso   1.000  Zr
  Zr13     1.0000 0.62345  0.24708  0.87418  Biso   1.000  Zr
  Zr14     1.0000 0.62346  0.75318  0.37584  Biso   1.000  Zr
  Zr15     1.0000 0.62659  0.75318  0.87420  Biso   1.000  Zr
  Zr16     1.0000 0.37736  0.25043  0.12878  Biso   1.000  Zr
  Zr17     1.0000 0.37584  0.24708  0.62658  Biso   1.000  Zr
  Zr18     1.0000 0.37736  0.74983  0.12126  Biso   1.000  Zr
  Zr19     1.0000 0.37585  0.75318  0.62346  Biso   1.000  Zr
  Zr20     1.0000 0.87267  0.25044  0.12123  Biso   1.000  Zr
  Zr21     1.0000 0.87420  0.24708  0.62344  Biso   1.000  Zr
  Zr22     1.0000 0.87269  0.74981  0.12877  Biso   1.000  Zr
  Zr23     1.0000 0.87421  0.75318  0.62658  Biso   1.000  Zr
  Zr24     1.0000 0.36876  0.99947  0.36875  Biso   1.000  Zr
  Zr25     1.0000 0.36877  0.00078  0.88127  Biso   1.000  Zr
  Zr26     1.0000 0.37812  0.50144  0.37811  Biso   1.000  Zr
  Zr27     1.0000 0.37812  0.49883  0.87190  Biso   1.000  Zr
  Zr28     1.0000 0.88128  0.00078  0.36875  Biso   1.000  Zr
  Zr29     1.0000 0.88130  0.99947  0.88129  Biso   1.000  Zr
  Zr30     1.0000 0.87192  0.49883  0.37811  Biso   1.000  Zr
  Zr31     1.0000 0.87192  0.50145  0.87190  Biso   1.000  Zr
  Zr32     1.0000 0.97866  0.15732  0.97865  Biso   1.000  Zr
  Zr33     1.0000 0.99325  0.14472  0.48581  Biso   1.000  Zr
  Zr34     1.0000 0.00116  0.65807  0.00115  Biso   1.000  Zr
  Zr35     1.0000 0.99642  0.64428  0.50019  Biso   1.000  Zr
  Zr36     1.0000 0.48582  0.14472  0.99323  Biso   1.000  Zr
  Zr37     1.0000 0.49515  0.14523  0.49513  Biso   1.000  Zr
  Zr38     1.0000 0.50021  0.64428  0.99641  Biso   1.000  Zr
  Zr39     1.0000 0.49754  0.64467  0.49753  Biso   1.000  Zr
  Zr40     1.0000 0.02032  0.08241  0.22977  Biso   1.000  Zr
  Zr41     1.0000 0.00223  0.10630  0.73994  Biso   1.000  Zr
  Zr42     1.0000 0.99978  0.59634  0.25024  Biso   1.000  Zr
  Zr43     1.0000 0.00277  0.60584  0.75052  Biso   1.000  Zr
  Zr44     1.0000 0.51011  0.10630  0.24780  Biso   1.000  Zr
  Zr45     1.0000 0.50235  0.10504  0.74768  Biso   1.000  Zr
  Zr46     1.0000 0.49951  0.60584  0.24726  Biso   1.000  Zr
  Zr47     1.0000 0.50209  0.60607  0.74795  Biso   1.000  Zr
  Zr48     1.0000 0.00120  0.34212  0.24883  Biso   1.000  Zr
  Zr49     1.0000 0.99642  0.35598  0.74981  Biso   1.000  Zr
  Zr50     1.0000 0.97863  0.84290  0.27141  Biso   1.000  Zr
  Zr51     1.0000 0.99325  0.85554  0.76422  Biso   1.000  Zr
  Zr52     1.0000 0.50022  0.35598  0.25361  Biso   1.000  Zr
  Zr53     1.0000 0.49754  0.35560  0.75249  Biso   1.000  Zr
  Zr54     1.0000 0.48582  0.85555  0.25679  Biso   1.000  Zr
  Zr55     1.0000 0.49515  0.85503  0.75489  Biso   1.000  Zr
  Zr56     1.0000 0.99976  0.40389  0.99976  Biso   1.000  Zr
  Zr57     1.0000 0.00278  0.39443  0.49948  Biso   1.000  Zr
  Zr58     1.0000 0.02032  0.91774  0.02028  Biso   1.000  Zr
  Zr59     1.0000 0.00224  0.89396  0.51009  Biso   1.000  Zr
  Zr60     1.0000 0.49949  0.39443  0.00276  Biso   1.000  Zr
  Zr61     1.0000 0.50209  0.39419  0.50208  Biso   1.000  Zr
  Zr62     1.0000 0.51012  0.89396  0.00222  Biso   1.000  Zr
  Zr63     1.0000 0.50236  0.89522  0.50235  Biso   1.000  Zr
  Zr64     1.0000 0.27142  0.15733  0.27140  Biso   1.000  Zr
  Zr65     1.0000 0.25680  0.14472  0.76422  Biso   1.000  Zr
  Zr66     1.0000 0.24887  0.65807  0.24886  Biso   1.000  Zr
  Zr67     1.0000 0.25362  0.64428  0.74982  Biso   1.000  Zr
  Zr68     1.0000 0.76424  0.14472  0.25678  Biso   1.000  Zr
  Zr69     1.0000 0.75489  0.14523  0.75487  Biso   1.000  Zr
  Zr70     1.0000 0.74983  0.64428  0.25361  Biso   1.000  Zr
  Zr71     1.0000 0.75251  0.64467  0.75249  Biso   1.000  Zr
  Zr72     1.0000 0.22976  0.08243  0.02030  Biso   1.000  Zr
  Zr73     1.0000 0.24781  0.10630  0.51009  Biso   1.000  Zr
  Zr74     1.0000 0.25026  0.59635  0.99977  Biso   1.000  Zr
  Zr75     1.0000 0.24727  0.60583  0.49950  Biso   1.000  Zr
  Zr76     1.0000 0.73995  0.10630  0.00221  Biso   1.000  Zr
  Zr77     1.0000 0.74769  0.10504  0.50233  Biso   1.000  Zr
  Zr78     1.0000 0.75053  0.60583  0.00276  Biso   1.000  Zr
  Zr79     1.0000 0.74795  0.60608  0.50208  Biso   1.000  Zr
  Zr80     1.0000 0.24884  0.34213  0.00119  Biso   1.000  Zr
  Zr81     1.0000 0.25362  0.35598  0.50021  Biso   1.000  Zr
  Zr82     1.0000 0.27143  0.84290  0.97862  Biso   1.000  Zr
  Zr83     1.0000 0.25681  0.85554  0.48581  Biso   1.000  Zr
  Zr84     1.0000 0.74981  0.35599  0.99641  Biso   1.000  Zr
  Zr85     1.0000 0.75250  0.35560  0.49753  Biso   1.000  Zr
  Zr86     1.0000 0.76424  0.85554  0.99324  Biso   1.000  Zr
  Zr87     1.0000 0.75490  0.85503  0.49514  Biso   1.000  Zr
  Zr88     1.0000 0.25027  0.40389  0.25026  Biso   1.000  Zr
  Zr89     1.0000 0.24727  0.39443  0.75054  Biso   1.000  Zr
  Zr90     1.0000 0.22975  0.91774  0.22975  Biso   1.000  Zr
  Zr91     1.0000 0.24782  0.89396  0.73993  Biso   1.000  Zr
  Zr92     1.0000 0.75055  0.39443  0.24725  Biso   1.000  Zr
  Zr93     1.0000 0.74795  0.39419  0.74794  Biso   1.000  Zr
  Zr94     1.0000 0.73994  0.89396  0.24781  Biso   1.000  Zr
  Zr95     1.0000 0.74770  0.89523  0.74769  Biso   1.000  Zr
