data_image0
_cell_length_a       10.276
_cell_length_b       10.423
_cell_length_c       10.5717
_cell_angle_alpha    89.7588
_cell_angle_beta     79.5083
_cell_angle_gamma    89.837

_symmetry_space_group_name_H-M    "P 1"
_symmetry_int_tables_number       1

loop_
  _symmetry_equiv_pos_as_xyz
  'x, y, z'

loop_
  _atom_site_label
  _atom_site_occupancy
  _atom_site_fract_x
  _atom_site_fract_y
  _atom_site_fract_z
  _atom_site_thermal_displace_type
  _atom_site_B_iso_or_equiv
  _atom_site_type_symbol
  Zr1      1.0000 0.13115  0.01933  0.14246  Biso   1.000  Zr
  Zr2      1.0000 0.14185  0.22683  0.39111  Biso   1.000  Zr
  Zr3      1.0000 0.34404  0.26852  0.09170  Biso   1.000  Zr
  Zr4      1.0000 0.35418  0.49124  0.35570  Biso   1.000  Zr
  O1       1.0000 0.03120  0.16807  0.07653  Biso   1.000  O
  O2       1.0000 0.03029  0.08121  0.32989  Biso   1.000  O
  O3       1.0000 0.46213  0.42794  0.16887  Biso   1.000  O
  O4       1.0000 0.48733  0.38894  0.44987  Biso   1.000  O
  O5       1.0000 0.26286  0.11754  0.23180  Biso   1.000  O
  O6       1.0000 0.27543  0.11262  0.48686  Biso   1.000  O
  O7       1.0000 0.21622  0.38155  0.00194  Biso   1.000  O
  O8       1.0000 0.21504  0.37389  0.25270  Biso   1.000  O
  Zr5      1.0000 0.13904  0.01976  0.64440  Biso   1.000  Zr
  Zr6      1.0000 0.13284  0.22849  0.88935  Biso   1.000  Zr
  Zr7      1.0000 0.36459  0.27710  0.60222  Biso   1.000  Zr
  Zr8      1.0000 0.35902  0.47826  0.85448  Biso   1.000  Zr
  O9       1.0000 0.04120  0.16963  0.57986  Biso   1.000  O
  O10      1.0000 0.03080  0.08282  0.82706  Biso   1.000  O
  O11      1.0000 0.47008  0.40794  0.68567  Biso   1.000  O
  O12      1.0000 0.46431  0.33624  0.92707  Biso   1.000  O
  O13      1.0000 0.27346  0.12969  0.73582  Biso   1.000  O
  O14      1.0000 0.26811  0.12285  0.98302  Biso   1.000  O
  O15      1.0000 0.22525  0.37895  0.50728  Biso   1.000  O
  O16      1.0000 0.22434  0.37239  0.75582  Biso   1.000  O
  Zr9      1.0000 0.13811  0.52197  0.14369  Biso   1.000  Zr
  Zr10     1.0000 0.13390  0.72892  0.39714  Biso   1.000  Zr
  Zr11     1.0000 0.35812  0.77123  0.10127  Biso   1.000  Zr
  Zr12     1.0000 0.35461  0.96301  0.35487  Biso   1.000  Zr
  O17      1.0000 0.03265  0.66886  0.07843  Biso   1.000  O
  O18      1.0000 0.03538  0.58440  0.32718  Biso   1.000  O
  O19      1.0000 0.46260  0.91134  0.16837  Biso   1.000  O
  O20      1.0000 0.45687  0.82056  0.42400  Biso   1.000  O
  O21      1.0000 0.27291  0.63036  0.24043  Biso   1.000  O
  O22      1.0000 0.26896  0.62354  0.49335  Biso   1.000  O
  O23      1.0000 0.22316  0.87953  0.00771  Biso   1.000  O
  O24      1.0000 0.21858  0.86649  0.25806  Biso   1.000  O
  Zr13     1.0000 0.13732  0.52267  0.64695  Biso   1.000  Zr
  Zr14     1.0000 0.13622  0.72866  0.89584  Biso   1.000  Zr
  Zr15     1.0000 0.36057  0.77047  0.60696  Biso   1.000  Zr
  Zr16     1.0000 0.35965  0.97977  0.85143  Biso   1.000  Zr
  O25      1.0000 0.02801  0.66455  0.57950  Biso   1.000  O
  O26      1.0000 0.03199  0.58410  0.82980  Biso   1.000  O
  O27      1.0000 0.46510  0.91777  0.66957  Biso   1.000  O
  O28      1.0000 0.46444  0.83544  0.91839  Biso   1.000  O
  O29      1.0000 0.27332  0.62753  0.74082  Biso   1.000  O
  O30      1.0000 0.27343  0.62239  0.98996  Biso   1.000  O
  O31      1.0000 0.21922  0.87337  0.51181  Biso   1.000  O
  O32      1.0000 0.22385  0.87160  0.75979  Biso   1.000  O
  Zr17     1.0000 0.63820  0.01251  0.14795  Biso   1.000  Zr
  Zr18     1.0000 0.67417  0.23917  0.41398  Biso   1.000  Zr
  Zr19     1.0000 0.85935  0.27301  0.10922  Biso   1.000  Zr
  Zr20     1.0000 0.86711  0.48219  0.35705  Biso   1.000  Zr
  O33      1.0000 0.52218  0.15339  0.07244  Biso   1.000  O
  O34      1.0000 0.53664  0.04244  0.33757  Biso   1.000  O
  O35      1.0000 0.96655  0.41935  0.16976  Biso   1.000  O
  O36      1.0000 0.96633  0.32977  0.42251  Biso   1.000  O
  O37      1.0000 0.77661  0.12864  0.24744  Biso   1.000  O
  O38      1.0000 0.78852  0.11514  0.50214  Biso   1.000  O
  O39      1.0000 0.72065  0.37746  0.01754  Biso   1.000  O
  O40      1.0000 0.73374  0.37865  0.26726  Biso   1.000  O
  Zr21     1.0000 0.63758  0.02262  0.64715  Biso   1.000  Zr
  Zr22     1.0000 0.63652  0.22746  0.89982  Biso   1.000  Zr
  Zr23     1.0000 0.87052  0.27095  0.61443  Biso   1.000  Zr
  Zr24     1.0000 0.85836  0.47916  0.85885  Biso   1.000  Zr
  O41      1.0000 0.53933  0.17009  0.57218  Biso   1.000  O
  O42      1.0000 0.52961  0.08875  0.82375  Biso   1.000  O
  O43      1.0000 0.96745  0.41785  0.67626  Biso   1.000  O
  O44      1.0000 0.96033  0.33197  0.92208  Biso   1.000  O
  O45      1.0000 0.77360  0.12934  0.74668  Biso   1.000  O
  O46      1.0000 0.77081  0.12030  0.99633  Biso   1.000  O
  O47      1.0000 0.73780  0.38159  0.52233  Biso   1.000  O
  O48      1.0000 0.72593  0.37189  0.76762  Biso   1.000  O
  Zr25     1.0000 0.63703  0.52690  0.14693  Biso   1.000  Zr
  Zr26     1.0000 0.63723  0.72695  0.39665  Biso   1.000  Zr
  Zr27     1.0000 0.85985  0.76995  0.10492  Biso   1.000  Zr
  Zr28     1.0000 0.85970  0.97661  0.35586  Biso   1.000  Zr
  O49      1.0000 0.53224  0.66807  0.07369  Biso   1.000  O
  O50      1.0000 0.52888  0.59656  0.32005  Biso   1.000  O
  O51      1.0000 0.96123  0.91489  0.17319  Biso   1.000  O
  O52      1.0000 0.96236  0.83120  0.42305  Biso   1.000  O
  O53      1.0000 0.77565  0.62930  0.24205  Biso   1.000  O
  O54      1.0000 0.77247  0.62182  0.49134  Biso   1.000  O
  O55      1.0000 0.72306  0.87678  0.01022  Biso   1.000  O
  O56      1.0000 0.72401  0.86824  0.25918  Biso   1.000  O
  Zr29     1.0000 0.63615  0.52210  0.64960  Biso   1.000  Zr
  Zr30     1.0000 0.63539  0.72883  0.89504  Biso   1.000  Zr
  Zr31     1.0000 0.85814  0.77259  0.60594  Biso   1.000  Zr
  Zr32     1.0000 0.85894  0.97843  0.85546  Biso   1.000  Zr
  O57      1.0000 0.53112  0.66325  0.58025  Biso   1.000  O
  O58      1.0000 0.53019  0.58574  0.82874  Biso   1.000  O
  O59      1.0000 0.96352  0.91725  0.67179  Biso   1.000  O
  O60      1.0000 0.96475  0.83426  0.92188  Biso   1.000  O
  O61      1.0000 0.77210  0.62903  0.74164  Biso   1.000  O
  O62      1.0000 0.77337  0.62200  0.99130  Biso   1.000  O
  O63      1.0000 0.72066  0.87793  0.51049  Biso   1.000  O
  O64      1.0000 0.72270  0.87341  0.76085  Biso   1.000  O
  Bi1      1.0000 0.47207  0.24144  0.29413  Biso   1.000  Bi
