data_image0
_cell_length_a       10.2215
_cell_length_b       10.2803
_cell_length_c       10.1669
_cell_angle_alpha    90.4203
_cell_angle_beta     89.144
_cell_angle_gamma    90.3141

_symmetry_space_group_name_H-M    "P 1"
_symmetry_int_tables_number       1

loop_
  _symmetry_equiv_pos_as_xyz
  'x, y, z'

loop_
  _atom_site_label
  _atom_site_occupancy
  _atom_site_fract_x
  _atom_site_fract_y
  _atom_site_fract_z
  _atom_site_thermal_displace_type
  _atom_site_B_iso_or_equiv
  _atom_site_type_symbol
  Zr1      1.0000 0.12289  0.90545  0.12936  Biso   1.000  Zr
  Zr2      1.0000 0.13523  0.27451  0.38767  Biso   1.000  Zr
  Zr3      1.0000 0.39225  0.25705  0.14340  Biso   1.000  Zr
  Zr4      1.0000 0.36381  0.01951  0.39443  Biso   1.000  Zr
  Zr5      1.0000 0.92573  0.20409  0.92740  Biso   1.000  Zr
  Zr6      1.0000 0.94883  0.05703  0.18316  Biso   1.000  Zr
  Zr7      1.0000 0.99321  0.33635  0.24119  Biso   1.000  Zr
  Zr8      1.0000 0.01608  0.43995  0.97975  Biso   1.000  Zr
  Zr9      1.0000 0.32403  0.21323  0.33582  Biso   1.000  Zr
  Zr10     1.0000 0.29781  0.06532  0.08210  Biso   1.000  Zr
  Zr11     1.0000 0.26330  0.33184  0.99234  Biso   1.000  Zr
  Zr12     1.0000 0.24639  0.43961  0.25591  Biso   1.000  Zr
  Zr13     1.0000 0.14152  0.99014  0.64931  Biso   1.000  Zr
  Zr14     1.0000 0.10695  0.26950  0.85730  Biso   1.000  Zr
  Zr15     1.0000 0.35777  0.25839  0.63322  Biso   1.000  Zr
  Zr16     1.0000 0.37089  0.00751  0.90377  Biso   1.000  Zr
  Zr17     1.0000 0.97520  0.16103  0.44714  Biso   1.000  Zr
  Zr18     1.0000 0.00614  0.12117  0.71608  Biso   1.000  Zr
  Zr19     1.0000 0.98756  0.37278  0.72574  Biso   1.000  Zr
  Zr20     1.0000 0.00740  0.40786  0.48670  Biso   1.000  Zr
  Zr21     1.0000 0.25502  0.13917  0.78625  Biso   1.000  Zr
  Zr22     1.0000 0.22821  0.12690  0.53001  Biso   1.000  Zr
  Zr23     1.0000 0.25204  0.38401  0.51618  Biso   1.000  Zr
  Zr24     1.0000 0.23686  0.39805  0.75484  Biso   1.000  Zr
  Zr25     1.0000 0.12550  0.52861  0.12340  Biso   1.000  Zr
  Zr26     1.0000 0.13795  0.77276  0.39956  Biso   1.000  Zr
  Zr27     1.0000 0.39705  0.73620  0.10286  Biso   1.000  Zr
  Zr28     1.0000 0.39088  0.49088  0.38764  Biso   1.000  Zr
  Zr29     1.0000 0.03505  0.72297  0.03698  Biso   1.000  Zr
  Zr30     1.0000 0.97953  0.59282  0.24216  Biso   1.000  Zr
  Zr31     1.0000 0.98227  0.83602  0.27051  Biso   1.000  Zr
  Zr32     1.0000 0.05986  0.96377  0.94829  Biso   1.000  Zr
  Zr33     1.0000 0.21831  0.71888  0.21681  Biso   1.000  Zr
  Zr34     1.0000 0.26478  0.59769  0.99371  Biso   1.000  Zr
  Zr35     1.0000 0.27020  0.84277  0.99612  Biso   1.000  Zr
  Zr36     1.0000 0.20287  0.95607  0.30518  Biso   1.000  Zr
  Zr37     1.0000 0.11934  0.51540  0.62670  Biso   1.000  Zr
  Zr38     1.0000 0.13123  0.75718  0.86055  Biso   1.000  Zr
  Zr39     1.0000 0.38987  0.73696  0.62532  Biso   1.000  Zr
  Zr40     1.0000 0.38270  0.47768  0.88084  Biso   1.000  Zr
  Zr41     1.0000 0.02309  0.66047  0.51963  Biso   1.000  Zr
  Zr42     1.0000 0.99679  0.61421  0.77256  Biso   1.000  Zr
  Zr43     1.0000 0.01040  0.85633  0.74115  Biso   1.000  Zr
  Zr44     1.0000 0.00352  0.91105  0.50536  Biso   1.000  Zr
  Zr45     1.0000 0.24048  0.64879  0.72930  Biso   1.000  Zr
  Zr46     1.0000 0.26746  0.62623  0.47621  Biso   1.000  Zr
  Zr47     1.0000 0.26048  0.86946  0.52282  Biso   1.000  Zr
  Zr48     1.0000 0.27308  0.88951  0.76267  Biso   1.000  Zr
  Zr49     1.0000 0.61605  0.00553  0.13217  Biso   1.000  Zr
  Zr50     1.0000 0.60866  0.23088  0.39665  Biso   1.000  Zr
  Zr51     1.0000 0.84618  0.24433  0.11790  Biso   1.000  Zr
  Zr52     1.0000 0.87706  0.99934  0.36625  Biso   1.000  Zr
  Zr53     1.0000 0.50641  0.14838  0.01417  Biso   1.000  Zr
  Zr54     1.0000 0.50661  0.10131  0.26785  Biso   1.000  Zr
  Zr55     1.0000 0.52024  0.36634  0.26708  Biso   1.000  Zr
  Zr56     1.0000 0.48946  0.39837  0.02661  Biso   1.000  Zr
  Zr57     1.0000 0.73531  0.14504  0.25039  Biso   1.000  Zr
  Zr58     1.0000 0.73626  0.09392  0.99561  Biso   1.000  Zr
  Zr59     1.0000 0.73351  0.35973  0.99057  Biso   1.000  Zr
  Zr60     1.0000 0.75988  0.39408  0.22867  Biso   1.000  Zr
  Zr61     1.0000 0.62660  0.98223  0.63045  Biso   1.000  Zr
  Zr62     1.0000 0.63244  0.22670  0.86555  Biso   1.000  Zr
  Zr63     1.0000 0.87412  0.24102  0.60685  Biso   1.000  Zr
  Zr64     1.0000 0.88522  0.01305  0.86980  Biso   1.000  Zr
  Zr65     1.0000 0.49121  0.13192  0.53377  Biso   1.000  Zr
  Zr66     1.0000 0.52163  0.06396  0.78176  Biso   1.000  Zr
  Zr67     1.0000 0.47918  0.31747  0.77929  Biso   1.000  Zr
  Zr68     1.0000 0.49884  0.37743  0.51887  Biso   1.000  Zr
  Zr69     1.0000 0.75417  0.13172  0.73371  Biso   1.000  Zr
  Zr70     1.0000 0.73801  0.09428  0.49317  Biso   1.000  Zr
  Zr71     1.0000 0.74797  0.34926  0.48564  Biso   1.000  Zr
  Zr72     1.0000 0.73756  0.37635  0.74010  Biso   1.000  Zr
  Zr73     1.0000 0.62742  0.49775  0.12559  Biso   1.000  Zr
  Zr74     1.0000 0.60345  0.76566  0.36340  Biso   1.000  Zr
  Zr75     1.0000 0.85724  0.73816  0.14570  Biso   1.000  Zr
  Zr76     1.0000 0.86828  0.48477  0.36477  Biso   1.000  Zr
  Zr77     1.0000 0.52319  0.63355  0.98089  Biso   1.000  Zr
  Zr78     1.0000 0.48067  0.61039  0.23939  Biso   1.000  Zr
  Zr79     1.0000 0.47430  0.86265  0.24509  Biso   1.000  Zr
  Zr80     1.0000 0.52058  0.88351  0.99540  Biso   1.000  Zr
  Zr81     1.0000 0.72961  0.63381  0.26505  Biso   1.000  Zr
  Zr82     1.0000 0.77209  0.60598  0.00933  Biso   1.000  Zr
  Zr83     1.0000 0.79349  0.85509  0.99142  Biso   1.000  Zr
  Zr84     1.0000 0.73288  0.88418  0.24322  Biso   1.000  Zr
  Zr85     1.0000 0.63669  0.49943  0.61710  Biso   1.000  Zr
  Zr86     1.0000 0.65613  0.75870  0.88212  Biso   1.000  Zr
  Zr87     1.0000 0.87409  0.75227  0.62005  Biso   1.000  Zr
  Zr88     1.0000 0.86134  0.48634  0.86047  Biso   1.000  Zr
  Zr89     1.0000 0.52152  0.63063  0.49093  Biso   1.000  Zr
  Zr90     1.0000 0.47813  0.56687  0.72484  Biso   1.000  Zr
  Zr91     1.0000 0.53573  0.81537  0.73132  Biso   1.000  Zr
  Zr92     1.0000 0.49925  0.88924  0.49476  Biso   1.000  Zr
  Zr93     1.0000 0.74516  0.63007  0.75330  Biso   1.000  Zr
  Zr94     1.0000 0.78267  0.59126  0.51620  Biso   1.000  Zr
  Zr95     1.0000 0.74897  0.84300  0.49279  Biso   1.000  Zr
  Zr96     1.0000 0.76752  0.88888  0.74697  Biso   1.000  Zr
  Bi1      1.0000 0.12351  0.18647  0.12304  Biso   1.000  Bi
