data_image0
_cell_length_a       5.03124
_cell_length_b       10.4101
_cell_length_c       10.0641
_cell_angle_alpha    89.945
_cell_angle_beta     89.1207
_cell_angle_gamma    90.1428

_symmetry_space_group_name_H-M    "P 1"
_symmetry_int_tables_number       1

loop_
  _symmetry_equiv_pos_as_xyz
  'x, y, z'

loop_
  _atom_site_label
  _atom_site_occupancy
  _atom_site_fract_x
  _atom_site_fract_y
  _atom_site_fract_z
  _atom_site_thermal_displace_type
  _atom_site_B_iso_or_equiv
  _atom_site_type_symbol
  C1       1.0000 0.04536  0.05834  0.11292  Biso   1.000  C 
  Zr1      1.0000 0.25946  0.01018  0.62587  Biso   1.000  Zr
  Zr2      1.0000 0.26305  0.51750  0.12959  Biso   1.000  Zr
  Zr3      1.0000 0.27377  0.51625  0.62358  Biso   1.000  Zr
  Zr4      1.0000 0.28977  0.22950  0.37873  Biso   1.000  Zr
  Zr5      1.0000 0.27609  0.23436  0.87816  Biso   1.000  Zr
  Zr6      1.0000 0.28946  0.73748  0.37347  Biso   1.000  Zr
  Zr7      1.0000 0.27178  0.73376  0.87888  Biso   1.000  Zr
  Zr8      1.0000 0.70407  0.27012  0.12169  Biso   1.000  Zr
  Zr9      1.0000 0.74193  0.26162  0.62754  Biso   1.000  Zr
  Zr10     1.0000 0.73600  0.75862  0.11467  Biso   1.000  Zr
  Zr11     1.0000 0.74442  0.76565  0.62480  Biso   1.000  Zr
  Zr12     1.0000 0.74344  0.48232  0.37688  Biso   1.000  Zr
  Zr13     1.0000 0.74018  0.48309  0.87397  Biso   1.000  Zr
  Zr14     1.0000 0.73204  0.98804  0.37689  Biso   1.000  Zr
  Zr15     1.0000 0.70000  0.97819  0.88019  Biso   1.000  Zr
  Zr16     1.0000 0.09012  0.16660  0.17322  Biso   1.000  Zr
  Zr17     1.0000 0.05579  0.17453  0.71163  Biso   1.000  Zr
  Zr18     1.0000 0.08100  0.69145  0.19602  Biso   1.000  Zr
  Zr19     1.0000 0.07414  0.68023  0.69506  Biso   1.000  Zr
  Zr20     1.0000 0.07439  0.06943  0.44642  Biso   1.000  Zr
  Zr21     1.0000 0.05205  0.06155  0.98450  Biso   1.000  Zr
  Zr22     1.0000 0.08069  0.56637  0.44302  Biso   1.000  Zr
  Zr23     1.0000 0.06339  0.56891  0.95184  Biso   1.000  Zr
  Zr24     1.0000 0.92796  0.42545  0.19709  Biso   1.000  Zr
  Zr25     1.0000 0.93841  0.43003  0.69459  Biso   1.000  Zr
  Zr26     1.0000 0.96918  0.96004  0.17720  Biso   1.000  Zr
  Zr27     1.0000 0.92583  0.93186  0.70183  Biso   1.000  Zr
  Zr28     1.0000 0.94334  0.31464  0.44756  Biso   1.000  Zr
  Zr29     1.0000 0.93602  0.31800  0.94619  Biso   1.000  Zr
  Zr30     1.0000 0.95549  0.82306  0.44932  Biso   1.000  Zr
  Zr31     1.0000 0.93241  0.81790  0.93980  Biso   1.000  Zr
  Zr32     1.0000 0.58859  0.13456  0.26061  Biso   1.000  Zr
  Zr33     1.0000 0.52150  0.11059  0.74870  Biso   1.000  Zr
  Zr34     1.0000 0.54529  0.60954  0.24708  Biso   1.000  Zr
  Zr35     1.0000 0.54285  0.61454  0.74821  Biso   1.000  Zr
  Zr36     1.0000 0.53935  0.13037  0.50525  Biso   1.000  Zr
  Zr37     1.0000 0.54971  0.13828  0.99016  Biso   1.000  Zr
  Zr38     1.0000 0.55017  0.63291  0.49766  Biso   1.000  Zr
  Zr39     1.0000 0.53886  0.62655  0.99888  Biso   1.000  Zr
  Zr40     1.0000 0.47128  0.37932  0.49966  Biso   1.000  Zr
  Zr41     1.0000 0.45871  0.38441  0.99967  Biso   1.000  Zr
  Zr42     1.0000 0.47221  0.88352  0.50108  Biso   1.000  Zr
  Zr43     1.0000 0.46496  0.87076  0.99719  Biso   1.000  Zr
  Zr44     1.0000 0.44090  0.36921  0.24860  Biso   1.000  Zr
  Zr45     1.0000 0.46745  0.36275  0.75016  Biso   1.000  Zr
  Zr46     1.0000 0.53796  0.85452  0.25856  Biso   1.000  Zr
  Zr47     1.0000 0.45660  0.86481  0.74756  Biso   1.000  Zr
