data_image0
_cell_length_a       5.03456
_cell_length_b       10.0728
_cell_length_c       10.0728
_cell_angle_alpha    87.9441
_cell_angle_beta     89.9975
_cell_angle_gamma    89.996

_symmetry_space_group_name_H-M    "P 1"
_symmetry_int_tables_number       1

loop_
  _symmetry_equiv_pos_as_xyz
  'x, y, z'

loop_
  _atom_site_label
  _atom_site_occupancy
  _atom_site_fract_x
  _atom_site_fract_y
  _atom_site_fract_z
  _atom_site_thermal_displace_type
  _atom_site_B_iso_or_equiv
  _atom_site_type_symbol
  C1       1.0000 0.20231  0.00017  0.12486  Biso   1.000  C 
  Zr1      1.0000 0.26157  0.00022  0.62487  Biso   1.000  Zr
  Zr2      1.0000 0.26158  0.50018  0.12488  Biso   1.000  Zr
  Zr3      1.0000 0.25714  0.50021  0.62490  Biso   1.000  Zr
  Zr4      1.0000 0.28737  0.25338  0.37806  Biso   1.000  Zr
  Zr5      1.0000 0.23842  0.23604  0.88905  Biso   1.000  Zr
  Zr6      1.0000 0.23844  0.76436  0.36074  Biso   1.000  Zr
  Zr7      1.0000 0.28730  0.74707  0.87174  Biso   1.000  Zr
  Zr8      1.0000 0.76498  0.25233  0.13030  Biso   1.000  Zr
  Zr9      1.0000 0.75955  0.25376  0.63171  Biso   1.000  Zr
  Zr10     1.0000 0.76496  0.74806  0.11948  Biso   1.000  Zr
  Zr11     1.0000 0.75951  0.74668  0.61807  Biso   1.000  Zr
  Zr12     1.0000 0.76502  0.00562  0.37701  Biso   1.000  Zr
  Zr13     1.0000 0.76495  0.99480  0.87274  Biso   1.000  Zr
  Zr14     1.0000 0.75953  0.50703  0.37842  Biso   1.000  Zr
  Zr15     1.0000 0.75955  0.49341  0.87136  Biso   1.000  Zr
  Zr16     1.0000 0.88535  0.16093  0.96415  Biso   1.000  Zr
  Zr17     1.0000 0.02078  0.13351  0.47434  Biso   1.000  Zr
  Zr18     1.0000 0.02069  0.65071  0.99155  Biso   1.000  Zr
  Zr19     1.0000 0.02182  0.63764  0.48744  Biso   1.000  Zr
  Zr20     1.0000 0.03533  0.08112  0.20582  Biso   1.000  Zr
  Zr21     1.0000 0.00223  0.11342  0.72944  Biso   1.000  Zr
  Zr22     1.0000 0.00224  0.60475  0.23808  Biso   1.000  Zr
  Zr23     1.0000 0.99575  0.61283  0.73749  Biso   1.000  Zr
  Zr24     1.0000 0.02074  0.34965  0.25820  Biso   1.000  Zr
  Zr25     1.0000 0.02187  0.36278  0.76233  Biso   1.000  Zr
  Zr26     1.0000 0.88537  0.83946  0.28562  Biso   1.000  Zr
  Zr27     1.0000 0.02071  0.86690  0.77539  Biso   1.000  Zr
  Zr28     1.0000 0.00220  0.39563  0.01168  Biso   1.000  Zr
  Zr29     1.0000 0.99581  0.38759  0.51227  Biso   1.000  Zr
  Zr30     1.0000 0.03539  0.91921  0.04390  Biso   1.000  Zr
  Zr31     1.0000 0.00225  0.88699  0.52032  Biso   1.000  Zr
  Zr32     1.0000 0.56361  0.15309  0.27778  Biso   1.000  Zr
  Zr33     1.0000 0.49843  0.12822  0.77761  Biso   1.000  Zr
  Zr34     1.0000 0.49845  0.65292  0.25290  Biso   1.000  Zr
  Zr35     1.0000 0.50076  0.63014  0.75480  Biso   1.000  Zr
  Zr36     1.0000 0.35542  0.08304  0.04200  Biso   1.000  Zr
  Zr37     1.0000 0.52754  0.11913  0.52457  Biso   1.000  Zr
  Zr38     1.0000 0.52748  0.60052  0.00599  Biso   1.000  Zr
  Zr39     1.0000 0.52584  0.61708  0.50803  Biso   1.000  Zr
  Zr40     1.0000 0.49840  0.34747  0.99690  Biso   1.000  Zr
  Zr41     1.0000 0.50082  0.37031  0.49498  Biso   1.000  Zr
  Zr42     1.0000 0.56367  0.84728  0.97196  Biso   1.000  Zr
  Zr43     1.0000 0.49844  0.87223  0.47214  Biso   1.000  Zr
  Zr44     1.0000 0.52751  0.39988  0.24380  Biso   1.000  Zr
  Zr45     1.0000 0.52591  0.38338  0.74174  Biso   1.000  Zr
  Zr46     1.0000 0.35543  0.91731  0.20772  Biso   1.000  Zr
  Zr47     1.0000 0.52749  0.88132  0.72520  Biso   1.000  Zr
