data_image0
_cell_length_a       10.0431
_cell_length_b       10.4188
_cell_length_c       10.0686
_cell_angle_alpha    89.8498
_cell_angle_beta     89.7649
_cell_angle_gamma    90.0615

_symmetry_space_group_name_H-M    "P 1"
_symmetry_int_tables_number       1

loop_
  _symmetry_equiv_pos_as_xyz
  'x, y, z'

loop_
  _atom_site_label
  _atom_site_occupancy
  _atom_site_fract_x
  _atom_site_fract_y
  _atom_site_fract_z
  _atom_site_thermal_displace_type
  _atom_site_B_iso_or_equiv
  _atom_site_type_symbol
  C1       1.0000 0.01752  0.05603  0.11424  Biso   1.000  C 
  Zr1      1.0000 0.13572  0.01445  0.62807  Biso   1.000  Zr
  Zr2      1.0000 0.13511  0.51514  0.12688  Biso   1.000  Zr
  Zr3      1.0000 0.13586  0.51745  0.62582  Biso   1.000  Zr
  Zr4      1.0000 0.63563  0.01671  0.12328  Biso   1.000  Zr
  Zr5      1.0000 0.62624  0.01201  0.62099  Biso   1.000  Zr
  Zr6      1.0000 0.63021  0.51843  0.12711  Biso   1.000  Zr
  Zr7      1.0000 0.63419  0.51474  0.62305  Biso   1.000  Zr
  Zr8      1.0000 0.14420  0.23098  0.37783  Biso   1.000  Zr
  Zr9      1.0000 0.14056  0.23609  0.88177  Biso   1.000  Zr
  Zr10     1.0000 0.13868  0.73561  0.37602  Biso   1.000  Zr
  Zr11     1.0000 0.13834  0.73539  0.88010  Biso   1.000  Zr
  Zr12     1.0000 0.63189  0.23399  0.37469  Biso   1.000  Zr
  Zr13     1.0000 0.63066  0.23143  0.87258  Biso   1.000  Zr
  Zr14     1.0000 0.63554  0.73665  0.37169  Biso   1.000  Zr
  Zr15     1.0000 0.63172  0.73398  0.87341  Biso   1.000  Zr
  Zr16     1.0000 0.36413  0.26077  0.12648  Biso   1.000  Zr
  Zr17     1.0000 0.36629  0.26568  0.62836  Biso   1.000  Zr
  Zr18     1.0000 0.36255  0.76716  0.12469  Biso   1.000  Zr
  Zr19     1.0000 0.36749  0.76772  0.62696  Biso   1.000  Zr
  Zr20     1.0000 0.85351  0.27576  0.12101  Biso   1.000  Zr
  Zr21     1.0000 0.86878  0.26196  0.62497  Biso   1.000  Zr
  Zr22     1.0000 0.86911  0.76047  0.11543  Biso   1.000  Zr
  Zr23     1.0000 0.86922  0.76252  0.62161  Biso   1.000  Zr
  Zr24     1.0000 0.36747  0.48399  0.37530  Biso   1.000  Zr
  Zr25     1.0000 0.36813  0.48419  0.87711  Biso   1.000  Zr
  Zr26     1.0000 0.36197  0.98345  0.36925  Biso   1.000  Zr
  Zr27     1.0000 0.35907  0.98320  0.88521  Biso   1.000  Zr
  Zr28     1.0000 0.86821  0.48318  0.37637  Biso   1.000  Zr
  Zr29     1.0000 0.86894  0.48334  0.87168  Biso   1.000  Zr
  Zr30     1.0000 0.86561  0.98895  0.38084  Biso   1.000  Zr
  Zr31     1.0000 0.85973  0.98076  0.86550  Biso   1.000  Zr
  Zr32     1.0000 0.03508  0.16329  0.17747  Biso   1.000  Zr
  Zr33     1.0000 0.02500  0.17134  0.71843  Biso   1.000  Zr
  Zr34     1.0000 0.03670  0.68852  0.19287  Biso   1.000  Zr
  Zr35     1.0000 0.03647  0.68231  0.69308  Biso   1.000  Zr
  Zr36     1.0000 0.54395  0.18693  0.18932  Biso   1.000  Zr
  Zr37     1.0000 0.53392  0.18253  0.69278  Biso   1.000  Zr
  Zr38     1.0000 0.53755  0.68474  0.19533  Biso   1.000  Zr
  Zr39     1.0000 0.53614  0.68201  0.69483  Biso   1.000  Zr
  Zr40     1.0000 0.03478  0.06993  0.44886  Biso   1.000  Zr
  Zr41     1.0000 0.02600  0.06021  0.98673  Biso   1.000  Zr
  Zr42     1.0000 0.03589  0.56634  0.44581  Biso   1.000  Zr
  Zr43     1.0000 0.03327  0.56770  0.94804  Biso   1.000  Zr
  Zr44     1.0000 0.53518  0.06685  0.44139  Biso   1.000  Zr
  Zr45     1.0000 0.53565  0.06584  0.94624  Biso   1.000  Zr
  Zr46     1.0000 0.53784  0.56651  0.44174  Biso   1.000  Zr
  Zr47     1.0000 0.53662  0.56655  0.94496  Biso   1.000  Zr
  Zr48     1.0000 0.46251  0.43304  0.19478  Biso   1.000  Zr
  Zr49     1.0000 0.46466  0.43412  0.69354  Biso   1.000  Zr
  Zr50     1.0000 0.47350  0.93165  0.19781  Biso   1.000  Zr
  Zr51     1.0000 0.46329  0.93311  0.70108  Biso   1.000  Zr
  Zr52     1.0000 0.96658  0.42551  0.19723  Biso   1.000  Zr
  Zr53     1.0000 0.96844  0.42870  0.69425  Biso   1.000  Zr
  Zr54     1.0000 0.97783  0.95711  0.17680  Biso   1.000  Zr
  Zr55     1.0000 0.96396  0.93077  0.69242  Biso   1.000  Zr
  Zr56     1.0000 0.46541  0.31654  0.44659  Biso   1.000  Zr
  Zr57     1.0000 0.46652  0.31791  0.94156  Biso   1.000  Zr
  Zr58     1.0000 0.47203  0.81881  0.45253  Biso   1.000  Zr
  Zr59     1.0000 0.47047  0.81847  0.94783  Biso   1.000  Zr
  Zr60     1.0000 0.96796  0.31362  0.44420  Biso   1.000  Zr
  Zr61     1.0000 0.96699  0.31695  0.94899  Biso   1.000  Zr
  Zr62     1.0000 0.96678  0.82034  0.43854  Biso   1.000  Zr
  Zr63     1.0000 0.96238  0.81649  0.93640  Biso   1.000  Zr
  Zr64     1.0000 0.28477  0.13094  0.26078  Biso   1.000  Zr
  Zr65     1.0000 0.26614  0.11666  0.75163  Biso   1.000  Zr
  Zr66     1.0000 0.26811  0.61268  0.24958  Biso   1.000  Zr
  Zr67     1.0000 0.27027  0.61805  0.75078  Biso   1.000  Zr
  Zr68     1.0000 0.77627  0.11996  0.24652  Biso   1.000  Zr
  Zr69     1.0000 0.76282  0.11168  0.74342  Biso   1.000  Zr
  Zr70     1.0000 0.77334  0.61574  0.24559  Biso   1.000  Zr
  Zr71     1.0000 0.77133  0.61379  0.74540  Biso   1.000  Zr
  Zr72     1.0000 0.26773  0.13210  0.50646  Biso   1.000  Zr
  Zr73     1.0000 0.27441  0.13796  0.99414  Biso   1.000  Zr
  Zr74     1.0000 0.27277  0.63220  0.49992  Biso   1.000  Zr
  Zr75     1.0000 0.27178  0.62728  0.00110  Biso   1.000  Zr
  Zr76     1.0000 0.76915  0.13269  0.49693  Biso   1.000  Zr
  Zr77     1.0000 0.77253  0.13345  0.99350  Biso   1.000  Zr
  Zr78     1.0000 0.76967  0.63381  0.49554  Biso   1.000  Zr
  Zr79     1.0000 0.76940  0.63320  0.99637  Biso   1.000  Zr
  Zr80     1.0000 0.23117  0.38081  0.50007  Biso   1.000  Zr
  Zr81     1.0000 0.23167  0.38341  0.00121  Biso   1.000  Zr
  Zr82     1.0000 0.23118  0.88275  0.50224  Biso   1.000  Zr
  Zr83     1.0000 0.23423  0.87143  0.99716  Biso   1.000  Zr
  Zr84     1.0000 0.73310  0.38188  0.49869  Biso   1.000  Zr
  Zr85     1.0000 0.73008  0.38425  0.99787  Biso   1.000  Zr
  Zr86     1.0000 0.73284  0.88389  0.49697  Biso   1.000  Zr
  Zr87     1.0000 0.73232  0.88388  0.99521  Biso   1.000  Zr
  Zr88     1.0000 0.22551  0.36722  0.24869  Biso   1.000  Zr
  Zr89     1.0000 0.23010  0.36633  0.75195  Biso   1.000  Zr
  Zr90     1.0000 0.24584  0.85607  0.25927  Biso   1.000  Zr
  Zr91     1.0000 0.22816  0.86888  0.74968  Biso   1.000  Zr
  Zr92     1.0000 0.72650  0.37169  0.24949  Biso   1.000  Zr
  Zr93     1.0000 0.73335  0.36318  0.74743  Biso   1.000  Zr
  Zr94     1.0000 0.74802  0.86843  0.24511  Biso   1.000  Zr
  Zr95     1.0000 0.73148  0.86395  0.74556  Biso   1.000  Zr
