data_image0
_cell_length_a       5.0177
_cell_length_b       10.2202
_cell_length_c       10.1142
_cell_angle_alpha    90.0014
_cell_angle_beta     89.9982
_cell_angle_gamma    90.0017

_symmetry_space_group_name_H-M    "P 1"
_symmetry_int_tables_number       1

loop_
  _symmetry_equiv_pos_as_xyz
  'x, y, z'

loop_
  _atom_site_label
  _atom_site_occupancy
  _atom_site_fract_x
  _atom_site_fract_y
  _atom_site_fract_z
  _atom_site_thermal_displace_type
  _atom_site_B_iso_or_equiv
  _atom_site_type_symbol
  Ca1      1.0000 0.25287  0.00005  0.12549  Biso   1.000  Ca
  Zr1      1.0000 0.25286  0.00005  0.62549  Biso   1.000  Zr
  Zr2      1.0000 0.25285  0.50005  0.12549  Biso   1.000  Zr
  Zr3      1.0000 0.25286  0.50005  0.62549  Biso   1.000  Zr
  Zr4      1.0000 0.25162  0.25038  0.37523  Biso   1.000  Zr
  Zr5      1.0000 0.25410  0.25038  0.87574  Biso   1.000  Zr
  Zr6      1.0000 0.25410  0.74973  0.37523  Biso   1.000  Zr
  Zr7      1.0000 0.25161  0.74973  0.87574  Biso   1.000  Zr
  Zr8      1.0000 0.75285  0.25036  0.12548  Biso   1.000  Zr
  Zr9      1.0000 0.75286  0.24874  0.62549  Biso   1.000  Zr
  Zr10     1.0000 0.75285  0.74976  0.12549  Biso   1.000  Zr
  Zr11     1.0000 0.75285  0.75137  0.62548  Biso   1.000  Zr
  Zr12     1.0000 0.75288  0.00006  0.37413  Biso   1.000  Zr
  Zr13     1.0000 0.75287  0.00004  0.87685  Biso   1.000  Zr
  Zr14     1.0000 0.75286  0.50005  0.37514  Biso   1.000  Zr
  Zr15     1.0000 0.75286  0.50005  0.87584  Biso   1.000  Zr
  Zr16     1.0000 0.00221  0.14247  0.99762  Biso   1.000  Zr
  Zr17     1.0000 0.01484  0.14328  0.50675  Biso   1.000  Zr
  Zr18     1.0000 0.01502  0.63571  0.00446  Biso   1.000  Zr
  Zr19     1.0000 0.00718  0.64211  0.50439  Biso   1.000  Zr
  Zr20     1.0000 0.98527  0.12196  0.25954  Biso   1.000  Zr
  Zr21     1.0000 0.99548  0.10705  0.75128  Biso   1.000  Zr
  Zr22     1.0000 0.99412  0.61090  0.25267  Biso   1.000  Zr
  Zr23     1.0000 0.00038  0.60734  0.75326  Biso   1.000  Zr
  Zr24     1.0000 0.01502  0.36439  0.24652  Biso   1.000  Zr
  Zr25     1.0000 0.00719  0.35799  0.74658  Biso   1.000  Zr
  Zr26     1.0000 0.00221  0.85763  0.25336  Biso   1.000  Zr
  Zr27     1.0000 0.01483  0.85682  0.74423  Biso   1.000  Zr
  Zr28     1.0000 0.99413  0.38921  0.99830  Biso   1.000  Zr
  Zr29     1.0000 0.00039  0.39277  0.49771  Biso   1.000  Zr
  Zr30     1.0000 0.98526  0.87815  0.99144  Biso   1.000  Zr
  Zr31     1.0000 0.99548  0.89305  0.49970  Biso   1.000  Zr
  Zr32     1.0000 0.50353  0.14247  0.25336  Biso   1.000  Zr
  Zr33     1.0000 0.49087  0.14329  0.74422  Biso   1.000  Zr
  Zr34     1.0000 0.49069  0.63572  0.24652  Biso   1.000  Zr
  Zr35     1.0000 0.49852  0.64211  0.74658  Biso   1.000  Zr
  Zr36     1.0000 0.52047  0.12196  0.99143  Biso   1.000  Zr
  Zr37     1.0000 0.51023  0.10705  0.49969  Biso   1.000  Zr
  Zr38     1.0000 0.51159  0.61090  0.99830  Biso   1.000  Zr
  Zr39     1.0000 0.50533  0.60734  0.49771  Biso   1.000  Zr
  Zr40     1.0000 0.49070  0.36439  0.00446  Biso   1.000  Zr
  Zr41     1.0000 0.49853  0.35799  0.50440  Biso   1.000  Zr
  Zr42     1.0000 0.50353  0.85763  0.99762  Biso   1.000  Zr
  Zr43     1.0000 0.49087  0.85682  0.50676  Biso   1.000  Zr
  Zr44     1.0000 0.51158  0.38921  0.25267  Biso   1.000  Zr
  Zr45     1.0000 0.50532  0.39277  0.75326  Biso   1.000  Zr
  Zr46     1.0000 0.52048  0.87815  0.25955  Biso   1.000  Zr
  Zr47     1.0000 0.51023  0.89306  0.75128  Biso   1.000  Zr
