data_image0
_cell_length_a       10.1931
_cell_length_b       10.3134
_cell_length_c       5.26134
_cell_angle_alpha    89.979
_cell_angle_beta     89.8004
_cell_angle_gamma    90.0727

_symmetry_space_group_name_H-M    "P 1"
_symmetry_int_tables_number       1

loop_
  _symmetry_equiv_pos_as_xyz
  'x, y, z'

loop_
  _atom_site_label
  _atom_site_occupancy
  _atom_site_fract_x
  _atom_site_fract_y
  _atom_site_fract_z
  _atom_site_thermal_displace_type
  _atom_site_B_iso_or_equiv
  _atom_site_type_symbol
  Ca1      1.0000 0.13995  0.01501  0.34237  Biso   1.000  Ca
  Zr1      1.0000 0.14067  0.52084  0.34451  Biso   1.000  Zr
  Zr2      1.0000 0.14163  0.22839  0.84560  Biso   1.000  Zr
  Zr3      1.0000 0.14398  0.73007  0.84429  Biso   1.000  Zr
  Zr4      1.0000 0.35725  0.26635  0.34485  Biso   1.000  Zr
  Zr5      1.0000 0.36111  0.77149  0.34347  Biso   1.000  Zr
  Zr6      1.0000 0.36011  0.47721  0.84462  Biso   1.000  Zr
  Zr7      1.0000 0.35893  0.98023  0.84294  Biso   1.000  Zr
  Zr8      1.0000 0.63916  0.02068  0.15673  Biso   1.000  Zr
  Zr9      1.0000 0.63731  0.51990  0.15429  Biso   1.000  Zr
  Zr10     1.0000 0.63845  0.22913  0.65503  Biso   1.000  Zr
  Zr11     1.0000 0.63876  0.72956  0.65413  Biso   1.000  Zr
  Zr12     1.0000 0.85911  0.27146  0.15054  Biso   1.000  Zr
  Zr13     1.0000 0.85979  0.77043  0.15658  Biso   1.000  Zr
  Zr14     1.0000 0.85979  0.48075  0.65359  Biso   1.000  Zr
  Zr15     1.0000 0.86026  0.97887  0.65596  Biso   1.000  Zr
  O1       1.0000 0.02855  0.17503  0.16302  Biso   1.000  O
  O2       1.0000 0.03085  0.66120  0.16390  Biso   1.000  O
  O3       1.0000 0.02270  0.09196  0.69126  Biso   1.000  O
  O4       1.0000 0.03011  0.58912  0.66227  Biso   1.000  O
  O5       1.0000 0.46843  0.41114  0.16439  Biso   1.000  O
  O6       1.0000 0.47103  0.91365  0.16561  Biso   1.000  O
  O7       1.0000 0.46952  0.33730  0.66450  Biso   1.000  O
  O8       1.0000 0.47309  0.83903  0.66249  Biso   1.000  O
  O9       1.0000 0.28043  0.12838  0.60354  Biso   1.000  O
  O10      1.0000 0.27602  0.62098  0.59225  Biso   1.000  O
  O11      1.0000 0.28333  0.13201  0.08157  Biso   1.000  O
  O12      1.0000 0.27494  0.62214  0.09416  Biso   1.000  O
  O13      1.0000 0.22454  0.37472  0.59241  Biso   1.000  O
  O14      1.0000 0.23280  0.86634  0.59756  Biso   1.000  O
  O15      1.0000 0.22411  0.37687  0.09415  Biso   1.000  O
  O16      1.0000 0.23630  0.86636  0.08093  Biso   1.000  O
  O17      1.0000 0.53222  0.16406  0.33313  Biso   1.000  O
  O18      1.0000 0.53090  0.66106  0.33603  Biso   1.000  O
  O19      1.0000 0.53372  0.08480  0.83104  Biso   1.000  O
  O20      1.0000 0.52922  0.58742  0.83604  Biso   1.000  O
  O21      1.0000 0.96780  0.41525  0.33115  Biso   1.000  O
  O22      1.0000 0.95627  0.90627  0.34538  Biso   1.000  O
  O23      1.0000 0.96876  0.34226  0.83002  Biso   1.000  O
  O24      1.0000 0.97218  0.83909  0.84096  Biso   1.000  O
  O25      1.0000 0.77224  0.12654  0.91020  Biso   1.000  O
  O26      1.0000 0.77251  0.62348  0.90431  Biso   1.000  O
  O27      1.0000 0.77414  0.12599  0.40946  Biso   1.000  O
  O28      1.0000 0.77368  0.62577  0.40478  Biso   1.000  O
  O29      1.0000 0.72382  0.37550  0.90344  Biso   1.000  O
  O30      1.0000 0.72714  0.87405  0.90756  Biso   1.000  O
  O31      1.0000 0.72492  0.37658  0.40557  Biso   1.000  O
  O32      1.0000 0.71750  0.87527  0.40742  Biso   1.000  O
