data_image0
_cell_length_a       10.1736
_cell_length_b       10.3729
_cell_length_c       5.11154
_cell_angle_alpha    92.015
_cell_angle_beta     90.5428
_cell_angle_gamma    91.1134

_symmetry_space_group_name_H-M    "P 1"
_symmetry_int_tables_number       1

loop_
  _symmetry_equiv_pos_as_xyz
  'x, y, z'

loop_
  _atom_site_label
  _atom_site_occupancy
  _atom_site_fract_x
  _atom_site_fract_y
  _atom_site_fract_z
  _atom_site_thermal_displace_type
  _atom_site_B_iso_or_equiv
  _atom_site_type_symbol
  Zr1      1.0000 0.10933  0.97073  0.21852  Biso   1.000  Zr
  Zr2      1.0000 0.12583  0.24893  0.81682  Biso   1.000  Zr
  Zr3      1.0000 0.40156  0.24047  0.25696  Biso   1.000  Zr
  Zr4      1.0000 0.35747  0.01923  0.75069  Biso   1.000  Zr
  Zr5      1.0000 0.99116  0.12998  0.05238  Biso   1.000  Zr
  Zr6      1.0000 0.04026  0.07410  0.55500  Biso   1.000  Zr
  Zr7      1.0000 0.96555  0.31403  0.59393  Biso   1.000  Zr
  Zr8      1.0000 0.00283  0.38632  0.07999  Biso   1.000  Zr
  Zr9      1.0000 0.28480  0.18402  0.58698  Biso   1.000  Zr
  Zr10     1.0000 0.24642  0.11395  0.05958  Biso   1.000  Zr
  Zr11     1.0000 0.25890  0.36994  0.06742  Biso   1.000  Zr
  Zr12     1.0000 0.21780  0.42293  0.56749  Biso   1.000  Zr
  Zr13     1.0000 0.14396  0.52897  0.24761  Biso   1.000  Zr
  Zr14     1.0000 0.10800  0.73398  0.73432  Biso   1.000  Zr
  Zr15     1.0000 0.36788  0.77134  0.20387  Biso   1.000  Zr
  Zr16     1.0000 0.38041  0.48673  0.77809  Biso   1.000  Zr
  Zr17     1.0000 0.00054  0.63236  0.01179  Biso   1.000  Zr
  Zr18     1.0000 0.00236  0.58005  0.52321  Biso   1.000  Zr
  Zr19     1.0000 0.02395  0.82148  0.41921  Biso   1.000  Zr
  Zr20     1.0000 0.98669  0.87691  0.93594  Biso   1.000  Zr
  Zr21     1.0000 0.24672  0.67378  0.45882  Biso   1.000  Zr
  Zr22     1.0000 0.25226  0.62165  0.96502  Biso   1.000  Zr
  Zr23     1.0000 0.23933  0.86607  0.94092  Biso   1.000  Zr
  Zr24     1.0000 0.27935  0.92484  0.42652  Biso   1.000  Zr
  Zr25     1.0000 0.62427  0.98970  0.22631  Biso   1.000  Zr
  Zr26     1.0000 0.62245  0.24828  0.75101  Biso   1.000  Zr
  Zr27     1.0000 0.84734  0.25927  0.25586  Biso   1.000  Zr
  Zr28     1.0000 0.87153  0.01458  0.74733  Biso   1.000  Zr
  Zr29     1.0000 0.50181  0.13560  0.98002  Biso   1.000  Zr
  Zr30     1.0000 0.50801  0.09723  0.48107  Biso   1.000  Zr
  Zr31     1.0000 0.49215  0.35037  0.54027  Biso   1.000  Zr
  Zr32     1.0000 0.50425  0.38641  0.02889  Biso   1.000  Zr
  Zr33     1.0000 0.75485  0.14888  0.52127  Biso   1.000  Zr
  Zr34     1.0000 0.74556  0.11378  0.00566  Biso   1.000  Zr
  Zr35     1.0000 0.74748  0.36413  0.99074  Biso   1.000  Zr
  Zr36     1.0000 0.74509  0.40617  0.49244  Biso   1.000  Zr
  Zr37     1.0000 0.63153  0.51474  0.24754  Biso   1.000  Zr
  Zr38     1.0000 0.60763  0.73751  0.73466  Biso   1.000  Zr
  Zr39     1.0000 0.85788  0.75648  0.19892  Biso   1.000  Zr
  Zr40     1.0000 0.89156  0.47872  0.78217  Biso   1.000  Zr
  Zr41     1.0000 0.49961  0.64001  0.01510  Biso   1.000  Zr
  Zr42     1.0000 0.49893  0.58943  0.52277  Biso   1.000  Zr
  Zr43     1.0000 0.52825  0.83948  0.43386  Biso   1.000  Zr
  Zr44     1.0000 0.49046  0.89186  0.95231  Biso   1.000  Zr
  Zr45     1.0000 0.73811  0.66596  0.45505  Biso   1.000  Zr
  Zr46     1.0000 0.74823  0.60825  0.96416  Biso   1.000  Zr
  Zr47     1.0000 0.73993  0.86146  0.94498  Biso   1.000  Zr
  Zr48     1.0000 0.78672  0.91680  0.42356  Biso   1.000  Zr
  Ca1      1.0000 0.12517  0.24989  0.32283  Biso   1.000  Ca
