data_image0
_cell_length_a       5.05423
_cell_length_b       10.3881
_cell_length_c       10.1574
_cell_angle_alpha    90.1703
_cell_angle_beta     90.3417
_cell_angle_gamma    90.0128

_symmetry_space_group_name_H-M    "P 1"
_symmetry_int_tables_number       1

loop_
  _symmetry_equiv_pos_as_xyz
  'x, y, z'

loop_
  _atom_site_label
  _atom_site_occupancy
  _atom_site_fract_x
  _atom_site_fract_y
  _atom_site_fract_z
  _atom_site_thermal_displace_type
  _atom_site_B_iso_or_equiv
  _atom_site_type_symbol
  Ca1      1.0000 0.26364  0.01247  0.11884  Biso   1.000  Ca
  Zr1      1.0000 0.26509  0.01605  0.62420  Biso   1.000  Zr
  Zr2      1.0000 0.26982  0.51445  0.12469  Biso   1.000  Zr
  Zr3      1.0000 0.26723  0.51555  0.62554  Biso   1.000  Zr
  Zr4      1.0000 0.26810  0.23298  0.37411  Biso   1.000  Zr
  Zr5      1.0000 0.27382  0.23327  0.87288  Biso   1.000  Zr
  Zr6      1.0000 0.26649  0.73523  0.37617  Biso   1.000  Zr
  Zr7      1.0000 0.27771  0.73455  0.87570  Biso   1.000  Zr
  Zr8      1.0000 0.72185  0.26298  0.12675  Biso   1.000  Zr
  Zr9      1.0000 0.73149  0.26537  0.62294  Biso   1.000  Zr
  Zr10     1.0000 0.72610  0.76710  0.12714  Biso   1.000  Zr
  Zr11     1.0000 0.73310  0.76588  0.62477  Biso   1.000  Zr
  Zr12     1.0000 0.72824  0.48478  0.37592  Biso   1.000  Zr
  Zr13     1.0000 0.73198  0.48308  0.87570  Biso   1.000  Zr
  Zr14     1.0000 0.72321  0.98366  0.37198  Biso   1.000  Zr
  Zr15     1.0000 0.72784  0.98359  0.87354  Biso   1.000  Zr
  Zr16     1.0000 0.05929  0.19325  0.20130  Biso   1.000  Zr
  Zr17     1.0000 0.07444  0.18727  0.68813  Biso   1.000  Zr
  Zr18     1.0000 0.06397  0.67890  0.19789  Biso   1.000  Zr
  Zr19     1.0000 0.06965  0.68274  0.69631  Biso   1.000  Zr
  Zr20     1.0000 0.06212  0.06784  0.44579  Biso   1.000  Zr
  Zr21     1.0000 0.06661  0.07216  0.92299  Biso   1.000  Zr
  Zr22     1.0000 0.06445  0.56695  0.44808  Biso   1.000  Zr
  Zr23     1.0000 0.06727  0.56898  0.94619  Biso   1.000  Zr
  Zr24     1.0000 0.92982  0.43468  0.19656  Biso   1.000  Zr
  Zr25     1.0000 0.93385  0.43332  0.69713  Biso   1.000  Zr
  Zr26     1.0000 0.91312  0.92594  0.20414  Biso   1.000  Zr
  Zr27     1.0000 0.92907  0.93268  0.69371  Biso   1.000  Zr
  Zr28     1.0000 0.93090  0.31960  0.44682  Biso   1.000  Zr
  Zr29     1.0000 0.94025  0.32007  0.94722  Biso   1.000  Zr
  Zr30     1.0000 0.93371  0.81683  0.45044  Biso   1.000  Zr
  Zr31     1.0000 0.95131  0.82147  0.94992  Biso   1.000  Zr
  Zr32     1.0000 0.55115  0.12524  0.25444  Biso   1.000  Zr
  Zr33     1.0000 0.54079  0.11691  0.74499  Biso   1.000  Zr
  Zr34     1.0000 0.53570  0.61428  0.24803  Biso   1.000  Zr
  Zr35     1.0000 0.54119  0.61644  0.74802  Biso   1.000  Zr
  Zr36     1.0000 0.53210  0.13353  0.50000  Biso   1.000  Zr
  Zr37     1.0000 0.55366  0.13613  0.99125  Biso   1.000  Zr
  Zr38     1.0000 0.53609  0.63358  0.49820  Biso   1.000  Zr
  Zr39     1.0000 0.54111  0.62831  0.99836  Biso   1.000  Zr
  Zr40     1.0000 0.46130  0.38436  0.49804  Biso   1.000  Zr
  Zr41     1.0000 0.46248  0.38279  0.99762  Biso   1.000  Zr
  Zr42     1.0000 0.45987  0.88366  0.49919  Biso   1.000  Zr
  Zr43     1.0000 0.48112  0.87292  0.99243  Biso   1.000  Zr
  Zr44     1.0000 0.45662  0.36926  0.24842  Biso   1.000  Zr
  Zr45     1.0000 0.46556  0.36746  0.74723  Biso   1.000  Zr
  Zr46     1.0000 0.46237  0.85780  0.25373  Biso   1.000  Zr
  Zr47     1.0000 0.46035  0.86671  0.74574  Biso   1.000  Zr
