data_image0
_cell_length_a       10.1318
_cell_length_b       5.26943
_cell_length_c       10.2529
_cell_angle_alpha    84.4723
_cell_angle_beta     89.2387
_cell_angle_gamma    89.714

_symmetry_space_group_name_H-M    "P 1"
_symmetry_int_tables_number       1

loop_
  _symmetry_equiv_pos_as_xyz
  'x, y, z'

loop_
  _atom_site_label
  _atom_site_occupancy
  _atom_site_fract_x
  _atom_site_fract_y
  _atom_site_fract_z
  _atom_site_thermal_displace_type
  _atom_site_B_iso_or_equiv
  _atom_site_type_symbol
  Zr1      1.0000 0.14356  0.08026  0.11291  Biso   1.000  Zr
  Zr2      1.0000 0.14404  0.46784  0.39283  Biso   1.000  Zr
  Zr3      1.0000 0.41032  0.48617  0.08367  Biso   1.000  Zr
  Zr4      1.0000 0.36726  0.98082  0.36548  Biso   1.000  Zr
  Zr5      1.0000 0.99950  0.30650  0.21533  Biso   1.000  Zr
  Zr6      1.0000 0.04597  0.12011  0.44991  Biso   1.000  Zr
  Zr7      1.0000 0.49067  0.73655  0.20639  Biso   1.000  Zr
  Zr8      1.0000 0.45540  0.64509  0.45185  Biso   1.000  Zr
  Zr9      1.0000 0.25204  0.30627  0.23582  Biso   1.000  Zr
  Zr10     1.0000 0.28124  0.23525  0.49554  Biso   1.000  Zr
  Zr11     1.0000 0.22320  0.72733  0.51704  Biso   1.000  Zr
  Zr12     1.0000 0.20523  0.80536  0.27015  Biso   1.000  Zr
  Zr13     1.0000 0.14044  0.01061  0.62488  Biso   1.000  Zr
  Zr14     1.0000 0.10138  0.46276  0.82426  Biso   1.000  Zr
  Zr15     1.0000 0.37540  0.53557  0.63406  Biso   1.000  Zr
  Zr16     1.0000 0.38841  0.99199  0.85385  Biso   1.000  Zr
  Zr17     1.0000 0.02206  0.32916  0.66561  Biso   1.000  Zr
  Zr18     1.0000 0.03915  0.11390  0.93015  Biso   1.000  Zr
  Zr19     1.0000 0.47578  0.84536  0.68478  Biso   1.000  Zr
  Zr20     1.0000 0.49063  0.66563  0.92101  Biso   1.000  Zr
  Zr21     1.0000 0.25641  0.23132  0.73961  Biso   1.000  Zr
  Zr22     1.0000 0.24626  0.35451  0.98019  Biso   1.000  Zr
  Zr23     1.0000 0.28628  0.85132  0.02301  Biso   1.000  Zr
  Zr24     1.0000 0.24662  0.73001  0.76283  Biso   1.000  Zr
  Zr25     1.0000 0.63599  0.01606  0.13491  Biso   1.000  Zr
  Zr26     1.0000 0.59429  0.46084  0.34847  Biso   1.000  Zr
  Zr27     1.0000 0.83757  0.50974  0.13290  Biso   1.000  Zr
  Zr28     1.0000 0.90344  0.97779  0.33988  Biso   1.000  Zr
  Zr29     1.0000 0.48880  0.21896  0.23114  Biso   1.000  Zr
  Zr30     1.0000 0.52762  0.12557  0.46058  Biso   1.000  Zr
  Zr31     1.0000 0.96281  0.84173  0.16369  Biso   1.000  Zr
  Zr32     1.0000 0.96591  0.62332  0.43266  Biso   1.000  Zr
  Zr33     1.0000 0.74732  0.21752  0.26529  Biso   1.000  Zr
  Zr34     1.0000 0.70654  0.41444  0.51678  Biso   1.000  Zr
  Zr35     1.0000 0.79060  0.91438  0.51213  Biso   1.000  Zr
  Zr36     1.0000 0.73760  0.72737  0.26396  Biso   1.000  Zr
  Zr37     1.0000 0.64380  0.05861  0.62006  Biso   1.000  Zr
  Zr38     1.0000 0.64881  0.44961  0.87850  Biso   1.000  Zr
  Zr39     1.0000 0.85587  0.56391  0.60747  Biso   1.000  Zr
  Zr40     1.0000 0.87062  0.94638  0.87826  Biso   1.000  Zr
  Zr41     1.0000 0.51682  0.30479  0.73572  Biso   1.000  Zr
  Zr42     1.0000 0.51223  0.16729  0.98179  Biso   1.000  Zr
  Zr43     1.0000 0.99066  0.79444  0.71968  Biso   1.000  Zr
  Zr44     1.0000 0.96595  0.59472  0.95472  Biso   1.000  Zr
  Zr45     1.0000 0.77629  0.23646  0.75169  Biso   1.000  Zr
  Zr46     1.0000 0.77858  0.22662  0.00455  Biso   1.000  Zr
  Zr47     1.0000 0.72819  0.75455  0.99957  Biso   1.000  Zr
  Zr48     1.0000 0.73489  0.73904  0.74894  Biso   1.000  Zr
  Ca1      1.0000 0.12590  0.59467  0.10330  Biso   1.000  Ca
