data_image0
_cell_length_a       10.1192
_cell_length_b       10.3147
_cell_length_c       10.5139
_cell_angle_alpha    89.8954
_cell_angle_beta     90.1515
_cell_angle_gamma    90.0146

_symmetry_space_group_name_H-M    "P 1"
_symmetry_int_tables_number       1

loop_
  _symmetry_equiv_pos_as_xyz
  'x, y, z'

loop_
  _atom_site_label
  _atom_site_occupancy
  _atom_site_fract_x
  _atom_site_fract_y
  _atom_site_fract_z
  _atom_site_thermal_displace_type
  _atom_site_B_iso_or_equiv
  _atom_site_type_symbol
  Cd1      1.0000 0.13390  0.01486  0.17212  Biso   1.000  Cd
  Zr1      1.0000 0.13921  0.02062  0.67048  Biso   1.000  Zr
  Zr2      1.0000 0.13942  0.52078  0.17086  Biso   1.000  Zr
  Zr3      1.0000 0.13943  0.52085  0.67183  Biso   1.000  Zr
  Zr4      1.0000 0.13925  0.22890  0.42079  Biso   1.000  Zr
  Zr5      1.0000 0.14088  0.22743  0.92211  Biso   1.000  Zr
  Zr6      1.0000 0.13906  0.72870  0.42058  Biso   1.000  Zr
  Zr7      1.0000 0.14126  0.72996  0.92112  Biso   1.000  Zr
  Zr8      1.0000 0.35756  0.26759  0.17014  Biso   1.000  Zr
  Zr9      1.0000 0.36067  0.27071  0.67137  Biso   1.000  Zr
  Zr10     1.0000 0.36157  0.77123  0.16917  Biso   1.000  Zr
  Zr11     1.0000 0.36069  0.77126  0.67051  Biso   1.000  Zr
  Zr12     1.0000 0.36036  0.47856  0.42048  Biso   1.000  Zr
  Zr13     1.0000 0.36075  0.47803  0.92184  Biso   1.000  Zr
  Zr14     1.0000 0.35931  0.98022  0.41973  Biso   1.000  Zr
  Zr15     1.0000 0.36106  0.97979  0.92140  Biso   1.000  Zr
  Zr16     1.0000 0.64019  0.02127  0.07900  Biso   1.000  Zr
  Zr17     1.0000 0.63782  0.02092  0.57933  Biso   1.000  Zr
  Zr18     1.0000 0.63823  0.51936  0.07859  Biso   1.000  Zr
  Zr19     1.0000 0.63865  0.52087  0.57848  Biso   1.000  Zr
  Zr20     1.0000 0.63756  0.22981  0.32855  Biso   1.000  Zr
  Zr21     1.0000 0.63944  0.22904  0.82894  Biso   1.000  Zr
  Zr22     1.0000 0.63912  0.72876  0.32823  Biso   1.000  Zr
  Zr23     1.0000 0.63840  0.72910  0.82820  Biso   1.000  Zr
  Zr24     1.0000 0.86230  0.26991  0.07906  Biso   1.000  Zr
  Zr25     1.0000 0.86017  0.27159  0.57869  Biso   1.000  Zr
  Zr26     1.0000 0.86055  0.76902  0.07729  Biso   1.000  Zr
  Zr27     1.0000 0.86116  0.77057  0.57888  Biso   1.000  Zr
  Zr28     1.0000 0.86096  0.47936  0.32864  Biso   1.000  Zr
  Zr29     1.0000 0.86169  0.47878  0.82902  Biso   1.000  Zr
  Zr30     1.0000 0.85966  0.98090  0.33254  Biso   1.000  Zr
  Zr31     1.0000 0.86122  0.97903  0.82910  Biso   1.000  Zr
  O1       1.0000 0.03555  0.17502  0.08433  Biso   1.000  O
  O2       1.0000 0.03345  0.17011  0.58921  Biso   1.000  O
  O3       1.0000 0.03407  0.66810  0.08476  Biso   1.000  O
  O4       1.0000 0.03284  0.66588  0.58536  Biso   1.000  O
  O5       1.0000 0.02667  0.08357  0.35471  Biso   1.000  O
  O6       1.0000 0.03335  0.08289  0.83461  Biso   1.000  O
  O7       1.0000 0.03287  0.58418  0.33422  Biso   1.000  O
  O8       1.0000 0.03334  0.58300  0.83473  Biso   1.000  O
  O9       1.0000 0.46797  0.41221  0.08233  Biso   1.000  O
  O10      1.0000 0.46819  0.41398  0.58236  Biso   1.000  O
  O11      1.0000 0.47192  0.91321  0.08162  Biso   1.000  O
  O12      1.0000 0.46755  0.91397  0.58215  Biso   1.000  O
  O13      1.0000 0.46757  0.33666  0.33246  Biso   1.000  O
  O14      1.0000 0.46879  0.33577  0.83213  Biso   1.000  O
  O15      1.0000 0.47009  0.83792  0.33103  Biso   1.000  O
  O16      1.0000 0.46864  0.83599  0.83112  Biso   1.000  O
  O17      1.0000 0.27989  0.12785  0.30079  Biso   1.000  O
  O18      1.0000 0.27519  0.12348  0.79256  Biso   1.000  O
  O19      1.0000 0.27599  0.62306  0.29454  Biso   1.000  O
  O20      1.0000 0.27581  0.62445  0.79498  Biso   1.000  O
  O21      1.0000 0.28586  0.13251  0.03665  Biso   1.000  O
  O22      1.0000 0.27499  0.12552  0.54583  Biso   1.000  O
  O23      1.0000 0.27568  0.62284  0.04531  Biso   1.000  O
  O24      1.0000 0.27514  0.62548  0.54489  Biso   1.000  O
  O25      1.0000 0.22330  0.37441  0.29472  Biso   1.000  O
  O26      1.0000 0.22548  0.37404  0.79511  Biso   1.000  O
  O27      1.0000 0.22905  0.86851  0.29653  Biso   1.000  O
  O28      1.0000 0.22463  0.87414  0.79245  Biso   1.000  O
  O29      1.0000 0.22343  0.37739  0.04508  Biso   1.000  O
  O30      1.0000 0.22480  0.37615  0.54536  Biso   1.000  O
  O31      1.0000 0.23423  0.86833  0.03818  Biso   1.000  O
  O32      1.0000 0.22406  0.87592  0.54435  Biso   1.000  O
  O33      1.0000 0.53275  0.16443  0.16675  Biso   1.000  O
  O34      1.0000 0.53199  0.16454  0.66687  Biso   1.000  O
  O35      1.0000 0.53208  0.66257  0.16731  Biso   1.000  O
  O36      1.0000 0.53178  0.66388  0.66674  Biso   1.000  O
  O37      1.0000 0.53192  0.08541  0.41710  Biso   1.000  O
  O38      1.0000 0.53481  0.08458  0.91567  Biso   1.000  O
  O39      1.0000 0.53124  0.58646  0.41718  Biso   1.000  O
  O40      1.0000 0.53127  0.58580  0.91733  Biso   1.000  O
  O41      1.0000 0.96554  0.41868  0.16482  Biso   1.000  O
  O42      1.0000 0.96725  0.41636  0.66589  Biso   1.000  O
  O43      1.0000 0.95019  0.91953  0.16444  Biso   1.000  O
  O44      1.0000 0.96641  0.91687  0.66464  Biso   1.000  O
  O45      1.0000 0.96663  0.33611  0.41674  Biso   1.000  O
  O46      1.0000 0.96739  0.33385  0.91475  Biso   1.000  O
  O47      1.0000 0.96604  0.83166  0.41506  Biso   1.000  O
  O48      1.0000 0.96782  0.83305  0.91440  Biso   1.000  O
  O49      1.0000 0.77684  0.12410  0.95543  Biso   1.000  O
  O50      1.0000 0.77260  0.12599  0.45704  Biso   1.000  O
  O51      1.0000 0.77443  0.62301  0.95425  Biso   1.000  O
  O52      1.0000 0.77502  0.62440  0.45492  Biso   1.000  O
  O53      1.0000 0.77521  0.12698  0.20681  Biso   1.000  O
  O54      1.0000 0.77527  0.12577  0.70570  Biso   1.000  O
  O55      1.0000 0.77506  0.62584  0.20455  Biso   1.000  O
  O56      1.0000 0.77516  0.62561  0.70472  Biso   1.000  O
  O57      1.0000 0.72469  0.37398  0.95466  Biso   1.000  O
  O58      1.0000 0.72380  0.37555  0.45466  Biso   1.000  O
  O59      1.0000 0.72518  0.87387  0.95421  Biso   1.000  O
  O60      1.0000 0.72428  0.87469  0.45590  Biso   1.000  O
  O61      1.0000 0.72440  0.37596  0.20518  Biso   1.000  O
  O62      1.0000 0.72503  0.37564  0.70447  Biso   1.000  O
  O63      1.0000 0.72121  0.87520  0.20534  Biso   1.000  O
  O64      1.0000 0.72484  0.87529  0.70496  Biso   1.000  O
