data_image0
_cell_length_a       10.2074
_cell_length_b       10.3613
_cell_length_c       10.5038
_cell_angle_alpha    90.0491
_cell_angle_beta     80.3718
_cell_angle_gamma    90.032

_symmetry_space_group_name_H-M    "P 1"
_symmetry_int_tables_number       1

loop_
  _symmetry_equiv_pos_as_xyz
  'x, y, z'

loop_
  _atom_site_label
  _atom_site_occupancy
  _atom_site_fract_x
  _atom_site_fract_y
  _atom_site_fract_z
  _atom_site_thermal_displace_type
  _atom_site_B_iso_or_equiv
  _atom_site_type_symbol
  Cd1      1.0000 0.13226  0.01384  0.14842  Biso   1.000  Cd
  Zr1      1.0000 0.13919  0.02082  0.64437  Biso   1.000  Zr
  Zr2      1.0000 0.13920  0.52110  0.14416  Biso   1.000  Zr
  Zr3      1.0000 0.13986  0.52127  0.64585  Biso   1.000  Zr
  Zr4      1.0000 0.63980  0.02157  0.14564  Biso   1.000  Zr
  Zr5      1.0000 0.63870  0.02177  0.64630  Biso   1.000  Zr
  Zr6      1.0000 0.63801  0.51918  0.14528  Biso   1.000  Zr
  Zr7      1.0000 0.63904  0.52109  0.64523  Biso   1.000  Zr
  Zr8      1.0000 0.13996  0.22871  0.39393  Biso   1.000  Zr
  Zr9      1.0000 0.13942  0.22779  0.89641  Biso   1.000  Zr
  Zr10     1.0000 0.13938  0.72704  0.39511  Biso   1.000  Zr
  Zr11     1.0000 0.14077  0.73062  0.89513  Biso   1.000  Zr
  Zr12     1.0000 0.63825  0.22934  0.39543  Biso   1.000  Zr
  Zr13     1.0000 0.63949  0.22949  0.89597  Biso   1.000  Zr
  Zr14     1.0000 0.63809  0.72803  0.39549  Biso   1.000  Zr
  Zr15     1.0000 0.63898  0.72910  0.89493  Biso   1.000  Zr
  Zr16     1.0000 0.35806  0.26758  0.10348  Biso   1.000  Zr
  Zr17     1.0000 0.36018  0.27091  0.60447  Biso   1.000  Zr
  Zr18     1.0000 0.36150  0.77136  0.10515  Biso   1.000  Zr
  Zr19     1.0000 0.36101  0.77218  0.60458  Biso   1.000  Zr
  Zr20     1.0000 0.86267  0.27028  0.10402  Biso   1.000  Zr
  Zr21     1.0000 0.86027  0.27186  0.60425  Biso   1.000  Zr
  Zr22     1.0000 0.85988  0.76834  0.10318  Biso   1.000  Zr
  Zr23     1.0000 0.86152  0.77072  0.60432  Biso   1.000  Zr
  Zr24     1.0000 0.36012  0.47785  0.35332  Biso   1.000  Zr
  Zr25     1.0000 0.36117  0.47856  0.85469  Biso   1.000  Zr
  Zr26     1.0000 0.35910  0.97854  0.35329  Biso   1.000  Zr
  Zr27     1.0000 0.36057  0.98112  0.85534  Biso   1.000  Zr
  Zr28     1.0000 0.86109  0.47874  0.35416  Biso   1.000  Zr
  Zr29     1.0000 0.86171  0.47873  0.85433  Biso   1.000  Zr
  Zr30     1.0000 0.85904  0.97904  0.35835  Biso   1.000  Zr
  Zr31     1.0000 0.86104  0.97897  0.85480  Biso   1.000  Zr
  O1       1.0000 0.03739  0.18121  0.07964  Biso   1.000  O
  O2       1.0000 0.03539  0.17098  0.58161  Biso   1.000  O
  O3       1.0000 0.03680  0.67270  0.08143  Biso   1.000  O
  O4       1.0000 0.03564  0.66919  0.58206  Biso   1.000  O
  O5       1.0000 0.53573  0.16850  0.07976  Biso   1.000  O
  O6       1.0000 0.53394  0.16837  0.58028  Biso   1.000  O
  O7       1.0000 0.53545  0.66704  0.07899  Biso   1.000  O
  O8       1.0000 0.53471  0.66797  0.57969  Biso   1.000  O
  O9       1.0000 0.03162  0.07819  0.34852  Biso   1.000  O
  O10      1.0000 0.03517  0.08042  0.82974  Biso   1.000  O
  O11      1.0000 0.03583  0.57966  0.33026  Biso   1.000  O
  O12      1.0000 0.03614  0.58059  0.83102  Biso   1.000  O
  O13      1.0000 0.53484  0.08156  0.32999  Biso   1.000  O
  O14      1.0000 0.53710  0.08160  0.82972  Biso   1.000  O
  O15      1.0000 0.53391  0.58136  0.32955  Biso   1.000  O
  O16      1.0000 0.53487  0.58238  0.82901  Biso   1.000  O
  O17      1.0000 0.46497  0.41602  0.17037  Biso   1.000  O
  O18      1.0000 0.46530  0.41817  0.66993  Biso   1.000  O
  O19      1.0000 0.46779  0.91734  0.17029  Biso   1.000  O
  O20      1.0000 0.46561  0.91825  0.67051  Biso   1.000  O
  O21      1.0000 0.96220  0.42371  0.16769  Biso   1.000  O
  O22      1.0000 0.96521  0.41942  0.66880  Biso   1.000  O
  O23      1.0000 0.94730  0.92379  0.17089  Biso   1.000  O
  O24      1.0000 0.96409  0.91980  0.66876  Biso   1.000  O
  O25      1.0000 0.46457  0.33164  0.42039  Biso   1.000  O
  O26      1.0000 0.46736  0.33386  0.92017  Biso   1.000  O
  O27      1.0000 0.46593  0.83235  0.42109  Biso   1.000  O
  O28      1.0000 0.46748  0.83316  0.92011  Biso   1.000  O
  O29      1.0000 0.96399  0.33116  0.41896  Biso   1.000  O
  O30      1.0000 0.96405  0.33120  0.91704  Biso   1.000  O
  O31      1.0000 0.96365  0.82788  0.41870  Biso   1.000  O
  O32      1.0000 0.96461  0.83027  0.91881  Biso   1.000  O
  O33      1.0000 0.27936  0.12949  0.24419  Biso   1.000  O
  O34      1.0000 0.27503  0.12796  0.73794  Biso   1.000  O
  O35      1.0000 0.27656  0.62464  0.23926  Biso   1.000  O
  O36      1.0000 0.27631  0.62960  0.74045  Biso   1.000  O
  O37      1.0000 0.77488  0.12973  0.24236  Biso   1.000  O
  O38      1.0000 0.77673  0.12948  0.74080  Biso   1.000  O
  O39      1.0000 0.77452  0.62851  0.24037  Biso   1.000  O
  O40      1.0000 0.77580  0.62893  0.74009  Biso   1.000  O
  O41      1.0000 0.27557  0.12148  0.49076  Biso   1.000  O
  O42      1.0000 0.28528  0.12869  0.98075  Biso   1.000  O
  O43      1.0000 0.27603  0.62071  0.49053  Biso   1.000  O
  O44      1.0000 0.27594  0.62124  0.99002  Biso   1.000  O
  O45      1.0000 0.77352  0.12214  0.49237  Biso   1.000  O
  O46      1.0000 0.77612  0.12104  0.99079  Biso   1.000  O
  O47      1.0000 0.77528  0.62093  0.49044  Biso   1.000  O
  O48      1.0000 0.77554  0.62074  0.99005  Biso   1.000  O
  O49      1.0000 0.22526  0.38079  0.00828  Biso   1.000  O
  O50      1.0000 0.22372  0.37880  0.50873  Biso   1.000  O
  O51      1.0000 0.23082  0.87525  0.00434  Biso   1.000  O
  O52      1.0000 0.22440  0.87860  0.51008  Biso   1.000  O
  O53      1.0000 0.72447  0.37915  0.00883  Biso   1.000  O
  O54      1.0000 0.72375  0.37905  0.50952  Biso   1.000  O
  O55      1.0000 0.72433  0.87831  0.00911  Biso   1.000  O
  O56      1.0000 0.72391  0.87874  0.51023  Biso   1.000  O
  O57      1.0000 0.22307  0.37049  0.25780  Biso   1.000  O
  O58      1.0000 0.22498  0.37137  0.75895  Biso   1.000  O
  O59      1.0000 0.23156  0.86169  0.26307  Biso   1.000  O
  O60      1.0000 0.22403  0.87205  0.75812  Biso   1.000  O
  O61      1.0000 0.72376  0.37154  0.26005  Biso   1.000  O
  O62      1.0000 0.72467  0.37166  0.75877  Biso   1.000  O
  O63      1.0000 0.72189  0.87063  0.26054  Biso   1.000  O
  O64      1.0000 0.72490  0.87127  0.75928  Biso   1.000  O
