data_image0
_cell_length_a       5.08452
_cell_length_b       10.4315
_cell_length_c       10.191
_cell_angle_alpha    89.4494
_cell_angle_beta     91.5738
_cell_angle_gamma    91.3655

_symmetry_space_group_name_H-M    "P 1"
_symmetry_int_tables_number       1

loop_
  _symmetry_equiv_pos_as_xyz
  'x, y, z'

loop_
  _atom_site_label
  _atom_site_occupancy
  _atom_site_fract_x
  _atom_site_fract_y
  _atom_site_fract_z
  _atom_site_thermal_displace_type
  _atom_site_B_iso_or_equiv
  _atom_site_type_symbol
  Zr1      1.0000 0.27348  0.98797  0.09882  Biso   1.000  Zr
  Zr2      1.0000 0.23932  0.22860  0.40782  Biso   1.000  Zr
  Zr3      1.0000 0.60211  0.25532  0.15233  Biso   1.000  Zr
  Zr4      1.0000 0.73247  0.48631  0.37909  Biso   1.000  Zr
  Zr5      1.0000 0.88911  0.18130  0.27601  Biso   1.000  Zr
  Zr6      1.0000 0.07014  0.05866  0.46519  Biso   1.000  Zr
  Zr7      1.0000 0.89807  0.42552  0.18328  Biso   1.000  Zr
  Zr8      1.0000 0.94893  0.33645  0.46789  Biso   1.000  Zr
  Zr9      1.0000 0.42087  0.10382  0.26018  Biso   1.000  Zr
  Zr10     1.0000 0.55640  0.13904  0.50507  Biso   1.000  Zr
  Zr11     1.0000 0.47941  0.38607  0.50524  Biso   1.000  Zr
  Zr12     1.0000 0.39677  0.37265  0.26663  Biso   1.000  Zr
  Zr13     1.0000 0.29688  0.01219  0.62907  Biso   1.000  Zr
  Zr14     1.0000 0.29994  0.23164  0.86204  Biso   1.000  Zr
  Zr15     1.0000 0.75872  0.27492  0.63781  Biso   1.000  Zr
  Zr16     1.0000 0.74027  0.48468  0.87410  Biso   1.000  Zr
  Zr17     1.0000 0.11436  0.18827  0.67542  Biso   1.000  Zr
  Zr18     1.0000 0.12814  0.05148  0.91134  Biso   1.000  Zr
  Zr19     1.0000 0.93003  0.45224  0.68960  Biso   1.000  Zr
  Zr20     1.0000 0.93243  0.30993  0.88577  Biso   1.000  Zr
  Zr21     1.0000 0.57261  0.11880  0.75283  Biso   1.000  Zr
  Zr22     1.0000 0.59889  0.11829  0.00719  Biso   1.000  Zr
  Zr23     1.0000 0.47555  0.38448  0.00004  Biso   1.000  Zr
  Zr24     1.0000 0.46724  0.37401  0.74748  Biso   1.000  Zr
  Zr25     1.0000 0.25944  0.52305  0.12692  Biso   1.000  Zr
  Zr26     1.0000 0.27441  0.74182  0.37591  Biso   1.000  Zr
  Zr27     1.0000 0.74393  0.76276  0.12729  Biso   1.000  Zr
  Zr28     1.0000 0.74172  0.00048  0.36335  Biso   1.000  Zr
  Zr29     1.0000 0.07845  0.68181  0.19681  Biso   1.000  Zr
  Zr30     1.0000 0.07015  0.57511  0.44159  Biso   1.000  Zr
  Zr31     1.0000 0.93727  0.94125  0.18991  Biso   1.000  Zr
  Zr32     1.0000 0.93614  0.82080  0.43619  Biso   1.000  Zr
  Zr33     1.0000 0.54511  0.61639  0.24849  Biso   1.000  Zr
  Zr34     1.0000 0.54191  0.63593  0.49575  Biso   1.000  Zr
  Zr35     1.0000 0.47692  0.88899  0.49410  Biso   1.000  Zr
  Zr36     1.0000 0.47786  0.86214  0.24042  Biso   1.000  Zr
  Zr37     1.0000 0.27361  0.51694  0.62048  Biso   1.000  Zr
  Zr38     1.0000 0.28658  0.73209  0.86918  Biso   1.000  Zr
  Zr39     1.0000 0.75362  0.76849  0.61668  Biso   1.000  Zr
  Zr40     1.0000 0.76437  0.98007  0.87004  Biso   1.000  Zr
  Zr41     1.0000 0.08882  0.68868  0.69118  Biso   1.000  Zr
  Zr42     1.0000 0.07658  0.56879  0.94696  Biso   1.000  Zr
  Zr43     1.0000 0.95505  0.92955  0.69576  Biso   1.000  Zr
  Zr44     1.0000 0.98564  0.82233  0.96297  Biso   1.000  Zr
  Zr45     1.0000 0.55043  0.61863  0.74788  Biso   1.000  Zr
  Zr46     1.0000 0.54544  0.63180  0.99987  Biso   1.000  Zr
  Zr47     1.0000 0.50498  0.87232  0.98958  Biso   1.000  Zr
  Zr48     1.0000 0.49419  0.86516  0.74533  Biso   1.000  Zr
  Cd1      1.0000 0.08316  0.24105  0.09489  Biso   1.000  Cd
