data_image0
_cell_length_a       10.3304
_cell_length_b       5.19868
_cell_length_c       10.6388
_cell_angle_alpha    90.2347
_cell_angle_beta     78.6752
_cell_angle_gamma    90.1507

_symmetry_space_group_name_H-M    "P 1"
_symmetry_int_tables_number       1

loop_
  _symmetry_equiv_pos_as_xyz
  'x, y, z'

loop_
  _atom_site_label
  _atom_site_occupancy
  _atom_site_fract_x
  _atom_site_fract_y
  _atom_site_fract_z
  _atom_site_thermal_displace_type
  _atom_site_B_iso_or_equiv
  _atom_site_type_symbol
  Zr1      1.0000 0.12902  0.04567  0.14009  Biso   1.000  Zr
  Zr2      1.0000 0.14080  0.45609  0.39095  Biso   1.000  Zr
  Zr3      1.0000 0.34630  0.55077  0.09425  Biso   1.000  Zr
  Zr4      1.0000 0.35241  0.93266  0.34831  Biso   1.000  Zr
  O1       1.0000 0.02673  0.33757  0.07288  Biso   1.000  O
  O2       1.0000 0.02615  0.17536  0.32576  Biso   1.000  O
  O3       1.0000 0.46219  0.86047  0.16567  Biso   1.000  O
  O4       1.0000 0.48675  0.69768  0.44593  Biso   1.000  O
  O5       1.0000 0.25994  0.22973  0.23206  Biso   1.000  O
  O6       1.0000 0.27687  0.23378  0.48848  Biso   1.000  O
  O7       1.0000 0.21748  0.76841  0.00101  Biso   1.000  O
  O8       1.0000 0.20210  0.74737  0.24827  Biso   1.000  O
  Zr5      1.0000 0.14043  0.04400  0.64278  Biso   1.000  Zr
  Zr6      1.0000 0.13250  0.46073  0.89195  Biso   1.000  Zr
  Zr7      1.0000 0.36383  0.54692  0.60942  Biso   1.000  Zr
  Zr8      1.0000 0.35831  0.96262  0.85367  Biso   1.000  Zr
  O9       1.0000 0.03561  0.32819  0.57555  Biso   1.000  O
  O10      1.0000 0.03098  0.17363  0.82408  Biso   1.000  O
  O11      1.0000 0.46954  0.82523  0.68223  Biso   1.000  O
  O12      1.0000 0.46367  0.67628  0.92373  Biso   1.000  O
  O13      1.0000 0.27398  0.25598  0.73848  Biso   1.000  O
  O14      1.0000 0.26892  0.25560  0.98509  Biso   1.000  O
  O15      1.0000 0.22637  0.74613  0.50952  Biso   1.000  O
  O16      1.0000 0.22484  0.74574  0.75671  Biso   1.000  O
  Zr9      1.0000 0.63965  0.04078  0.14891  Biso   1.000  Zr
  Zr10     1.0000 0.65558  0.45756  0.41211  Biso   1.000  Zr
  Zr11     1.0000 0.85601  0.54351  0.10694  Biso   1.000  Zr
  Zr12     1.0000 0.86364  0.95337  0.35638  Biso   1.000  Zr
  O17      1.0000 0.53025  0.34354  0.08309  Biso   1.000  O
  O18      1.0000 0.54323  0.14168  0.34001  Biso   1.000  O
  O19      1.0000 0.95747  0.83399  0.17256  Biso   1.000  O
  O20      1.0000 0.96736  0.66940  0.42511  Biso   1.000  O
  O21      1.0000 0.77552  0.25962  0.24573  Biso   1.000  O
  O22      1.0000 0.77995  0.23619  0.49850  Biso   1.000  O
  O23      1.0000 0.72241  0.75833  0.01453  Biso   1.000  O
  O24      1.0000 0.72086  0.74014  0.26557  Biso   1.000  O
  Zr13     1.0000 0.63949  0.04249  0.65340  Biso   1.000  Zr
  Zr14     1.0000 0.63486  0.46092  0.90105  Biso   1.000  Zr
  Zr15     1.0000 0.86764  0.54369  0.60979  Biso   1.000  Zr
  Zr16     1.0000 0.85967  0.96007  0.85701  Biso   1.000  Zr
  O25      1.0000 0.53508  0.32476  0.58399  Biso   1.000  O
  O26      1.0000 0.53063  0.17477  0.83229  Biso   1.000  O
  O27      1.0000 0.96836  0.83168  0.67484  Biso   1.000  O
  O28      1.0000 0.96258  0.67403  0.92255  Biso   1.000  O
  O29      1.0000 0.77366  0.25983  0.74553  Biso   1.000  O
  O30      1.0000 0.77073  0.24465  0.99409  Biso   1.000  O
  O31      1.0000 0.73078  0.75169  0.51852  Biso   1.000  O
  O32      1.0000 0.72577  0.74627  0.76621  Biso   1.000  O
  Cd1      1.0000 0.43440  0.45060  0.29937  Biso   1.000  Cd
