data_image0
_cell_length_a       10.3802
_cell_length_b       10.522
_cell_length_c       5.19426
_cell_angle_alpha    91.6556
_cell_angle_beta     84.0146
_cell_angle_gamma    91.2505

_symmetry_space_group_name_H-M    "P 1"
_symmetry_int_tables_number       1

loop_
  _symmetry_equiv_pos_as_xyz
  'x, y, z'

loop_
  _atom_site_label
  _atom_site_occupancy
  _atom_site_fract_x
  _atom_site_fract_y
  _atom_site_fract_z
  _atom_site_thermal_displace_type
  _atom_site_B_iso_or_equiv
  _atom_site_type_symbol
  Zr1      1.0000 0.18523  0.98302  0.37713  Biso   1.000  Zr
  Zr2      1.0000 0.08154  0.26683  0.61449  Biso   1.000  Zr
  Zr3      1.0000 0.33608  0.26231  0.15512  Biso   1.000  Zr
  Zr4      1.0000 0.43062  0.98861  0.85729  Biso   1.000  Zr
  Zr5      1.0000 0.91723  0.19216  0.81399  Biso   1.000  Zr
  Zr6      1.0000 0.08794  0.06579  0.69869  Biso   1.000  Zr
  Zr7      1.0000 0.94780  0.35940  0.39707  Biso   1.000  Zr
  Zr8      1.0000 0.95728  0.41869  0.90466  Biso   1.000  Zr
  Zr9      1.0000 0.25896  0.17492  0.47659  Biso   1.000  Zr
  Zr10     1.0000 0.27466  0.07611  0.04345  Biso   1.000  Zr
  Zr11     1.0000 0.19817  0.33376  0.91251  Biso   1.000  Zr
  Zr12     1.0000 0.20654  0.41108  0.40564  Biso   1.000  Zr
  Zr13     1.0000 0.07684  0.49524  0.15640  Biso   1.000  Zr
  Zr14     1.0000 0.17256  0.76079  0.85062  Biso   1.000  Zr
  Zr15     1.0000 0.42324  0.75946  0.35222  Biso   1.000  Zr
  Zr16     1.0000 0.33076  0.49252  0.65654  Biso   1.000  Zr
  Zr17     1.0000 0.01343  0.66780  0.02336  Biso   1.000  Zr
  Zr18     1.0000 0.98972  0.59174  0.47484  Biso   1.000  Zr
  Zr19     1.0000 0.04721  0.83982  0.59508  Biso   1.000  Zr
  Zr20     1.0000 0.04575  0.90665  0.11160  Biso   1.000  Zr
  Zr21     1.0000 0.26359  0.66514  0.52957  Biso   1.000  Zr
  Zr22     1.0000 0.23787  0.58376  0.97361  Biso   1.000  Zr
  Zr23     1.0000 0.29626  0.83929  0.10629  Biso   1.000  Zr
  Zr24     1.0000 0.30579  0.90024  0.60798  Biso   1.000  Zr
  Zr25     1.0000 0.67144  0.99118  0.35603  Biso   1.000  Zr
  Zr26     1.0000 0.57618  0.26442  0.65332  Biso   1.000  Zr
  Zr27     1.0000 0.81656  0.26887  0.14907  Biso   1.000  Zr
  Zr28     1.0000 0.91467  0.98494  0.84995  Biso   1.000  Zr
  Zr29     1.0000 0.49527  0.17057  0.97900  Biso   1.000  Zr
  Zr30     1.0000 0.51218  0.08171  0.53433  Biso   1.000  Zr
  Zr31     1.0000 0.45827  0.34930  0.40830  Biso   1.000  Zr
  Zr32     1.0000 0.45186  0.40939  0.91222  Biso   1.000  Zr
  Zr33     1.0000 0.73285  0.17462  0.47180  Biso   1.000  Zr
  Zr34     1.0000 0.75709  0.07724  0.04384  Biso   1.000  Zr
  Zr35     1.0000 0.69765  0.35096  0.91143  Biso   1.000  Zr
  Zr36     1.0000 0.70297  0.41241  0.41216  Biso   1.000  Zr
  Zr37     1.0000 0.57926  0.49283  0.15886  Biso   1.000  Zr
  Zr38     1.0000 0.67003  0.75769  0.84956  Biso   1.000  Zr
  Zr39     1.0000 0.92426  0.76244  0.34160  Biso   1.000  Zr
  Zr40     1.0000 0.83191  0.49518  0.65623  Biso   1.000  Zr
  Zr41     1.0000 0.51177  0.66457  0.02935  Biso   1.000  Zr
  Zr42     1.0000 0.48931  0.58783  0.48276  Biso   1.000  Zr
  Zr43     1.0000 0.55021  0.84348  0.59768  Biso   1.000  Zr
  Zr44     1.0000 0.54647  0.90445  0.10174  Biso   1.000  Zr
  Zr45     1.0000 0.76434  0.66932  0.53082  Biso   1.000  Zr
  Zr46     1.0000 0.73797  0.58756  0.98034  Biso   1.000  Zr
  Zr47     1.0000 0.79641  0.84180  0.08736  Biso   1.000  Zr
  Zr48     1.0000 0.80258  0.91267  0.58223  Biso   1.000  Zr
  Cd1      1.0000 0.06685  0.15987  0.11346  Biso   1.000  Cd
