data_image0
_cell_length_a       10.2315
_cell_length_b       5.19965
_cell_length_c       10.514
_cell_angle_alpha    90.062
_cell_angle_beta     80.6878
_cell_angle_gamma    90.0892

_symmetry_space_group_name_H-M    "P 1"
_symmetry_int_tables_number       1

loop_
  _symmetry_equiv_pos_as_xyz
  'x, y, z'

loop_
  _atom_site_label
  _atom_site_occupancy
  _atom_site_fract_x
  _atom_site_fract_y
  _atom_site_fract_z
  _atom_site_thermal_displace_type
  _atom_site_B_iso_or_equiv
  _atom_site_type_symbol
  Ce1      1.0000 0.13434  0.03296  0.14396  Biso   1.000  Ce
  Zr1      1.0000 0.13904  0.04207  0.64545  Biso   1.000  Zr
  Zr2      1.0000 0.63855  0.03835  0.14573  Biso   1.000  Zr
  Zr3      1.0000 0.63917  0.04347  0.64585  Biso   1.000  Zr
  Zr4      1.0000 0.13875  0.45611  0.39783  Biso   1.000  Zr
  Zr5      1.0000 0.13983  0.46144  0.89205  Biso   1.000  Zr
  Zr6      1.0000 0.63637  0.45546  0.39633  Biso   1.000  Zr
  Zr7      1.0000 0.64084  0.45786  0.89392  Biso   1.000  Zr
  Zr8      1.0000 0.36572  0.53684  0.10297  Biso   1.000  Zr
  Zr9      1.0000 0.36120  0.54158  0.60431  Biso   1.000  Zr
  Zr10     1.0000 0.85609  0.53825  0.10409  Biso   1.000  Zr
  Zr11     1.0000 0.86234  0.54390  0.60480  Biso   1.000  Zr
  Zr12     1.0000 0.36195  0.95609  0.35531  Biso   1.000  Zr
  Zr13     1.0000 0.36464  0.95665  0.85249  Biso   1.000  Zr
  Zr14     1.0000 0.85506  0.95632  0.35858  Biso   1.000  Zr
  Zr15     1.0000 0.86233  0.95775  0.85429  Biso   1.000  Zr
  O1       1.0000 0.03718  0.36936  0.08035  Biso   1.000  O
  O2       1.0000 0.03709  0.34563  0.58441  Biso   1.000  O
  O3       1.0000 0.53848  0.33767  0.07995  Biso   1.000  O
  O4       1.0000 0.53456  0.33732  0.58113  Biso   1.000  O
  O5       1.0000 0.02913  0.16425  0.33867  Biso   1.000  O
  O6       1.0000 0.03813  0.15526  0.83360  Biso   1.000  O
  O7       1.0000 0.53590  0.15670  0.33127  Biso   1.000  O
  O8       1.0000 0.53807  0.16129  0.82936  Biso   1.000  O
  O9       1.0000 0.46365  0.84039  0.16886  Biso   1.000  O
  O10      1.0000 0.46556  0.83777  0.66900  Biso   1.000  O
  O11      1.0000 0.94528  0.85005  0.17048  Biso   1.000  O
  O12      1.0000 0.96379  0.84446  0.66829  Biso   1.000  O
  O13      1.0000 0.46304  0.65756  0.42010  Biso   1.000  O
  O14      1.0000 0.47106  0.66497  0.91901  Biso   1.000  O
  O15      1.0000 0.96392  0.66272  0.41912  Biso   1.000  O
  O16      1.0000 0.96328  0.66031  0.91696  Biso   1.000  O
  O17      1.0000 0.27949  0.26018  0.24439  Biso   1.000  O
  O18      1.0000 0.27590  0.25834  0.73888  Biso   1.000  O
  O19      1.0000 0.77326  0.25787  0.24183  Biso   1.000  O
  O20      1.0000 0.77726  0.25914  0.74011  Biso   1.000  O
  O21      1.0000 0.27475  0.23989  0.49155  Biso   1.000  O
  O22      1.0000 0.28149  0.24709  0.98382  Biso   1.000  O
  O23      1.0000 0.77372  0.24296  0.49214  Biso   1.000  O
  O24      1.0000 0.77634  0.23994  0.99050  Biso   1.000  O
  O25      1.0000 0.23422  0.74579  0.00066  Biso   1.000  O
  O26      1.0000 0.22416  0.75806  0.50953  Biso   1.000  O
  O27      1.0000 0.72429  0.75736  0.00896  Biso   1.000  O
  O28      1.0000 0.72336  0.75711  0.51051  Biso   1.000  O
  O29      1.0000 0.22895  0.73109  0.26103  Biso   1.000  O
  O30      1.0000 0.22522  0.74341  0.75702  Biso   1.000  O
  O31      1.0000 0.71712  0.73864  0.26185  Biso   1.000  O
  O32      1.0000 0.72611  0.74231  0.75873  Biso   1.000  O
