data_image0
_cell_length_a       10.0876
_cell_length_b       10.4573
_cell_length_c       5.05819
_cell_angle_alpha    90.2486
_cell_angle_beta     90.3283
_cell_angle_gamma    90.028

_symmetry_space_group_name_H-M    "P 1"
_symmetry_int_tables_number       1

loop_
  _symmetry_equiv_pos_as_xyz
  'x, y, z'

loop_
  _atom_site_label
  _atom_site_occupancy
  _atom_site_fract_x
  _atom_site_fract_y
  _atom_site_fract_z
  _atom_site_thermal_displace_type
  _atom_site_B_iso_or_equiv
  _atom_site_type_symbol
  Ce1      1.0000 0.12589  0.00965  0.23764  Biso   1.000  Ce
  Zr1      1.0000 0.13304  0.51591  0.24950  Biso   1.000  Zr
  Zr2      1.0000 0.63338  0.01611  0.25085  Biso   1.000  Zr
  Zr3      1.0000 0.63286  0.51432  0.25074  Biso   1.000  Zr
  Zr4      1.0000 0.13484  0.23787  0.74445  Biso   1.000  Zr
  Zr5      1.0000 0.13487  0.73342  0.75146  Biso   1.000  Zr
  Zr6      1.0000 0.63335  0.23490  0.74869  Biso   1.000  Zr
  Zr7      1.0000 0.63343  0.73253  0.75330  Biso   1.000  Zr
  Zr8      1.0000 0.36603  0.26510  0.24909  Biso   1.000  Zr
  Zr9      1.0000 0.36947  0.76305  0.24735  Biso   1.000  Zr
  Zr10     1.0000 0.86447  0.26872  0.24886  Biso   1.000  Zr
  Zr11     1.0000 0.86337  0.76313  0.25595  Biso   1.000  Zr
  Zr12     1.0000 0.36628  0.48361  0.74940  Biso   1.000  Zr
  Zr13     1.0000 0.36983  0.98466  0.74292  Biso   1.000  Zr
  Zr14     1.0000 0.86676  0.48434  0.75152  Biso   1.000  Zr
  Zr15     1.0000 0.85960  0.98329  0.75527  Biso   1.000  Zr
  Zr16     1.0000 0.03317  0.19118  0.38421  Biso   1.000  Zr
  Zr17     1.0000 0.03458  0.68418  0.39577  Biso   1.000  Zr
  Zr18     1.0000 0.53621  0.18366  0.38630  Biso   1.000  Zr
  Zr19     1.0000 0.53554  0.68127  0.39262  Biso   1.000  Zr
  Zr20     1.0000 0.03128  0.07348  0.85595  Biso   1.000  Zr
  Zr21     1.0000 0.03363  0.57003  0.89331  Biso   1.000  Zr
  Zr22     1.0000 0.53776  0.06620  0.88625  Biso   1.000  Zr
  Zr23     1.0000 0.53386  0.56635  0.89365  Biso   1.000  Zr
  Zr24     1.0000 0.46589  0.43213  0.39134  Biso   1.000  Zr
  Zr25     1.0000 0.46543  0.93379  0.38518  Biso   1.000  Zr
  Zr26     1.0000 0.96419  0.43637  0.39176  Biso   1.000  Zr
  Zr27     1.0000 0.95345  0.92805  0.41004  Biso   1.000  Zr
  Zr28     1.0000 0.46562  0.31645  0.88842  Biso   1.000  Zr
  Zr29     1.0000 0.47023  0.81743  0.89214  Biso   1.000  Zr
  Zr30     1.0000 0.96595  0.32044  0.89237  Biso   1.000  Zr
  Zr31     1.0000 0.97403  0.82529  0.91694  Biso   1.000  Zr
  Zr32     1.0000 0.27485  0.12204  0.49870  Biso   1.000  Zr
  Zr33     1.0000 0.26907  0.61426  0.49592  Biso   1.000  Zr
  Zr34     1.0000 0.76858  0.11700  0.49832  Biso   1.000  Zr
  Zr35     1.0000 0.76885  0.61592  0.49767  Biso   1.000  Zr
  Zr36     1.0000 0.27114  0.13484  0.98834  Biso   1.000  Zr
  Zr37     1.0000 0.26939  0.63197  0.99651  Biso   1.000  Zr
  Zr38     1.0000 0.76892  0.13391  0.99905  Biso   1.000  Zr
  Zr39     1.0000 0.76943  0.63236  0.99693  Biso   1.000  Zr
  Zr40     1.0000 0.23142  0.38422  0.99507  Biso   1.000  Zr
  Zr41     1.0000 0.24039  0.87801  0.98525  Biso   1.000  Zr
  Zr42     1.0000 0.73041  0.38384  0.99598  Biso   1.000  Zr
  Zr43     1.0000 0.73171  0.88088  0.00464  Biso   1.000  Zr
  Zr44     1.0000 0.23058  0.36818  0.49273  Biso   1.000  Zr
  Zr45     1.0000 0.23827  0.85968  0.49953  Biso   1.000  Zr
  Zr46     1.0000 0.73057  0.36724  0.49744  Biso   1.000  Zr
  Zr47     1.0000 0.72574  0.86576  0.50344  Biso   1.000  Zr
