data_image0
_cell_length_a       5.1133
_cell_length_b       10.4025
_cell_length_c       10.5231
_cell_angle_alpha    90.0806
_cell_angle_beta     80.6636
_cell_angle_gamma    90.0674

_symmetry_space_group_name_H-M    "P 1"
_symmetry_int_tables_number       1

loop_
  _symmetry_equiv_pos_as_xyz
  'x, y, z'

loop_
  _atom_site_label
  _atom_site_occupancy
  _atom_site_fract_x
  _atom_site_fract_y
  _atom_site_fract_z
  _atom_site_thermal_displace_type
  _atom_site_B_iso_or_equiv
  _atom_site_type_symbol
  Ce1      1.0000 0.27077  0.01627  0.14473  Biso   1.000  Ce
  Zr1      1.0000 0.27884  0.02184  0.64621  Biso   1.000  Zr
  Zr2      1.0000 0.27605  0.51963  0.14496  Biso   1.000  Zr
  Zr3      1.0000 0.27756  0.52110  0.64508  Biso   1.000  Zr
  Zr4      1.0000 0.27674  0.23007  0.39750  Biso   1.000  Zr
  Zr5      1.0000 0.27918  0.23121  0.89307  Biso   1.000  Zr
  Zr6      1.0000 0.27371  0.72533  0.39676  Biso   1.000  Zr
  Zr7      1.0000 0.28189  0.72839  0.89294  Biso   1.000  Zr
  Zr8      1.0000 0.71954  0.27289  0.10343  Biso   1.000  Zr
  Zr9      1.0000 0.72397  0.27133  0.60473  Biso   1.000  Zr
  Zr10     1.0000 0.72361  0.76487  0.10355  Biso   1.000  Zr
  Zr11     1.0000 0.72283  0.77145  0.60444  Biso   1.000  Zr
  Zr12     1.0000 0.72066  0.47782  0.35432  Biso   1.000  Zr
  Zr13     1.0000 0.72486  0.47889  0.85328  Biso   1.000  Zr
  Zr14     1.0000 0.71384  0.97799  0.35975  Biso   1.000  Zr
  Zr15     1.0000 0.72894  0.97834  0.85333  Biso   1.000  Zr
  O1       1.0000 0.07177  0.17966  0.07765  Biso   1.000  O
  O2       1.0000 0.07258  0.17176  0.58372  Biso   1.000  O
  O3       1.0000 0.07764  0.67164  0.08106  Biso   1.000  O
  O4       1.0000 0.07020  0.66915  0.58129  Biso   1.000  O
  O5       1.0000 0.06122  0.08120  0.33955  Biso   1.000  O
  O6       1.0000 0.07754  0.07943  0.83181  Biso   1.000  O
  O7       1.0000 0.06871  0.57956  0.33007  Biso   1.000  O
  O8       1.0000 0.07299  0.58031  0.82974  Biso   1.000  O
  O9       1.0000 0.92422  0.42158  0.16875  Biso   1.000  O
  O10      1.0000 0.92889  0.42065  0.66837  Biso   1.000  O
  O11      1.0000 0.89492  0.92246  0.17133  Biso   1.000  O
  O12      1.0000 0.93061  0.91959  0.66958  Biso   1.000  O
  O13      1.0000 0.92727  0.33058  0.41982  Biso   1.000  O
  O14      1.0000 0.92934  0.33252  0.91699  Biso   1.000  O
  O15      1.0000 0.92728  0.83002  0.42009  Biso   1.000  O
  O16      1.0000 0.94139  0.83233  0.92050  Biso   1.000  O
  O17      1.0000 0.55645  0.13400  0.24624  Biso   1.000  O
  O18      1.0000 0.55379  0.12950  0.73948  Biso   1.000  O
  O19      1.0000 0.54956  0.62554  0.23992  Biso   1.000  O
  O20      1.0000 0.55238  0.62926  0.73926  Biso   1.000  O
  O21      1.0000 0.54754  0.12090  0.49315  Biso   1.000  O
  O22      1.0000 0.56232  0.12501  0.98435  Biso   1.000  O
  O23      1.0000 0.55003  0.62036  0.49034  Biso   1.000  O
  O24      1.0000 0.55294  0.61897  0.98965  Biso   1.000  O
  O25      1.0000 0.44867  0.37985  0.00811  Biso   1.000  O
  O26      1.0000 0.44829  0.37891  0.50919  Biso   1.000  O
  O27      1.0000 0.46763  0.87128  0.00172  Biso   1.000  O
  O28      1.0000 0.44690  0.87864  0.51103  Biso   1.000  O
  O29      1.0000 0.44407  0.37191  0.25917  Biso   1.000  O
  O30      1.0000 0.45033  0.37190  0.75803  Biso   1.000  O
  O31      1.0000 0.44721  0.86293  0.26403  Biso   1.000  O
  O32      1.0000 0.45235  0.87119  0.75791  Biso   1.000  O
