data_image0
_cell_length_a       10.3014
_cell_length_b       10.3708
_cell_length_c       10.6102
_cell_angle_alpha    89.8953
_cell_angle_beta     79.1995
_cell_angle_gamma    89.809

_symmetry_space_group_name_H-M    "P 1"
_symmetry_int_tables_number       1

loop_
  _symmetry_equiv_pos_as_xyz
  'x, y, z'

loop_
  _atom_site_label
  _atom_site_occupancy
  _atom_site_fract_x
  _atom_site_fract_y
  _atom_site_fract_z
  _atom_site_thermal_displace_type
  _atom_site_B_iso_or_equiv
  _atom_site_type_symbol
  Zr1      1.0000 0.13107  0.01878  0.14162  Biso   1.000  Zr
  Zr2      1.0000 0.12830  0.22312  0.39328  Biso   1.000  Zr
  Zr3      1.0000 0.34223  0.27165  0.07932  Biso   1.000  Zr
  Zr4      1.0000 0.36354  0.49750  0.35405  Biso   1.000  Zr
  O1       1.0000 0.02963  0.16409  0.07185  Biso   1.000  O
  O2       1.0000 0.02544  0.08206  0.32384  Biso   1.000  O
  O3       1.0000 0.46925  0.41637  0.17517  Biso   1.000  O
  O4       1.0000 0.49594  0.36564  0.44130  Biso   1.000  O
  O5       1.0000 0.26360  0.11839  0.22760  Biso   1.000  O
  O6       1.0000 0.27725  0.11657  0.48069  Biso   1.000  O
  O7       1.0000 0.21120  0.38611  0.99678  Biso   1.000  O
  O8       1.0000 0.23016  0.36838  0.25128  Biso   1.000  O
  Zr5      1.0000 0.13922  0.02072  0.64245  Biso   1.000  Zr
  Zr6      1.0000 0.13218  0.22832  0.88780  Biso   1.000  Zr
  Zr7      1.0000 0.36634  0.27692  0.60852  Biso   1.000  Zr
  Zr8      1.0000 0.35851  0.48344  0.85215  Biso   1.000  Zr
  O9       1.0000 0.03419  0.16451  0.57771  Biso   1.000  O
  O10      1.0000 0.02974  0.08476  0.82336  Biso   1.000  O
  O11      1.0000 0.46923  0.41485  0.68137  Biso   1.000  O
  O12      1.0000 0.46720  0.34039  0.92055  Biso   1.000  O
  O13      1.0000 0.27324  0.12846  0.73436  Biso   1.000  O
  O14      1.0000 0.26614  0.12019  0.97999  Biso   1.000  O
  O15      1.0000 0.24046  0.37374  0.50027  Biso   1.000  O
  O16      1.0000 0.22419  0.37343  0.75455  Biso   1.000  O
  Zr9      1.0000 0.13945  0.52016  0.14642  Biso   1.000  Zr
  Zr10     1.0000 0.13388  0.72823  0.39703  Biso   1.000  Zr
  Zr11     1.0000 0.35949  0.77210  0.10261  Biso   1.000  Zr
  Zr12     1.0000 0.35865  0.96220  0.35408  Biso   1.000  Zr
  O17      1.0000 0.03183  0.66274  0.07533  Biso   1.000  O
  O18      1.0000 0.03283  0.58591  0.32567  Biso   1.000  O
  O19      1.0000 0.46695  0.91323  0.17422  Biso   1.000  O
  O20      1.0000 0.46587  0.82917  0.42810  Biso   1.000  O
  O21      1.0000 0.27447  0.62944  0.24121  Biso   1.000  O
  O22      1.0000 0.26951  0.62533  0.49512  Biso   1.000  O
  O23      1.0000 0.22374  0.87753  0.00810  Biso   1.000  O
  O24      1.0000 0.21982  0.86647  0.25767  Biso   1.000  O
  Zr13     1.0000 0.13842  0.52012  0.64451  Biso   1.000  Zr
  Zr14     1.0000 0.13611  0.72756  0.89658  Biso   1.000  Zr
  Zr15     1.0000 0.36118  0.77119  0.60701  Biso   1.000  Zr
  Zr16     1.0000 0.35976  0.97735  0.85236  Biso   1.000  Zr
  O25      1.0000 0.02814  0.66133  0.57689  Biso   1.000  O
  O26      1.0000 0.03244  0.58556  0.82465  Biso   1.000  O
  O27      1.0000 0.46753  0.91491  0.67428  Biso   1.000  O
  O28      1.0000 0.46660  0.83759  0.92397  Biso   1.000  O
  O29      1.0000 0.27342  0.62752  0.74071  Biso   1.000  O
  O30      1.0000 0.27567  0.62459  0.99144  Biso   1.000  O
  O31      1.0000 0.22163  0.87375  0.51152  Biso   1.000  O
  O32      1.0000 0.22430  0.87139  0.75971  Biso   1.000  O
  Zr17     1.0000 0.63943  0.01982  0.15017  Biso   1.000  Zr
  Zr18     1.0000 0.65823  0.23160  0.40901  Biso   1.000  Zr
  Zr19     1.0000 0.86008  0.27262  0.10700  Biso   1.000  Zr
  Zr20     1.0000 0.86298  0.48004  0.35570  Biso   1.000  Zr
  O33      1.0000 0.52456  0.16867  0.09061  Biso   1.000  O
  O34      1.0000 0.54622  0.06895  0.34234  Biso   1.000  O
  O35      1.0000 0.96893  0.41315  0.17424  Biso   1.000  O
  O36      1.0000 0.96635  0.33874  0.42696  Biso   1.000  O
  O37      1.0000 0.77872  0.12873  0.24256  Biso   1.000  O
  O38      1.0000 0.78444  0.11829  0.49984  Biso   1.000  O
  O39      1.0000 0.72293  0.37830  0.01394  Biso   1.000  O
  O40      1.0000 0.72874  0.37300  0.26410  Biso   1.000  O
  Zr21     1.0000 0.63850  0.02222  0.65032  Biso   1.000  Zr
  Zr22     1.0000 0.63652  0.22956  0.90189  Biso   1.000  Zr
  Zr23     1.0000 0.86335  0.27161  0.61205  Biso   1.000  Zr
  Zr24     1.0000 0.86009  0.47932  0.85637  Biso   1.000  Zr
  O41      1.0000 0.53667  0.16668  0.58040  Biso   1.000  O
  O42      1.0000 0.52974  0.08714  0.83148  Biso   1.000  O
  O43      1.0000 0.96927  0.41364  0.67537  Biso   1.000  O
  O44      1.0000 0.96163  0.33408  0.92211  Biso   1.000  O
  O45      1.0000 0.77235  0.12919  0.74691  Biso   1.000  O
  O46      1.0000 0.77012  0.12122  0.99503  Biso   1.000  O
  O47      1.0000 0.73277  0.37889  0.51880  Biso   1.000  O
  O48      1.0000 0.72532  0.37194  0.76613  Biso   1.000  O
  Zr25     1.0000 0.63835  0.52292  0.14677  Biso   1.000  Zr
  Zr26     1.0000 0.64110  0.72869  0.39866  Biso   1.000  Zr
  Zr27     1.0000 0.86006  0.76956  0.10501  Biso   1.000  Zr
  Zr28     1.0000 0.85696  0.97616  0.35592  Biso   1.000  Zr
  O49      1.0000 0.53143  0.66472  0.07577  Biso   1.000  O
  O50      1.0000 0.53523  0.59562  0.32257  Biso   1.000  O
  O51      1.0000 0.96271  0.91033  0.17495  Biso   1.000  O
  O52      1.0000 0.96436  0.83482  0.42535  Biso   1.000  O
  O53      1.0000 0.77699  0.62782  0.24102  Biso   1.000  O
  O54      1.0000 0.77421  0.62168  0.49180  Biso   1.000  O
  O55      1.0000 0.72418  0.87804  0.01247  Biso   1.000  O
  O56      1.0000 0.72315  0.86992  0.26107  Biso   1.000  O
  Zr29     1.0000 0.63864  0.52300  0.64852  Biso   1.000  Zr
  Zr30     1.0000 0.63681  0.72866  0.89752  Biso   1.000  Zr
  Zr31     1.0000 0.86062  0.77254  0.60690  Biso   1.000  Zr
  Zr32     1.0000 0.85937  0.97801  0.85632  Biso   1.000  Zr
  O57      1.0000 0.53138  0.66205  0.57852  Biso   1.000  O
  O58      1.0000 0.53060  0.58948  0.82726  Biso   1.000  O
  O59      1.0000 0.96633  0.91402  0.67449  Biso   1.000  O
  O60      1.0000 0.96649  0.83574  0.92394  Biso   1.000  O
  O61      1.0000 0.77341  0.62858  0.74166  Biso   1.000  O
  O62      1.0000 0.77390  0.62190  0.99061  Biso   1.000  O
  O63      1.0000 0.72286  0.87757  0.51376  Biso   1.000  O
  O64      1.0000 0.72441  0.87287  0.76305  Biso   1.000  O
  Ce1      1.0000 0.41332  0.23642  0.30801  Biso   1.000  Ce
