data_image0
_cell_length_a       10.0506
_cell_length_b       10.458
_cell_length_c       10.0856
_cell_angle_alpha    89.831
_cell_angle_beta     90.1125
_cell_angle_gamma    90.0158

_symmetry_space_group_name_H-M    "P 1"
_symmetry_int_tables_number       1

loop_
  _symmetry_equiv_pos_as_xyz
  'x, y, z'

loop_
  _atom_site_label
  _atom_site_occupancy
  _atom_site_fract_x
  _atom_site_fract_y
  _atom_site_fract_z
  _atom_site_thermal_displace_type
  _atom_site_B_iso_or_equiv
  _atom_site_type_symbol
  Zr1      1.0000 0.13461  0.02023  0.12224  Biso   1.000  Zr
  Zr2      1.0000 0.13471  0.23196  0.38133  Biso   1.000  Zr
  Zr3      1.0000 0.36470  0.26364  0.12271  Biso   1.000  Zr
  Zr4      1.0000 0.36726  0.48458  0.37487  Biso   1.000  Zr
  Zr5      1.0000 0.01956  0.17387  0.21090  Biso   1.000  Zr
  Zr6      1.0000 0.03510  0.06572  0.44968  Biso   1.000  Zr
  Zr7      1.0000 0.46198  0.43331  0.19383  Biso   1.000  Zr
  Zr8      1.0000 0.46448  0.31663  0.44492  Biso   1.000  Zr
  Zr9      1.0000 0.26743  0.11764  0.25020  Biso   1.000  Zr
  Zr10     1.0000 0.27083  0.13228  0.49981  Biso   1.000  Zr
  Zr11     1.0000 0.23201  0.38327  0.49910  Biso   1.000  Zr
  Zr12     1.0000 0.22628  0.36704  0.24819  Biso   1.000  Zr
  Zr13     1.0000 0.13433  0.01379  0.62657  Biso   1.000  Zr
  Zr14     1.0000 0.14070  0.22738  0.87276  Biso   1.000  Zr
  Zr15     1.0000 0.36797  0.26574  0.62555  Biso   1.000  Zr
  Zr16     1.0000 0.36747  0.48393  0.87460  Biso   1.000  Zr
  Zr17     1.0000 0.03548  0.18065  0.69504  Biso   1.000  Zr
  Zr18     1.0000 0.03789  0.06305  0.94245  Biso   1.000  Zr
  Zr19     1.0000 0.46693  0.43307  0.69534  Biso   1.000  Zr
  Zr20     1.0000 0.46491  0.31522  0.94246  Biso   1.000  Zr
  Zr21     1.0000 0.27207  0.11419  0.74642  Biso   1.000  Zr
  Zr22     1.0000 0.28432  0.12351  0.99273  Biso   1.000  Zr
  Zr23     1.0000 0.23006  0.38381  0.99958  Biso   1.000  Zr
  Zr24     1.0000 0.23331  0.36561  0.74859  Biso   1.000  Zr
  Zr25     1.0000 0.13443  0.53110  0.12448  Biso   1.000  Zr
  Zr26     1.0000 0.13500  0.73641  0.37794  Biso   1.000  Zr
  Zr27     1.0000 0.36595  0.76791  0.12648  Biso   1.000  Zr
  Zr28     1.0000 0.36562  0.98427  0.37538  Biso   1.000  Zr
  Zr29     1.0000 0.03295  0.68661  0.20016  Biso   1.000  Zr
  Zr30     1.0000 0.03545  0.56750  0.44599  Biso   1.000  Zr
  Zr31     1.0000 0.46385  0.93386  0.19479  Biso   1.000  Zr
  Zr32     1.0000 0.46488  0.81551  0.44291  Biso   1.000  Zr
  Zr33     1.0000 0.27240  0.62185  0.25067  Biso   1.000  Zr
  Zr34     1.0000 0.27005  0.63253  0.49932  Biso   1.000  Zr
  Zr35     1.0000 0.23192  0.88296  0.49933  Biso   1.000  Zr
  Zr36     1.0000 0.22990  0.86894  0.24920  Biso   1.000  Zr
  Zr37     1.0000 0.13431  0.51460  0.62586  Biso   1.000  Zr
  Zr38     1.0000 0.13405  0.73633  0.87334  Biso   1.000  Zr
  Zr39     1.0000 0.36888  0.76385  0.62418  Biso   1.000  Zr
  Zr40     1.0000 0.36964  0.97980  0.87407  Biso   1.000  Zr
  Zr41     1.0000 0.03675  0.68286  0.69319  Biso   1.000  Zr
  Zr42     1.0000 0.03518  0.56982  0.94524  Biso   1.000  Zr
  Zr43     1.0000 0.46775  0.93122  0.69227  Biso   1.000  Zr
  Zr44     1.0000 0.46775  0.81542  0.94650  Biso   1.000  Zr
  Zr45     1.0000 0.27006  0.61534  0.74865  Biso   1.000  Zr
  Zr46     1.0000 0.27119  0.63575  0.99749  Biso   1.000  Zr
  Zr47     1.0000 0.23044  0.88139  0.99861  Biso   1.000  Zr
  Zr48     1.0000 0.23414  0.86477  0.74774  Biso   1.000  Zr
  Zr49     1.0000 0.63185  0.01397  0.12388  Biso   1.000  Zr
  Zr50     1.0000 0.63161  0.23236  0.37658  Biso   1.000  Zr
  Zr51     1.0000 0.85167  0.26408  0.12729  Biso   1.000  Zr
  Zr52     1.0000 0.86755  0.48413  0.37582  Biso   1.000  Zr
  Zr53     1.0000 0.53381  0.18154  0.19464  Biso   1.000  Zr
  Zr54     1.0000 0.53482  0.06560  0.44542  Biso   1.000  Zr
  Zr55     1.0000 0.96295  0.43364  0.19482  Biso   1.000  Zr
  Zr56     1.0000 0.96731  0.31831  0.44840  Biso   1.000  Zr
  Zr57     1.0000 0.76348  0.11465  0.24958  Biso   1.000  Zr
  Zr58     1.0000 0.77041  0.13337  0.49808  Biso   1.000  Zr
  Zr59     1.0000 0.73182  0.38273  0.49971  Biso   1.000  Zr
  Zr60     1.0000 0.72575  0.36819  0.25135  Biso   1.000  Zr
  Zr61     1.0000 0.63595  0.01461  0.62468  Biso   1.000  Zr
  Zr62     1.0000 0.63299  0.23259  0.87342  Biso   1.000  Zr
  Zr63     1.0000 0.86734  0.26500  0.62603  Biso   1.000  Zr
  Zr64     1.0000 0.86736  0.48251  0.87763  Biso   1.000  Zr
  Zr65     1.0000 0.53751  0.18311  0.69245  Biso   1.000  Zr
  Zr66     1.0000 0.54043  0.06342  0.94037  Biso   1.000  Zr
  Zr67     1.0000 0.96732  0.43150  0.69962  Biso   1.000  Zr
  Zr68     1.0000 0.96936  0.31535  0.95253  Biso   1.000  Zr
  Zr69     1.0000 0.77116  0.11544  0.74821  Biso   1.000  Zr
  Zr70     1.0000 0.76979  0.13146  0.99805  Biso   1.000  Zr
  Zr71     1.0000 0.72799  0.38170  0.99927  Biso   1.000  Zr
  Zr72     1.0000 0.73286  0.36575  0.74983  Biso   1.000  Zr
  Zr73     1.0000 0.63181  0.51645  0.12641  Biso   1.000  Zr
  Zr74     1.0000 0.63451  0.73389  0.37529  Biso   1.000  Zr
  Zr75     1.0000 0.86486  0.76657  0.12571  Biso   1.000  Zr
  Zr76     1.0000 0.86791  0.98471  0.37348  Biso   1.000  Zr
  Zr77     1.0000 0.53572  0.68340  0.19450  Biso   1.000  Zr
  Zr78     1.0000 0.53519  0.56588  0.44517  Biso   1.000  Zr
  Zr79     1.0000 0.96472  0.93296  0.19349  Biso   1.000  Zr
  Zr80     1.0000 0.96573  0.81782  0.44605  Biso   1.000  Zr
  Zr81     1.0000 0.76904  0.61663  0.24959  Biso   1.000  Zr
  Zr82     1.0000 0.76955  0.63301  0.49934  Biso   1.000  Zr
  Zr83     1.0000 0.73217  0.88345  0.49788  Biso   1.000  Zr
  Zr84     1.0000 0.73008  0.86632  0.24849  Biso   1.000  Zr
  Zr85     1.0000 0.63613  0.51457  0.62582  Biso   1.000  Zr
  Zr86     1.0000 0.63559  0.73278  0.87534  Biso   1.000  Zr
  Zr87     1.0000 0.86730  0.76490  0.62519  Biso   1.000  Zr
  Zr88     1.0000 0.86689  0.98248  0.87531  Biso   1.000  Zr
  Zr89     1.0000 0.53724  0.68217  0.69484  Biso   1.000  Zr
  Zr90     1.0000 0.53571  0.56570  0.94426  Biso   1.000  Zr
  Zr91     1.0000 0.96718  0.93038  0.69755  Biso   1.000  Zr
  Zr92     1.0000 0.96462  0.81500  0.94518  Biso   1.000  Zr
  Zr93     1.0000 0.77155  0.61515  0.74976  Biso   1.000  Zr
  Zr94     1.0000 0.76953  0.63155  0.99968  Biso   1.000  Zr
  Zr95     1.0000 0.73133  0.88176  0.99866  Biso   1.000  Zr
  Zr96     1.0000 0.73235  0.86536  0.74857  Biso   1.000  Zr
  Co1      1.0000 0.09586  0.30384  0.10712  Biso   1.000  Co
