data_image0
_cell_length_a       10.0103
_cell_length_b       5.20954
_cell_length_c       10.0211
_cell_angle_alpha    92.1282
_cell_angle_beta     89.0971
_cell_angle_gamma    90.2174

_symmetry_space_group_name_H-M    "P 1"
_symmetry_int_tables_number       1

loop_
  _symmetry_equiv_pos_as_xyz
  'x, y, z'

loop_
  _atom_site_label
  _atom_site_occupancy
  _atom_site_fract_x
  _atom_site_fract_y
  _atom_site_fract_z
  _atom_site_thermal_displace_type
  _atom_site_B_iso_or_equiv
  _atom_site_type_symbol
  Co1      1.0000 0.11820  0.07274  0.10822  Biso   1.000  Co
  Zr1      1.0000 0.13761  0.03805  0.63167  Biso   1.000  Zr
  Zr2      1.0000 0.63863  0.04506  0.12641  Biso   1.000  Zr
  Zr3      1.0000 0.62230  0.02246  0.61275  Biso   1.000  Zr
  Zr4      1.0000 0.13834  0.43821  0.37191  Biso   1.000  Zr
  Zr5      1.0000 0.13006  0.48557  0.88805  Biso   1.000  Zr
  Zr6      1.0000 0.63931  0.47476  0.37887  Biso   1.000  Zr
  Zr7      1.0000 0.63547  0.47358  0.86506  Biso   1.000  Zr
  Zr8      1.0000 0.39123  0.52371  0.10624  Biso   1.000  Zr
  Zr9      1.0000 0.36346  0.54227  0.63155  Biso   1.000  Zr
  Zr10     1.0000 0.87075  0.54044  0.11813  Biso   1.000  Zr
  Zr11     1.0000 0.87449  0.52510  0.61626  Biso   1.000  Zr
  Zr12     1.0000 0.36306  0.94134  0.37012  Biso   1.000  Zr
  Zr13     1.0000 0.35307  0.98615  0.88847  Biso   1.000  Zr
  Zr14     1.0000 0.87372  0.97424  0.37079  Biso   1.000  Zr
  Zr15     1.0000 0.86238  0.97538  0.86600  Biso   1.000  Zr
  Zr16     1.0000 0.03938  0.36544  0.18275  Biso   1.000  Zr
  Zr17     1.0000 0.03254  0.36833  0.70672  Biso   1.000  Zr
  Zr18     1.0000 0.54117  0.37689  0.20503  Biso   1.000  Zr
  Zr19     1.0000 0.53170  0.36895  0.69211  Biso   1.000  Zr
  Zr20     1.0000 0.02827  0.14175  0.46305  Biso   1.000  Zr
  Zr21     1.0000 0.03110  0.13400  0.94737  Biso   1.000  Zr
  Zr22     1.0000 0.53499  0.13747  0.43592  Biso   1.000  Zr
  Zr23     1.0000 0.51298  0.18872  0.96591  Biso   1.000  Zr
  Zr24     1.0000 0.47007  0.87471  0.18852  Biso   1.000  Zr
  Zr25     1.0000 0.45842  0.88335  0.70409  Biso   1.000  Zr
  Zr26     1.0000 0.98339  0.87889  0.18274  Biso   1.000  Zr
  Zr27     1.0000 0.96661  0.86538  0.69000  Biso   1.000  Zr
  Zr28     1.0000 0.47909  0.65546  0.46507  Biso   1.000  Zr
  Zr29     1.0000 0.46191  0.66388  0.93111  Biso   1.000  Zr
  Zr30     1.0000 0.96811  0.62952  0.43110  Biso   1.000  Zr
  Zr31     1.0000 0.95403  0.63842  0.93618  Biso   1.000  Zr
  Zr32     1.0000 0.21844  0.10172  0.25749  Biso   1.000  Zr
  Zr33     1.0000 0.26874  0.25326  0.76084  Biso   1.000  Zr
  Zr34     1.0000 0.77935  0.24095  0.24469  Biso   1.000  Zr
  Zr35     1.0000 0.76148  0.22231  0.74184  Biso   1.000  Zr
  Zr36     1.0000 0.27479  0.25589  0.50077  Biso   1.000  Zr
  Zr37     1.0000 0.25097  0.27157  0.01934  Biso   1.000  Zr
  Zr38     1.0000 0.76707  0.26752  0.49475  Biso   1.000  Zr
  Zr39     1.0000 0.76396  0.27659  0.99312  Biso   1.000  Zr
  Zr40     1.0000 0.22710  0.75495  0.50419  Biso   1.000  Zr
  Zr41     1.0000 0.22021  0.78829  0.01941  Biso   1.000  Zr
  Zr42     1.0000 0.74145  0.77278  0.49340  Biso   1.000  Zr
  Zr43     1.0000 0.72381  0.77920  0.99088  Biso   1.000  Zr
  Zr44     1.0000 0.28229  0.60850  0.26842  Biso   1.000  Zr
  Zr45     1.0000 0.22420  0.74787  0.76015  Biso   1.000  Zr
  Zr46     1.0000 0.73794  0.74231  0.24303  Biso   1.000  Zr
  Zr47     1.0000 0.73188  0.72442  0.73912  Biso   1.000  Zr
