data_image0
_cell_length_a       10.0462
_cell_length_b       5.07689
_cell_length_c       10.0462
_cell_angle_alpha    90.0013
_cell_angle_beta     91.9187
_cell_angle_gamma    89.999

_symmetry_space_group_name_H-M    "P 1"
_symmetry_int_tables_number       1

loop_
  _symmetry_equiv_pos_as_xyz
  'x, y, z'

loop_
  _atom_site_label
  _atom_site_occupancy
  _atom_site_fract_x
  _atom_site_fract_y
  _atom_site_fract_z
  _atom_site_thermal_displace_type
  _atom_site_B_iso_or_equiv
  _atom_site_type_symbol
  Co1      1.0000 0.12502  0.07755  0.12499  Biso   1.000  Co
  Zr1      1.0000 0.12501  0.01177  0.62499  Biso   1.000  Zr
  Zr2      1.0000 0.62502  0.01177  0.12497  Biso   1.000  Zr
  Zr3      1.0000 0.62502  0.99781  0.62499  Biso   1.000  Zr
  Zr4      1.0000 0.11612  0.49325  0.37577  Biso   1.000  Zr
  Zr5      1.0000 0.13389  0.49327  0.87421  Biso   1.000  Zr
  Zr6      1.0000 0.61869  0.50074  0.37600  Biso   1.000  Zr
  Zr7      1.0000 0.63133  0.50075  0.87398  Biso   1.000  Zr
  Zr8      1.0000 0.37579  0.49326  0.11610  Biso   1.000  Zr
  Zr9      1.0000 0.37602  0.50075  0.61866  Biso   1.000  Zr
  Zr10     1.0000 0.87423  0.49327  0.13387  Biso   1.000  Zr
  Zr11     1.0000 0.87400  0.50074  0.63131  Biso   1.000  Zr
  Zr12     1.0000 0.36442  0.00104  0.36439  Biso   1.000  Zr
  Zr13     1.0000 0.38014  0.99021  0.86985  Biso   1.000  Zr
  Zr14     1.0000 0.86988  0.99020  0.38011  Biso   1.000  Zr
  Zr15     1.0000 0.88561  0.00104  0.88558  Biso   1.000  Zr
  Zr16     1.0000 0.00581  0.30961  0.00578  Biso   1.000  Zr
  Zr17     1.0000 0.98790  0.27973  0.49511  Biso   1.000  Zr
  Zr18     1.0000 0.49514  0.27973  0.98788  Biso   1.000  Zr
  Zr19     1.0000 0.48628  0.28285  0.48625  Biso   1.000  Zr
  Zr20     1.0000 0.00384  0.18171  0.24615  Biso   1.000  Zr
  Zr21     1.0000 0.00928  0.21658  0.75013  Biso   1.000  Zr
  Zr22     1.0000 0.49987  0.21654  0.24070  Biso   1.000  Zr
  Zr23     1.0000 0.50887  0.22154  0.74111  Biso   1.000  Zr
  Zr24     1.0000 0.96873  0.68488  0.28126  Biso   1.000  Zr
  Zr25     1.0000 0.99230  0.71310  0.77494  Biso   1.000  Zr
  Zr26     1.0000 0.47504  0.71305  0.25772  Biso   1.000  Zr
  Zr27     1.0000 0.49604  0.71619  0.75397  Biso   1.000  Zr
  Zr28     1.0000 0.02855  0.83415  0.02851  Biso   1.000  Zr
  Zr29     1.0000 0.00213  0.77471  0.51950  Biso   1.000  Zr
  Zr30     1.0000 0.51952  0.77471  0.00212  Biso   1.000  Zr
  Zr31     1.0000 0.50206  0.78266  0.50204  Biso   1.000  Zr
  Zr32     1.0000 0.24421  0.30961  0.24418  Biso   1.000  Zr
  Zr33     1.0000 0.26211  0.27974  0.75486  Biso   1.000  Zr
  Zr34     1.0000 0.75489  0.27975  0.26208  Biso   1.000  Zr
  Zr35     1.0000 0.76373  0.28285  0.76370  Biso   1.000  Zr
  Zr36     1.0000 0.24618  0.18172  0.00381  Biso   1.000  Zr
  Zr37     1.0000 0.24073  0.21657  0.49984  Biso   1.000  Zr
  Zr38     1.0000 0.75015  0.21660  0.00925  Biso   1.000  Zr
  Zr39     1.0000 0.74114  0.22152  0.50885  Biso   1.000  Zr
  Zr40     1.0000 0.28129  0.68487  0.96870  Biso   1.000  Zr
  Zr41     1.0000 0.25773  0.71307  0.47501  Biso   1.000  Zr
  Zr42     1.0000 0.77496  0.71312  0.99228  Biso   1.000  Zr
  Zr43     1.0000 0.75399  0.71618  0.49601  Biso   1.000  Zr
  Zr44     1.0000 0.22148  0.83416  0.22143  Biso   1.000  Zr
  Zr45     1.0000 0.24790  0.77473  0.73046  Biso   1.000  Zr
  Zr46     1.0000 0.73049  0.77474  0.24788  Biso   1.000  Zr
  Zr47     1.0000 0.74797  0.78268  0.74795  Biso   1.000  Zr
