data_image0
_cell_length_a       10.1469
_cell_length_b       10.3083
_cell_length_c       5.10423
_cell_angle_alpha    90.2613
_cell_angle_beta     86.6832
_cell_angle_gamma    91.5848

_symmetry_space_group_name_H-M    "P 1"
_symmetry_int_tables_number       1

loop_
  _symmetry_equiv_pos_as_xyz
  'x, y, z'

loop_
  _atom_site_label
  _atom_site_occupancy
  _atom_site_fract_x
  _atom_site_fract_y
  _atom_site_fract_z
  _atom_site_thermal_displace_type
  _atom_site_B_iso_or_equiv
  _atom_site_type_symbol
  Zr1      1.0000 0.13264  0.96072  0.26384  Biso   1.000  Zr
  Zr2      1.0000 0.12244  0.26402  0.71468  Biso   1.000  Zr
  Zr3      1.0000 0.37352  0.24980  0.28735  Biso   1.000  Zr
  Zr4      1.0000 0.38628  0.01155  0.78996  Biso   1.000  Zr
  Zr5      1.0000 0.98842  0.15002  0.96104  Biso   1.000  Zr
  Zr6      1.0000 0.03395  0.09136  0.49684  Biso   1.000  Zr
  Zr7      1.0000 0.01443  0.33468  0.41609  Biso   1.000  Zr
  Zr8      1.0000 0.99271  0.40713  0.93833  Biso   1.000  Zr
  Zr9      1.0000 0.29032  0.16203  0.63485  Biso   1.000  Zr
  Zr10     1.0000 0.26966  0.09204  0.11436  Biso   1.000  Zr
  Zr11     1.0000 0.24062  0.34325  0.02090  Biso   1.000  Zr
  Zr12     1.0000 0.25332  0.41215  0.50585  Biso   1.000  Zr
  Zr13     1.0000 0.12635  0.49779  0.23998  Biso   1.000  Zr
  Zr14     1.0000 0.13476  0.75024  0.75515  Biso   1.000  Zr
  Zr15     1.0000 0.38672  0.76178  0.28795  Biso   1.000  Zr
  Zr16     1.0000 0.38073  0.48860  0.78629  Biso   1.000  Zr
  Zr17     1.0000 0.97455  0.65783  0.93848  Biso   1.000  Zr
  Zr18     1.0000 0.96710  0.58284  0.42688  Biso   1.000  Zr
  Zr19     1.0000 0.99943  0.83732  0.50065  Biso   1.000  Zr
  Zr20     1.0000 0.00995  0.89587  0.98975  Biso   1.000  Zr
  Zr21     1.0000 0.21741  0.66200  0.41877  Biso   1.000  Zr
  Zr22     1.0000 0.22177  0.59066  0.92168  Biso   1.000  Zr
  Zr23     1.0000 0.26229  0.84402  0.00822  Biso   1.000  Zr
  Zr24     1.0000 0.26012  0.89828  0.53083  Biso   1.000  Zr
  Zr25     1.0000 0.64250  0.00261  0.25799  Biso   1.000  Zr
  Zr26     1.0000 0.63637  0.23988  0.72572  Biso   1.000  Zr
  Zr27     1.0000 0.86560  0.26577  0.18882  Biso   1.000  Zr
  Zr28     1.0000 0.88980  0.99798  0.74042  Biso   1.000  Zr
  Zr29     1.0000 0.50505  0.15451  0.99947  Biso   1.000  Zr
  Zr30     1.0000 0.51927  0.10704  0.50152  Biso   1.000  Zr
  Zr31     1.0000 0.50291  0.35863  0.55428  Biso   1.000  Zr
  Zr32     1.0000 0.48196  0.40416  0.06919  Biso   1.000  Zr
  Zr33     1.0000 0.77307  0.14523  0.47714  Biso   1.000  Zr
  Zr34     1.0000 0.74939  0.10885  0.97323  Biso   1.000  Zr
  Zr35     1.0000 0.73693  0.36626  0.97541  Biso   1.000  Zr
  Zr36     1.0000 0.75176  0.39561  0.47475  Biso   1.000  Zr
  Zr37     1.0000 0.61450  0.50073  0.28196  Biso   1.000  Zr
  Zr38     1.0000 0.62158  0.75956  0.77953  Biso   1.000  Zr
  Zr39     1.0000 0.86871  0.74412  0.24911  Biso   1.000  Zr
  Zr40     1.0000 0.85675  0.51461  0.75222  Biso   1.000  Zr
  Zr41     1.0000 0.48324  0.64965  0.00141  Biso   1.000  Zr
  Zr42     1.0000 0.47882  0.60998  0.50492  Biso   1.000  Zr
  Zr43     1.0000 0.50452  0.86167  0.54254  Biso   1.000  Zr
  Zr44     1.0000 0.50856  0.90042  0.04239  Biso   1.000  Zr
  Zr45     1.0000 0.73310  0.64816  0.52183  Biso   1.000  Zr
  Zr46     1.0000 0.73350  0.61277  0.02357  Biso   1.000  Zr
  Zr47     1.0000 0.75842  0.85944  0.99293  Biso   1.000  Zr
  Zr48     1.0000 0.75819  0.89736  0.49172  Biso   1.000  Zr
  Co1      1.0000 0.12283  0.20545  0.21276  Biso   1.000  Co
