data_image0
_cell_length_a       10.3353
_cell_length_b       10.3449
_cell_length_c       5.29121
_cell_angle_alpha    90.5063
_cell_angle_beta     79.3403
_cell_angle_gamma    90.0023

_symmetry_space_group_name_H-M    "P 1"
_symmetry_int_tables_number       1

loop_
  _symmetry_equiv_pos_as_xyz
  'x, y, z'

loop_
  _atom_site_label
  _atom_site_occupancy
  _atom_site_fract_x
  _atom_site_fract_y
  _atom_site_fract_z
  _atom_site_thermal_displace_type
  _atom_site_B_iso_or_equiv
  _atom_site_type_symbol
  Zr1      1.0000 0.13547  0.02010  0.29590  Biso   1.000  Zr
  Zr2      1.0000 0.12806  0.22943  0.79447  Biso   1.000  Zr
  Zr3      1.0000 0.36349  0.27263  0.24146  Biso   1.000  Zr
  Zr4      1.0000 0.36088  0.48068  0.69218  Biso   1.000  Zr
  O1       1.0000 0.02889  0.16325  0.15203  Biso   1.000  O
  O2       1.0000 0.02890  0.08471  0.64514  Biso   1.000  O
  O3       1.0000 0.46804  0.42518  0.33682  Biso   1.000  O
  O4       1.0000 0.48948  0.35420  0.84871  Biso   1.000  O
  O5       1.0000 0.27900  0.13060  0.51337  Biso   1.000  O
  O6       1.0000 0.27202  0.11394  0.99780  Biso   1.000  O
  O7       1.0000 0.24623  0.36092  0.98858  Biso   1.000  O
  O8       1.0000 0.20725  0.37795  0.50410  Biso   1.000  O
  Zr5      1.0000 0.13848  0.51973  0.28504  Biso   1.000  Zr
  Zr6      1.0000 0.13586  0.72645  0.79041  Biso   1.000  Zr
  Zr7      1.0000 0.36056  0.77006  0.20754  Biso   1.000  Zr
  Zr8      1.0000 0.35681  0.96940  0.71278  Biso   1.000  Zr
  O9       1.0000 0.02777  0.66145  0.14231  Biso   1.000  O
  O10      1.0000 0.03079  0.58917  0.63725  Biso   1.000  O
  O11      1.0000 0.46621  0.91307  0.35139  Biso   1.000  O
  O12      1.0000 0.46797  0.83637  0.85326  Biso   1.000  O
  O13      1.0000 0.27304  0.62933  0.47741  Biso   1.000  O
  O14      1.0000 0.27040  0.61791  0.98035  Biso   1.000  O
  O15      1.0000 0.22221  0.87200  0.02124  Biso   1.000  O
  O16      1.0000 0.22140  0.87125  0.51666  Biso   1.000  O
  Zr9      1.0000 0.63828  0.02081  0.29263  Biso   1.000  Zr
  Zr10     1.0000 0.64645  0.23064  0.80040  Biso   1.000  Zr
  Zr11     1.0000 0.85929  0.27233  0.21276  Biso   1.000  Zr
  Zr12     1.0000 0.86159  0.48071  0.70402  Biso   1.000  Zr
  O17      1.0000 0.53694  0.16602  0.16351  Biso   1.000  O
  O18      1.0000 0.52494  0.09293  0.66192  Biso   1.000  O
  O19      1.0000 0.96689  0.41501  0.33974  Biso   1.000  O
  O20      1.0000 0.96389  0.34036  0.84777  Biso   1.000  O
  O21      1.0000 0.77226  0.12740  0.48323  Biso   1.000  O
  O22      1.0000 0.77782  0.12057  0.98413  Biso   1.000  O
  O23      1.0000 0.72739  0.37921  0.02435  Biso   1.000  O
  O24      1.0000 0.72762  0.37294  0.52112  Biso   1.000  O
  Zr13     1.0000 0.63960  0.52553  0.28931  Biso   1.000  Zr
  Zr14     1.0000 0.63778  0.72864  0.79040  Biso   1.000  Zr
  Zr15     1.0000 0.86091  0.77152  0.20455  Biso   1.000  Zr
  Zr16     1.0000 0.85985  0.97677  0.70808  Biso   1.000  Zr
  O25      1.0000 0.53300  0.66597  0.15013  Biso   1.000  O
  O26      1.0000 0.53320  0.59119  0.64667  Biso   1.000  O
  O27      1.0000 0.96678  0.91400  0.34166  Biso   1.000  O
  O28      1.0000 0.96592  0.83594  0.84276  Biso   1.000  O
  O29      1.0000 0.77553  0.63043  0.47673  Biso   1.000  O
  O30      1.0000 0.77383  0.62331  0.97608  Biso   1.000  O
  O31      1.0000 0.72454  0.87924  0.02107  Biso   1.000  O
  O32      1.0000 0.72350  0.87373  0.52105  Biso   1.000  O
  Cr1      1.0000 0.38432  0.22510  0.75972  Biso   1.000  Cr
