data_image0
_cell_length_a       9.98508
_cell_length_b       10.4306
_cell_length_c       5.01925
_cell_angle_alpha    90.6408
_cell_angle_beta     89.4145
_cell_angle_gamma    90.3382

_symmetry_space_group_name_H-M    "P 1"
_symmetry_int_tables_number       1

loop_
  _symmetry_equiv_pos_as_xyz
  'x, y, z'

loop_
  _atom_site_label
  _atom_site_occupancy
  _atom_site_fract_x
  _atom_site_fract_y
  _atom_site_fract_z
  _atom_site_thermal_displace_type
  _atom_site_B_iso_or_equiv
  _atom_site_type_symbol
  Cr1      1.0000 0.12223  0.03364  0.22562  Biso   1.000  Cr
  Zr1      1.0000 0.13463  0.51404  0.25159  Biso   1.000  Zr
  Zr2      1.0000 0.62994  0.01404  0.24411  Biso   1.000  Zr
  Zr3      1.0000 0.63287  0.51768  0.25186  Biso   1.000  Zr
  Zr4      1.0000 0.13130  0.23409  0.74075  Biso   1.000  Zr
  Zr5      1.0000 0.13489  0.73459  0.76389  Biso   1.000  Zr
  Zr6      1.0000 0.63200  0.23362  0.74906  Biso   1.000  Zr
  Zr7      1.0000 0.63347  0.73881  0.74935  Biso   1.000  Zr
  Zr8      1.0000 0.36548  0.26213  0.24246  Biso   1.000  Zr
  Zr9      1.0000 0.36492  0.76705  0.26216  Biso   1.000  Zr
  Zr10     1.0000 0.86412  0.26602  0.24564  Biso   1.000  Zr
  Zr11     1.0000 0.87421  0.76512  0.23957  Biso   1.000  Zr
  Zr12     1.0000 0.36737  0.48503  0.75003  Biso   1.000  Zr
  Zr13     1.0000 0.35717  0.98276  0.76050  Biso   1.000  Zr
  Zr14     1.0000 0.86430  0.48583  0.74869  Biso   1.000  Zr
  Zr15     1.0000 0.86818  0.98881  0.74296  Biso   1.000  Zr
  Zr16     1.0000 0.03103  0.18052  0.38690  Biso   1.000  Zr
  Zr17     1.0000 0.03655  0.68473  0.39414  Biso   1.000  Zr
  Zr18     1.0000 0.52990  0.18200  0.39689  Biso   1.000  Zr
  Zr19     1.0000 0.53433  0.68358  0.39927  Biso   1.000  Zr
  Zr20     1.0000 0.03406  0.06806  0.91427  Biso   1.000  Zr
  Zr21     1.0000 0.03134  0.56723  0.90030  Biso   1.000  Zr
  Zr22     1.0000 0.52941  0.07088  0.90066  Biso   1.000  Zr
  Zr23     1.0000 0.53593  0.56986  0.89049  Biso   1.000  Zr
  Zr24     1.0000 0.46434  0.43236  0.38655  Biso   1.000  Zr
  Zr25     1.0000 0.47229  0.93066  0.41455  Biso   1.000  Zr
  Zr26     1.0000 0.96604  0.43104  0.39331  Biso   1.000  Zr
  Zr27     1.0000 0.99393  0.94147  0.37768  Biso   1.000  Zr
  Zr28     1.0000 0.46437  0.31827  0.88979  Biso   1.000  Zr
  Zr29     1.0000 0.46637  0.82275  0.91009  Biso   1.000  Zr
  Zr30     1.0000 0.96312  0.31606  0.88507  Biso   1.000  Zr
  Zr31     1.0000 0.96263  0.81988  0.87658  Biso   1.000  Zr
  Zr32     1.0000 0.25285  0.10201  0.47235  Biso   1.000  Zr
  Zr33     1.0000 0.26687  0.60994  0.50220  Biso   1.000  Zr
  Zr34     1.0000 0.76744  0.11515  0.48859  Biso   1.000  Zr
  Zr35     1.0000 0.77055  0.61681  0.49598  Biso   1.000  Zr
  Zr36     1.0000 0.26399  0.13585  0.98439  Biso   1.000  Zr
  Zr37     1.0000 0.27044  0.63489  0.00307  Biso   1.000  Zr
  Zr38     1.0000 0.76923  0.13417  0.98819  Biso   1.000  Zr
  Zr39     1.0000 0.76826  0.63754  0.99724  Biso   1.000  Zr
  Zr40     1.0000 0.22907  0.38421  0.99280  Biso   1.000  Zr
  Zr41     1.0000 0.22210  0.89280  0.03998  Biso   1.000  Zr
  Zr42     1.0000 0.72971  0.38463  0.99667  Biso   1.000  Zr
  Zr43     1.0000 0.73286  0.88759  0.98864  Biso   1.000  Zr
  Zr44     1.0000 0.23228  0.36093  0.49313  Biso   1.000  Zr
  Zr45     1.0000 0.24616  0.85177  0.53979  Biso   1.000  Zr
  Zr46     1.0000 0.72866  0.36653  0.49547  Biso   1.000  Zr
  Zr47     1.0000 0.74442  0.86692  0.48806  Biso   1.000  Zr
