data_image0
_cell_length_a       5.07762
_cell_length_b       10.3699
_cell_length_c       10.1118
_cell_angle_alpha    90.0016
_cell_angle_beta     88.5562
_cell_angle_gamma    89.998

_symmetry_space_group_name_H-M    "P 1"
_symmetry_int_tables_number       1

loop_
  _symmetry_equiv_pos_as_xyz
  'x, y, z'

loop_
  _atom_site_label
  _atom_site_occupancy
  _atom_site_fract_x
  _atom_site_fract_y
  _atom_site_fract_z
  _atom_site_thermal_displace_type
  _atom_site_B_iso_or_equiv
  _atom_site_type_symbol
  Zr1      1.0000 0.25075  0.96244  0.12539  Biso   1.000  Zr
  Zr2      1.0000 0.28374  0.25268  0.37974  Biso   1.000  Zr
  Zr3      1.0000 0.75079  0.27645  0.12540  Biso   1.000  Zr
  Zr4      1.0000 0.76912  0.00375  0.36765  Biso   1.000  Zr
  Zr5      1.0000 0.95789  0.15043  0.00017  Biso   1.000  Zr
  Zr6      1.0000 0.05500  0.09227  0.25612  Biso   1.000  Zr
  Zr7      1.0000 0.06191  0.33757  0.23433  Biso   1.000  Zr
  Zr8      1.0000 0.97186  0.40708  0.99348  Biso   1.000  Zr
  Zr9      1.0000 0.54377  0.15046  0.25067  Biso   1.000  Zr
  Zr10     1.0000 0.44666  0.09227  0.99472  Biso   1.000  Zr
  Zr11     1.0000 0.43965  0.33756  0.01649  Biso   1.000  Zr
  Zr12     1.0000 0.52969  0.40711  0.25731  Biso   1.000  Zr
  Zr13     1.0000 0.25078  0.00818  0.62540  Biso   1.000  Zr
  Zr14     1.0000 0.21783  0.25267  0.87108  Biso   1.000  Zr
  Zr15     1.0000 0.75078  0.24476  0.62543  Biso   1.000  Zr
  Zr16     1.0000 0.73243  0.00373  0.88314  Biso   1.000  Zr
  Zr17     1.0000 0.01820  0.15243  0.50543  Biso   1.000  Zr
  Zr18     1.0000 0.98350  0.10677  0.75193  Biso   1.000  Zr
  Zr19     1.0000 0.98119  0.36207  0.74090  Biso   1.000  Zr
  Zr20     1.0000 0.02695  0.40436  0.48848  Biso   1.000  Zr
  Zr21     1.0000 0.48339  0.15240  0.74541  Biso   1.000  Zr
  Zr22     1.0000 0.51808  0.10678  0.49890  Biso   1.000  Zr
  Zr23     1.0000 0.52052  0.36207  0.50989  Biso   1.000  Zr
  Zr24     1.0000 0.47477  0.40433  0.76231  Biso   1.000  Zr
  Zr25     1.0000 0.25079  0.50215  0.12539  Biso   1.000  Zr
  Zr26     1.0000 0.26023  0.75719  0.38459  Biso   1.000  Zr
  Zr27     1.0000 0.75076  0.73603  0.12538  Biso   1.000  Zr
  Zr28     1.0000 0.74673  0.50723  0.38889  Biso   1.000  Zr
  Zr29     1.0000 0.03971  0.64910  0.00276  Biso   1.000  Zr
  Zr30     1.0000 0.95966  0.58830  0.24059  Biso   1.000  Zr
  Zr31     1.0000 0.00298  0.83825  0.25303  Biso   1.000  Zr
  Zr32     1.0000 0.97987  0.89111  0.99671  Biso   1.000  Zr
  Zr33     1.0000 0.46173  0.64913  0.24795  Biso   1.000  Zr
  Zr34     1.0000 0.54179  0.58830  0.01013  Biso   1.000  Zr
  Zr35     1.0000 0.49854  0.83825  0.99774  Biso   1.000  Zr
  Zr36     1.0000 0.52166  0.89114  0.25406  Biso   1.000  Zr
  Zr37     1.0000 0.25088  0.49937  0.62540  Biso   1.000  Zr
  Zr38     1.0000 0.24136  0.75717  0.86617  Biso   1.000  Zr
  Zr39     1.0000 0.75081  0.76214  0.62538  Biso   1.000  Zr
  Zr40     1.0000 0.75496  0.50726  0.86190  Biso   1.000  Zr
  Zr41     1.0000 0.98833  0.65363  0.49769  Biso   1.000  Zr
  Zr42     1.0000 0.01135  0.61327  0.74733  Biso   1.000  Zr
  Zr43     1.0000 0.00074  0.86089  0.74639  Biso   1.000  Zr
  Zr44     1.0000 0.00476  0.90440  0.49976  Biso   1.000  Zr
  Zr45     1.0000 0.51326  0.65361  0.75304  Biso   1.000  Zr
  Zr46     1.0000 0.49026  0.61327  0.50340  Biso   1.000  Zr
  Zr47     1.0000 0.50087  0.86091  0.50438  Biso   1.000  Zr
  Zr48     1.0000 0.49684  0.90438  0.75102  Biso   1.000  Zr
  Cr1      1.0000 0.25082  0.19679  0.12542  Biso   1.000  Cr
