data_image0
_cell_length_a       10.1048
_cell_length_b       5.19255
_cell_length_c       10.1048
_cell_angle_alpha    89.9995
_cell_angle_beta     88.6993
_cell_angle_gamma    89.9997

_symmetry_space_group_name_H-M    "P 1"
_symmetry_int_tables_number       1

loop_
  _symmetry_equiv_pos_as_xyz
  'x, y, z'

loop_
  _atom_site_label
  _atom_site_occupancy
  _atom_site_fract_x
  _atom_site_fract_y
  _atom_site_fract_z
  _atom_site_thermal_displace_type
  _atom_site_B_iso_or_equiv
  _atom_site_type_symbol
  Zr1      1.0000 0.12537  0.90803  0.12537  Biso   1.000  Zr
  Zr2      1.0000 0.13706  0.50529  0.38592  Biso   1.000  Zr
  Zr3      1.0000 0.38592  0.50529  0.13706  Biso   1.000  Zr
  Zr4      1.0000 0.38033  0.01536  0.38033  Biso   1.000  Zr
  Zr5      1.0000 0.99003  0.29384  0.99003  Biso   1.000  Zr
  Zr6      1.0000 0.01044  0.15517  0.24054  Biso   1.000  Zr
  Zr7      1.0000 0.00936  0.63177  0.24140  Biso   1.000  Zr
  Zr8      1.0000 0.98838  0.79273  0.98838  Biso   1.000  Zr
  Zr9      1.0000 0.26088  0.29401  0.26088  Biso   1.000  Zr
  Zr10     1.0000 0.24054  0.15517  0.01044  Biso   1.000  Zr
  Zr11     1.0000 0.24140  0.63177  0.00936  Biso   1.000  Zr
  Zr12     1.0000 0.26237  0.79286  0.26237  Biso   1.000  Zr
  Zr13     1.0000 0.12537  0.00146  0.62537  Biso   1.000  Zr
  Zr14     1.0000 0.11367  0.50532  0.86486  Biso   1.000  Zr
  Zr15     1.0000 0.37598  0.51186  0.63127  Biso   1.000  Zr
  Zr16     1.0000 0.37453  0.01502  0.87623  Biso   1.000  Zr
  Zr17     1.0000 0.99717  0.29931  0.49465  Biso   1.000  Zr
  Zr18     1.0000 0.99822  0.22007  0.74279  Biso   1.000  Zr
  Zr19     1.0000 0.99438  0.72304  0.74109  Biso   1.000  Zr
  Zr20     1.0000 0.00749  0.80466  0.49176  Biso   1.000  Zr
  Zr21     1.0000 0.25363  0.29939  0.75624  Biso   1.000  Zr
  Zr22     1.0000 0.25258  0.22007  0.50807  Biso   1.000  Zr
  Zr23     1.0000 0.25637  0.72304  0.50969  Biso   1.000  Zr
  Zr24     1.0000 0.24325  0.80471  0.75903  Biso   1.000  Zr
  Zr25     1.0000 0.62537  0.00146  0.12537  Biso   1.000  Zr
  Zr26     1.0000 0.63127  0.51186  0.37598  Biso   1.000  Zr
  Zr27     1.0000 0.86486  0.50532  0.11367  Biso   1.000  Zr
  Zr28     1.0000 0.87623  0.01502  0.37454  Biso   1.000  Zr
  Zr29     1.0000 0.49464  0.29931  0.99717  Biso   1.000  Zr
  Zr30     1.0000 0.50807  0.22007  0.25258  Biso   1.000  Zr
  Zr31     1.0000 0.50969  0.72305  0.25637  Biso   1.000  Zr
  Zr32     1.0000 0.49176  0.80466  0.00749  Biso   1.000  Zr
  Zr33     1.0000 0.75625  0.29939  0.25363  Biso   1.000  Zr
  Zr34     1.0000 0.74279  0.22007  0.99822  Biso   1.000  Zr
  Zr35     1.0000 0.74109  0.72304  0.99438  Biso   1.000  Zr
  Zr36     1.0000 0.75903  0.80472  0.24325  Biso   1.000  Zr
  Zr37     1.0000 0.62537  0.01620  0.62537  Biso   1.000  Zr
  Zr38     1.0000 0.61950  0.51187  0.87477  Biso   1.000  Zr
  Zr39     1.0000 0.87477  0.51187  0.61950  Biso   1.000  Zr
  Zr40     1.0000 0.87042  0.01535  0.87042  Biso   1.000  Zr
  Zr41     1.0000 0.50161  0.31502  0.50161  Biso   1.000  Zr
  Zr42     1.0000 0.50022  0.22014  0.75056  Biso   1.000  Zr
  Zr43     1.0000 0.49464  0.72128  0.75612  Biso   1.000  Zr
  Zr44     1.0000 0.50476  0.81250  0.50476  Biso   1.000  Zr
  Zr45     1.0000 0.74918  0.31502  0.74918  Biso   1.000  Zr
  Zr46     1.0000 0.75056  0.22014  0.50022  Biso   1.000  Zr
  Zr47     1.0000 0.75612  0.72128  0.49464  Biso   1.000  Zr
  Zr48     1.0000 0.74601  0.81253  0.74601  Biso   1.000  Zr
  Cr1      1.0000 0.12545  0.37692  0.12545  Biso   1.000  Cr
