data_image0
_cell_length_a       10.0779
_cell_length_b       10.4315
_cell_length_c       10.1128
_cell_angle_alpha    90.0671
_cell_angle_beta     89.3657
_cell_angle_gamma    89.6057

_symmetry_space_group_name_H-M    "P 1"
_symmetry_int_tables_number       1

loop_
  _symmetry_equiv_pos_as_xyz
  'x, y, z'

loop_
  _atom_site_label
  _atom_site_occupancy
  _atom_site_fract_x
  _atom_site_fract_y
  _atom_site_fract_z
  _atom_site_thermal_displace_type
  _atom_site_B_iso_or_equiv
  _atom_site_type_symbol
  Zr1      1.0000 0.12644  0.00890  0.12348  Biso   1.000  Zr
  Zr2      1.0000 0.13057  0.23226  0.38721  Biso   1.000  Zr
  Zr3      1.0000 0.38934  0.26763  0.11632  Biso   1.000  Zr
  Zr4      1.0000 0.36991  0.48241  0.37742  Biso   1.000  Zr
  Zr5      1.0000 0.01338  0.15634  0.22341  Biso   1.000  Zr
  Zr6      1.0000 0.03335  0.06425  0.45756  Biso   1.000  Zr
  Zr7      1.0000 0.48077  0.43049  0.20205  Biso   1.000  Zr
  Zr8      1.0000 0.47097  0.31937  0.45139  Biso   1.000  Zr
  Zr9      1.0000 0.25621  0.12787  0.24450  Biso   1.000  Zr
  Zr10     1.0000 0.27260  0.13177  0.50192  Biso   1.000  Zr
  Zr11     1.0000 0.23354  0.38392  0.50218  Biso   1.000  Zr
  Zr12     1.0000 0.24570  0.37096  0.25036  Biso   1.000  Zr
  Zr13     1.0000 0.13290  0.01469  0.62937  Biso   1.000  Zr
  Zr14     1.0000 0.12469  0.23691  0.87296  Biso   1.000  Zr
  Zr15     1.0000 0.36606  0.26720  0.62739  Biso   1.000  Zr
  Zr16     1.0000 0.36427  0.48763  0.87287  Biso   1.000  Zr
  Zr17     1.0000 0.03067  0.18021  0.69380  Biso   1.000  Zr
  Zr18     1.0000 0.02203  0.06602  0.95095  Biso   1.000  Zr
  Zr19     1.0000 0.46186  0.43694  0.69339  Biso   1.000  Zr
  Zr20     1.0000 0.46564  0.32419  0.93653  Biso   1.000  Zr
  Zr21     1.0000 0.26528  0.11832  0.75389  Biso   1.000  Zr
  Zr22     1.0000 0.25204  0.14437  0.00822  Biso   1.000  Zr
  Zr23     1.0000 0.22605  0.38150  0.00513  Biso   1.000  Zr
  Zr24     1.0000 0.22893  0.36994  0.75121  Biso   1.000  Zr
  Zr25     1.0000 0.14248  0.52692  0.12708  Biso   1.000  Zr
  Zr26     1.0000 0.13571  0.73583  0.37673  Biso   1.000  Zr
  Zr27     1.0000 0.37041  0.76794  0.12502  Biso   1.000  Zr
  Zr28     1.0000 0.36616  0.98856  0.37432  Biso   1.000  Zr
  Zr29     1.0000 0.03106  0.67592  0.20063  Biso   1.000  Zr
  Zr30     1.0000 0.03841  0.56554  0.44233  Biso   1.000  Zr
  Zr31     1.0000 0.46196  0.93512  0.19613  Biso   1.000  Zr
  Zr32     1.0000 0.46734  0.82293  0.44636  Biso   1.000  Zr
  Zr33     1.0000 0.27724  0.62169  0.24946  Biso   1.000  Zr
  Zr34     1.0000 0.26953  0.63454  0.49904  Biso   1.000  Zr
  Zr35     1.0000 0.23242  0.88489  0.49810  Biso   1.000  Zr
  Zr36     1.0000 0.23100  0.86800  0.24861  Biso   1.000  Zr
  Zr37     1.0000 0.13325  0.51650  0.62494  Biso   1.000  Zr
  Zr38     1.0000 0.13161  0.73470  0.87362  Biso   1.000  Zr
  Zr39     1.0000 0.36582  0.76754  0.62418  Biso   1.000  Zr
  Zr40     1.0000 0.36436  0.98699  0.87606  Biso   1.000  Zr
  Zr41     1.0000 0.03256  0.68291  0.69663  Biso   1.000  Zr
  Zr42     1.0000 0.03449  0.56512  0.94707  Biso   1.000  Zr
  Zr43     1.0000 0.46436  0.93494  0.69926  Biso   1.000  Zr
  Zr44     1.0000 0.46653  0.82212  0.94596  Biso   1.000  Zr
  Zr45     1.0000 0.26748  0.61874  0.74760  Biso   1.000  Zr
  Zr46     1.0000 0.26955  0.63633  0.99743  Biso   1.000  Zr
  Zr47     1.0000 0.23084  0.88316  0.99620  Biso   1.000  Zr
  Zr48     1.0000 0.23030  0.86674  0.74855  Biso   1.000  Zr
  Zr49     1.0000 0.63351  0.01334  0.12687  Biso   1.000  Zr
  Zr50     1.0000 0.63962  0.23673  0.37287  Biso   1.000  Zr
  Zr51     1.0000 0.87434  0.25391  0.10788  Biso   1.000  Zr
  Zr52     1.0000 0.86971  0.48163  0.37506  Biso   1.000  Zr
  Zr53     1.0000 0.53774  0.17780  0.20639  Biso   1.000  Zr
  Zr54     1.0000 0.53448  0.06895  0.44653  Biso   1.000  Zr
  Zr55     1.0000 0.00002  0.39872  0.18736  Biso   1.000  Zr
  Zr56     1.0000 0.96474  0.32047  0.45237  Biso   1.000  Zr
  Zr57     1.0000 0.76671  0.11005  0.24583  Biso   1.000  Zr
  Zr58     1.0000 0.76912  0.13697  0.49716  Biso   1.000  Zr
  Zr59     1.0000 0.73157  0.38719  0.49500  Biso   1.000  Zr
  Zr60     1.0000 0.74975  0.36418  0.24427  Biso   1.000  Zr
  Zr61     1.0000 0.63152  0.01616  0.62157  Biso   1.000  Zr
  Zr62     1.0000 0.63521  0.23470  0.87148  Biso   1.000  Zr
  Zr63     1.0000 0.86483  0.26720  0.62705  Biso   1.000  Zr
  Zr64     1.0000 0.86446  0.48689  0.87061  Biso   1.000  Zr
  Zr65     1.0000 0.53173  0.18233  0.69840  Biso   1.000  Zr
  Zr66     1.0000 0.51879  0.07951  0.95864  Biso   1.000  Zr
  Zr67     1.0000 0.96262  0.43665  0.69023  Biso   1.000  Zr
  Zr68     1.0000 0.94201  0.31155  0.91654  Biso   1.000  Zr
  Zr69     1.0000 0.76576  0.11569  0.74607  Biso   1.000  Zr
  Zr70     1.0000 0.75910  0.12698  0.99401  Biso   1.000  Zr
  Zr71     1.0000 0.72497  0.38191  0.99520  Biso   1.000  Zr
  Zr72     1.0000 0.72479  0.36958  0.74389  Biso   1.000  Zr
  Zr73     1.0000 0.64020  0.51521  0.12369  Biso   1.000  Zr
  Zr74     1.0000 0.63432  0.73530  0.37454  Biso   1.000  Zr
  Zr75     1.0000 0.86385  0.76253  0.12453  Biso   1.000  Zr
  Zr76     1.0000 0.87085  0.98673  0.37289  Biso   1.000  Zr
  Zr77     1.0000 0.53904  0.68546  0.19387  Biso   1.000  Zr
  Zr78     1.0000 0.53447  0.57104  0.44484  Biso   1.000  Zr
  Zr79     1.0000 0.96390  0.91904  0.19935  Biso   1.000  Zr
  Zr80     1.0000 0.96773  0.81700  0.44778  Biso   1.000  Zr
  Zr81     1.0000 0.77401  0.61256  0.24595  Biso   1.000  Zr
  Zr82     1.0000 0.77090  0.63326  0.49491  Biso   1.000  Zr
  Zr83     1.0000 0.73367  0.88558  0.49611  Biso   1.000  Zr
  Zr84     1.0000 0.72896  0.86400  0.24722  Biso   1.000  Zr
  Zr85     1.0000 0.63161  0.51695  0.62274  Biso   1.000  Zr
  Zr86     1.0000 0.63177  0.73380  0.87383  Biso   1.000  Zr
  Zr87     1.0000 0.86542  0.76583  0.62295  Biso   1.000  Zr
  Zr88     1.0000 0.86208  0.98135  0.87299  Biso   1.000  Zr
  Zr89     1.0000 0.53259  0.68475  0.69495  Biso   1.000  Zr
  Zr90     1.0000 0.53133  0.56962  0.94608  Biso   1.000  Zr
  Zr91     1.0000 0.96548  0.92932  0.69900  Biso   1.000  Zr
  Zr92     1.0000 0.96455  0.81587  0.94802  Biso   1.000  Zr
  Zr93     1.0000 0.76581  0.61754  0.74472  Biso   1.000  Zr
  Zr94     1.0000 0.76801  0.63275  0.99506  Biso   1.000  Zr
  Zr95     1.0000 0.72806  0.88058  0.99729  Biso   1.000  Zr
  Zr96     1.0000 0.72821  0.86612  0.74609  Biso   1.000  Zr
  Cr1      1.0000 0.14558  0.25903  0.13779  Biso   1.000  Cr
