data_image0
_cell_length_a       10.1228
_cell_length_b       10.3086
_cell_length_c       5.21313
_cell_angle_alpha    89.9232
_cell_angle_beta     80.3608
_cell_angle_gamma    89.9191

_symmetry_space_group_name_H-M    "P 1"
_symmetry_int_tables_number       1

loop_
  _symmetry_equiv_pos_as_xyz
  'x, y, z'

loop_
  _atom_site_label
  _atom_site_occupancy
  _atom_site_fract_x
  _atom_site_fract_y
  _atom_site_fract_z
  _atom_site_thermal_displace_type
  _atom_site_B_iso_or_equiv
  _atom_site_type_symbol
  Cr1      1.0000 0.13269  0.02489  0.29789  Biso   1.000  Cr
  Zr1      1.0000 0.14028  0.52154  0.29208  Biso   1.000  Zr
  Zr2      1.0000 0.63778  0.02111  0.29113  Biso   1.000  Zr
  Zr3      1.0000 0.63831  0.52254  0.29122  Biso   1.000  Zr
  Zr4      1.0000 0.14053  0.22504  0.79026  Biso   1.000  Zr
  Zr5      1.0000 0.14000  0.73208  0.79022  Biso   1.000  Zr
  Zr6      1.0000 0.63833  0.22876  0.79067  Biso   1.000  Zr
  Zr7      1.0000 0.63822  0.72988  0.79405  Biso   1.000  Zr
  Zr8      1.0000 0.35868  0.26899  0.21240  Biso   1.000  Zr
  Zr9      1.0000 0.35645  0.77659  0.21065  Biso   1.000  Zr
  Zr10     1.0000 0.86325  0.26908  0.21057  Biso   1.000  Zr
  Zr11     1.0000 0.86455  0.77322  0.20852  Biso   1.000  Zr
  Zr12     1.0000 0.36093  0.47921  0.71084  Biso   1.000  Zr
  Zr13     1.0000 0.35591  0.97934  0.71097  Biso   1.000  Zr
  Zr14     1.0000 0.86184  0.47867  0.71106  Biso   1.000  Zr
  Zr15     1.0000 0.86363  0.98050  0.70415  Biso   1.000  Zr
  O1       1.0000 0.03736  0.15624  0.15719  Biso   1.000  O
  O2       1.0000 0.03601  0.66930  0.16258  Biso   1.000  O
  O3       1.0000 0.53760  0.17305  0.16732  Biso   1.000  O
  O4       1.0000 0.53566  0.67339  0.16573  Biso   1.000  O
  O5       1.0000 0.04022  0.08110  0.62661  Biso   1.000  O
  O6       1.0000 0.03697  0.57953  0.66521  Biso   1.000  O
  O7       1.0000 0.53494  0.07821  0.66730  Biso   1.000  O
  O8       1.0000 0.53781  0.57706  0.66836  Biso   1.000  O
  O9       1.0000 0.46228  0.42230  0.33443  Biso   1.000  O
  O10      1.0000 0.46416  0.92065  0.33850  Biso   1.000  O
  O11      1.0000 0.96653  0.41696  0.34023  Biso   1.000  O
  O12      1.0000 0.97882  0.92370  0.32615  Biso   1.000  O
  O13      1.0000 0.46036  0.32532  0.83471  Biso   1.000  O
  O14      1.0000 0.45966  0.82803  0.83380  Biso   1.000  O
  O15      1.0000 0.96534  0.32599  0.84033  Biso   1.000  O
  O16      1.0000 0.96383  0.83072  0.83415  Biso   1.000  O
  O17      1.0000 0.27221  0.12401  0.47781  Biso   1.000  O
  O18      1.0000 0.27668  0.63152  0.48371  Biso   1.000  O
  O19      1.0000 0.77614  0.12852  0.48102  Biso   1.000  O
  O20      1.0000 0.77721  0.62998  0.48376  Biso   1.000  O
  O21      1.0000 0.27077  0.11720  0.99683  Biso   1.000  O
  O22      1.0000 0.27642  0.62222  0.98314  Biso   1.000  O
  O23      1.0000 0.77792  0.12045  0.97898  Biso   1.000  O
  O24      1.0000 0.77762  0.62236  0.98422  Biso   1.000  O
  O25      1.0000 0.22244  0.37803  0.01970  Biso   1.000  O
  O26      1.0000 0.21664  0.88536  0.02541  Biso   1.000  O
  O27      1.0000 0.72516  0.37896  0.01948  Biso   1.000  O
  O28      1.0000 0.72395  0.87965  0.01795  Biso   1.000  O
  O29      1.0000 0.22413  0.36951  0.52051  Biso   1.000  O
  O30      1.0000 0.21864  0.87597  0.51361  Biso   1.000  O
  O31      1.0000 0.72465  0.37057  0.51846  Biso   1.000  O
  O32      1.0000 0.73048  0.87270  0.51616  Biso   1.000  O
