data_image0
_cell_length_a       10.2624
_cell_length_b       10.4454
_cell_length_c       5.1268
_cell_angle_alpha    90.0355
_cell_angle_beta     86.8885
_cell_angle_gamma    89.9897

_symmetry_space_group_name_H-M    "P 1"
_symmetry_int_tables_number       1

loop_
  _symmetry_equiv_pos_as_xyz
  'x, y, z'

loop_
  _atom_site_label
  _atom_site_occupancy
  _atom_site_fract_x
  _atom_site_fract_y
  _atom_site_fract_z
  _atom_site_thermal_displace_type
  _atom_site_B_iso_or_equiv
  _atom_site_type_symbol
  Zr1      1.0000 0.12543  0.93521  0.25098  Biso   1.000  Zr
  Zr2      1.0000 0.12527  0.31133  0.75035  Biso   1.000  Zr
  Zr3      1.0000 0.39657  0.24597  0.29046  Biso   1.000  Zr
  Zr4      1.0000 0.37050  0.00604  0.78255  Biso   1.000  Zr
  Zr5      1.0000 0.97998  0.16666  0.84392  Biso   1.000  Zr
  Zr6      1.0000 0.95118  0.05342  0.35748  Biso   1.000  Zr
  Zr7      1.0000 0.98122  0.36672  0.49222  Biso   1.000  Zr
  Zr8      1.0000 0.99878  0.41384  0.99982  Biso   1.000  Zr
  Zr9      1.0000 0.27009  0.16632  0.65846  Biso   1.000  Zr
  Zr10     1.0000 0.29990  0.05328  0.14503  Biso   1.000  Zr
  Zr11     1.0000 0.26916  0.36737  0.00916  Biso   1.000  Zr
  Zr12     1.0000 0.25206  0.41353  0.50123  Biso   1.000  Zr
  Zr13     1.0000 0.12565  0.52214  0.25012  Biso   1.000  Zr
  Zr14     1.0000 0.12542  0.74018  0.75055  Biso   1.000  Zr
  Zr15     1.0000 0.39283  0.75993  0.27237  Biso   1.000  Zr
  Zr16     1.0000 0.38844  0.49380  0.78373  Biso   1.000  Zr
  Zr17     1.0000 0.01029  0.66233  0.07475  Biso   1.000  Zr
  Zr18     1.0000 0.01754  0.59393  0.57682  Biso   1.000  Zr
  Zr19     1.0000 0.99503  0.83139  0.48419  Biso   1.000  Zr
  Zr20     1.0000 0.00930  0.89578  0.94867  Biso   1.000  Zr
  Zr21     1.0000 0.24062  0.66215  0.42607  Biso   1.000  Zr
  Zr22     1.0000 0.23338  0.59427  0.92384  Biso   1.000  Zr
  Zr23     1.0000 0.25589  0.83149  0.01720  Biso   1.000  Zr
  Zr24     1.0000 0.24191  0.89535  0.55256  Biso   1.000  Zr
  Zr25     1.0000 0.62544  0.00506  0.25108  Biso   1.000  Zr
  Zr26     1.0000 0.62537  0.24844  0.75106  Biso   1.000  Zr
  Zr27     1.0000 0.85414  0.24600  0.21144  Biso   1.000  Zr
  Zr28     1.0000 0.88031  0.00609  0.71951  Biso   1.000  Zr
  Zr29     1.0000 0.50707  0.14712  0.00368  Biso   1.000  Zr
  Zr30     1.0000 0.50306  0.10792  0.50735  Biso   1.000  Zr
  Zr31     1.0000 0.49877  0.35888  0.54251  Biso   1.000  Zr
  Zr32     1.0000 0.50728  0.39500  0.03980  Biso   1.000  Zr
  Zr33     1.0000 0.74353  0.14713  0.49785  Biso   1.000  Zr
  Zr34     1.0000 0.74747  0.10783  0.99441  Biso   1.000  Zr
  Zr35     1.0000 0.75196  0.35900  0.95950  Biso   1.000  Zr
  Zr36     1.0000 0.74325  0.39508  0.46226  Biso   1.000  Zr
  Zr37     1.0000 0.62544  0.50841  0.25071  Biso   1.000  Zr
  Zr38     1.0000 0.62539  0.75875  0.75095  Biso   1.000  Zr
  Zr39     1.0000 0.85797  0.75973  0.22950  Biso   1.000  Zr
  Zr40     1.0000 0.86245  0.49381  0.71774  Biso   1.000  Zr
  Zr41     1.0000 0.49447  0.64349  0.99616  Biso   1.000  Zr
  Zr42     1.0000 0.50256  0.61396  0.49781  Biso   1.000  Zr
  Zr43     1.0000 0.49460  0.86209  0.53218  Biso   1.000  Zr
  Zr44     1.0000 0.51132  0.89239  0.01955  Biso   1.000  Zr
  Zr45     1.0000 0.75640  0.64353  0.50545  Biso   1.000  Zr
  Zr46     1.0000 0.74824  0.61390  0.00381  Biso   1.000  Zr
  Zr47     1.0000 0.75640  0.86196  0.96972  Biso   1.000  Zr
  Zr48     1.0000 0.73959  0.89246  0.48236  Biso   1.000  Zr
  Cs1      1.0000 0.12545  0.20324  0.24987  Biso   1.000  Cs
