data_image0
_cell_length_a       10.574
_cell_length_b       5.45519
_cell_length_c       10.6197
_cell_angle_alpha    102.066
_cell_angle_beta     80.7123
_cell_angle_gamma    103.491

_symmetry_space_group_name_H-M    "P 1"
_symmetry_int_tables_number       1

loop_
  _symmetry_equiv_pos_as_xyz
  'x, y, z'

loop_
  _atom_site_label
  _atom_site_occupancy
  _atom_site_fract_x
  _atom_site_fract_y
  _atom_site_fract_z
  _atom_site_thermal_displace_type
  _atom_site_B_iso_or_equiv
  _atom_site_type_symbol
  Zr1      1.0000 0.17460  0.94051  0.17099  Biso   1.000  Zr
  Zr2      1.0000 0.11592  0.50622  0.36837  Biso   1.000  Zr
  Zr3      1.0000 0.37187  0.51391  0.11389  Biso   1.000  Zr
  Zr4      1.0000 0.40547  0.98002  0.40895  Biso   1.000  Zr
  Zr5      1.0000 0.90569  0.46025  0.91396  Biso   1.000  Zr
  Zr6      1.0000 0.02608  0.13992  0.27077  Biso   1.000  Zr
  Zr7      1.0000 0.01301  0.66160  0.26254  Biso   1.000  Zr
  Zr8      1.0000 0.04239  0.77395  0.03525  Biso   1.000  Zr
  Zr9      1.0000 0.25960  0.32261  0.25786  Biso   1.000  Zr
  Zr10     1.0000 0.27473  0.14502  0.02496  Biso   1.000  Zr
  Zr11     1.0000 0.26664  0.66506  0.01503  Biso   1.000  Zr
  Zr12     1.0000 0.27334  0.79419  0.27243  Biso   1.000  Zr
  Zr13     1.0000 0.14606  0.97590  0.65587  Biso   1.000  Zr
  Zr14     1.0000 0.09724  0.55364  0.84238  Biso   1.000  Zr
  Zr15     1.0000 0.35390  0.51612  0.60812  Biso   1.000  Zr
  Zr16     1.0000 0.40798  0.96649  0.90239  Biso   1.000  Zr
  Zr17     1.0000 0.99947  0.30991  0.50325  Biso   1.000  Zr
  Zr18     1.0000 0.00368  0.14353  0.76850  Biso   1.000  Zr
  Zr19     1.0000 0.01487  0.65437  0.71442  Biso   1.000  Zr
  Zr20     1.0000 0.00754  0.80134  0.50937  Biso   1.000  Zr
  Zr21     1.0000 0.23822  0.34220  0.74943  Biso   1.000  Zr
  Zr22     1.0000 0.26080  0.16237  0.51096  Biso   1.000  Zr
  Zr23     1.0000 0.25191  0.68358  0.50860  Biso   1.000  Zr
  Zr24     1.0000 0.25543  0.83327  0.76778  Biso   1.000  Zr
  Zr25     1.0000 0.65235  0.00476  0.15548  Biso   1.000  Zr
  Zr26     1.0000 0.61176  0.52847  0.35498  Biso   1.000  Zr
  Zr27     1.0000 0.84799  0.59404  0.10163  Biso   1.000  Zr
  Zr28     1.0000 0.90577  0.95973  0.40596  Biso   1.000  Zr
  Zr29     1.0000 0.50442  0.33238  0.99103  Biso   1.000  Zr
  Zr30     1.0000 0.50782  0.17915  0.26344  Biso   1.000  Zr
  Zr31     1.0000 0.51288  0.69838  0.25001  Biso   1.000  Zr
  Zr32     1.0000 0.51623  0.81149  0.00580  Biso   1.000  Zr
  Zr33     1.0000 0.75659  0.35758  0.24734  Biso   1.000  Zr
  Zr34     1.0000 0.71588  0.25750  0.02711  Biso   1.000  Zr
  Zr35     1.0000 0.76094  0.79677  0.99635  Biso   1.000  Zr
  Zr36     1.0000 0.76516  0.84449  0.25559  Biso   1.000  Zr
  Zr37     1.0000 0.63987  0.96169  0.64236  Biso   1.000  Zr
  Zr38     1.0000 0.60058  0.52202  0.85014  Biso   1.000  Zr
  Zr39     1.0000 0.85717  0.51185  0.59722  Biso   1.000  Zr
  Zr40     1.0000 0.81498  0.09203  0.86681  Biso   1.000  Zr
  Zr41     1.0000 0.50091  0.33756  0.50068  Biso   1.000  Zr
  Zr42     1.0000 0.50380  0.17136  0.75260  Biso   1.000  Zr
  Zr43     1.0000 0.49128  0.67582  0.75005  Biso   1.000  Zr
  Zr44     1.0000 0.50649  0.81021  0.50669  Biso   1.000  Zr
  Zr45     1.0000 0.74890  0.30307  0.74879  Biso   1.000  Zr
  Zr46     1.0000 0.76004  0.15881  0.50670  Biso   1.000  Zr
  Zr47     1.0000 0.75125  0.67618  0.48977  Biso   1.000  Zr
  Zr48     1.0000 0.74931  0.77144  0.73167  Biso   1.000  Zr
  Cs1      1.0000 0.04029  0.24330  0.04500  Biso   1.000  Cs
