data_image0
_cell_length_a       5.1268
_cell_length_b       10.4455
_cell_length_c       10.2625
_cell_angle_alpha    90.0034
_cell_angle_beta     86.8886
_cell_angle_gamma    89.933

_symmetry_space_group_name_H-M    "P 1"
_symmetry_int_tables_number       1

loop_
  _symmetry_equiv_pos_as_xyz
  'x, y, z'

loop_
  _atom_site_label
  _atom_site_occupancy
  _atom_site_fract_x
  _atom_site_fract_y
  _atom_site_fract_z
  _atom_site_thermal_displace_type
  _atom_site_B_iso_or_equiv
  _atom_site_type_symbol
  Zr1      1.0000 0.25053  0.93519  0.12542  Biso   1.000  Zr
  Zr2      1.0000 0.29009  0.24597  0.39662  Biso   1.000  Zr
  Zr3      1.0000 0.75174  0.31131  0.12566  Biso   1.000  Zr
  Zr4      1.0000 0.78217  0.00606  0.37057  Biso   1.000  Zr
  Zr5      1.0000 0.84294  0.16639  0.98082  Biso   1.000  Zr
  Zr6      1.0000 0.14392  0.05344  0.29947  Biso   1.000  Zr
  Zr7      1.0000 0.00932  0.36613  0.26990  Biso   1.000  Zr
  Zr8      1.0000 0.00056  0.41349  0.99867  Biso   1.000  Zr
  Zr9      1.0000 0.65740  0.16655  0.27094  Biso   1.000  Zr
  Zr10     1.0000 0.35641  0.05322  0.95077  Biso   1.000  Zr
  Zr11     1.0000 0.49246  0.36788  0.98192  Biso   1.000  Zr
  Zr12     1.0000 0.50195  0.41384  0.25194  Biso   1.000  Zr
  Zr13     1.0000 0.25086  0.00501  0.62548  Biso   1.000  Zr
  Zr14     1.0000 0.21109  0.24594  0.85418  Biso   1.000  Zr
  Zr15     1.0000 0.75052  0.24841  0.62536  Biso   1.000  Zr
  Zr16     1.0000 0.71916  0.00603  0.88038  Biso   1.000  Zr
  Zr17     1.0000 0.00384  0.14705  0.50729  Biso   1.000  Zr
  Zr18     1.0000 0.99438  0.10789  0.74781  Biso   1.000  Zr
  Zr19     1.0000 0.95900  0.35875  0.75199  Biso   1.000  Zr
  Zr20     1.0000 0.03928  0.39506  0.50766  Biso   1.000  Zr
  Zr21     1.0000 0.49803  0.14714  0.74375  Biso   1.000  Zr
  Zr22     1.0000 0.50729  0.10779  0.50341  Biso   1.000  Zr
  Zr23     1.0000 0.54202  0.35906  0.49880  Biso   1.000  Zr
  Zr24     1.0000 0.46172  0.39497  0.74362  Biso   1.000  Zr
  Zr25     1.0000 0.25248  0.52213  0.12464  Biso   1.000  Zr
  Zr26     1.0000 0.27303  0.75980  0.39273  Biso   1.000  Zr
  Zr27     1.0000 0.75137  0.74016  0.12541  Biso   1.000  Zr
  Zr28     1.0000 0.78419  0.49380  0.38822  Biso   1.000  Zr
  Zr29     1.0000 0.07596  0.66228  0.01007  Biso   1.000  Zr
  Zr30     1.0000 0.92517  0.59348  0.23287  Biso   1.000  Zr
  Zr31     1.0000 0.01763  0.83121  0.25582  Biso   1.000  Zr
  Zr32     1.0000 0.94885  0.89552  0.00914  Biso   1.000  Zr
  Zr33     1.0000 0.42729  0.66216  0.24039  Biso   1.000  Zr
  Zr34     1.0000 0.57815  0.59466  0.01702  Biso   1.000  Zr
  Zr35     1.0000 0.48462  0.83162  0.99496  Biso   1.000  Zr
  Zr36     1.0000 0.55274  0.89557  0.24175  Biso   1.000  Zr
  Zr37     1.0000 0.25139  0.50838  0.62508  Biso   1.000  Zr
  Zr38     1.0000 0.23019  0.75981  0.85787  Biso   1.000  Zr
  Zr39     1.0000 0.75161  0.75872  0.62538  Biso   1.000  Zr
  Zr40     1.0000 0.71821  0.49374  0.86221  Biso   1.000  Zr
  Zr41     1.0000 0.99675  0.64353  0.49415  Biso   1.000  Zr
  Zr42     1.0000 0.00432  0.61390  0.74809  Biso   1.000  Zr
  Zr43     1.0000 0.97017  0.86204  0.75626  Biso   1.000  Zr
  Zr44     1.0000 0.01997  0.89242  0.51123  Biso   1.000  Zr
  Zr45     1.0000 0.50602  0.64344  0.75608  Biso   1.000  Zr
  Zr46     1.0000 0.49834  0.61390  0.50242  Biso   1.000  Zr
  Zr47     1.0000 0.53259  0.86195  0.49447  Biso   1.000  Zr
  Zr48     1.0000 0.48279  0.89237  0.73951  Biso   1.000  Zr
  Cs1      1.0000 0.25257  0.20322  0.12520  Biso   1.000  Cs
