data_image0
_cell_length_a       10.0086
_cell_length_b       10.4166
_cell_length_c       10.0586
_cell_angle_alpha    90.1734
_cell_angle_beta     89.3236
_cell_angle_gamma    90.0059

_symmetry_space_group_name_H-M    "P 1"
_symmetry_int_tables_number       1

loop_
  _symmetry_equiv_pos_as_xyz
  'x, y, z'

loop_
  _atom_site_label
  _atom_site_occupancy
  _atom_site_fract_x
  _atom_site_fract_y
  _atom_site_fract_z
  _atom_site_thermal_displace_type
  _atom_site_B_iso_or_equiv
  _atom_site_type_symbol
  Cu1      1.0000 0.11724  0.02813  0.09849  Biso   1.000  Cu
  Zr1      1.0000 0.13472  0.01741  0.63295  Biso   1.000  Zr
  Zr2      1.0000 0.13528  0.51536  0.12800  Biso   1.000  Zr
  Zr3      1.0000 0.13418  0.51650  0.62649  Biso   1.000  Zr
  Zr4      1.0000 0.63539  0.01628  0.12649  Biso   1.000  Zr
  Zr5      1.0000 0.62996  0.01389  0.62155  Biso   1.000  Zr
  Zr6      1.0000 0.63474  0.51634  0.12843  Biso   1.000  Zr
  Zr7      1.0000 0.63323  0.51671  0.62513  Biso   1.000  Zr
  Zr8      1.0000 0.13969  0.22903  0.37466  Biso   1.000  Zr
  Zr9      1.0000 0.13274  0.23827  0.87730  Biso   1.000  Zr
  Zr10     1.0000 0.13730  0.73415  0.37863  Biso   1.000  Zr
  Zr11     1.0000 0.13163  0.73440  0.87948  Biso   1.000  Zr
  Zr12     1.0000 0.63429  0.23385  0.37545  Biso   1.000  Zr
  Zr13     1.0000 0.63179  0.23318  0.87461  Biso   1.000  Zr
  Zr14     1.0000 0.63603  0.73673  0.37487  Biso   1.000  Zr
  Zr15     1.0000 0.63027  0.73410  0.87682  Biso   1.000  Zr
  Zr16     1.0000 0.36589  0.26428  0.12947  Biso   1.000  Zr
  Zr17     1.0000 0.36628  0.26654  0.62787  Biso   1.000  Zr
  Zr18     1.0000 0.36433  0.76606  0.13114  Biso   1.000  Zr
  Zr19     1.0000 0.36566  0.76804  0.63029  Biso   1.000  Zr
  Zr20     1.0000 0.86477  0.26442  0.12345  Biso   1.000  Zr
  Zr21     1.0000 0.86458  0.26534  0.62284  Biso   1.000  Zr
  Zr22     1.0000 0.87205  0.76557  0.12077  Biso   1.000  Zr
  Zr23     1.0000 0.86650  0.76550  0.62265  Biso   1.000  Zr
  Zr24     1.0000 0.36697  0.48387  0.37769  Biso   1.000  Zr
  Zr25     1.0000 0.36531  0.48578  0.87680  Biso   1.000  Zr
  Zr26     1.0000 0.36265  0.98299  0.37636  Biso   1.000  Zr
  Zr27     1.0000 0.36002  0.98501  0.88436  Biso   1.000  Zr
  Zr28     1.0000 0.86781  0.48349  0.37516  Biso   1.000  Zr
  Zr29     1.0000 0.86397  0.48496  0.87444  Biso   1.000  Zr
  Zr30     1.0000 0.87325  0.98709  0.37267  Biso   1.000  Zr
  Zr31     1.0000 0.85944  0.98247  0.86993  Biso   1.000  Zr
  Zr32     1.0000 0.04232  0.17480  0.18211  Biso   1.000  Zr
  Zr33     1.0000 0.03586  0.18754  0.69385  Biso   1.000  Zr
  Zr34     1.0000 0.03699  0.68352  0.19514  Biso   1.000  Zr
  Zr35     1.0000 0.03548  0.68521  0.69471  Biso   1.000  Zr
  Zr36     1.0000 0.54107  0.18667  0.19177  Biso   1.000  Zr
  Zr37     1.0000 0.53643  0.18489  0.69242  Biso   1.000  Zr
  Zr38     1.0000 0.53665  0.68474  0.19674  Biso   1.000  Zr
  Zr39     1.0000 0.53351  0.68294  0.69778  Biso   1.000  Zr
  Zr40     1.0000 0.03929  0.06541  0.44668  Biso   1.000  Zr
  Zr41     1.0000 0.03551  0.06438  0.91689  Biso   1.000  Zr
  Zr42     1.0000 0.03656  0.56396  0.44542  Biso   1.000  Zr
  Zr43     1.0000 0.03311  0.56573  0.94640  Biso   1.000  Zr
  Zr44     1.0000 0.53623  0.06646  0.44224  Biso   1.000  Zr
  Zr45     1.0000 0.53070  0.06724  0.94852  Biso   1.000  Zr
  Zr46     1.0000 0.53743  0.56710  0.44367  Biso   1.000  Zr
  Zr47     1.0000 0.53453  0.56531  0.94717  Biso   1.000  Zr
  Zr48     1.0000 0.46462  0.43250  0.19544  Biso   1.000  Zr
  Zr49     1.0000 0.46308  0.43524  0.69504  Biso   1.000  Zr
  Zr50     1.0000 0.47095  0.93153  0.19851  Biso   1.000  Zr
  Zr51     1.0000 0.46201  0.93565  0.70026  Biso   1.000  Zr
  Zr52     1.0000 0.96669  0.42696  0.19404  Biso   1.000  Zr
  Zr53     1.0000 0.96260  0.43421  0.69237  Biso   1.000  Zr
  Zr54     1.0000 0.97606  0.94048  0.17987  Biso   1.000  Zr
  Zr55     1.0000 0.96027  0.93492  0.68704  Biso   1.000  Zr
  Zr56     1.0000 0.46541  0.31678  0.44604  Biso   1.000  Zr
  Zr57     1.0000 0.45839  0.31222  0.94099  Biso   1.000  Zr
  Zr58     1.0000 0.46964  0.81850  0.45353  Biso   1.000  Zr
  Zr59     1.0000 0.45507  0.81607  0.94481  Biso   1.000  Zr
  Zr60     1.0000 0.96472  0.31287  0.43931  Biso   1.000  Zr
  Zr61     1.0000 0.96132  0.31665  0.94248  Biso   1.000  Zr
  Zr62     1.0000 0.96478  0.81618  0.43922  Biso   1.000  Zr
  Zr63     1.0000 0.95781  0.81471  0.93650  Biso   1.000  Zr
  Zr64     1.0000 0.28355  0.12548  0.25794  Biso   1.000  Zr
  Zr65     1.0000 0.27225  0.12135  0.75624  Biso   1.000  Zr
  Zr66     1.0000 0.27022  0.61295  0.25082  Biso   1.000  Zr
  Zr67     1.0000 0.26780  0.61855  0.75221  Biso   1.000  Zr
  Zr68     1.0000 0.77312  0.11765  0.24730  Biso   1.000  Zr
  Zr69     1.0000 0.76636  0.11608  0.74543  Biso   1.000  Zr
  Zr70     1.0000 0.77268  0.61623  0.24806  Biso   1.000  Zr
  Zr71     1.0000 0.76783  0.61744  0.74900  Biso   1.000  Zr
  Zr72     1.0000 0.26974  0.13101  0.50592  Biso   1.000  Zr
  Zr73     1.0000 0.25500  0.12811  0.01004  Biso   1.000  Zr
  Zr74     1.0000 0.27208  0.63243  0.50203  Biso   1.000  Zr
  Zr75     1.0000 0.26753  0.63468  0.00176  Biso   1.000  Zr
  Zr76     1.0000 0.77116  0.13270  0.49615  Biso   1.000  Zr
  Zr77     1.0000 0.76994  0.13148  0.99566  Biso   1.000  Zr
  Zr78     1.0000 0.76925  0.63376  0.49819  Biso   1.000  Zr
  Zr79     1.0000 0.76824  0.63314  0.99900  Biso   1.000  Zr
  Zr80     1.0000 0.23009  0.38071  0.50016  Biso   1.000  Zr
  Zr81     1.0000 0.23023  0.38292  0.00087  Biso   1.000  Zr
  Zr82     1.0000 0.22893  0.88216  0.50800  Biso   1.000  Zr
  Zr83     1.0000 0.21752  0.88914  0.01390  Biso   1.000  Zr
  Zr84     1.0000 0.73147  0.38311  0.49910  Biso   1.000  Zr
  Zr85     1.0000 0.72813  0.38128  0.99956  Biso   1.000  Zr
  Zr86     1.0000 0.73375  0.88489  0.49548  Biso   1.000  Zr
  Zr87     1.0000 0.72458  0.88149  0.99690  Biso   1.000  Zr
  Zr88     1.0000 0.22886  0.36807  0.25024  Biso   1.000  Zr
  Zr89     1.0000 0.22823  0.36967  0.75037  Biso   1.000  Zr
  Zr90     1.0000 0.24433  0.85700  0.26357  Biso   1.000  Zr
  Zr91     1.0000 0.22782  0.86967  0.75766  Biso   1.000  Zr
  Zr92     1.0000 0.73104  0.36756  0.24911  Biso   1.000  Zr
  Zr93     1.0000 0.72876  0.36710  0.74888  Biso   1.000  Zr
  Zr94     1.0000 0.74224  0.86785  0.24596  Biso   1.000  Zr
  Zr95     1.0000 0.72706  0.86544  0.74609  Biso   1.000  Zr
