data_image0
_cell_length_a       10.2476
_cell_length_b       5.19118
_cell_length_c       10.5668
_cell_angle_alpha    90.2753
_cell_angle_beta     79.5576
_cell_angle_gamma    90.1358

_symmetry_space_group_name_H-M    "P 1"
_symmetry_int_tables_number       1

loop_
  _symmetry_equiv_pos_as_xyz
  'x, y, z'

loop_
  _atom_site_label
  _atom_site_occupancy
  _atom_site_fract_x
  _atom_site_fract_y
  _atom_site_fract_z
  _atom_site_thermal_displace_type
  _atom_site_B_iso_or_equiv
  _atom_site_type_symbol
  Zr1      1.0000 0.13451  0.04620  0.14240  Biso   1.000  Zr
  Zr2      1.0000 0.13781  0.45746  0.39493  Biso   1.000  Zr
  Zr3      1.0000 0.35469  0.55029  0.10062  Biso   1.000  Zr
  Zr4      1.0000 0.35501  0.93450  0.35147  Biso   1.000  Zr
  O1       1.0000 0.03106  0.34292  0.07831  Biso   1.000  O
  O2       1.0000 0.03242  0.16604  0.32863  Biso   1.000  O
  O3       1.0000 0.46176  0.84846  0.16857  Biso   1.000  O
  O4       1.0000 0.47605  0.67909  0.42995  Biso   1.000  O
  O5       1.0000 0.27010  0.25297  0.23795  Biso   1.000  O
  O6       1.0000 0.27747  0.23682  0.49043  Biso   1.000  O
  O7       1.0000 0.22039  0.76361  0.00533  Biso   1.000  O
  O8       1.0000 0.20904  0.75068  0.25449  Biso   1.000  O
  Zr5      1.0000 0.13884  0.04344  0.64474  Biso   1.000  Zr
  Zr6      1.0000 0.13503  0.45988  0.89508  Biso   1.000  Zr
  Zr7      1.0000 0.36096  0.54202  0.60978  Biso   1.000  Zr
  Zr8      1.0000 0.35915  0.96016  0.85497  Biso   1.000  Zr
  O9       1.0000 0.03552  0.33610  0.57952  Biso   1.000  O
  O10      1.0000 0.03336  0.16570  0.82849  Biso   1.000  O
  O11      1.0000 0.46594  0.83325  0.67463  Biso   1.000  O
  O12      1.0000 0.46451  0.67097  0.92172  Biso   1.000  O
  O13      1.0000 0.27481  0.25713  0.74080  Biso   1.000  O
  O14      1.0000 0.27223  0.24926  0.98860  Biso   1.000  O
  O15      1.0000 0.22585  0.74971  0.51164  Biso   1.000  O
  O16      1.0000 0.22357  0.74384  0.75932  Biso   1.000  O
  Zr9      1.0000 0.63794  0.04472  0.14701  Biso   1.000  Zr
  Zr10     1.0000 0.65050  0.45712  0.40302  Biso   1.000  Zr
  Zr11     1.0000 0.85790  0.54573  0.10571  Biso   1.000  Zr
  Zr12     1.0000 0.86258  0.95549  0.35510  Biso   1.000  Zr
  O17      1.0000 0.53178  0.34187  0.08270  Biso   1.000  O
  O18      1.0000 0.53733  0.15354  0.33563  Biso   1.000  O
  O19      1.0000 0.96028  0.84187  0.16944  Biso   1.000  O
  O20      1.0000 0.96428  0.66511  0.42252  Biso   1.000  O
  O21      1.0000 0.77535  0.26038  0.24292  Biso   1.000  O
  O22      1.0000 0.77900  0.23916  0.49460  Biso   1.000  O
  O23      1.0000 0.72205  0.76055  0.01217  Biso   1.000  O
  O24      1.0000 0.72203  0.74363  0.26252  Biso   1.000  O
  Zr13     1.0000 0.63854  0.04390  0.64919  Biso   1.000  Zr
  Zr14     1.0000 0.63637  0.45999  0.89852  Biso   1.000  Zr
  Zr15     1.0000 0.86324  0.54416  0.60808  Biso   1.000  Zr
  Zr16     1.0000 0.85970  0.95969  0.85627  Biso   1.000  Zr
  O25      1.0000 0.53561  0.33380  0.58149  Biso   1.000  O
  O26      1.0000 0.53254  0.16923  0.83098  Biso   1.000  O
  O27      1.0000 0.96553  0.83751  0.67197  Biso   1.000  O
  O28      1.0000 0.96204  0.66606  0.92045  Biso   1.000  O
  O29      1.0000 0.77458  0.25949  0.74338  Biso   1.000  O
  O30      1.0000 0.77258  0.24512  0.99256  Biso   1.000  O
  O31      1.0000 0.72626  0.75544  0.51412  Biso   1.000  O
  O32      1.0000 0.72419  0.74488  0.76288  Biso   1.000  O
  Cu1      1.0000 0.41904  0.43124  0.31941  Biso   1.000  Cu
