data_image0
_cell_length_a       5.05094
_cell_length_b       10.4676
_cell_length_c       10.1202
_cell_angle_alpha    89.4867
_cell_angle_beta     90.0622
_cell_angle_gamma    89.9744

_symmetry_space_group_name_H-M    "P 1"
_symmetry_int_tables_number       1

loop_
  _symmetry_equiv_pos_as_xyz
  'x, y, z'

loop_
  _atom_site_label
  _atom_site_occupancy
  _atom_site_fract_x
  _atom_site_fract_y
  _atom_site_fract_z
  _atom_site_thermal_displace_type
  _atom_site_B_iso_or_equiv
  _atom_site_type_symbol
  Zr1      1.0000 0.26138  0.01578  0.11790  Biso   1.000  Zr
  Zr2      1.0000 0.26246  0.23075  0.38481  Biso   1.000  Zr
  Zr3      1.0000 0.68614  0.26077  0.12488  Biso   1.000  Zr
  Zr4      1.0000 0.73890  0.48494  0.37528  Biso   1.000  Zr
  Zr5      1.0000 0.00953  0.16859  0.22220  Biso   1.000  Zr
  Zr6      1.0000 0.06941  0.06550  0.45409  Biso   1.000  Zr
  Zr7      1.0000 0.92436  0.43160  0.19226  Biso   1.000  Zr
  Zr8      1.0000 0.93611  0.32114  0.45056  Biso   1.000  Zr
  Zr9      1.0000 0.50518  0.11467  0.25054  Biso   1.000  Zr
  Zr10     1.0000 0.54558  0.13434  0.49770  Biso   1.000  Zr
  Zr11     1.0000 0.46861  0.38391  0.49991  Biso   1.000  Zr
  Zr12     1.0000 0.44497  0.37156  0.25311  Biso   1.000  Zr
  Zr13     1.0000 0.27553  0.01214  0.62540  Biso   1.000  Zr
  Zr14     1.0000 0.27811  0.22747  0.86710  Biso   1.000  Zr
  Zr15     1.0000 0.73898  0.26585  0.62601  Biso   1.000  Zr
  Zr16     1.0000 0.74193  0.48358  0.87587  Biso   1.000  Zr
  Zr17     1.0000 0.07660  0.18054  0.69188  Biso   1.000  Zr
  Zr18     1.0000 0.08484  0.06098  0.93723  Biso   1.000  Zr
  Zr19     1.0000 0.94232  0.43111  0.69963  Biso   1.000  Zr
  Zr20     1.0000 0.93395  0.31377  0.94575  Biso   1.000  Zr
  Zr21     1.0000 0.54731  0.11364  0.74469  Biso   1.000  Zr
  Zr22     1.0000 0.56956  0.12349  0.99077  Biso   1.000  Zr
  Zr23     1.0000 0.46088  0.38778  0.99753  Biso   1.000  Zr
  Zr24     1.0000 0.47325  0.36554  0.74836  Biso   1.000  Zr
  Zr25     1.0000 0.26778  0.52958  0.12754  Biso   1.000  Zr
  Zr26     1.0000 0.27371  0.73780  0.37715  Biso   1.000  Zr
  Zr27     1.0000 0.73041  0.76732  0.12548  Biso   1.000  Zr
  Zr28     1.0000 0.74035  0.98864  0.36970  Biso   1.000  Zr
  Zr29     1.0000 0.06989  0.68518  0.19926  Biso   1.000  Zr
  Zr30     1.0000 0.07209  0.56846  0.44592  Biso   1.000  Zr
  Zr31     1.0000 0.92901  0.93141  0.19258  Biso   1.000  Zr
  Zr32     1.0000 0.93639  0.81923  0.44410  Biso   1.000  Zr
  Zr33     1.0000 0.54442  0.62060  0.25014  Biso   1.000  Zr
  Zr34     1.0000 0.54199  0.63390  0.49868  Biso   1.000  Zr
  Zr35     1.0000 0.47215  0.88556  0.49650  Biso   1.000  Zr
  Zr36     1.0000 0.46323  0.86737  0.24749  Biso   1.000  Zr
  Zr37     1.0000 0.27442  0.51455  0.62556  Biso   1.000  Zr
  Zr38     1.0000 0.27166  0.73456  0.87310  Biso   1.000  Zr
  Zr39     1.0000 0.74189  0.76460  0.62274  Biso   1.000  Zr
  Zr40     1.0000 0.74086  0.97907  0.87311  Biso   1.000  Zr
  Zr41     1.0000 0.07558  0.68118  0.69463  Biso   1.000  Zr
  Zr42     1.0000 0.07058  0.56967  0.94823  Biso   1.000  Zr
  Zr43     1.0000 0.94335  0.92802  0.69624  Biso   1.000  Zr
  Zr44     1.0000 0.93716  0.81481  0.94755  Biso   1.000  Zr
  Zr45     1.0000 0.54362  0.61445  0.74882  Biso   1.000  Zr
  Zr46     1.0000 0.53919  0.63444  0.99897  Biso   1.000  Zr
  Zr47     1.0000 0.46396  0.87983  0.99760  Biso   1.000  Zr
  Zr48     1.0000 0.47356  0.86349  0.74679  Biso   1.000  Zr
  Cu1      1.0000 0.17476  0.28593  0.10644  Biso   1.000  Cu
