data_image0
_cell_length_a       10.0972
_cell_length_b       10.0972
_cell_length_c       5.02634
_cell_angle_alpha    89.9957
_cell_angle_beta     89.997
_cell_angle_gamma    90.002

_symmetry_space_group_name_H-M    "P 1"
_symmetry_int_tables_number       1

loop_
  _symmetry_equiv_pos_as_xyz
  'x, y, z'

loop_
  _atom_site_label
  _atom_site_occupancy
  _atom_site_fract_x
  _atom_site_fract_y
  _atom_site_fract_z
  _atom_site_thermal_displace_type
  _atom_site_B_iso_or_equiv
  _atom_site_type_symbol
  Fe1      1.0000 0.12508  0.00009  0.25019  Biso   1.000  Fe
  Zr1      1.0000 0.12515  0.50012  0.25017  Biso   1.000  Zr
  Zr2      1.0000 0.62514  0.00011  0.25017  Biso   1.000  Zr
  Zr3      1.0000 0.62513  0.50011  0.25017  Biso   1.000  Zr
  Zr4      1.0000 0.12514  0.25056  0.75021  Biso   1.000  Zr
  Zr5      1.0000 0.12515  0.74969  0.75011  Biso   1.000  Zr
  Zr6      1.0000 0.62514  0.25098  0.75018  Biso   1.000  Zr
  Zr7      1.0000 0.62514  0.74924  0.75016  Biso   1.000  Zr
  Zr8      1.0000 0.37388  0.24884  0.26161  Biso   1.000  Zr
  Zr9      1.0000 0.37388  0.75139  0.23873  Biso   1.000  Zr
  Zr10     1.0000 0.87641  0.24887  0.23877  Biso   1.000  Zr
  Zr11     1.0000 0.87641  0.75138  0.26155  Biso   1.000  Zr
  Zr12     1.0000 0.37559  0.00012  0.75018  Biso   1.000  Zr
  Zr13     1.0000 0.37600  0.50011  0.75017  Biso   1.000  Zr
  Zr14     1.0000 0.87470  0.00012  0.75015  Biso   1.000  Zr
  Zr15     1.0000 0.87428  0.50012  0.75016  Biso   1.000  Zr
  Zr16     1.0000 0.97463  0.15062  0.93885  Biso   1.000  Zr
  Zr17     1.0000 0.98851  0.64597  0.98936  Biso   1.000  Zr
  Zr18     1.0000 0.47931  0.13674  0.98943  Biso   1.000  Zr
  Zr19     1.0000 0.48876  0.63650  0.99041  Biso   1.000  Zr
  Zr20     1.0000 0.02472  0.10060  0.45002  Biso   1.000  Zr
  Zr21     1.0000 0.00989  0.60737  0.49653  Biso   1.000  Zr
  Zr22     1.0000 0.51792  0.11536  0.49659  Biso   1.000  Zr
  Zr23     1.0000 0.51102  0.61423  0.49724  Biso   1.000  Zr
  Zr24     1.0000 0.98851  0.35429  0.51095  Biso   1.000  Zr
  Zr25     1.0000 0.97466  0.84965  0.56140  Biso   1.000  Zr
  Zr26     1.0000 0.48876  0.36373  0.50994  Biso   1.000  Zr
  Zr27     1.0000 0.47931  0.86349  0.51092  Biso   1.000  Zr
  Zr28     1.0000 0.00989  0.39289  0.00378  Biso   1.000  Zr
  Zr29     1.0000 0.02468  0.89967  0.05024  Biso   1.000  Zr
  Zr30     1.0000 0.51102  0.38600  0.00311  Biso   1.000  Zr
  Zr31     1.0000 0.51791  0.88487  0.00375  Biso   1.000  Zr
  Zr32     1.0000 0.27568  0.15066  0.56164  Biso   1.000  Zr
  Zr33     1.0000 0.26176  0.64596  0.51087  Biso   1.000  Zr
  Zr34     1.0000 0.77098  0.13674  0.51091  Biso   1.000  Zr
  Zr35     1.0000 0.76152  0.63650  0.50994  Biso   1.000  Zr
  Zr36     1.0000 0.22558  0.10053  0.05044  Biso   1.000  Zr
  Zr37     1.0000 0.24038  0.60734  0.00371  Biso   1.000  Zr
  Zr38     1.0000 0.73237  0.11536  0.00375  Biso   1.000  Zr
  Zr39     1.0000 0.73926  0.61423  0.00312  Biso   1.000  Zr
  Zr40     1.0000 0.26177  0.35427  0.98945  Biso   1.000  Zr
  Zr41     1.0000 0.27565  0.84959  0.93878  Biso   1.000  Zr
  Zr42     1.0000 0.76152  0.36374  0.99040  Biso   1.000  Zr
  Zr43     1.0000 0.77097  0.86349  0.98938  Biso   1.000  Zr
  Zr44     1.0000 0.24038  0.39290  0.49661  Biso   1.000  Zr
  Zr45     1.0000 0.22559  0.89970  0.44998  Biso   1.000  Zr
  Zr46     1.0000 0.73926  0.38600  0.49722  Biso   1.000  Zr
  Zr47     1.0000 0.73239  0.88487  0.49655  Biso   1.000  Zr
