data_image0
_cell_length_a       10.1963
_cell_length_b       5.13895
_cell_length_c       10.5098
_cell_angle_alpha    90.1758
_cell_angle_beta     80.5935
_cell_angle_gamma    89.579

_symmetry_space_group_name_H-M    "P 1"
_symmetry_int_tables_number       1

loop_
  _symmetry_equiv_pos_as_xyz
  'x, y, z'

loop_
  _atom_site_label
  _atom_site_occupancy
  _atom_site_fract_x
  _atom_site_fract_y
  _atom_site_fract_z
  _atom_site_thermal_displace_type
  _atom_site_B_iso_or_equiv
  _atom_site_type_symbol
  Ga1      1.0000 0.12700  0.02548  0.15654  Biso   1.000  Ga
  Zr1      1.0000 0.13892  0.04137  0.64314  Biso   1.000  Zr
  Zr2      1.0000 0.63843  0.04031  0.14522  Biso   1.000  Zr
  Zr3      1.0000 0.63858  0.04289  0.64685  Biso   1.000  Zr
  Zr4      1.0000 0.13742  0.45075  0.39013  Biso   1.000  Zr
  Zr5      1.0000 0.14109  0.45876  0.89490  Biso   1.000  Zr
  Zr6      1.0000 0.63803  0.45687  0.39505  Biso   1.000  Zr
  Zr7      1.0000 0.63921  0.46174  0.89828  Biso   1.000  Zr
  Zr8      1.0000 0.35373  0.54360  0.10407  Biso   1.000  Zr
  Zr9      1.0000 0.35984  0.54568  0.60369  Biso   1.000  Zr
  Zr10     1.0000 0.86799  0.53373  0.10695  Biso   1.000  Zr
  Zr11     1.0000 0.86016  0.54016  0.60622  Biso   1.000  Zr
  Zr12     1.0000 0.35730  0.95703  0.35018  Biso   1.000  Zr
  Zr13     1.0000 0.35971  0.96934  0.85696  Biso   1.000  Zr
  Zr14     1.0000 0.85922  0.95468  0.35629  Biso   1.000  Zr
  Zr15     1.0000 0.86249  0.95701  0.85696  Biso   1.000  Zr
  O1       1.0000 0.04429  0.31622  0.07875  Biso   1.000  O
  O2       1.0000 0.03319  0.32944  0.57691  Biso   1.000  O
  O3       1.0000 0.53312  0.33245  0.07842  Biso   1.000  O
  O4       1.0000 0.53285  0.33239  0.57752  Biso   1.000  O
  O5       1.0000 0.03202  0.15768  0.32938  Biso   1.000  O
  O6       1.0000 0.03429  0.17085  0.82738  Biso   1.000  O
  O7       1.0000 0.53175  0.16910  0.32698  Biso   1.000  O
  O8       1.0000 0.53579  0.17303  0.82763  Biso   1.000  O
  O9       1.0000 0.46789  0.82575  0.17242  Biso   1.000  O
  O10      1.0000 0.46606  0.83353  0.67270  Biso   1.000  O
  O11      1.0000 0.96829  0.82520  0.17431  Biso   1.000  O
  O12      1.0000 0.96668  0.82841  0.67388  Biso   1.000  O
  O13      1.0000 0.46579  0.67079  0.42158  Biso   1.000  O
  O14      1.0000 0.46828  0.68209  0.92444  Biso   1.000  O
  O15      1.0000 0.96355  0.66122  0.42277  Biso   1.000  O
  O16      1.0000 0.96740  0.66696  0.92637  Biso   1.000  O
  O17      1.0000 0.26812  0.23832  0.22932  Biso   1.000  O
  O18      1.0000 0.27406  0.25659  0.73382  Biso   1.000  O
  O19      1.0000 0.77521  0.25224  0.24132  Biso   1.000  O
  O20      1.0000 0.77649  0.25761  0.74178  Biso   1.000  O
  O21      1.0000 0.27550  0.24528  0.48483  Biso   1.000  O
  O22      1.0000 0.29261  0.28725  0.97128  Biso   1.000  O
  O23      1.0000 0.77431  0.24155  0.49190  Biso   1.000  O
  O24      1.0000 0.77650  0.24149  0.99171  Biso   1.000  O
  O25      1.0000 0.22298  0.79831  0.01622  Biso   1.000  O
  O26      1.0000 0.22316  0.75722  0.50844  Biso   1.000  O
  O27      1.0000 0.72756  0.75418  0.01179  Biso   1.000  O
  O28      1.0000 0.72285  0.75505  0.51153  Biso   1.000  O
  O29      1.0000 0.22313  0.73161  0.26047  Biso   1.000  O
  O30      1.0000 0.22560  0.74521  0.76073  Biso   1.000  O
  O31      1.0000 0.72642  0.73844  0.26023  Biso   1.000  O
  O32      1.0000 0.72516  0.74514  0.76177  Biso   1.000  O
