data_image0
_cell_length_a       5.03706
_cell_length_b       10.1356
_cell_length_c       10.0852
_cell_angle_alpha    89.9997
_cell_angle_beta     90.0008
_cell_angle_gamma    90.0005

_symmetry_space_group_name_H-M    "P 1"
_symmetry_int_tables_number       1

loop_
  _symmetry_equiv_pos_as_xyz
  'x, y, z'

loop_
  _atom_site_label
  _atom_site_occupancy
  _atom_site_fract_x
  _atom_site_fract_y
  _atom_site_fract_z
  _atom_site_thermal_displace_type
  _atom_site_B_iso_or_equiv
  _atom_site_type_symbol
  Ga1      1.0000 0.25207  0.99979  0.12502  Biso   1.000  Ga
  Zr1      1.0000 0.25207  0.99979  0.62502  Biso   1.000  Zr
  Zr2      1.0000 0.25208  0.49979  0.12503  Biso   1.000  Zr
  Zr3      1.0000 0.25208  0.49979  0.62503  Biso   1.000  Zr
  Zr4      1.0000 0.25634  0.24817  0.37515  Biso   1.000  Zr
  Zr5      1.0000 0.24782  0.24817  0.87490  Biso   1.000  Zr
  Zr6      1.0000 0.24781  0.75140  0.37515  Biso   1.000  Zr
  Zr7      1.0000 0.25634  0.75141  0.87489  Biso   1.000  Zr
  Zr8      1.0000 0.75208  0.24881  0.12503  Biso   1.000  Zr
  Zr9      1.0000 0.75208  0.24810  0.62503  Biso   1.000  Zr
  Zr10     1.0000 0.75207  0.75076  0.12502  Biso   1.000  Zr
  Zr11     1.0000 0.75208  0.75148  0.62502  Biso   1.000  Zr
  Zr12     1.0000 0.75207  0.99979  0.37226  Biso   1.000  Zr
  Zr13     1.0000 0.75208  0.99979  0.87779  Biso   1.000  Zr
  Zr14     1.0000 0.75208  0.49979  0.37795  Biso   1.000  Zr
  Zr15     1.0000 0.75208  0.49979  0.87210  Biso   1.000  Zr
  Zr16     1.0000 0.95540  0.15251  0.97946  Biso   1.000  Zr
  Zr17     1.0000 0.98526  0.14278  0.48647  Biso   1.000  Zr
  Zr18     1.0000 0.99724  0.64767  0.99518  Biso   1.000  Zr
  Zr19     1.0000 0.99369  0.64230  0.49543  Biso   1.000  Zr
  Zr20     1.0000 0.03519  0.09893  0.23576  Biso   1.000  Zr
  Zr21     1.0000 0.00940  0.10807  0.73971  Biso   1.000  Zr
  Zr22     1.0000 0.00386  0.60235  0.24647  Biso   1.000  Zr
  Zr23     1.0000 0.00672  0.60771  0.74606  Biso   1.000  Zr
  Zr24     1.0000 0.99723  0.35191  0.25488  Biso   1.000  Zr
  Zr25     1.0000 0.99370  0.35728  0.75462  Biso   1.000  Zr
  Zr26     1.0000 0.95539  0.84707  0.27059  Biso   1.000  Zr
  Zr27     1.0000 0.98526  0.85680  0.76358  Biso   1.000  Zr
  Zr28     1.0000 0.00386  0.39723  0.00358  Biso   1.000  Zr
  Zr29     1.0000 0.00673  0.39187  0.50399  Biso   1.000  Zr
  Zr30     1.0000 0.03519  0.90065  0.01429  Biso   1.000  Zr
  Zr31     1.0000 0.00939  0.89151  0.51034  Biso   1.000  Zr
  Zr32     1.0000 0.54875  0.15251  0.27059  Biso   1.000  Zr
  Zr33     1.0000 0.51889  0.14278  0.76358  Biso   1.000  Zr
  Zr34     1.0000 0.50692  0.64767  0.25488  Biso   1.000  Zr
  Zr35     1.0000 0.51046  0.64230  0.75462  Biso   1.000  Zr
  Zr36     1.0000 0.46896  0.09893  0.01429  Biso   1.000  Zr
  Zr37     1.0000 0.49476  0.10807  0.51034  Biso   1.000  Zr
  Zr38     1.0000 0.50032  0.60235  0.00359  Biso   1.000  Zr
  Zr39     1.0000 0.49743  0.60771  0.50399  Biso   1.000  Zr
  Zr40     1.0000 0.50693  0.35191  0.99517  Biso   1.000  Zr
  Zr41     1.0000 0.51047  0.35728  0.49543  Biso   1.000  Zr
  Zr42     1.0000 0.54876  0.84707  0.97946  Biso   1.000  Zr
  Zr43     1.0000 0.51889  0.85680  0.48647  Biso   1.000  Zr
  Zr44     1.0000 0.50030  0.39723  0.24647  Biso   1.000  Zr
  Zr45     1.0000 0.49744  0.39187  0.74606  Biso   1.000  Zr
  Zr46     1.0000 0.46895  0.90065  0.23575  Biso   1.000  Zr
  Zr47     1.0000 0.49476  0.89151  0.73970  Biso   1.000  Zr
