data_image0
_cell_length_a       10.0714
_cell_length_b       10.1883
_cell_length_c       10.0715
_cell_angle_alpha    90.001
_cell_angle_beta     90.0005
_cell_angle_gamma    90.0015

_symmetry_space_group_name_H-M    "P 1"
_symmetry_int_tables_number       1

loop_
  _symmetry_equiv_pos_as_xyz
  'x, y, z'

loop_
  _atom_site_label
  _atom_site_occupancy
  _atom_site_fract_x
  _atom_site_fract_y
  _atom_site_fract_z
  _atom_site_thermal_displace_type
  _atom_site_B_iso_or_equiv
  _atom_site_type_symbol
  Ga1      1.0000 0.12524  0.00028  0.12529  Biso   1.000  Ga
  Zr1      1.0000 0.12524  0.00027  0.62529  Biso   1.000  Zr
  Zr2      1.0000 0.12525  0.50027  0.12530  Biso   1.000  Zr
  Zr3      1.0000 0.12524  0.50027  0.62529  Biso   1.000  Zr
  Zr4      1.0000 0.62524  0.00027  0.12529  Biso   1.000  Zr
  Zr5      1.0000 0.62524  0.00027  0.62529  Biso   1.000  Zr
  Zr6      1.0000 0.62524  0.50027  0.12530  Biso   1.000  Zr
  Zr7      1.0000 0.62524  0.50027  0.62529  Biso   1.000  Zr
  Zr8      1.0000 0.12722  0.25034  0.37651  Biso   1.000  Zr
  Zr9      1.0000 0.12326  0.25035  0.87406  Biso   1.000  Zr
  Zr10     1.0000 0.12325  0.75019  0.37651  Biso   1.000  Zr
  Zr11     1.0000 0.12722  0.75019  0.87406  Biso   1.000  Zr
  Zr12     1.0000 0.62633  0.24869  0.37523  Biso   1.000  Zr
  Zr13     1.0000 0.62414  0.24870  0.87534  Biso   1.000  Zr
  Zr14     1.0000 0.62414  0.75184  0.37524  Biso   1.000  Zr
  Zr15     1.0000 0.62633  0.75183  0.87534  Biso   1.000  Zr
  Zr16     1.0000 0.37646  0.25034  0.12727  Biso   1.000  Zr
  Zr17     1.0000 0.37519  0.24869  0.62638  Biso   1.000  Zr
  Zr18     1.0000 0.37646  0.75019  0.12331  Biso   1.000  Zr
  Zr19     1.0000 0.37519  0.75184  0.62419  Biso   1.000  Zr
  Zr20     1.0000 0.87401  0.25035  0.12331  Biso   1.000  Zr
  Zr21     1.0000 0.87529  0.24870  0.62419  Biso   1.000  Zr
  Zr22     1.0000 0.87401  0.75019  0.12727  Biso   1.000  Zr
  Zr23     1.0000 0.87529  0.75184  0.62639  Biso   1.000  Zr
  Zr24     1.0000 0.37301  0.00142  0.37306  Biso   1.000  Zr
  Zr25     1.0000 0.37302  0.99911  0.87752  Biso   1.000  Zr
  Zr26     1.0000 0.37733  0.50117  0.37738  Biso   1.000  Zr
  Zr27     1.0000 0.37733  0.49936  0.87320  Biso   1.000  Zr
  Zr28     1.0000 0.87747  0.99911  0.37307  Biso   1.000  Zr
  Zr29     1.0000 0.87747  0.00142  0.87752  Biso   1.000  Zr
  Zr30     1.0000 0.87315  0.49936  0.37738  Biso   1.000  Zr
  Zr31     1.0000 0.87315  0.50118  0.87320  Biso   1.000  Zr
  Zr32     1.0000 0.98200  0.15582  0.98205  Biso   1.000  Zr
  Zr33     1.0000 0.99363  0.14508  0.48908  Biso   1.000  Zr
  Zr34     1.0000 0.99954  0.65184  0.99959  Biso   1.000  Zr
  Zr35     1.0000 0.99731  0.64482  0.49958  Biso   1.000  Zr
  Zr36     1.0000 0.48903  0.14507  0.99368  Biso   1.000  Zr
  Zr37     1.0000 0.49508  0.14572  0.49513  Biso   1.000  Zr
  Zr38     1.0000 0.49953  0.64482  0.99737  Biso   1.000  Zr
  Zr39     1.0000 0.49776  0.64528  0.49781  Biso   1.000  Zr
  Zr40     1.0000 0.01278  0.09527  0.23777  Biso   1.000  Zr
  Zr41     1.0000 0.00256  0.10594  0.74195  Biso   1.000  Zr
  Zr42     1.0000 0.00066  0.59921  0.24985  Biso   1.000  Zr
  Zr43     1.0000 0.00225  0.60558  0.74978  Biso   1.000  Zr
  Zr44     1.0000 0.50859  0.10593  0.24797  Biso   1.000  Zr
  Zr45     1.0000 0.50309  0.10497  0.74743  Biso   1.000  Zr
  Zr46     1.0000 0.50073  0.60558  0.24827  Biso   1.000  Zr
  Zr47     1.0000 0.50213  0.60563  0.74841  Biso   1.000  Zr
  Zr48     1.0000 0.99955  0.34871  0.25098  Biso   1.000  Zr
  Zr49     1.0000 0.99731  0.35572  0.75099  Biso   1.000  Zr
  Zr50     1.0000 0.98198  0.84472  0.26854  Biso   1.000  Zr
  Zr51     1.0000 0.99363  0.85546  0.76150  Biso   1.000  Zr
  Zr52     1.0000 0.49954  0.35571  0.25321  Biso   1.000  Zr
  Zr53     1.0000 0.49776  0.35525  0.75276  Biso   1.000  Zr
  Zr54     1.0000 0.48902  0.85546  0.25690  Biso   1.000  Zr
  Zr55     1.0000 0.49508  0.85482  0.75545  Biso   1.000  Zr
  Zr56     1.0000 0.00067  0.40133  0.00072  Biso   1.000  Zr
  Zr57     1.0000 0.00225  0.39496  0.50079  Biso   1.000  Zr
  Zr58     1.0000 0.01277  0.90527  0.01283  Biso   1.000  Zr
  Zr59     1.0000 0.00256  0.89460  0.50864  Biso   1.000  Zr
  Zr60     1.0000 0.50074  0.39496  0.00230  Biso   1.000  Zr
  Zr61     1.0000 0.50212  0.39490  0.50217  Biso   1.000  Zr
  Zr62     1.0000 0.50859  0.89460  0.00261  Biso   1.000  Zr
  Zr63     1.0000 0.50309  0.89556  0.50314  Biso   1.000  Zr
  Zr64     1.0000 0.26849  0.15581  0.26854  Biso   1.000  Zr
  Zr65     1.0000 0.25685  0.14508  0.76151  Biso   1.000  Zr
  Zr66     1.0000 0.25092  0.65182  0.25097  Biso   1.000  Zr
  Zr67     1.0000 0.25316  0.64482  0.75098  Biso   1.000  Zr
  Zr68     1.0000 0.76145  0.14507  0.25690  Biso   1.000  Zr
  Zr69     1.0000 0.75540  0.14572  0.75545  Biso   1.000  Zr
  Zr70     1.0000 0.75093  0.64482  0.25322  Biso   1.000  Zr
  Zr71     1.0000 0.75272  0.64529  0.75277  Biso   1.000  Zr
  Zr72     1.0000 0.23771  0.09527  0.01283  Biso   1.000  Zr
  Zr73     1.0000 0.24792  0.10593  0.50864  Biso   1.000  Zr
  Zr74     1.0000 0.24980  0.59921  0.00071  Biso   1.000  Zr
  Zr75     1.0000 0.24821  0.60558  0.50078  Biso   1.000  Zr
  Zr76     1.0000 0.74190  0.10594  0.00261  Biso   1.000  Zr
  Zr77     1.0000 0.74738  0.10497  0.50314  Biso   1.000  Zr
  Zr78     1.0000 0.74973  0.60558  0.00231  Biso   1.000  Zr
  Zr79     1.0000 0.74835  0.60563  0.50217  Biso   1.000  Zr
  Zr80     1.0000 0.25093  0.34871  0.99960  Biso   1.000  Zr
  Zr81     1.0000 0.25316  0.35571  0.49959  Biso   1.000  Zr
  Zr82     1.0000 0.26849  0.84472  0.98204  Biso   1.000  Zr
  Zr83     1.0000 0.25685  0.85546  0.48907  Biso   1.000  Zr
  Zr84     1.0000 0.75094  0.35572  0.99737  Biso   1.000  Zr
  Zr85     1.0000 0.75271  0.35525  0.49782  Biso   1.000  Zr
  Zr86     1.0000 0.76145  0.85546  0.99368  Biso   1.000  Zr
  Zr87     1.0000 0.75540  0.85482  0.49513  Biso   1.000  Zr
  Zr88     1.0000 0.24981  0.40131  0.24986  Biso   1.000  Zr
  Zr89     1.0000 0.24822  0.39495  0.74979  Biso   1.000  Zr
  Zr90     1.0000 0.23770  0.90526  0.23775  Biso   1.000  Zr
  Zr91     1.0000 0.24793  0.89460  0.74194  Biso   1.000  Zr
  Zr92     1.0000 0.74974  0.39495  0.24827  Biso   1.000  Zr
  Zr93     1.0000 0.74835  0.39491  0.74841  Biso   1.000  Zr
  Zr94     1.0000 0.74188  0.89460  0.24798  Biso   1.000  Zr
  Zr95     1.0000 0.74739  0.89557  0.74744  Biso   1.000  Zr
