data_image0
_cell_length_a       10.0729
_cell_length_b       5.1184
_cell_length_c       10.4876
_cell_angle_alpha    90.1364
_cell_angle_beta     90.8438
_cell_angle_gamma    89.3034

_symmetry_space_group_name_H-M    "P 1"
_symmetry_int_tables_number       1

loop_
  _symmetry_equiv_pos_as_xyz
  'x, y, z'

loop_
  _atom_site_label
  _atom_site_occupancy
  _atom_site_fract_x
  _atom_site_fract_y
  _atom_site_fract_z
  _atom_site_thermal_displace_type
  _atom_site_B_iso_or_equiv
  _atom_site_type_symbol
  Ge1      1.0000 0.12218  0.02207  0.18587  Biso   1.000  Ge
  Zr1      1.0000 0.13788  0.03905  0.66808  Biso   1.000  Zr
  Zr2      1.0000 0.13571  0.45585  0.41575  Biso   1.000  Zr
  Zr3      1.0000 0.14185  0.45535  0.91932  Biso   1.000  Zr
  Zr4      1.0000 0.35546  0.55364  0.16785  Biso   1.000  Zr
  Zr5      1.0000 0.36085  0.54533  0.67110  Biso   1.000  Zr
  Zr6      1.0000 0.35734  0.96026  0.41819  Biso   1.000  Zr
  Zr7      1.0000 0.36140  0.96962  0.92367  Biso   1.000  Zr
  Zr8      1.0000 0.64044  0.04187  0.07850  Biso   1.000  Zr
  Zr9      1.0000 0.63580  0.04013  0.58065  Biso   1.000  Zr
  Zr10     1.0000 0.63520  0.45463  0.32820  Biso   1.000  Zr
  Zr11     1.0000 0.63981  0.46079  0.83102  Biso   1.000  Zr
  Zr12     1.0000 0.86959  0.52976  0.08433  Biso   1.000  Zr
  Zr13     1.0000 0.85917  0.53663  0.58185  Biso   1.000  Zr
  Zr14     1.0000 0.85594  0.95329  0.33324  Biso   1.000  Zr
  Zr15     1.0000 0.86415  0.95430  0.83279  Biso   1.000  Zr
  O1       1.0000 0.05230  0.30351  0.08998  Biso   1.000  O
  O2       1.0000 0.03056  0.32000  0.57844  Biso   1.000  O
  O3       1.0000 0.03260  0.15478  0.33194  Biso   1.000  O
  O4       1.0000 0.03388  0.17317  0.83191  Biso   1.000  O
  O5       1.0000 0.46894  0.83476  0.08301  Biso   1.000  O
  O6       1.0000 0.46349  0.83796  0.58361  Biso   1.000  O
  O7       1.0000 0.46015  0.66005  0.33625  Biso   1.000  O
  O8       1.0000 0.46914  0.67570  0.83204  Biso   1.000  O
  O9       1.0000 0.26443  0.23419  0.27545  Biso   1.000  O
  O10      1.0000 0.27482  0.24386  0.78483  Biso   1.000  O
  O11      1.0000 0.30326  0.32113  0.01988  Biso   1.000  O
  O12      1.0000 0.27468  0.25528  0.53635  Biso   1.000  O
  O13      1.0000 0.21389  0.75283  0.29346  Biso   1.000  O
  O14      1.0000 0.22531  0.74761  0.79906  Biso   1.000  O
  O15      1.0000 0.21518  0.82261  0.05680  Biso   1.000  O
  O16      1.0000 0.22166  0.75063  0.54337  Biso   1.000  O
  O17      1.0000 0.53380  0.33715  0.16429  Biso   1.000  O
  O18      1.0000 0.53373  0.33817  0.66396  Biso   1.000  O
  O19      1.0000 0.53074  0.16226  0.41262  Biso   1.000  O
  O20      1.0000 0.53930  0.16249  0.91223  Biso   1.000  O
  O21      1.0000 0.97102  0.82488  0.17158  Biso   1.000  O
  O22      1.0000 0.96915  0.81749  0.67207  Biso   1.000  O
  O23      1.0000 0.96282  0.66230  0.41859  Biso   1.000  O
  O24      1.0000 0.97065  0.66633  0.92632  Biso   1.000  O
  O25      1.0000 0.78132  0.24524  0.95858  Biso   1.000  O
  O26      1.0000 0.77303  0.24341  0.45679  Biso   1.000  O
  O27      1.0000 0.77737  0.24658  0.20686  Biso   1.000  O
  O28      1.0000 0.77642  0.24910  0.70741  Biso   1.000  O
  O29      1.0000 0.72941  0.74276  0.95911  Biso   1.000  O
  O30      1.0000 0.72048  0.74358  0.45775  Biso   1.000  O
  O31      1.0000 0.72855  0.74517  0.20706  Biso   1.000  O
  O32      1.0000 0.72516  0.75246  0.70800  Biso   1.000  O
