data_image0
_cell_length_a       10.3623
_cell_length_b       10.4057
_cell_length_c       5.27973
_cell_angle_alpha    89.8039
_cell_angle_beta     78.9481
_cell_angle_gamma    89.6559

_symmetry_space_group_name_H-M    "P 1"
_symmetry_int_tables_number       1

loop_
  _symmetry_equiv_pos_as_xyz
  'x, y, z'

loop_
  _atom_site_label
  _atom_site_occupancy
  _atom_site_fract_x
  _atom_site_fract_y
  _atom_site_fract_z
  _atom_site_thermal_displace_type
  _atom_site_B_iso_or_equiv
  _atom_site_type_symbol
  Zr1      1.0000 0.12971  0.01807  0.28798  Biso   1.000  Zr
  Zr2      1.0000 0.13274  0.22726  0.78000  Biso   1.000  Zr
  Zr3      1.0000 0.34230  0.26638  0.19483  Biso   1.000  Zr
  Zr4      1.0000 0.35405  0.48408  0.70581  Biso   1.000  Zr
  O1       1.0000 0.03342  0.16859  0.15939  Biso   1.000  O
  O2       1.0000 0.02643  0.08128  0.66298  Biso   1.000  O
  O3       1.0000 0.46348  0.43121  0.33495  Biso   1.000  O
  O4       1.0000 0.46823  0.34332  0.86392  Biso   1.000  O
  O5       1.0000 0.25805  0.11932  0.46697  Biso   1.000  O
  O6       1.0000 0.26952  0.12229  0.96479  Biso   1.000  O
  O7       1.0000 0.21743  0.38200  0.00280  Biso   1.000  O
  O8       1.0000 0.21594  0.37223  0.50763  Biso   1.000  O
  Zr5      1.0000 0.13708  0.52262  0.29008  Biso   1.000  Zr
  Zr6      1.0000 0.13555  0.72947  0.79444  Biso   1.000  Zr
  Zr7      1.0000 0.35992  0.77220  0.20988  Biso   1.000  Zr
  Zr8      1.0000 0.35604  0.97455  0.70550  Biso   1.000  Zr
  O9       1.0000 0.03037  0.66683  0.15972  Biso   1.000  O
  O10      1.0000 0.03423  0.58587  0.65777  Biso   1.000  O
  O11      1.0000 0.46393  0.91661  0.34248  Biso   1.000  O
  O12      1.0000 0.46046  0.82862  0.84285  Biso   1.000  O
  O13      1.0000 0.27301  0.62803  0.48208  Biso   1.000  O
  O14      1.0000 0.27229  0.62365  0.98260  Biso   1.000  O
  O15      1.0000 0.22175  0.87828  0.01896  Biso   1.000  O
  O16      1.0000 0.22147  0.86827  0.51768  Biso   1.000  O
  Zr9      1.0000 0.64029  0.01593  0.30439  Biso   1.000  Zr
  Zr10     1.0000 0.65204  0.23362  0.81537  Biso   1.000  Zr
  Zr11     1.0000 0.86161  0.27274  0.23020  Biso   1.000  Zr
  Zr12     1.0000 0.86463  0.48193  0.72222  Biso   1.000  Zr
  O17      1.0000 0.52611  0.15669  0.14629  Biso   1.000  O
  O18      1.0000 0.53087  0.06879  0.67526  Biso   1.000  O
  O19      1.0000 0.96791  0.41873  0.34723  Biso   1.000  O
  O20      1.0000 0.96093  0.33141  0.85080  Biso   1.000  O
  O21      1.0000 0.77840  0.12777  0.50257  Biso   1.000  O
  O22      1.0000 0.77692  0.11800  0.00740  Biso   1.000  O
  O23      1.0000 0.72482  0.37771  0.04541  Biso   1.000  O
  O24      1.0000 0.73629  0.38068  0.54324  Biso   1.000  O
  Zr13     1.0000 0.63830  0.52545  0.30470  Biso   1.000  Zr
  Zr14     1.0000 0.63442  0.72780  0.80033  Biso   1.000  Zr
  Zr15     1.0000 0.85879  0.77053  0.21577  Biso   1.000  Zr
  Zr16     1.0000 0.85726  0.97738  0.72012  Biso   1.000  Zr
  O25      1.0000 0.53388  0.67139  0.16735  Biso   1.000  O
  O26      1.0000 0.53041  0.58339  0.66772  Biso   1.000  O
  O27      1.0000 0.96011  0.91414  0.35243  Biso   1.000  O
  O28      1.0000 0.96397  0.83318  0.85050  Biso   1.000  O
  O29      1.0000 0.77287  0.63174  0.49252  Biso   1.000  O
  O30      1.0000 0.77259  0.62172  0.99125  Biso   1.000  O
  O31      1.0000 0.72205  0.87635  0.02760  Biso   1.000  O
  O32      1.0000 0.72133  0.87198  0.52813  Biso   1.000  O
  Ge1      1.0000 0.49716  0.25001  0.50512  Biso   1.000  Ge
