data_image0
_cell_length_a       10.0733
_cell_length_b       10.4571
_cell_length_c       10.1251
_cell_angle_alpha    89.829
_cell_angle_beta     90.0175
_cell_angle_gamma    90.6176

_symmetry_space_group_name_H-M    "P 1"
_symmetry_int_tables_number       1

loop_
  _symmetry_equiv_pos_as_xyz
  'x, y, z'

loop_
  _atom_site_label
  _atom_site_occupancy
  _atom_site_fract_x
  _atom_site_fract_y
  _atom_site_fract_z
  _atom_site_thermal_displace_type
  _atom_site_B_iso_or_equiv
  _atom_site_type_symbol
  Zr1      1.0000 0.14127  0.01424  0.11978  Biso   1.000  Zr
  Zr2      1.0000 0.13294  0.22757  0.39856  Biso   1.000  Zr
  Zr3      1.0000 0.37084  0.26033  0.11756  Biso   1.000  Zr
  Zr4      1.0000 0.37014  0.48567  0.37387  Biso   1.000  Zr
  Zr5      1.0000 0.00722  0.17265  0.23673  Biso   1.000  Zr
  Zr6      1.0000 0.03761  0.06088  0.45755  Biso   1.000  Zr
  Zr7      1.0000 0.45725  0.43188  0.19388  Biso   1.000  Zr
  Zr8      1.0000 0.46430  0.31640  0.44415  Biso   1.000  Zr
  Zr9      1.0000 0.26581  0.11520  0.25390  Biso   1.000  Zr
  Zr10     1.0000 0.27563  0.12907  0.50408  Biso   1.000  Zr
  Zr11     1.0000 0.23442  0.38348  0.49708  Biso   1.000  Zr
  Zr12     1.0000 0.21019  0.35788  0.24344  Biso   1.000  Zr
  Zr13     1.0000 0.13884  0.00966  0.62994  Biso   1.000  Zr
  Zr14     1.0000 0.13860  0.22811  0.86636  Biso   1.000  Zr
  Zr15     1.0000 0.37155  0.26612  0.62680  Biso   1.000  Zr
  Zr16     1.0000 0.36945  0.48704  0.87214  Biso   1.000  Zr
  Zr17     1.0000 0.04223  0.18220  0.68659  Biso   1.000  Zr
  Zr18     1.0000 0.04120  0.06193  0.94201  Biso   1.000  Zr
  Zr19     1.0000 0.46592  0.43413  0.69360  Biso   1.000  Zr
  Zr20     1.0000 0.46900  0.31516  0.93995  Biso   1.000  Zr
  Zr21     1.0000 0.27280  0.11459  0.74831  Biso   1.000  Zr
  Zr22     1.0000 0.29285  0.11992  0.98924  Biso   1.000  Zr
  Zr23     1.0000 0.23988  0.38940  0.99544  Biso   1.000  Zr
  Zr24     1.0000 0.23198  0.36606  0.74576  Biso   1.000  Zr
  Zr25     1.0000 0.12529  0.52607  0.12238  Biso   1.000  Zr
  Zr26     1.0000 0.13414  0.73534  0.37658  Biso   1.000  Zr
  Zr27     1.0000 0.36532  0.76375  0.12592  Biso   1.000  Zr
  Zr28     1.0000 0.36733  0.98352  0.37522  Biso   1.000  Zr
  Zr29     1.0000 0.03402  0.68782  0.19600  Biso   1.000  Zr
  Zr30     1.0000 0.03489  0.56955  0.44506  Biso   1.000  Zr
  Zr31     1.0000 0.46499  0.93230  0.19538  Biso   1.000  Zr
  Zr32     1.0000 0.46632  0.81611  0.44501  Biso   1.000  Zr
  Zr33     1.0000 0.26676  0.61424  0.24888  Biso   1.000  Zr
  Zr34     1.0000 0.27027  0.63297  0.49773  Biso   1.000  Zr
  Zr35     1.0000 0.23280  0.88166  0.49935  Biso   1.000  Zr
  Zr36     1.0000 0.23308  0.86500  0.24887  Biso   1.000  Zr
  Zr37     1.0000 0.13441  0.51549  0.62279  Biso   1.000  Zr
  Zr38     1.0000 0.13265  0.73516  0.87314  Biso   1.000  Zr
  Zr39     1.0000 0.36982  0.76318  0.62403  Biso   1.000  Zr
  Zr40     1.0000 0.37369  0.97865  0.87353  Biso   1.000  Zr
  Zr41     1.0000 0.03780  0.68502  0.69207  Biso   1.000  Zr
  Zr42     1.0000 0.03326  0.56593  0.94379  Biso   1.000  Zr
  Zr43     1.0000 0.46987  0.93107  0.69210  Biso   1.000  Zr
  Zr44     1.0000 0.46930  0.81506  0.94865  Biso   1.000  Zr
  Zr45     1.0000 0.26876  0.61534  0.74787  Biso   1.000  Zr
  Zr46     1.0000 0.26658  0.63621  0.99739  Biso   1.000  Zr
  Zr47     1.0000 0.23231  0.88007  0.99850  Biso   1.000  Zr
  Zr48     1.0000 0.23695  0.86324  0.74909  Biso   1.000  Zr
  Zr49     1.0000 0.63283  0.01446  0.12449  Biso   1.000  Zr
  Zr50     1.0000 0.63280  0.23247  0.37949  Biso   1.000  Zr
  Zr51     1.0000 0.84715  0.27316  0.12675  Biso   1.000  Zr
  Zr52     1.0000 0.86475  0.48699  0.37925  Biso   1.000  Zr
  Zr53     1.0000 0.53304  0.18053  0.19490  Biso   1.000  Zr
  Zr54     1.0000 0.53665  0.06533  0.44598  Biso   1.000  Zr
  Zr55     1.0000 0.94326  0.45018  0.19910  Biso   1.000  Zr
  Zr56     1.0000 0.96902  0.32172  0.45517  Biso   1.000  Zr
  Zr57     1.0000 0.76127  0.11874  0.24990  Biso   1.000  Zr
  Zr58     1.0000 0.77348  0.13613  0.49933  Biso   1.000  Zr
  Zr59     1.0000 0.72997  0.38238  0.50084  Biso   1.000  Zr
  Zr60     1.0000 0.71862  0.37113  0.25248  Biso   1.000  Zr
  Zr61     1.0000 0.63891  0.01537  0.62443  Biso   1.000  Zr
  Zr62     1.0000 0.63691  0.23231  0.87402  Biso   1.000  Zr
  Zr63     1.0000 0.86882  0.26869  0.63136  Biso   1.000  Zr
  Zr64     1.0000 0.86479  0.48292  0.87256  Biso   1.000  Zr
  Zr65     1.0000 0.53927  0.18286  0.69270  Biso   1.000  Zr
  Zr66     1.0000 0.54496  0.06256  0.94013  Biso   1.000  Zr
  Zr67     1.0000 0.96143  0.44113  0.68884  Biso   1.000  Zr
  Zr68     1.0000 0.95090  0.30896  0.90851  Biso   1.000  Zr
  Zr69     1.0000 0.77316  0.11635  0.74946  Biso   1.000  Zr
  Zr70     1.0000 0.77239  0.13277  0.00080  Biso   1.000  Zr
  Zr71     1.0000 0.72676  0.38409  0.00069  Biso   1.000  Zr
  Zr72     1.0000 0.72651  0.36977  0.74821  Biso   1.000  Zr
  Zr73     1.0000 0.63090  0.51909  0.12897  Biso   1.000  Zr
  Zr74     1.0000 0.63585  0.73797  0.37628  Biso   1.000  Zr
  Zr75     1.0000 0.86477  0.76702  0.12659  Biso   1.000  Zr
  Zr76     1.0000 0.87168  0.99044  0.37004  Biso   1.000  Zr
  Zr77     1.0000 0.53180  0.68200  0.19934  Biso   1.000  Zr
  Zr78     1.0000 0.53355  0.56744  0.44669  Biso   1.000  Zr
  Zr79     1.0000 0.96763  0.93440  0.19168  Biso   1.000  Zr
  Zr80     1.0000 0.96582  0.81861  0.44350  Biso   1.000  Zr
  Zr81     1.0000 0.76469  0.62221  0.25316  Biso   1.000  Zr
  Zr82     1.0000 0.76718  0.63584  0.50080  Biso   1.000  Zr
  Zr83     1.0000 0.73582  0.88711  0.49725  Biso   1.000  Zr
  Zr84     1.0000 0.73164  0.86965  0.24848  Biso   1.000  Zr
  Zr85     1.0000 0.63610  0.51626  0.62588  Biso   1.000  Zr
  Zr86     1.0000 0.63672  0.73399  0.87625  Biso   1.000  Zr
  Zr87     1.0000 0.86926  0.76772  0.62446  Biso   1.000  Zr
  Zr88     1.0000 0.86776  0.98355  0.87695  Biso   1.000  Zr
  Zr89     1.0000 0.53516  0.68127  0.69856  Biso   1.000  Zr
  Zr90     1.0000 0.53420  0.56797  0.94907  Biso   1.000  Zr
  Zr91     1.0000 0.96941  0.93092  0.70135  Biso   1.000  Zr
  Zr92     1.0000 0.96480  0.81438  0.94560  Biso   1.000  Zr
  Zr93     1.0000 0.77036  0.61861  0.74958  Biso   1.000  Zr
  Zr94     1.0000 0.76768  0.63268  0.00159  Biso   1.000  Zr
  Zr95     1.0000 0.73278  0.88227  0.99953  Biso   1.000  Zr
  Zr96     1.0000 0.73344  0.86686  0.74846  Biso   1.000  Zr
  Ge1      1.0000 0.10085  0.27372  0.11600  Biso   1.000  Ge
