data_image0
_cell_length_a       10.2419
_cell_length_b       10.5515
_cell_length_c       5.11517
_cell_angle_alpha    94.3263
_cell_angle_beta     89.3287
_cell_angle_gamma    88.8596

_symmetry_space_group_name_H-M    "P 1"
_symmetry_int_tables_number       1

loop_
  _symmetry_equiv_pos_as_xyz
  'x, y, z'

loop_
  _atom_site_label
  _atom_site_occupancy
  _atom_site_fract_x
  _atom_site_fract_y
  _atom_site_fract_z
  _atom_site_thermal_displace_type
  _atom_site_B_iso_or_equiv
  _atom_site_type_symbol
  Zr1      1.0000 0.11641  0.00695  0.28920  Biso   1.000  Zr
  Zr2      1.0000 0.11720  0.24077  0.80146  Biso   1.000  Zr
  Zr3      1.0000 0.34960  0.26730  0.27496  Biso   1.000  Zr
  Zr4      1.0000 0.35558  0.01037  0.78557  Biso   1.000  Zr
  Zr5      1.0000 0.99401  0.18389  0.12113  Biso   1.000  Zr
  Zr6      1.0000 0.02379  0.07523  0.62491  Biso   1.000  Zr
  Zr7      1.0000 0.93713  0.29476  0.59220  Biso   1.000  Zr
  Zr8      1.0000 0.04717  0.43866  0.86548  Biso   1.000  Zr
  Zr9      1.0000 0.27444  0.15517  0.57071  Biso   1.000  Zr
  Zr10     1.0000 0.23165  0.11613  0.05351  Biso   1.000  Zr
  Zr11     1.0000 0.26402  0.36062  0.96588  Biso   1.000  Zr
  Zr12     1.0000 0.28583  0.44388  0.44207  Biso   1.000  Zr
  Zr13     1.0000 0.15050  0.53383  0.16547  Biso   1.000  Zr
  Zr14     1.0000 0.14077  0.75382  0.69655  Biso   1.000  Zr
  Zr15     1.0000 0.37556  0.76170  0.17695  Biso   1.000  Zr
  Zr16     1.0000 0.40957  0.48314  0.74608  Biso   1.000  Zr
  Zr17     1.0000 0.03057  0.68083  0.98658  Biso   1.000  Zr
  Zr18     1.0000 0.01316  0.60211  0.45511  Biso   1.000  Zr
  Zr19     1.0000 0.99260  0.84555  0.52622  Biso   1.000  Zr
  Zr20     1.0000 0.97179  0.92954  0.06936  Biso   1.000  Zr
  Zr21     1.0000 0.24892  0.67488  0.39826  Biso   1.000  Zr
  Zr22     1.0000 0.27665  0.62243  0.90271  Biso   1.000  Zr
  Zr23     1.0000 0.23792  0.87079  0.98494  Biso   1.000  Zr
  Zr24     1.0000 0.25345  0.90753  0.49275  Biso   1.000  Zr
  Zr25     1.0000 0.61317  0.97816  0.26610  Biso   1.000  Zr
  Zr26     1.0000 0.59894  0.22100  0.80321  Biso   1.000  Zr
  Zr27     1.0000 0.81450  0.23910  0.27504  Biso   1.000  Zr
  Zr28     1.0000 0.86008  0.98369  0.75742  Biso   1.000  Zr
  Zr29     1.0000 0.48180  0.13758  0.06439  Biso   1.000  Zr
  Zr30     1.0000 0.51308  0.06206  0.57302  Biso   1.000  Zr
  Zr31     1.0000 0.49039  0.31323  0.55000  Biso   1.000  Zr
  Zr32     1.0000 0.50488  0.38741  0.03951  Biso   1.000  Zr
  Zr33     1.0000 0.74228  0.12700  0.53851  Biso   1.000  Zr
  Zr34     1.0000 0.73254  0.08959  0.02770  Biso   1.000  Zr
  Zr35     1.0000 0.74292  0.33915  0.98044  Biso   1.000  Zr
  Zr36     1.0000 0.74062  0.40434  0.46871  Biso   1.000  Zr
  Zr37     1.0000 0.64952  0.50634  0.19739  Biso   1.000  Zr
  Zr38     1.0000 0.62619  0.73755  0.70662  Biso   1.000  Zr
  Zr39     1.0000 0.88182  0.75347  0.22360  Biso   1.000  Zr
  Zr40     1.0000 0.88870  0.49945  0.67441  Biso   1.000  Zr
  Zr41     1.0000 0.52228  0.63945  0.99625  Biso   1.000  Zr
  Zr42     1.0000 0.53033  0.57557  0.51162  Biso   1.000  Zr
  Zr43     1.0000 0.51280  0.82111  0.44124  Biso   1.000  Zr
  Zr44     1.0000 0.49372  0.89018  0.96799  Biso   1.000  Zr
  Zr45     1.0000 0.76520  0.64522  0.46089  Biso   1.000  Zr
  Zr46     1.0000 0.78138  0.59410  0.96536  Biso   1.000  Zr
  Zr47     1.0000 0.74754  0.83929  0.97804  Biso   1.000  Zr
  Zr48     1.0000 0.74816  0.88479  0.48740  Biso   1.000  Zr
  Ge1      1.0000 0.06892  0.32122  0.34770  Biso   1.000  Ge
