data_image0
_cell_length_a       10.2751
_cell_length_b       10.3709
_cell_length_c       10.5363
_cell_angle_alpha    89.9494
_cell_angle_beta     79.6209
_cell_angle_gamma    89.8479

_symmetry_space_group_name_H-M    "P 1"
_symmetry_int_tables_number       1

loop_
  _symmetry_equiv_pos_as_xyz
  'x, y, z'

loop_
  _atom_site_label
  _atom_site_occupancy
  _atom_site_fract_x
  _atom_site_fract_y
  _atom_site_fract_z
  _atom_site_thermal_displace_type
  _atom_site_B_iso_or_equiv
  _atom_site_type_symbol
  Zr1      1.0000 0.13091  0.01825  0.14400  Biso   1.000  Zr
  Zr2      1.0000 0.13840  0.22694  0.39250  Biso   1.000  Zr
  Zr3      1.0000 0.34181  0.26664  0.09705  Biso   1.000  Zr
  Zr4      1.0000 0.35546  0.48321  0.35247  Biso   1.000  Zr
  O1       1.0000 0.03135  0.16840  0.07900  Biso   1.000  O
  O2       1.0000 0.02987  0.08029  0.33221  Biso   1.000  O
  O3       1.0000 0.46256  0.43081  0.16220  Biso   1.000  O
  O4       1.0000 0.47452  0.34501  0.43010  Biso   1.000  O
  O5       1.0000 0.26058  0.11963  0.23524  Biso   1.000  O
  O6       1.0000 0.27713  0.12243  0.48684  Biso   1.000  O
  O7       1.0000 0.21537  0.38234  0.00377  Biso   1.000  O
  O8       1.0000 0.21620  0.37304  0.25605  Biso   1.000  O
  Zr5      1.0000 0.13765  0.02126  0.64482  Biso   1.000  Zr
  Zr6      1.0000 0.13282  0.22894  0.89211  Biso   1.000  Zr
  Zr7      1.0000 0.36155  0.27207  0.60466  Biso   1.000  Zr
  Zr8      1.0000 0.35961  0.47840  0.85450  Biso   1.000  Zr
  O9       1.0000 0.03721  0.16876  0.57991  Biso   1.000  O
  O10      1.0000 0.03119  0.08252  0.82844  Biso   1.000  O
  O11      1.0000 0.46600  0.41612  0.67480  Biso   1.000  O
  O12      1.0000 0.46063  0.33127  0.92214  Biso   1.000  O
  O13      1.0000 0.27293  0.12809  0.73762  Biso   1.000  O
  O14      1.0000 0.26737  0.12098  0.98504  Biso   1.000  O
  O15      1.0000 0.22656  0.37836  0.50638  Biso   1.000  O
  O16      1.0000 0.22383  0.37087  0.75685  Biso   1.000  O
  Zr9      1.0000 0.13796  0.52318  0.14409  Biso   1.000  Zr
  Zr10     1.0000 0.13748  0.72969  0.39663  Biso   1.000  Zr
  Zr11     1.0000 0.36082  0.77263  0.10442  Biso   1.000  Zr
  Zr12     1.0000 0.35805  0.97533  0.35436  Biso   1.000  Zr
  O17      1.0000 0.03310  0.66901  0.07870  Biso   1.000  O
  O18      1.0000 0.03621  0.58547  0.32810  Biso   1.000  O
  O19      1.0000 0.46509  0.91734  0.17222  Biso   1.000  O
  O20      1.0000 0.46069  0.82723  0.42152  Biso   1.000  O
  O21      1.0000 0.27555  0.62894  0.24080  Biso   1.000  O
  O22      1.0000 0.27285  0.62167  0.49094  Biso   1.000  O
  O23      1.0000 0.22382  0.87829  0.00896  Biso   1.000  O
  O24      1.0000 0.22224  0.86839  0.25878  Biso   1.000  O
  Zr13     1.0000 0.13788  0.52134  0.64604  Biso   1.000  Zr
  Zr14     1.0000 0.13716  0.72842  0.89584  Biso   1.000  Zr
  Zr15     1.0000 0.36036  0.77116  0.60514  Biso   1.000  Zr
  Zr16     1.0000 0.35955  0.97813  0.85309  Biso   1.000  Zr
  O25      1.0000 0.03223  0.66642  0.58057  Biso   1.000  O
  O26      1.0000 0.03316  0.58214  0.83019  Biso   1.000  O
  O27      1.0000 0.46462  0.91697  0.67065  Biso   1.000  O
  O28      1.0000 0.46495  0.83393  0.92093  Biso   1.000  O
  O29      1.0000 0.27348  0.62784  0.74029  Biso   1.000  O
  O30      1.0000 0.27535  0.62302  0.99047  Biso   1.000  O
  O31      1.0000 0.22240  0.87875  0.51014  Biso   1.000  O
  O32      1.0000 0.22345  0.87128  0.75960  Biso   1.000  O
  Zr17     1.0000 0.64163  0.01679  0.14992  Biso   1.000  Zr
  Zr18     1.0000 0.65527  0.23337  0.40535  Biso   1.000  Zr
  Zr19     1.0000 0.85868  0.27307  0.10989  Biso   1.000  Zr
  Zr20     1.0000 0.86617  0.48176  0.35839  Biso   1.000  Zr
  O33      1.0000 0.52256  0.15500  0.07230  Biso   1.000  O
  O34      1.0000 0.53451  0.06921  0.34018  Biso   1.000  O
  O35      1.0000 0.96721  0.41972  0.17019  Biso   1.000  O
  O36      1.0000 0.96573  0.33161  0.42340  Biso   1.000  O
  O37      1.0000 0.78088  0.12697  0.24635  Biso   1.000  O
  O38      1.0000 0.78171  0.11767  0.49863  Biso   1.000  O
  O39      1.0000 0.71995  0.37758  0.01555  Biso   1.000  O
  O40      1.0000 0.73650  0.38039  0.26716  Biso   1.000  O
  Zr21     1.0000 0.63746  0.02161  0.64790  Biso   1.000  Zr
  Zr22     1.0000 0.63553  0.22794  0.89774  Biso   1.000  Zr
  Zr23     1.0000 0.86425  0.27107  0.61029  Biso   1.000  Zr
  Zr24     1.0000 0.85943  0.47875  0.85758  Biso   1.000  Zr
  O41      1.0000 0.53645  0.16874  0.58025  Biso   1.000  O
  O42      1.0000 0.53108  0.08389  0.82760  Biso   1.000  O
  O43      1.0000 0.96589  0.41749  0.67396  Biso   1.000  O
  O44      1.0000 0.95987  0.33125  0.92249  Biso   1.000  O
  O45      1.0000 0.77325  0.12914  0.74555  Biso   1.000  O
  O46      1.0000 0.77052  0.12164  0.99602  Biso   1.000  O
  O47      1.0000 0.72971  0.37903  0.51736  Biso   1.000  O
  O48      1.0000 0.72415  0.37192  0.76478  Biso   1.000  O
  Zr25     1.0000 0.63903  0.52468  0.14804  Biso   1.000  Zr
  Zr26     1.0000 0.63626  0.72738  0.39797  Biso   1.000  Zr
  Zr27     1.0000 0.85960  0.77032  0.10576  Biso   1.000  Zr
  Zr28     1.0000 0.85912  0.97683  0.35830  Biso   1.000  Zr
  O49      1.0000 0.53639  0.67279  0.08087  Biso   1.000  O
  O50      1.0000 0.53199  0.58267  0.33018  Biso   1.000  O
  O51      1.0000 0.96087  0.91454  0.17429  Biso   1.000  O
  O52      1.0000 0.96398  0.83100  0.42370  Biso   1.000  O
  O53      1.0000 0.77484  0.63162  0.24362  Biso   1.000  O
  O54      1.0000 0.77326  0.62172  0.49343  Biso   1.000  O
  O55      1.0000 0.72423  0.87833  0.01146  Biso   1.000  O
  O56      1.0000 0.72153  0.87107  0.26159  Biso   1.000  O
  Zr29     1.0000 0.63753  0.52188  0.64931  Biso   1.000  Zr
  Zr30     1.0000 0.63672  0.72884  0.89726  Biso   1.000  Zr
  Zr31     1.0000 0.85992  0.77158  0.60655  Biso   1.000  Zr
  Zr32     1.0000 0.85920  0.97867  0.85636  Biso   1.000  Zr
  O57      1.0000 0.53213  0.66608  0.58146  Biso   1.000  O
  O58      1.0000 0.53246  0.58304  0.83175  Biso   1.000  O
  O59      1.0000 0.96392  0.91787  0.67221  Biso   1.000  O
  O60      1.0000 0.96485  0.83359  0.92182  Biso   1.000  O
  O61      1.0000 0.77363  0.62873  0.74279  Biso   1.000  O
  O62      1.0000 0.77468  0.62126  0.99225  Biso   1.000  O
  O63      1.0000 0.72173  0.87699  0.51193  Biso   1.000  O
  O64      1.0000 0.72359  0.87217  0.76210  Biso   1.000  O
  Ge1      1.0000 0.49854  0.24999  0.25120  Biso   1.000  Ge
