data_image0
_cell_length_a       5.01391
_cell_length_b       10.4218
_cell_length_c       10.0582
_cell_angle_alpha    89.9803
_cell_angle_beta     89.9624
_cell_angle_gamma    89.9962

_symmetry_space_group_name_H-M    "P 1"
_symmetry_int_tables_number       1

loop_
  _symmetry_equiv_pos_as_xyz
  'x, y, z'

loop_
  _atom_site_label
  _atom_site_occupancy
  _atom_site_fract_x
  _atom_site_fract_y
  _atom_site_fract_z
  _atom_site_thermal_displace_type
  _atom_site_B_iso_or_equiv
  _atom_site_type_symbol
  Hf1      1.0000 0.26876  0.01627  0.12557  Biso   1.000  Hf
  Zr1      1.0000 0.26790  0.01566  0.62579  Biso   1.000  Zr
  Zr2      1.0000 0.26819  0.51583  0.12583  Biso   1.000  Zr
  Zr3      1.0000 0.26769  0.51580  0.62571  Biso   1.000  Zr
  Zr4      1.0000 0.26796  0.23418  0.37569  Biso   1.000  Zr
  Zr5      1.0000 0.26753  0.23412  0.87604  Biso   1.000  Zr
  Zr6      1.0000 0.26802  0.73460  0.37544  Biso   1.000  Zr
  Zr7      1.0000 0.26740  0.73437  0.87586  Biso   1.000  Zr
  Zr8      1.0000 0.73293  0.26553  0.12582  Biso   1.000  Zr
  Zr9      1.0000 0.73228  0.26568  0.62587  Biso   1.000  Zr
  Zr10     1.0000 0.73266  0.76620  0.12570  Biso   1.000  Zr
  Zr11     1.0000 0.73229  0.76579  0.62575  Biso   1.000  Zr
  Zr12     1.0000 0.73261  0.48436  0.37578  Biso   1.000  Zr
  Zr13     1.0000 0.73209  0.48437  0.87574  Biso   1.000  Zr
  Zr14     1.0000 0.73309  0.98444  0.37530  Biso   1.000  Zr
  Zr15     1.0000 0.73241  0.98433  0.87602  Biso   1.000  Zr
  Zr16     1.0000 0.07220  0.18309  0.19403  Biso   1.000  Zr
  Zr17     1.0000 0.07116  0.18367  0.69494  Biso   1.000  Zr
  Zr18     1.0000 0.07168  0.68379  0.19410  Biso   1.000  Zr
  Zr19     1.0000 0.07150  0.68396  0.69425  Biso   1.000  Zr
  Zr20     1.0000 0.07149  0.06622  0.44464  Biso   1.000  Zr
  Zr21     1.0000 0.07139  0.06551  0.94588  Biso   1.000  Zr
  Zr22     1.0000 0.07187  0.56621  0.44412  Biso   1.000  Zr
  Zr23     1.0000 0.07171  0.56581  0.94422  Biso   1.000  Zr
  Zr24     1.0000 0.92901  0.43357  0.19430  Biso   1.000  Zr
  Zr25     1.0000 0.92811  0.43396  0.69414  Biso   1.000  Zr
  Zr26     1.0000 0.93084  0.93379  0.19379  Biso   1.000  Zr
  Zr27     1.0000 0.92845  0.93397  0.69439  Biso   1.000  Zr
  Zr28     1.0000 0.92868  0.31605  0.44428  Biso   1.000  Zr
  Zr29     1.0000 0.92779  0.31573  0.94414  Biso   1.000  Zr
  Zr30     1.0000 0.92846  0.81611  0.44406  Biso   1.000  Zr
  Zr31     1.0000 0.92629  0.81552  0.94357  Biso   1.000  Zr
  Zr32     1.0000 0.53855  0.11663  0.24885  Biso   1.000  Zr
  Zr33     1.0000 0.53916  0.11705  0.74943  Biso   1.000  Zr
  Zr34     1.0000 0.53986  0.61739  0.24919  Biso   1.000  Zr
  Zr35     1.0000 0.53908  0.61712  0.74922  Biso   1.000  Zr
  Zr36     1.0000 0.53957  0.13300  0.49912  Biso   1.000  Zr
  Zr37     1.0000 0.53820  0.13253  0.99975  Biso   1.000  Zr
  Zr38     1.0000 0.53934  0.63306  0.49914  Biso   1.000  Zr
  Zr39     1.0000 0.53922  0.63306  0.99922  Biso   1.000  Zr
  Zr40     1.0000 0.46081  0.38295  0.49921  Biso   1.000  Zr
  Zr41     1.0000 0.46061  0.38276  0.99926  Biso   1.000  Zr
  Zr42     1.0000 0.46104  0.88309  0.49892  Biso   1.000  Zr
  Zr43     1.0000 0.45845  0.88354  0.99957  Biso   1.000  Zr
  Zr44     1.0000 0.46124  0.36705  0.24921  Biso   1.000  Zr
  Zr45     1.0000 0.46033  0.36701  0.74929  Biso   1.000  Zr
  Zr46     1.0000 0.45990  0.86804  0.24849  Biso   1.000  Zr
  Zr47     1.0000 0.46054  0.86707  0.74921  Biso   1.000  Zr
