data_image0
_cell_length_a       10.0584
_cell_length_b       5.10994
_cell_length_c       10.0584
_cell_angle_alpha    90.0023
_cell_angle_beta     89.9971
_cell_angle_gamma    90.0025

_symmetry_space_group_name_H-M    "P 1"
_symmetry_int_tables_number       1

loop_
  _symmetry_equiv_pos_as_xyz
  'x, y, z'

loop_
  _atom_site_label
  _atom_site_occupancy
  _atom_site_fract_x
  _atom_site_fract_y
  _atom_site_fract_z
  _atom_site_thermal_displace_type
  _atom_site_B_iso_or_equiv
  _atom_site_type_symbol
  Hf1      1.0000 0.12503  0.99967  0.12504  Biso   1.000  Hf
  Zr1      1.0000 0.12503  0.99968  0.62504  Biso   1.000  Zr
  Zr2      1.0000 0.62503  0.99968  0.12504  Biso   1.000  Zr
  Zr3      1.0000 0.62503  0.99968  0.62504  Biso   1.000  Zr
  Zr4      1.0000 0.12502  0.49969  0.37486  Biso   1.000  Zr
  Zr5      1.0000 0.12502  0.49969  0.87519  Biso   1.000  Zr
  Zr6      1.0000 0.62502  0.49968  0.37508  Biso   1.000  Zr
  Zr7      1.0000 0.62502  0.49970  0.87497  Biso   1.000  Zr
  Zr8      1.0000 0.37486  0.49968  0.12503  Biso   1.000  Zr
  Zr9      1.0000 0.37508  0.49968  0.62503  Biso   1.000  Zr
  Zr10     1.0000 0.87518  0.49969  0.12503  Biso   1.000  Zr
  Zr11     1.0000 0.87496  0.49969  0.62503  Biso   1.000  Zr
  Zr12     1.0000 0.37491  0.99945  0.37492  Biso   1.000  Zr
  Zr13     1.0000 0.37491  0.99991  0.87517  Biso   1.000  Zr
  Zr14     1.0000 0.87516  0.99991  0.37491  Biso   1.000  Zr
  Zr15     1.0000 0.87516  0.99947  0.87516  Biso   1.000  Zr
  Zr16     1.0000 0.99993  0.29245  0.99993  Biso   1.000  Zr
  Zr17     1.0000 0.99958  0.29240  0.49939  Biso   1.000  Zr
  Zr18     1.0000 0.49938  0.29240  0.99959  Biso   1.000  Zr
  Zr19     1.0000 0.49975  0.29218  0.49975  Biso   1.000  Zr
  Zr20     1.0000 0.00081  0.20553  0.24922  Biso   1.000  Zr
  Zr21     1.0000 0.00017  0.20706  0.74975  Biso   1.000  Zr
  Zr22     1.0000 0.50029  0.20706  0.24986  Biso   1.000  Zr
  Zr23     1.0000 0.50016  0.20715  0.74988  Biso   1.000  Zr
  Zr24     1.0000 0.99995  0.70692  0.25010  Biso   1.000  Zr
  Zr25     1.0000 0.99959  0.70697  0.75066  Biso   1.000  Zr
  Zr26     1.0000 0.49940  0.70696  0.25046  Biso   1.000  Zr
  Zr27     1.0000 0.49976  0.70718  0.75030  Biso   1.000  Zr
  Zr28     1.0000 0.00082  0.79384  0.00082  Biso   1.000  Zr
  Zr29     1.0000 0.00018  0.79232  0.50030  Biso   1.000  Zr
  Zr30     1.0000 0.50030  0.79232  0.00018  Biso   1.000  Zr
  Zr31     1.0000 0.50017  0.79223  0.50017  Biso   1.000  Zr
  Zr32     1.0000 0.25010  0.29245  0.25010  Biso   1.000  Zr
  Zr33     1.0000 0.25045  0.29238  0.75066  Biso   1.000  Zr
  Zr34     1.0000 0.75065  0.29238  0.25046  Biso   1.000  Zr
  Zr35     1.0000 0.75029  0.29217  0.75030  Biso   1.000  Zr
  Zr36     1.0000 0.24922  0.20553  0.00082  Biso   1.000  Zr
  Zr37     1.0000 0.24986  0.20706  0.50030  Biso   1.000  Zr
  Zr38     1.0000 0.74974  0.20707  0.00018  Biso   1.000  Zr
  Zr39     1.0000 0.74988  0.20715  0.50017  Biso   1.000  Zr
  Zr40     1.0000 0.25010  0.70692  0.99996  Biso   1.000  Zr
  Zr41     1.0000 0.25046  0.70697  0.49940  Biso   1.000  Zr
  Zr42     1.0000 0.75066  0.70698  0.99960  Biso   1.000  Zr
  Zr43     1.0000 0.75029  0.70718  0.49976  Biso   1.000  Zr
  Zr44     1.0000 0.24923  0.79385  0.24924  Biso   1.000  Zr
  Zr45     1.0000 0.24987  0.79231  0.74976  Biso   1.000  Zr
  Zr46     1.0000 0.74976  0.79230  0.24987  Biso   1.000  Zr
  Zr47     1.0000 0.74988  0.79222  0.74989  Biso   1.000  Zr
