data_image0
_cell_length_a       10.2523
_cell_length_b       10.3679
_cell_length_c       10.5835
_cell_angle_alpha    90.1208
_cell_angle_beta     79.8621
_cell_angle_gamma    89.9092

_symmetry_space_group_name_H-M    "P 1"
_symmetry_int_tables_number       1

loop_
  _symmetry_equiv_pos_as_xyz
  'x, y, z'

loop_
  _atom_site_label
  _atom_site_occupancy
  _atom_site_fract_x
  _atom_site_fract_y
  _atom_site_fract_z
  _atom_site_thermal_displace_type
  _atom_site_B_iso_or_equiv
  _atom_site_type_symbol
  Zr1      1.0000 0.13065  0.02098  0.14219  Biso   1.000  Zr
  Zr2      1.0000 0.13670  0.22750  0.39182  Biso   1.000  Zr
  Zr3      1.0000 0.35303  0.27438  0.09608  Biso   1.000  Zr
  Zr4      1.0000 0.36412  0.47814  0.35070  Biso   1.000  Zr
  O1       1.0000 0.03008  0.16641  0.07418  Biso   1.000  O
  O2       1.0000 0.02648  0.08331  0.32836  Biso   1.000  O
  O3       1.0000 0.45769  0.43608  0.15615  Biso   1.000  O
  O4       1.0000 0.49411  0.38102  0.45991  Biso   1.000  O
  O5       1.0000 0.25754  0.12302  0.23230  Biso   1.000  O
  O6       1.0000 0.27383  0.11234  0.48838  Biso   1.000  O
  O7       1.0000 0.21913  0.38207  0.00546  Biso   1.000  O
  O8       1.0000 0.21261  0.37597  0.25503  Biso   1.000  O
  Zr5      1.0000 0.13924  0.02001  0.64471  Biso   1.000  Zr
  Zr6      1.0000 0.13519  0.22920  0.89180  Biso   1.000  Zr
  Zr7      1.0000 0.36457  0.27942  0.60852  Biso   1.000  Zr
  Zr8      1.0000 0.35983  0.48005  0.85861  Biso   1.000  Zr
  O9       1.0000 0.03720  0.16591  0.57691  Biso   1.000  O
  O10      1.0000 0.03184  0.08475  0.82522  Biso   1.000  O
  O11      1.0000 0.47023  0.40796  0.69217  Biso   1.000  O
  O12      1.0000 0.46517  0.33424  0.92488  Biso   1.000  O
  O13      1.0000 0.27393  0.12994  0.73748  Biso   1.000  O
  O14      1.0000 0.27130  0.12462  0.98474  Biso   1.000  O
  O15      1.0000 0.22970  0.37380  0.50812  Biso   1.000  O
  O16      1.0000 0.22498  0.37377  0.75891  Biso   1.000  O
  Zr9      1.0000 0.13809  0.52321  0.14557  Biso   1.000  Zr
  Zr10     1.0000 0.13733  0.72603  0.39642  Biso   1.000  Zr
  Zr11     1.0000 0.35949  0.77310  0.10440  Biso   1.000  Zr
  Zr12     1.0000 0.35924  0.96398  0.35837  Biso   1.000  Zr
  O17      1.0000 0.03153  0.66707  0.07643  Biso   1.000  O
  O18      1.0000 0.03151  0.58605  0.32609  Biso   1.000  O
  O19      1.0000 0.46361  0.91864  0.17440  Biso   1.000  O
  O20      1.0000 0.46104  0.82297  0.42344  Biso   1.000  O
  O21      1.0000 0.27373  0.62988  0.24142  Biso   1.000  O
  O22      1.0000 0.27272  0.61770  0.49099  Biso   1.000  O
  O23      1.0000 0.22335  0.88034  0.00979  Biso   1.000  O
  O24      1.0000 0.22232  0.86873  0.26124  Biso   1.000  O
  Zr13     1.0000 0.13901  0.52138  0.64500  Biso   1.000  Zr
  Zr14     1.0000 0.13661  0.72918  0.89624  Biso   1.000  Zr
  Zr15     1.0000 0.36056  0.76781  0.60703  Biso   1.000  Zr
  Zr16     1.0000 0.35951  0.98022  0.85334  Biso   1.000  Zr
  O25      1.0000 0.03081  0.66316  0.57725  Biso   1.000  O
  O26      1.0000 0.03276  0.58589  0.82630  Biso   1.000  O
  O27      1.0000 0.46507  0.91528  0.67086  Biso   1.000  O
  O28      1.0000 0.46457  0.83760  0.92205  Biso   1.000  O
  O29      1.0000 0.27474  0.62722  0.74134  Biso   1.000  O
  O30      1.0000 0.27413  0.62513  0.99218  Biso   1.000  O
  O31      1.0000 0.22256  0.87221  0.51215  Biso   1.000  O
  O32      1.0000 0.22399  0.87136  0.76054  Biso   1.000  O
  Zr17     1.0000 0.64023  0.01839  0.14731  Biso   1.000  Zr
  Zr18     1.0000 0.65691  0.23654  0.41014  Biso   1.000  Zr
  Zr19     1.0000 0.85876  0.27357  0.10600  Biso   1.000  Zr
  Zr20     1.0000 0.86357  0.47998  0.35383  Biso   1.000  Zr
  O33      1.0000 0.52994  0.16033  0.07500  Biso   1.000  O
  O34      1.0000 0.55242  0.05444  0.34531  Biso   1.000  O
  O35      1.0000 0.96415  0.41801  0.17101  Biso   1.000  O
  O36      1.0000 0.96675  0.33298  0.42241  Biso   1.000  O
  O37      1.0000 0.77454  0.13174  0.24302  Biso   1.000  O
  O38      1.0000 0.78034  0.11999  0.49591  Biso   1.000  O
  O39      1.0000 0.72242  0.37870  0.01258  Biso   1.000  O
  O40      1.0000 0.72366  0.37409  0.26381  Biso   1.000  O
  Zr21     1.0000 0.63677  0.02119  0.64610  Biso   1.000  Zr
  Zr22     1.0000 0.63776  0.22768  0.89747  Biso   1.000  Zr
  Zr23     1.0000 0.86734  0.27044  0.61067  Biso   1.000  Zr
  Zr24     1.0000 0.86010  0.47962  0.85563  Biso   1.000  Zr
  O41      1.0000 0.53423  0.16719  0.57608  Biso   1.000  O
  O42      1.0000 0.53143  0.08620  0.82490  Biso   1.000  O
  O43      1.0000 0.96900  0.41547  0.67427  Biso   1.000  O
  O44      1.0000 0.96333  0.33501  0.92192  Biso   1.000  O
  O45      1.0000 0.77396  0.12821  0.74255  Biso   1.000  O
  O46      1.0000 0.77420  0.12196  0.99195  Biso   1.000  O
  O47      1.0000 0.73553  0.37747  0.51679  Biso   1.000  O
  O48      1.0000 0.72655  0.37131  0.76377  Biso   1.000  O
  Zr25     1.0000 0.63519  0.52521  0.14291  Biso   1.000  Zr
  Zr26     1.0000 0.63930  0.72525  0.39491  Biso   1.000  Zr
  Zr27     1.0000 0.85893  0.76980  0.10403  Biso   1.000  Zr
  Zr28     1.0000 0.85866  0.97593  0.35522  Biso   1.000  Zr
  O49      1.0000 0.53576  0.67558  0.07681  Biso   1.000  O
  O50      1.0000 0.53205  0.58991  0.32074  Biso   1.000  O
  O51      1.0000 0.96114  0.91426  0.17378  Biso   1.000  O
  O52      1.0000 0.96444  0.83273  0.42309  Biso   1.000  O
  O53      1.0000 0.77560  0.62780  0.23957  Biso   1.000  O
  O54      1.0000 0.77319  0.61996  0.48937  Biso   1.000  O
  O55      1.0000 0.72412  0.87995  0.01011  Biso   1.000  O
  O56      1.0000 0.72371  0.86748  0.25892  Biso   1.000  O
  Zr29     1.0000 0.63608  0.52018  0.64736  Biso   1.000  Zr
  Zr30     1.0000 0.63637  0.73096  0.89452  Biso   1.000  Zr
  Zr31     1.0000 0.86023  0.77138  0.60443  Biso   1.000  Zr
  Zr32     1.0000 0.86032  0.97887  0.85455  Biso   1.000  Zr
  O57      1.0000 0.53210  0.66208  0.57838  Biso   1.000  O
  O58      1.0000 0.53168  0.58731  0.82922  Biso   1.000  O
  O59      1.0000 0.96540  0.91517  0.67227  Biso   1.000  O
  O60      1.0000 0.96552  0.83566  0.92258  Biso   1.000  O
  O61      1.0000 0.77280  0.62808  0.73866  Biso   1.000  O
  O62      1.0000 0.77334  0.62261  0.98854  Biso   1.000  O
  O63      1.0000 0.72228  0.87723  0.51054  Biso   1.000  O
  O64      1.0000 0.72377  0.87281  0.75999  Biso   1.000  O
  Hg1      1.0000 0.43799  0.22437  0.31059  Biso   1.000  Hg
