data_image0
_cell_length_a       5.0595
_cell_length_b       10.2186
_cell_length_c       10.1057
_cell_angle_alpha    89.9997
_cell_angle_beta     88.4406
_cell_angle_gamma    90

_symmetry_space_group_name_H-M    "P 1"
_symmetry_int_tables_number       1

loop_
  _symmetry_equiv_pos_as_xyz
  'x, y, z'

loop_
  _atom_site_label
  _atom_site_occupancy
  _atom_site_fract_x
  _atom_site_fract_y
  _atom_site_fract_z
  _atom_site_thermal_displace_type
  _atom_site_B_iso_or_equiv
  _atom_site_type_symbol
  Hg1      1.0000 0.25095  0.98586  0.12567  Biso   1.000  Hg
  Zr1      1.0000 0.26575  0.25262  0.37288  Biso   1.000  Zr
  Zr2      1.0000 0.75094  0.25447  0.12566  Biso   1.000  Zr
  Zr3      1.0000 0.76362  0.00464  0.37934  Biso   1.000  Zr
  Zr4      1.0000 0.94742  0.15072  0.98141  Biso   1.000  Zr
  Zr5      1.0000 0.03822  0.10824  0.24112  Biso   1.000  Zr
  Zr6      1.0000 0.01081  0.35649  0.25124  Biso   1.000  Zr
  Zr7      1.0000 0.99316  0.39497  0.00287  Biso   1.000  Zr
  Zr8      1.0000 0.55447  0.15073  0.26992  Biso   1.000  Zr
  Zr9      1.0000 0.46367  0.10825  0.01022  Biso   1.000  Zr
  Zr10     1.0000 0.49105  0.35649  0.00009  Biso   1.000  Zr
  Zr11     1.0000 0.50870  0.39496  0.24847  Biso   1.000  Zr
  Zr12     1.0000 0.25093  0.99976  0.62567  Biso   1.000  Zr
  Zr13     1.0000 0.23611  0.25262  0.87845  Biso   1.000  Zr
  Zr14     1.0000 0.75092  0.25142  0.62567  Biso   1.000  Zr
  Zr15     1.0000 0.73824  0.00464  0.87201  Biso   1.000  Zr
  Zr16     1.0000 0.01241  0.14866  0.49528  Biso   1.000  Zr
  Zr17     1.0000 0.98398  0.10574  0.74095  Biso   1.000  Zr
  Zr18     1.0000 0.00611  0.35684  0.74938  Biso   1.000  Zr
  Zr19     1.0000 0.99481  0.39787  0.50251  Biso   1.000  Zr
  Zr20     1.0000 0.48941  0.14865  0.75605  Biso   1.000  Zr
  Zr21     1.0000 0.51784  0.10575  0.51037  Biso   1.000  Zr
  Zr22     1.0000 0.49574  0.35685  0.50196  Biso   1.000  Zr
  Zr23     1.0000 0.50704  0.39786  0.74882  Biso   1.000  Zr
  Zr24     1.0000 0.25093  0.50500  0.12567  Biso   1.000  Zr
  Zr25     1.0000 0.27766  0.75261  0.38154  Biso   1.000  Zr
  Zr26     1.0000 0.75095  0.74414  0.12567  Biso   1.000  Zr
  Zr27     1.0000 0.75256  0.49597  0.37468  Biso   1.000  Zr
  Zr28     1.0000 0.02778  0.63665  0.00525  Biso   1.000  Zr
  Zr29     1.0000 0.97688  0.61011  0.25065  Biso   1.000  Zr
  Zr30     1.0000 0.05840  0.85228  0.23467  Biso   1.000  Zr
  Zr31     1.0000 0.92813  0.87413  0.98280  Biso   1.000  Zr
  Zr32     1.0000 0.47415  0.63664  0.24610  Biso   1.000  Zr
  Zr33     1.0000 0.52503  0.61011  0.00070  Biso   1.000  Zr
  Zr34     1.0000 0.44354  0.85231  0.01664  Biso   1.000  Zr
  Zr35     1.0000 0.57379  0.87413  0.26852  Biso   1.000  Zr
  Zr36     1.0000 0.25093  0.50153  0.62566  Biso   1.000  Zr
  Zr37     1.0000 0.22423  0.75260  0.86980  Biso   1.000  Zr
  Zr38     1.0000 0.75094  0.74676  0.62567  Biso   1.000  Zr
  Zr39     1.0000 0.74928  0.49597  0.87664  Biso   1.000  Zr
  Zr40     1.0000 0.01756  0.64599  0.50538  Biso   1.000  Zr
  Zr41     1.0000 0.98893  0.60803  0.75332  Biso   1.000  Zr
  Zr42     1.0000 0.99621  0.85812  0.73927  Biso   1.000  Zr
  Zr43     1.0000 0.01782  0.89650  0.49096  Biso   1.000  Zr
  Zr44     1.0000 0.48439  0.64598  0.74598  Biso   1.000  Zr
  Zr45     1.0000 0.51300  0.60803  0.49803  Biso   1.000  Zr
  Zr46     1.0000 0.50570  0.85813  0.51205  Biso   1.000  Zr
  Zr47     1.0000 0.48409  0.89649  0.76036  Biso   1.000  Zr
