data_image0
_cell_length_a       10.0151
_cell_length_b       10.4377
_cell_length_c       10.0835
_cell_angle_alpha    90.0802
_cell_angle_beta     89.3568
_cell_angle_gamma    89.9016

_symmetry_space_group_name_H-M    "P 1"
_symmetry_int_tables_number       1

loop_
  _symmetry_equiv_pos_as_xyz
  'x, y, z'

loop_
  _atom_site_label
  _atom_site_occupancy
  _atom_site_fract_x
  _atom_site_fract_y
  _atom_site_fract_z
  _atom_site_thermal_displace_type
  _atom_site_B_iso_or_equiv
  _atom_site_type_symbol
  Hg1      1.0000 0.11994  0.02339  0.10873  Biso   1.000  Hg
  Zr1      1.0000 0.14079  0.23041  0.38209  Biso   1.000  Zr
  Zr2      1.0000 0.36653  0.26726  0.13187  Biso   1.000  Zr
  Zr3      1.0000 0.36568  0.48466  0.37854  Biso   1.000  Zr
  Zr4      1.0000 0.03917  0.18342  0.19054  Biso   1.000  Zr
  Zr5      1.0000 0.03964  0.06390  0.44313  Biso   1.000  Zr
  Zr6      1.0000 0.46370  0.43375  0.19628  Biso   1.000  Zr
  Zr7      1.0000 0.46480  0.31657  0.44525  Biso   1.000  Zr
  Zr8      1.0000 0.28725  0.13109  0.26225  Biso   1.000  Zr
  Zr9      1.0000 0.27045  0.12945  0.50866  Biso   1.000  Zr
  Zr10     1.0000 0.23091  0.38154  0.50193  Biso   1.000  Zr
  Zr11     1.0000 0.22702  0.37016  0.25253  Biso   1.000  Zr
  Zr12     1.0000 0.13180  0.01920  0.63768  Biso   1.000  Zr
  Zr13     1.0000 0.13108  0.23905  0.86921  Biso   1.000  Zr
  Zr14     1.0000 0.36767  0.26607  0.62808  Biso   1.000  Zr
  Zr15     1.0000 0.36582  0.48423  0.87772  Biso   1.000  Zr
  Zr16     1.0000 0.04594  0.19891  0.67358  Biso   1.000  Zr
  Zr17     1.0000 0.04130  0.06311  0.88061  Biso   1.000  Zr
  Zr18     1.0000 0.46432  0.43437  0.69614  Biso   1.000  Zr
  Zr19     1.0000 0.46064  0.31190  0.94249  Biso   1.000  Zr
  Zr20     1.0000 0.27759  0.12281  0.75568  Biso   1.000  Zr
  Zr21     1.0000 0.25997  0.13001  0.00609  Biso   1.000  Zr
  Zr22     1.0000 0.23035  0.38187  0.00124  Biso   1.000  Zr
  Zr23     1.0000 0.23013  0.37109  0.75015  Biso   1.000  Zr
  Zr24     1.0000 0.13516  0.51497  0.12829  Biso   1.000  Zr
  Zr25     1.0000 0.13597  0.73505  0.37866  Biso   1.000  Zr
  Zr26     1.0000 0.36655  0.76453  0.13189  Biso   1.000  Zr
  Zr27     1.0000 0.36185  0.98393  0.37810  Biso   1.000  Zr
  Zr28     1.0000 0.03693  0.68392  0.19385  Biso   1.000  Zr
  Zr29     1.0000 0.03619  0.56425  0.44574  Biso   1.000  Zr
  Zr30     1.0000 0.46995  0.93239  0.19728  Biso   1.000  Zr
  Zr31     1.0000 0.46648  0.81747  0.45124  Biso   1.000  Zr
  Zr32     1.0000 0.27022  0.61423  0.25138  Biso   1.000  Zr
  Zr33     1.0000 0.27043  0.63293  0.50217  Biso   1.000  Zr
  Zr34     1.0000 0.22666  0.88323  0.50883  Biso   1.000  Zr
  Zr35     1.0000 0.24313  0.85815  0.26219  Biso   1.000  Zr
  Zr36     1.0000 0.13385  0.51701  0.62690  Biso   1.000  Zr
  Zr37     1.0000 0.13236  0.73140  0.87847  Biso   1.000  Zr
  Zr38     1.0000 0.36445  0.76762  0.62915  Biso   1.000  Zr
  Zr39     1.0000 0.36602  0.98429  0.87937  Biso   1.000  Zr
  Zr40     1.0000 0.03560  0.68572  0.69557  Biso   1.000  Zr
  Zr41     1.0000 0.03379  0.56426  0.94514  Biso   1.000  Zr
  Zr42     1.0000 0.46342  0.93477  0.69843  Biso   1.000  Zr
  Zr43     1.0000 0.45694  0.81485  0.94486  Biso   1.000  Zr
  Zr44     1.0000 0.26859  0.61766  0.75191  Biso   1.000  Zr
  Zr45     1.0000 0.26849  0.63309  0.00213  Biso   1.000  Zr
  Zr46     1.0000 0.22478  0.88238  0.01010  Biso   1.000  Zr
  Zr47     1.0000 0.22906  0.86890  0.75782  Biso   1.000  Zr
  Zr48     1.0000 0.63670  0.01483  0.12676  Biso   1.000  Zr
  Zr49     1.0000 0.63331  0.23295  0.37526  Biso   1.000  Zr
  Zr50     1.0000 0.86027  0.26612  0.12496  Biso   1.000  Zr
  Zr51     1.0000 0.86758  0.48382  0.37496  Biso   1.000  Zr
  Zr52     1.0000 0.54321  0.18706  0.18912  Biso   1.000  Zr
  Zr53     1.0000 0.53598  0.06612  0.44354  Biso   1.000  Zr
  Zr54     1.0000 0.96373  0.42915  0.19135  Biso   1.000  Zr
  Zr55     1.0000 0.96274  0.31479  0.43604  Biso   1.000  Zr
  Zr56     1.0000 0.77275  0.11726  0.24934  Biso   1.000  Zr
  Zr57     1.0000 0.77004  0.13274  0.49759  Biso   1.000  Zr
  Zr58     1.0000 0.73098  0.38310  0.49927  Biso   1.000  Zr
  Zr59     1.0000 0.72871  0.36860  0.24991  Biso   1.000  Zr
  Zr60     1.0000 0.63205  0.01552  0.62337  Biso   1.000  Zr
  Zr61     1.0000 0.63419  0.23254  0.87519  Biso   1.000  Zr
  Zr62     1.0000 0.86615  0.26698  0.62099  Biso   1.000  Zr
  Zr63     1.0000 0.86436  0.48338  0.87455  Biso   1.000  Zr
  Zr64     1.0000 0.53844  0.18509  0.69332  Biso   1.000  Zr
  Zr65     1.0000 0.53563  0.06495  0.94527  Biso   1.000  Zr
  Zr66     1.0000 0.96226  0.43632  0.69350  Biso   1.000  Zr
  Zr67     1.0000 0.96141  0.31348  0.94279  Biso   1.000  Zr
  Zr68     1.0000 0.76992  0.11781  0.74530  Biso   1.000  Zr
  Zr69     1.0000 0.77468  0.12922  0.99624  Biso   1.000  Zr
  Zr70     1.0000 0.72802  0.38017  0.00019  Biso   1.000  Zr
  Zr71     1.0000 0.72972  0.36723  0.74968  Biso   1.000  Zr
  Zr72     1.0000 0.63395  0.51593  0.12816  Biso   1.000  Zr
  Zr73     1.0000 0.63419  0.73580  0.37651  Biso   1.000  Zr
  Zr74     1.0000 0.86746  0.76198  0.12205  Biso   1.000  Zr
  Zr75     1.0000 0.86994  0.98566  0.37913  Biso   1.000  Zr
  Zr76     1.0000 0.53754  0.68395  0.19720  Biso   1.000  Zr
  Zr77     1.0000 0.53588  0.56683  0.44497  Biso   1.000  Zr
  Zr78     1.0000 0.96167  0.93586  0.18835  Biso   1.000  Zr
  Zr79     1.0000 0.96185  0.81307  0.43863  Biso   1.000  Zr
  Zr80     1.0000 0.77133  0.61603  0.24806  Biso   1.000  Zr
  Zr81     1.0000 0.76821  0.63261  0.49811  Biso   1.000  Zr
  Zr82     1.0000 0.72991  0.88286  0.49793  Biso   1.000  Zr
  Zr83     1.0000 0.73905  0.86704  0.24850  Biso   1.000  Zr
  Zr84     1.0000 0.63314  0.51619  0.62600  Biso   1.000  Zr
  Zr85     1.0000 0.63110  0.73346  0.87664  Biso   1.000  Zr
  Zr86     1.0000 0.86555  0.76348  0.62226  Biso   1.000  Zr
  Zr87     1.0000 0.86263  0.98092  0.86647  Biso   1.000  Zr
  Zr88     1.0000 0.53364  0.68336  0.69716  Biso   1.000  Zr
  Zr89     1.0000 0.53462  0.56503  0.94772  Biso   1.000  Zr
  Zr90     1.0000 0.95464  0.93463  0.67703  Biso   1.000  Zr
  Zr91     1.0000 0.96217  0.81685  0.94088  Biso   1.000  Zr
  Zr92     1.0000 0.76773  0.61690  0.74959  Biso   1.000  Zr
  Zr93     1.0000 0.76852  0.63081  0.99849  Biso   1.000  Zr
  Zr94     1.0000 0.72589  0.87885  0.99860  Biso   1.000  Zr
  Zr95     1.0000 0.72774  0.86562  0.74784  Biso   1.000  Zr
