data_image0
_cell_length_a       10.2097
_cell_length_b       5.23907
_cell_length_c       10.2124
_cell_angle_alpha    88.7582
_cell_angle_beta     89.871
_cell_angle_gamma    91.0792

_symmetry_space_group_name_H-M    "P 1"
_symmetry_int_tables_number       1

loop_
  _symmetry_equiv_pos_as_xyz
  'x, y, z'

loop_
  _atom_site_label
  _atom_site_occupancy
  _atom_site_fract_x
  _atom_site_fract_y
  _atom_site_fract_z
  _atom_site_thermal_displace_type
  _atom_site_B_iso_or_equiv
  _atom_site_type_symbol
  Zr1      1.0000 0.15772  0.99300  0.10761  Biso   1.000  Zr
  Zr2      1.0000 0.12924  0.48187  0.39850  Biso   1.000  Zr
  Zr3      1.0000 0.37141  0.51597  0.11969  Biso   1.000  Zr
  Zr4      1.0000 0.36949  0.97752  0.37349  Biso   1.000  Zr
  Zr5      1.0000 0.95136  0.38728  0.28763  Biso   1.000  Zr
  Zr6      1.0000 0.04073  0.14402  0.46243  Biso   1.000  Zr
  Zr7      1.0000 0.45697  0.86511  0.19174  Biso   1.000  Zr
  Zr8      1.0000 0.47020  0.64354  0.44460  Biso   1.000  Zr
  Zr9      1.0000 0.25933  0.21512  0.24563  Biso   1.000  Zr
  Zr10     1.0000 0.27422  0.27473  0.49742  Biso   1.000  Zr
  Zr11     1.0000 0.24135  0.77743  0.49958  Biso   1.000  Zr
  Zr12     1.0000 0.23506  0.71470  0.25127  Biso   1.000  Zr
  Zr13     1.0000 0.13632  0.01981  0.62755  Biso   1.000  Zr
  Zr14     1.0000 0.13614  0.45384  0.86318  Biso   1.000  Zr
  Zr15     1.0000 0.37462  0.52798  0.62215  Biso   1.000  Zr
  Zr16     1.0000 0.38003  0.96534  0.86250  Biso   1.000  Zr
  Zr17     1.0000 0.03934  0.36699  0.69103  Biso   1.000  Zr
  Zr18     1.0000 0.04980  0.09857  0.93039  Biso   1.000  Zr
  Zr19     1.0000 0.47619  0.85978  0.69134  Biso   1.000  Zr
  Zr20     1.0000 0.47664  0.63058  0.94540  Biso   1.000  Zr
  Zr21     1.0000 0.27169  0.22495  0.74387  Biso   1.000  Zr
  Zr22     1.0000 0.28729  0.24523  0.98888  Biso   1.000  Zr
  Zr23     1.0000 0.25041  0.75986  0.98475  Biso   1.000  Zr
  Zr24     1.0000 0.24089  0.72083  0.74324  Biso   1.000  Zr
  Zr25     1.0000 0.62312  0.02443  0.12137  Biso   1.000  Zr
  Zr26     1.0000 0.63343  0.47554  0.38063  Biso   1.000  Zr
  Zr27     1.0000 0.82932  0.53151  0.12852  Biso   1.000  Zr
  Zr28     1.0000 0.88070  0.01508  0.36348  Biso   1.000  Zr
  Zr29     1.0000 0.52610  0.36209  0.19893  Biso   1.000  Zr
  Zr30     1.0000 0.53370  0.14199  0.44945  Biso   1.000  Zr
  Zr31     1.0000 0.97087  0.88986  0.18671  Biso   1.000  Zr
  Zr32     1.0000 0.98424  0.68673  0.47077  Biso   1.000  Zr
  Zr33     1.0000 0.74113  0.22529  0.24804  Biso   1.000  Zr
  Zr34     1.0000 0.77253  0.28927  0.49733  Biso   1.000  Zr
  Zr35     1.0000 0.74123  0.78690  0.49402  Biso   1.000  Zr
  Zr36     1.0000 0.72053  0.74262  0.24829  Biso   1.000  Zr
  Zr37     1.0000 0.64487  0.03263  0.62053  Biso   1.000  Zr
  Zr38     1.0000 0.63748  0.46628  0.86845  Biso   1.000  Zr
  Zr39     1.0000 0.87157  0.54800  0.62677  Biso   1.000  Zr
  Zr40     1.0000 0.87170  0.96353  0.87466  Biso   1.000  Zr
  Zr41     1.0000 0.53825  0.36031  0.69498  Biso   1.000  Zr
  Zr42     1.0000 0.53945  0.13306  0.94171  Biso   1.000  Zr
  Zr43     1.0000 0.96897  0.87152  0.70294  Biso   1.000  Zr
  Zr44     1.0000 0.95044  0.61482  0.92470  Biso   1.000  Zr
  Zr45     1.0000 0.77299  0.23331  0.74783  Biso   1.000  Zr
  Zr46     1.0000 0.76537  0.26437  0.00070  Biso   1.000  Zr
  Zr47     1.0000 0.72628  0.76820  0.99823  Biso   1.000  Zr
  Zr48     1.0000 0.73390  0.73764  0.74523  Biso   1.000  Zr
  Hg1      1.0000 0.07935  0.46919  0.11961  Biso   1.000  Hg
