data_image0
_cell_length_a       10.0937
_cell_length_b       10.2453
_cell_length_c       5.02554
_cell_angle_alpha    89.9993
_cell_angle_beta     90.0005
_cell_angle_gamma    90.0038

_symmetry_space_group_name_H-M    "P 1"
_symmetry_int_tables_number       1

loop_
  _symmetry_equiv_pos_as_xyz
  'x, y, z'

loop_
  _atom_site_label
  _atom_site_occupancy
  _atom_site_fract_x
  _atom_site_fract_y
  _atom_site_fract_z
  _atom_site_thermal_displace_type
  _atom_site_B_iso_or_equiv
  _atom_site_type_symbol
  In1      1.0000 0.12519  0.99996  0.25078  Biso   1.000  In
  Zr1      1.0000 0.12518  0.49996  0.25078  Biso   1.000  Zr
  Zr2      1.0000 0.62518  0.99996  0.25077  Biso   1.000  Zr
  Zr3      1.0000 0.62518  0.49996  0.25077  Biso   1.000  Zr
  Zr4      1.0000 0.12518  0.25173  0.75074  Biso   1.000  Zr
  Zr5      1.0000 0.12519  0.74818  0.75075  Biso   1.000  Zr
  Zr6      1.0000 0.62518  0.24926  0.75074  Biso   1.000  Zr
  Zr7      1.0000 0.62519  0.75066  0.75075  Biso   1.000  Zr
  Zr8      1.0000 0.37574  0.25043  0.24982  Biso   1.000  Zr
  Zr9      1.0000 0.37575  0.74948  0.25168  Biso   1.000  Zr
  Zr10     1.0000 0.87462  0.25043  0.25166  Biso   1.000  Zr
  Zr11     1.0000 0.87463  0.74949  0.24984  Biso   1.000  Zr
  Zr12     1.0000 0.37482  0.99995  0.75077  Biso   1.000  Zr
  Zr13     1.0000 0.37546  0.49996  0.75078  Biso   1.000  Zr
  Zr14     1.0000 0.87555  0.99996  0.75078  Biso   1.000  Zr
  Zr15     1.0000 0.87489  0.49996  0.75078  Biso   1.000  Zr
  Zr16     1.0000 0.99232  0.14836  0.98319  Biso   1.000  Zr
  Zr17     1.0000 0.99923  0.64462  0.00063  Biso   1.000  Zr
  Zr18     1.0000 0.49888  0.14657  0.99819  Biso   1.000  Zr
  Zr19     1.0000 0.49983  0.64573  0.99692  Biso   1.000  Zr
  Zr20     1.0000 0.99942  0.10822  0.49582  Biso   1.000  Zr
  Zr21     1.0000 0.00103  0.60350  0.50064  Biso   1.000  Zr
  Zr22     1.0000 0.50263  0.10340  0.49983  Biso   1.000  Zr
  Zr23     1.0000 0.50001  0.60379  0.49748  Biso   1.000  Zr
  Zr24     1.0000 0.99922  0.35530  0.50092  Biso   1.000  Zr
  Zr25     1.0000 0.99232  0.85157  0.51835  Biso   1.000  Zr
  Zr26     1.0000 0.49982  0.35418  0.50461  Biso   1.000  Zr
  Zr27     1.0000 0.49888  0.85334  0.50334  Biso   1.000  Zr
  Zr28     1.0000 0.00102  0.39642  0.00090  Biso   1.000  Zr
  Zr29     1.0000 0.99943  0.89170  0.00571  Biso   1.000  Zr
  Zr30     1.0000 0.50000  0.39612  0.00404  Biso   1.000  Zr
  Zr31     1.0000 0.50263  0.89651  0.00169  Biso   1.000  Zr
  Zr32     1.0000 0.25804  0.14834  0.51832  Biso   1.000  Zr
  Zr33     1.0000 0.25115  0.64462  0.50093  Biso   1.000  Zr
  Zr34     1.0000 0.75149  0.14658  0.50334  Biso   1.000  Zr
  Zr35     1.0000 0.75055  0.64573  0.50462  Biso   1.000  Zr
  Zr36     1.0000 0.25094  0.10822  0.00568  Biso   1.000  Zr
  Zr37     1.0000 0.24935  0.60349  0.00092  Biso   1.000  Zr
  Zr38     1.0000 0.74774  0.10340  0.00169  Biso   1.000  Zr
  Zr39     1.0000 0.75037  0.60379  0.00406  Biso   1.000  Zr
  Zr40     1.0000 0.25114  0.35529  0.00062  Biso   1.000  Zr
  Zr41     1.0000 0.25805  0.85156  0.98320  Biso   1.000  Zr
  Zr42     1.0000 0.75054  0.35419  0.99691  Biso   1.000  Zr
  Zr43     1.0000 0.75149  0.85334  0.99819  Biso   1.000  Zr
  Zr44     1.0000 0.24934  0.39642  0.50063  Biso   1.000  Zr
  Zr45     1.0000 0.25095  0.89169  0.49583  Biso   1.000  Zr
  Zr46     1.0000 0.75036  0.39613  0.49748  Biso   1.000  Zr
  Zr47     1.0000 0.74774  0.89651  0.49984  Biso   1.000  Zr
