data_image0
_cell_length_a       10.139
_cell_length_b       10.3288
_cell_length_c       10.2003
_cell_angle_alpha    88.9271
_cell_angle_beta     91.8136
_cell_angle_gamma    89.2201

_symmetry_space_group_name_H-M    "P 1"
_symmetry_int_tables_number       1

loop_
  _symmetry_equiv_pos_as_xyz
  'x, y, z'

loop_
  _atom_site_label
  _atom_site_occupancy
  _atom_site_fract_x
  _atom_site_fract_y
  _atom_site_fract_z
  _atom_site_thermal_displace_type
  _atom_site_B_iso_or_equiv
  _atom_site_type_symbol
  Zr1      1.0000 0.09823  0.97663  0.10400  Biso   1.000  Zr
  Zr2      1.0000 0.12007  0.24274  0.40946  Biso   1.000  Zr
  Zr3      1.0000 0.42214  0.26637  0.13529  Biso   1.000  Zr
  Zr4      1.0000 0.36587  0.00982  0.37055  Biso   1.000  Zr
  Zr5      1.0000 0.97979  0.13920  0.98694  Biso   1.000  Zr
  Zr6      1.0000 0.01256  0.10710  0.25369  Biso   1.000  Zr
  Zr7      1.0000 0.03643  0.35829  0.24918  Biso   1.000  Zr
  Zr8      1.0000 0.03414  0.39924  0.99216  Biso   1.000  Zr
  Zr9      1.0000 0.29260  0.18983  0.29596  Biso   1.000  Zr
  Zr10     1.0000 0.21388  0.05263  0.95715  Biso   1.000  Zr
  Zr11     1.0000 0.30908  0.31894  0.95521  Biso   1.000  Zr
  Zr12     1.0000 0.29252  0.42603  0.20765  Biso   1.000  Zr
  Zr13     1.0000 0.11549  0.99079  0.62422  Biso   1.000  Zr
  Zr14     1.0000 0.13424  0.23489  0.87250  Biso   1.000  Zr
  Zr15     1.0000 0.38914  0.26159  0.63713  Biso   1.000  Zr
  Zr16     1.0000 0.37221  0.00258  0.85665  Biso   1.000  Zr
  Zr17     1.0000 0.98502  0.14072  0.50420  Biso   1.000  Zr
  Zr18     1.0000 0.00312  0.10407  0.74549  Biso   1.000  Zr
  Zr19     1.0000 0.01853  0.34980  0.74420  Biso   1.000  Zr
  Zr20     1.0000 0.00510  0.39314  0.49896  Biso   1.000  Zr
  Zr21     1.0000 0.25582  0.14610  0.73517  Biso   1.000  Zr
  Zr22     1.0000 0.23060  0.08995  0.49928  Biso   1.000  Zr
  Zr23     1.0000 0.25750  0.35642  0.49446  Biso   1.000  Zr
  Zr24     1.0000 0.27163  0.40240  0.73295  Biso   1.000  Zr
  Zr25     1.0000 0.12160  0.52443  0.13135  Biso   1.000  Zr
  Zr26     1.0000 0.11552  0.75925  0.37273  Biso   1.000  Zr
  Zr27     1.0000 0.37103  0.74284  0.11859  Biso   1.000  Zr
  Zr28     1.0000 0.37849  0.50231  0.37804  Biso   1.000  Zr
  Zr29     1.0000 0.99654  0.64303  0.99702  Biso   1.000  Zr
  Zr30     1.0000 0.99137  0.61158  0.24966  Biso   1.000  Zr
  Zr31     1.0000 0.97792  0.85724  0.24825  Biso   1.000  Zr
  Zr32     1.0000 0.95209  0.88733  0.00105  Biso   1.000  Zr
  Zr33     1.0000 0.23822  0.66161  0.24889  Biso   1.000  Zr
  Zr34     1.0000 0.25050  0.58879  0.99003  Biso   1.000  Zr
  Zr35     1.0000 0.20349  0.82004  0.02563  Biso   1.000  Zr
  Zr36     1.0000 0.22473  0.92317  0.25845  Biso   1.000  Zr
  Zr37     1.0000 0.13167  0.49890  0.62304  Biso   1.000  Zr
  Zr38     1.0000 0.12356  0.73768  0.86209  Biso   1.000  Zr
  Zr39     1.0000 0.37010  0.74517  0.62067  Biso   1.000  Zr
  Zr40     1.0000 0.38511  0.48914  0.88083  Biso   1.000  Zr
  Zr41     1.0000 0.99941  0.64298  0.49618  Biso   1.000  Zr
  Zr42     1.0000 0.00446  0.60042  0.74596  Biso   1.000  Zr
  Zr43     1.0000 0.98454  0.85378  0.75075  Biso   1.000  Zr
  Zr44     1.0000 0.98800  0.89124  0.49873  Biso   1.000  Zr
  Zr45     1.0000 0.24934  0.64263  0.74305  Biso   1.000  Zr
  Zr46     1.0000 0.24992  0.60166  0.49378  Biso   1.000  Zr
  Zr47     1.0000 0.23828  0.84841  0.50495  Biso   1.000  Zr
  Zr48     1.0000 0.23684  0.88564  0.75582  Biso   1.000  Zr
  Zr49     1.0000 0.60190  0.98355  0.12003  Biso   1.000  Zr
  Zr50     1.0000 0.62368  0.23526  0.39556  Biso   1.000  Zr
  Zr51     1.0000 0.86702  0.24983  0.12451  Biso   1.000  Zr
  Zr52     1.0000 0.87345  0.01156  0.36699  Biso   1.000  Zr
  Zr53     1.0000 0.48749  0.12948  0.00230  Biso   1.000  Zr
  Zr54     1.0000 0.51492  0.10940  0.25632  Biso   1.000  Zr
  Zr55     1.0000 0.53719  0.37098  0.26337  Biso   1.000  Zr
  Zr56     1.0000 0.53345  0.39183  0.00643  Biso   1.000  Zr
  Zr57     1.0000 0.76651  0.16719  0.27036  Biso   1.000  Zr
  Zr58     1.0000 0.74100  0.09143  0.01426  Biso   1.000  Zr
  Zr59     1.0000 0.78384  0.33790  0.96135  Biso   1.000  Zr
  Zr60     1.0000 0.79004  0.41832  0.21399  Biso   1.000  Zr
  Zr61     1.0000 0.61550  0.99277  0.62501  Biso   1.000  Zr
  Zr62     1.0000 0.62455  0.23404  0.89288  Biso   1.000  Zr
  Zr63     1.0000 0.87647  0.25795  0.63153  Biso   1.000  Zr
  Zr64     1.0000 0.87116  0.01373  0.86303  Biso   1.000  Zr
  Zr65     1.0000 0.49024  0.14132  0.50855  Biso   1.000  Zr
  Zr66     1.0000 0.50547  0.11034  0.75448  Biso   1.000  Zr
  Zr67     1.0000 0.52310  0.35738  0.75486  Biso   1.000  Zr
  Zr68     1.0000 0.50492  0.39403  0.50712  Biso   1.000  Zr
  Zr69     1.0000 0.75446  0.15941  0.75597  Biso   1.000  Zr
  Zr70     1.0000 0.74151  0.09481  0.50833  Biso   1.000  Zr
  Zr71     1.0000 0.76162  0.35112  0.47861  Biso   1.000  Zr
  Zr72     1.0000 0.77962  0.41598  0.71953  Biso   1.000  Zr
  Zr73     1.0000 0.62674  0.51877  0.13878  Biso   1.000  Zr
  Zr74     1.0000 0.61697  0.76128  0.37956  Biso   1.000  Zr
  Zr75     1.0000 0.86760  0.73995  0.11751  Biso   1.000  Zr
  Zr76     1.0000 0.87179  0.50252  0.37799  Biso   1.000  Zr
  Zr77     1.0000 0.49784  0.63867  0.00346  Biso   1.000  Zr
  Zr78     1.0000 0.49374  0.61554  0.25412  Biso   1.000  Zr
  Zr79     1.0000 0.47837  0.85909  0.24895  Biso   1.000  Zr
  Zr80     1.0000 0.46298  0.88675  0.99985  Biso   1.000  Zr
  Zr81     1.0000 0.74025  0.65656  0.25505  Biso   1.000  Zr
  Zr82     1.0000 0.75294  0.59434  0.99736  Biso   1.000  Zr
  Zr83     1.0000 0.70323  0.83000  0.03644  Biso   1.000  Zr
  Zr84     1.0000 0.72172  0.91359  0.27978  Biso   1.000  Zr
  Zr85     1.0000 0.62523  0.50770  0.62964  Biso   1.000  Zr
  Zr86     1.0000 0.62047  0.74596  0.87142  Biso   1.000  Zr
  Zr87     1.0000 0.87802  0.73991  0.61976  Biso   1.000  Zr
  Zr88     1.0000 0.88428  0.49391  0.87679  Biso   1.000  Zr
  Zr89     1.0000 0.49753  0.64510  0.50219  Biso   1.000  Zr
  Zr90     1.0000 0.50344  0.60490  0.75318  Biso   1.000  Zr
  Zr91     1.0000 0.48574  0.85482  0.74641  Biso   1.000  Zr
  Zr92     1.0000 0.48952  0.89586  0.49774  Biso   1.000  Zr
  Zr93     1.0000 0.75040  0.65585  0.75164  Biso   1.000  Zr
  Zr94     1.0000 0.74961  0.60246  0.49808  Biso   1.000  Zr
  Zr95     1.0000 0.72982  0.84447  0.53030  Biso   1.000  Zr
  Zr96     1.0000 0.72048  0.90817  0.78488  Biso   1.000  Zr
  In1      1.0000 0.15922  0.23903  0.13582  Biso   1.000  In
