data_image0
_cell_length_a       10.0819
_cell_length_b       10.2165
_cell_length_c       10.0818
_cell_angle_alpha    90.0027
_cell_angle_beta     89.9978
_cell_angle_gamma    90.0027

_symmetry_space_group_name_H-M    "P 1"
_symmetry_int_tables_number       1

loop_
  _symmetry_equiv_pos_as_xyz
  'x, y, z'

loop_
  _atom_site_label
  _atom_site_occupancy
  _atom_site_fract_x
  _atom_site_fract_y
  _atom_site_fract_z
  _atom_site_thermal_displace_type
  _atom_site_B_iso_or_equiv
  _atom_site_type_symbol
  In1      1.0000 0.12508  0.99990  0.12510  Biso   1.000  In
  Zr1      1.0000 0.12504  0.99992  0.62503  Biso   1.000  Zr
  Zr2      1.0000 0.12508  0.49992  0.12510  Biso   1.000  Zr
  Zr3      1.0000 0.12504  0.49991  0.62503  Biso   1.000  Zr
  Zr4      1.0000 0.62503  0.99992  0.12505  Biso   1.000  Zr
  Zr5      1.0000 0.62503  0.99992  0.62504  Biso   1.000  Zr
  Zr6      1.0000 0.62503  0.49991  0.12505  Biso   1.000  Zr
  Zr7      1.0000 0.62504  0.49992  0.62504  Biso   1.000  Zr
  Zr8      1.0000 0.12502  0.25002  0.37534  Biso   1.000  Zr
  Zr9      1.0000 0.12509  0.25006  0.87470  Biso   1.000  Zr
  Zr10     1.0000 0.12509  0.74978  0.37535  Biso   1.000  Zr
  Zr11     1.0000 0.12502  0.74981  0.87469  Biso   1.000  Zr
  Zr12     1.0000 0.62522  0.24922  0.37538  Biso   1.000  Zr
  Zr13     1.0000 0.62482  0.24922  0.87471  Biso   1.000  Zr
  Zr14     1.0000 0.62483  0.75061  0.37537  Biso   1.000  Zr
  Zr15     1.0000 0.62521  0.75062  0.87470  Biso   1.000  Zr
  Zr16     1.0000 0.37534  0.25002  0.12504  Biso   1.000  Zr
  Zr17     1.0000 0.37537  0.24922  0.62522  Biso   1.000  Zr
  Zr18     1.0000 0.37535  0.74977  0.12511  Biso   1.000  Zr
  Zr19     1.0000 0.37537  0.75061  0.62483  Biso   1.000  Zr
  Zr20     1.0000 0.87470  0.25007  0.12510  Biso   1.000  Zr
  Zr21     1.0000 0.87470  0.24922  0.62483  Biso   1.000  Zr
  Zr22     1.0000 0.87469  0.74982  0.12503  Biso   1.000  Zr
  Zr23     1.0000 0.87469  0.75062  0.62521  Biso   1.000  Zr
  Zr24     1.0000 0.37420  0.00002  0.37421  Biso   1.000  Zr
  Zr25     1.0000 0.37423  0.99977  0.87587  Biso   1.000  Zr
  Zr26     1.0000 0.37587  0.49965  0.37588  Biso   1.000  Zr
  Zr27     1.0000 0.37591  0.50016  0.87420  Biso   1.000  Zr
  Zr28     1.0000 0.87588  0.99979  0.37422  Biso   1.000  Zr
  Zr29     1.0000 0.87584  0.00008  0.87584  Biso   1.000  Zr
  Zr30     1.0000 0.87420  0.50016  0.37590  Biso   1.000  Zr
  Zr31     1.0000 0.87417  0.49969  0.87417  Biso   1.000  Zr
  Zr32     1.0000 0.99198  0.15114  0.99199  Biso   1.000  Zr
  Zr33     1.0000 0.99939  0.14697  0.49877  Biso   1.000  Zr
  Zr34     1.0000 0.99981  0.64654  0.99982  Biso   1.000  Zr
  Zr35     1.0000 0.99882  0.64642  0.50021  Biso   1.000  Zr
  Zr36     1.0000 0.49876  0.14698  0.99939  Biso   1.000  Zr
  Zr37     1.0000 0.49986  0.14657  0.49987  Biso   1.000  Zr
  Zr38     1.0000 0.50020  0.64642  0.99882  Biso   1.000  Zr
  Zr39     1.0000 0.49896  0.64609  0.49896  Biso   1.000  Zr
  Zr40     1.0000 0.99994  0.10608  0.25006  Biso   1.000  Zr
  Zr41     1.0000 0.99969  0.10279  0.74739  Biso   1.000  Zr
  Zr42     1.0000 0.00012  0.60164  0.24992  Biso   1.000  Zr
  Zr43     1.0000 0.00081  0.60302  0.75020  Biso   1.000  Zr
  Zr44     1.0000 0.50265  0.10280  0.25038  Biso   1.000  Zr
  Zr45     1.0000 0.50035  0.10335  0.74972  Biso   1.000  Zr
  Zr46     1.0000 0.49985  0.60302  0.24927  Biso   1.000  Zr
  Zr47     1.0000 0.50085  0.60377  0.74923  Biso   1.000  Zr
  Zr48     1.0000 0.99984  0.35339  0.25026  Biso   1.000  Zr
  Zr49     1.0000 0.99880  0.35341  0.74986  Biso   1.000  Zr
  Zr50     1.0000 0.99206  0.84881  0.25805  Biso   1.000  Zr
  Zr51     1.0000 0.99937  0.85285  0.75129  Biso   1.000  Zr
  Zr52     1.0000 0.50021  0.35341  0.25126  Biso   1.000  Zr
  Zr53     1.0000 0.49894  0.35374  0.75112  Biso   1.000  Zr
  Zr54     1.0000 0.49881  0.85286  0.25068  Biso   1.000  Zr
  Zr55     1.0000 0.49984  0.85326  0.75022  Biso   1.000  Zr
  Zr56     1.0000 0.00015  0.39830  0.00015  Biso   1.000  Zr
  Zr57     1.0000 0.00080  0.39681  0.49988  Biso   1.000  Zr
  Zr58     1.0000 0.99999  0.89387  0.99997  Biso   1.000  Zr
  Zr59     1.0000 0.99969  0.89704  0.50267  Biso   1.000  Zr
  Zr60     1.0000 0.49988  0.39681  0.00080  Biso   1.000  Zr
  Zr61     1.0000 0.50084  0.39606  0.50085  Biso   1.000  Zr
  Zr62     1.0000 0.50267  0.89704  0.99969  Biso   1.000  Zr
  Zr63     1.0000 0.50035  0.89648  0.50035  Biso   1.000  Zr
  Zr64     1.0000 0.25801  0.15094  0.25802  Biso   1.000  Zr
  Zr65     1.0000 0.25068  0.14698  0.75127  Biso   1.000  Zr
  Zr66     1.0000 0.25023  0.64637  0.25023  Biso   1.000  Zr
  Zr67     1.0000 0.25125  0.64643  0.74984  Biso   1.000  Zr
  Zr68     1.0000 0.75126  0.14698  0.25068  Biso   1.000  Zr
  Zr69     1.0000 0.75021  0.14658  0.75021  Biso   1.000  Zr
  Zr70     1.0000 0.74984  0.64643  0.25125  Biso   1.000  Zr
  Zr71     1.0000 0.75112  0.64610  0.75112  Biso   1.000  Zr
  Zr72     1.0000 0.25005  0.10604  0.99995  Biso   1.000  Zr
  Zr73     1.0000 0.25038  0.10280  0.50266  Biso   1.000  Zr
  Zr74     1.0000 0.24992  0.60160  0.00012  Biso   1.000  Zr
  Zr75     1.0000 0.24927  0.60302  0.49985  Biso   1.000  Zr
  Zr76     1.0000 0.74738  0.10279  0.99969  Biso   1.000  Zr
  Zr77     1.0000 0.74972  0.10335  0.50035  Biso   1.000  Zr
  Zr78     1.0000 0.75020  0.60302  0.00081  Biso   1.000  Zr
  Zr79     1.0000 0.74923  0.60377  0.50085  Biso   1.000  Zr
  Zr80     1.0000 0.25026  0.35336  0.99984  Biso   1.000  Zr
  Zr81     1.0000 0.25125  0.35341  0.50022  Biso   1.000  Zr
  Zr82     1.0000 0.25806  0.84877  0.99205  Biso   1.000  Zr
  Zr83     1.0000 0.25067  0.85286  0.49881  Biso   1.000  Zr
  Zr84     1.0000 0.74986  0.35341  0.99881  Biso   1.000  Zr
  Zr85     1.0000 0.75112  0.35374  0.49895  Biso   1.000  Zr
  Zr86     1.0000 0.75129  0.85285  0.99938  Biso   1.000  Zr
  Zr87     1.0000 0.75021  0.85326  0.49985  Biso   1.000  Zr
  Zr88     1.0000 0.24994  0.39813  0.24994  Biso   1.000  Zr
  Zr89     1.0000 0.24926  0.39682  0.75022  Biso   1.000  Zr
  Zr90     1.0000 0.25012  0.89369  0.25012  Biso   1.000  Zr
  Zr91     1.0000 0.25036  0.89705  0.74743  Biso   1.000  Zr
  Zr92     1.0000 0.75022  0.39682  0.24927  Biso   1.000  Zr
  Zr93     1.0000 0.74922  0.39607  0.74922  Biso   1.000  Zr
  Zr94     1.0000 0.74743  0.89705  0.25036  Biso   1.000  Zr
  Zr95     1.0000 0.74970  0.89650  0.74971  Biso   1.000  Zr
