data_image0
_cell_length_a       10.2364
_cell_length_b       5.22565
_cell_length_c       10.5582
_cell_angle_alpha    90.3403
_cell_angle_beta     80.0108
_cell_angle_gamma    90.402

_symmetry_space_group_name_H-M    "P 1"
_symmetry_int_tables_number       1

loop_
  _symmetry_equiv_pos_as_xyz
  'x, y, z'

loop_
  _atom_site_label
  _atom_site_occupancy
  _atom_site_fract_x
  _atom_site_fract_y
  _atom_site_fract_z
  _atom_site_thermal_displace_type
  _atom_site_B_iso_or_equiv
  _atom_site_type_symbol
  Zr1      1.0000 0.13375  0.04772  0.14302  Biso   1.000  Zr
  Zr2      1.0000 0.13553  0.46332  0.39593  Biso   1.000  Zr
  Zr3      1.0000 0.35656  0.55137  0.09899  Biso   1.000  Zr
  Zr4      1.0000 0.35369  0.92339  0.35062  Biso   1.000  Zr
  O1       1.0000 0.03284  0.34789  0.07852  Biso   1.000  O
  O2       1.0000 0.03265  0.17183  0.32614  Biso   1.000  O
  O3       1.0000 0.46031  0.85522  0.16341  Biso   1.000  O
  O4       1.0000 0.48311  0.69312  0.43745  Biso   1.000  O
  O5       1.0000 0.27813  0.25033  0.23801  Biso   1.000  O
  O6       1.0000 0.27199  0.22865  0.48902  Biso   1.000  O
  O7       1.0000 0.22137  0.76721  0.00548  Biso   1.000  O
  O8       1.0000 0.20448  0.75357  0.25242  Biso   1.000  O
  Zr5      1.0000 0.13554  0.04398  0.64730  Biso   1.000  Zr
  Zr6      1.0000 0.13507  0.46209  0.89518  Biso   1.000  Zr
  Zr7      1.0000 0.36102  0.54608  0.60995  Biso   1.000  Zr
  Zr8      1.0000 0.35917  0.96191  0.85569  Biso   1.000  Zr
  O9       1.0000 0.03379  0.33731  0.58023  Biso   1.000  O
  O10      1.0000 0.03304  0.16464  0.83066  Biso   1.000  O
  O11      1.0000 0.46529  0.83294  0.67651  Biso   1.000  O
  O12      1.0000 0.46412  0.66878  0.92027  Biso   1.000  O
  O13      1.0000 0.27404  0.25939  0.74076  Biso   1.000  O
  O14      1.0000 0.27194  0.25036  0.98916  Biso   1.000  O
  O15      1.0000 0.22175  0.75335  0.51612  Biso   1.000  O
  O16      1.0000 0.22350  0.74489  0.76016  Biso   1.000  O
  Zr9      1.0000 0.63865  0.04377  0.14594  Biso   1.000  Zr
  Zr10     1.0000 0.64975  0.45238  0.40039  Biso   1.000  Zr
  Zr11     1.0000 0.85902  0.54511  0.10476  Biso   1.000  Zr
  Zr12     1.0000 0.86164  0.95739  0.35428  Biso   1.000  Zr
  O17      1.0000 0.53315  0.34137  0.07990  Biso   1.000  O
  O18      1.0000 0.55001  0.11901  0.33715  Biso   1.000  O
  O19      1.0000 0.96103  0.84698  0.16660  Biso   1.000  O
  O20      1.0000 0.96416  0.67169  0.42318  Biso   1.000  O
  O21      1.0000 0.77821  0.25940  0.23991  Biso   1.000  O
  O22      1.0000 0.77929  0.23817  0.49356  Biso   1.000  O
  O23      1.0000 0.72259  0.76085  0.01165  Biso   1.000  O
  O24      1.0000 0.72698  0.73817  0.26068  Biso   1.000  O
  Zr13     1.0000 0.63819  0.04330  0.64728  Biso   1.000  Zr
  Zr14     1.0000 0.63668  0.45957  0.89695  Biso   1.000  Zr
  Zr15     1.0000 0.86155  0.54508  0.60798  Biso   1.000  Zr
  Zr16     1.0000 0.85861  0.95945  0.85698  Biso   1.000  Zr
  O25      1.0000 0.53445  0.33162  0.58125  Biso   1.000  O
  O26      1.0000 0.53313  0.16809  0.83023  Biso   1.000  O
  O27      1.0000 0.96365  0.83873  0.67315  Biso   1.000  O
  O28      1.0000 0.96184  0.66520  0.91896  Biso   1.000  O
  O29      1.0000 0.77402  0.25982  0.74229  Biso   1.000  O
  O30      1.0000 0.77304  0.24567  0.99121  Biso   1.000  O
  O31      1.0000 0.72686  0.75489  0.51362  Biso   1.000  O
  O32      1.0000 0.72338  0.74458  0.76233  Biso   1.000  O
  Ir1      1.0000 0.40873  0.43057  0.33378  Biso   1.000  Ir
