data_image0
_cell_length_a       10.1468
_cell_length_b       10.3827
_cell_length_c       5.32511
_cell_angle_alpha    90.0129
_cell_angle_beta     91.212
_cell_angle_gamma    90.1755

_symmetry_space_group_name_H-M    "P 1"
_symmetry_int_tables_number       1

loop_
  _symmetry_equiv_pos_as_xyz
  'x, y, z'

loop_
  _atom_site_label
  _atom_site_occupancy
  _atom_site_fract_x
  _atom_site_fract_y
  _atom_site_fract_z
  _atom_site_thermal_displace_type
  _atom_site_B_iso_or_equiv
  _atom_site_type_symbol
  Zr1      1.0000 0.14100  0.02081  0.34940  Biso   1.000  Zr
  Zr2      1.0000 0.14200  0.22714  0.85441  Biso   1.000  Zr
  Zr3      1.0000 0.35022  0.27464  0.37745  Biso   1.000  Zr
  Zr4      1.0000 0.36037  0.48349  0.85448  Biso   1.000  Zr
  Zr5      1.0000 0.64114  0.00586  0.15636  Biso   1.000  Zr
  Zr6      1.0000 0.64902  0.21854  0.61745  Biso   1.000  Zr
  Zr7      1.0000 0.87024  0.27428  0.14471  Biso   1.000  Zr
  Zr8      1.0000 0.86391  0.47945  0.65447  Biso   1.000  Zr
  O1       1.0000 0.03471  0.16164  0.16422  Biso   1.000  O
  O2       1.0000 0.03313  0.08744  0.66381  Biso   1.000  O
  O3       1.0000 0.45537  0.43619  0.19498  Biso   1.000  O
  O4       1.0000 0.47070  0.33637  0.66942  Biso   1.000  O
  O5       1.0000 0.27397  0.12470  0.60561  Biso   1.000  O
  O6       1.0000 0.28013  0.12634  0.10294  Biso   1.000  O
  O7       1.0000 0.22103  0.37562  0.61179  Biso   1.000  O
  O8       1.0000 0.22215  0.37562  0.10674  Biso   1.000  O
  O9       1.0000 0.52144  0.13762  0.37669  Biso   1.000  O
  O10      1.0000 0.53554  0.07220  0.84136  Biso   1.000  O
  O11      1.0000 0.96981  0.41343  0.34157  Biso   1.000  O
  O12      1.0000 0.97460  0.33695  0.83751  Biso   1.000  O
  O13      1.0000 0.77572  0.12644  0.89315  Biso   1.000  O
  O14      1.0000 0.77985  0.12219  0.38498  Biso   1.000  O
  O15      1.0000 0.73701  0.38412  0.89873  Biso   1.000  O
  O16      1.0000 0.72219  0.37136  0.39169  Biso   1.000  O
  Zr9      1.0000 0.14044  0.52208  0.34837  Biso   1.000  Zr
  Zr10     1.0000 0.13941  0.72974  0.84692  Biso   1.000  Zr
  Zr11     1.0000 0.36049  0.77062  0.35259  Biso   1.000  Zr
  Zr12     1.0000 0.36306  0.97616  0.85251  Biso   1.000  Zr
  Zr13     1.0000 0.64082  0.53308  0.15819  Biso   1.000  Zr
  Zr14     1.0000 0.64046  0.72988  0.65964  Biso   1.000  Zr
  Zr15     1.0000 0.86657  0.77000  0.16054  Biso   1.000  Zr
  Zr16     1.0000 0.86645  0.97882  0.65892  Biso   1.000  Zr
  O17      1.0000 0.03373  0.66252  0.16572  Biso   1.000  O
  O18      1.0000 0.03314  0.58781  0.66687  Biso   1.000  O
  O19      1.0000 0.47063  0.90426  0.16451  Biso   1.000  O
  O20      1.0000 0.46874  0.83388  0.66943  Biso   1.000  O
  O21      1.0000 0.27454  0.62620  0.59657  Biso   1.000  O
  O22      1.0000 0.27411  0.62787  0.09394  Biso   1.000  O
  O23      1.0000 0.22577  0.87477  0.59864  Biso   1.000  O
  O24      1.0000 0.22496  0.87656  0.10049  Biso   1.000  O
  O25      1.0000 0.53497  0.66915  0.34100  Biso   1.000  O
  O26      1.0000 0.53266  0.58799  0.84007  Biso   1.000  O
  O27      1.0000 0.97147  0.91327  0.34149  Biso   1.000  O
  O28      1.0000 0.97060  0.83801  0.84297  Biso   1.000  O
  O29      1.0000 0.77790  0.62896  0.90776  Biso   1.000  O
  O30      1.0000 0.77849  0.62506  0.41082  Biso   1.000  O
  O31      1.0000 0.72968  0.87415  0.91286  Biso   1.000  O
  O32      1.0000 0.73064  0.87084  0.41468  Biso   1.000  O
  K1       1.0000 0.56374  0.26602  0.05113  Biso   1.000  K
