data_image0
_cell_length_a       10.1774
_cell_length_b       5.19378
_cell_length_c       10.4987
_cell_angle_alpha    90.0741
_cell_angle_beta     90.7145
_cell_angle_gamma    90.2751

_symmetry_space_group_name_H-M    "P 1"
_symmetry_int_tables_number       1

loop_
  _symmetry_equiv_pos_as_xyz
  'x, y, z'

loop_
  _atom_site_label
  _atom_site_occupancy
  _atom_site_fract_x
  _atom_site_fract_y
  _atom_site_fract_z
  _atom_site_thermal_displace_type
  _atom_site_B_iso_or_equiv
  _atom_site_type_symbol
  La1      1.0000 0.12857  0.01891  0.15908  Biso   1.000  La
  Zr1      1.0000 0.13922  0.04090  0.67012  Biso   1.000  Zr
  Zr2      1.0000 0.13827  0.45212  0.42069  Biso   1.000  Zr
  Zr3      1.0000 0.14116  0.46581  0.91567  Biso   1.000  Zr
  Zr4      1.0000 0.36459  0.52939  0.16871  Biso   1.000  Zr
  Zr5      1.0000 0.36080  0.53940  0.66912  Biso   1.000  Zr
  Zr6      1.0000 0.35916  0.95494  0.41971  Biso   1.000  Zr
  Zr7      1.0000 0.36659  0.95902  0.91754  Biso   1.000  Zr
  Zr8      1.0000 0.64218  0.03735  0.08067  Biso   1.000  Zr
  Zr9      1.0000 0.63800  0.03942  0.58173  Biso   1.000  Zr
  Zr10     1.0000 0.63774  0.45659  0.33247  Biso   1.000  Zr
  Zr11     1.0000 0.64045  0.45900  0.82841  Biso   1.000  Zr
  Zr12     1.0000 0.85852  0.53530  0.07845  Biso   1.000  Zr
  Zr13     1.0000 0.86371  0.54279  0.58131  Biso   1.000  Zr
  Zr14     1.0000 0.85401  0.96294  0.33718  Biso   1.000  Zr
  Zr15     1.0000 0.86264  0.95904  0.83058  Biso   1.000  Zr
  O1       1.0000 0.04222  0.41239  0.09346  Biso   1.000  O
  O2       1.0000 0.03738  0.35096  0.59495  Biso   1.000  O
  O3       1.0000 0.02601  0.15776  0.35145  Biso   1.000  O
  O4       1.0000 0.03956  0.14828  0.84580  Biso   1.000  O
  O5       1.0000 0.47321  0.82656  0.08271  Biso   1.000  O
  O6       1.0000 0.46787  0.82622  0.58259  Biso   1.000  O
  O7       1.0000 0.47207  0.67373  0.33208  Biso   1.000  O
  O8       1.0000 0.47066  0.66947  0.82961  Biso   1.000  O
  O9       1.0000 0.27959  0.24595  0.29926  Biso   1.000  O
  O10      1.0000 0.27589  0.25062  0.79077  Biso   1.000  O
  O11      1.0000 0.28299  0.25068  0.03496  Biso   1.000  O
  O12      1.0000 0.27406  0.24723  0.54439  Biso   1.000  O
  O13      1.0000 0.23243  0.72415  0.29784  Biso   1.000  O
  O14      1.0000 0.22638  0.74948  0.78977  Biso   1.000  O
  O15      1.0000 0.24505  0.72851  0.03125  Biso   1.000  O
  O16      1.0000 0.22391  0.75188  0.54400  Biso   1.000  O
  O17      1.0000 0.53351  0.32225  0.16771  Biso   1.000  O
  O18      1.0000 0.53217  0.32710  0.66624  Biso   1.000  O
  O19      1.0000 0.53224  0.16578  0.41774  Biso   1.000  O
  O20      1.0000 0.53709  0.16938  0.91615  Biso   1.000  O
  O21      1.0000 0.92211  0.87680  0.15262  Biso   1.000  O
  O22      1.0000 0.96348  0.85052  0.66063  Biso   1.000  O
  O23      1.0000 0.96337  0.65861  0.41002  Biso   1.000  O
  O24      1.0000 0.96341  0.65532  0.90564  Biso   1.000  O
  O25      1.0000 0.77728  0.24643  0.95645  Biso   1.000  O
  O26      1.0000 0.77259  0.24937  0.46051  Biso   1.000  O
  O27      1.0000 0.77322  0.26087  0.21052  Biso   1.000  O
  O28      1.0000 0.77595  0.25296  0.70741  Biso   1.000  O
  O29      1.0000 0.72476  0.74800  0.95501  Biso   1.000  O
  O30      1.0000 0.72434  0.74870  0.45971  Biso   1.000  O
  O31      1.0000 0.71309  0.75139  0.21105  Biso   1.000  O
  O32      1.0000 0.72650  0.74974  0.70623  Biso   1.000  O
