data_image0
_cell_length_a       5.18756
_cell_length_b       10.4238
_cell_length_c       10.2731
_cell_angle_alpha    91.0533
_cell_angle_beta     90.1773
_cell_angle_gamma    95.5564

_symmetry_space_group_name_H-M    "P 1"
_symmetry_int_tables_number       1

loop_
  _symmetry_equiv_pos_as_xyz
  'x, y, z'

loop_
  _atom_site_label
  _atom_site_occupancy
  _atom_site_fract_x
  _atom_site_fract_y
  _atom_site_fract_z
  _atom_site_thermal_displace_type
  _atom_site_B_iso_or_equiv
  _atom_site_type_symbol
  Zr1      1.0000 0.29862  0.96533  0.08061  Biso   1.000  Zr
  Zr2      1.0000 0.25361  0.23702  0.39689  Biso   1.000  Zr
  Zr3      1.0000 0.64386  0.27359  0.12578  Biso   1.000  Zr
  Zr4      1.0000 0.73618  0.50501  0.35339  Biso   1.000  Zr
  Zr5      1.0000 0.87411  0.20908  0.29175  Biso   1.000  Zr
  Zr6      1.0000 0.04634  0.06715  0.46066  Biso   1.000  Zr
  Zr7      1.0000 0.90287  0.43726  0.18608  Biso   1.000  Zr
  Zr8      1.0000 0.03461  0.33812  0.51316  Biso   1.000  Zr
  Zr9      1.0000 0.41744  0.11525  0.24066  Biso   1.000  Zr
  Zr10     1.0000 0.52641  0.13565  0.49466  Biso   1.000  Zr
  Zr11     1.0000 0.52947  0.39128  0.48989  Biso   1.000  Zr
  Zr12     1.0000 0.40504  0.38071  0.25116  Biso   1.000  Zr
  Zr13     1.0000 0.26623  0.98211  0.59559  Biso   1.000  Zr
  Zr14     1.0000 0.19234  0.25282  0.82812  Biso   1.000  Zr
  Zr15     1.0000 0.71640  0.27007  0.62198  Biso   1.000  Zr
  Zr16     1.0000 0.73005  0.48144  0.88068  Biso   1.000  Zr
  Zr17     1.0000 0.94274  0.14842  0.70901  Biso   1.000  Zr
  Zr18     1.0000 0.06616  0.07245  0.94011  Biso   1.000  Zr
  Zr19     1.0000 0.98696  0.40654  0.73763  Biso   1.000  Zr
  Zr20     1.0000 0.87183  0.31293  0.94826  Biso   1.000  Zr
  Zr21     1.0000 0.45154  0.11930  0.74060  Biso   1.000  Zr
  Zr22     1.0000 0.55147  0.11214  0.00084  Biso   1.000  Zr
  Zr23     1.0000 0.42015  0.38461  0.99147  Biso   1.000  Zr
  Zr24     1.0000 0.47784  0.37108  0.73505  Biso   1.000  Zr
  Zr25     1.0000 0.25677  0.52981  0.12096  Biso   1.000  Zr
  Zr26     1.0000 0.30745  0.74026  0.37725  Biso   1.000  Zr
  Zr27     1.0000 0.77444  0.77101  0.12140  Biso   1.000  Zr
  Zr28     1.0000 0.71833  0.02462  0.34102  Biso   1.000  Zr
  Zr29     1.0000 0.05761  0.68222  0.21855  Biso   1.000  Zr
  Zr30     1.0000 0.07342  0.57052  0.44541  Biso   1.000  Zr
  Zr31     1.0000 0.95775  0.94953  0.19755  Biso   1.000  Zr
  Zr32     1.0000 0.05248  0.82148  0.49286  Biso   1.000  Zr
  Zr33     1.0000 0.54400  0.62926  0.24461  Biso   1.000  Zr
  Zr34     1.0000 0.54957  0.63927  0.49299  Biso   1.000  Zr
  Zr35     1.0000 0.54354  0.89191  0.47970  Biso   1.000  Zr
  Zr36     1.0000 0.48814  0.86737  0.22978  Biso   1.000  Zr
  Zr37     1.0000 0.25910  0.50404  0.60896  Biso   1.000  Zr
  Zr38     1.0000 0.31234  0.72470  0.86260  Biso   1.000  Zr
  Zr39     1.0000 0.77673  0.75866  0.62870  Biso   1.000  Zr
  Zr40     1.0000 0.72828  0.01661  0.83885  Biso   1.000  Zr
  Zr41     1.0000 0.08114  0.65766  0.70026  Biso   1.000  Zr
  Zr42     1.0000 0.06925  0.57202  0.95232  Biso   1.000  Zr
  Zr43     1.0000 0.98438  0.90881  0.72586  Biso   1.000  Zr
  Zr44     1.0000 0.07644  0.81482  0.98987  Biso   1.000  Zr
  Zr45     1.0000 0.55911  0.61078  0.74512  Biso   1.000  Zr
  Zr46     1.0000 0.55882  0.63216  0.99484  Biso   1.000  Zr
  Zr47     1.0000 0.57248  0.87185  0.97050  Biso   1.000  Zr
  Zr48     1.0000 0.49286  0.86194  0.72659  Biso   1.000  Zr
  La1      1.0000 0.13185  0.22867  0.10831  Biso   1.000  La
