data_image0
_cell_length_a       5.02946
_cell_length_b       10.4724
_cell_length_c       10.0903
_cell_angle_alpha    89.6607
_cell_angle_beta     90.262
_cell_angle_gamma    89.947

_symmetry_space_group_name_H-M    "P 1"
_symmetry_int_tables_number       1

loop_
  _symmetry_equiv_pos_as_xyz
  'x, y, z'

loop_
  _atom_site_label
  _atom_site_occupancy
  _atom_site_fract_x
  _atom_site_fract_y
  _atom_site_fract_z
  _atom_site_thermal_displace_type
  _atom_site_B_iso_or_equiv
  _atom_site_type_symbol
  Zr1      1.0000 0.26260  0.01610  0.12061  Biso   1.000  Zr
  Zr2      1.0000 0.26564  0.23075  0.38076  Biso   1.000  Zr
  Zr3      1.0000 0.70435  0.26131  0.12572  Biso   1.000  Zr
  Zr4      1.0000 0.73894  0.48278  0.37149  Biso   1.000  Zr
  Zr5      1.0000 0.04643  0.17942  0.20348  Biso   1.000  Zr
  Zr6      1.0000 0.07059  0.06487  0.44700  Biso   1.000  Zr
  Zr7      1.0000 0.92497  0.43178  0.19035  Biso   1.000  Zr
  Zr8      1.0000 0.93625  0.31846  0.44891  Biso   1.000  Zr
  Zr9      1.0000 0.52417  0.11572  0.24897  Biso   1.000  Zr
  Zr10     1.0000 0.54455  0.13170  0.49740  Biso   1.000  Zr
  Zr11     1.0000 0.46728  0.38213  0.49728  Biso   1.000  Zr
  Zr12     1.0000 0.43589  0.36845  0.24564  Biso   1.000  Zr
  Zr13     1.0000 0.27113  0.01170  0.62450  Biso   1.000  Zr
  Zr14     1.0000 0.27058  0.22909  0.86683  Biso   1.000  Zr
  Zr15     1.0000 0.73717  0.26487  0.62442  Biso   1.000  Zr
  Zr16     1.0000 0.73782  0.47909  0.87974  Biso   1.000  Zr
  Zr17     1.0000 0.07488  0.17933  0.69035  Biso   1.000  Zr
  Zr18     1.0000 0.07842  0.06343  0.94075  Biso   1.000  Zr
  Zr19     1.0000 0.94565  0.42796  0.70435  Biso   1.000  Zr
  Zr20     1.0000 0.94336  0.31202  0.95625  Biso   1.000  Zr
  Zr21     1.0000 0.54522  0.11335  0.74448  Biso   1.000  Zr
  Zr22     1.0000 0.55429  0.12777  0.99245  Biso   1.000  Zr
  Zr23     1.0000 0.44912  0.38132  0.00033  Biso   1.000  Zr
  Zr24     1.0000 0.47435  0.36467  0.74841  Biso   1.000  Zr
  Zr25     1.0000 0.27163  0.53269  0.12627  Biso   1.000  Zr
  Zr26     1.0000 0.27129  0.73566  0.37895  Biso   1.000  Zr
  Zr27     1.0000 0.73029  0.76902  0.12575  Biso   1.000  Zr
  Zr28     1.0000 0.73284  0.98451  0.37336  Biso   1.000  Zr
  Zr29     1.0000 0.06749  0.68588  0.20036  Biso   1.000  Zr
  Zr30     1.0000 0.06967  0.56613  0.44590  Biso   1.000  Zr
  Zr31     1.0000 0.92621  0.93430  0.19381  Biso   1.000  Zr
  Zr32     1.0000 0.93289  0.81724  0.44579  Biso   1.000  Zr
  Zr33     1.0000 0.54533  0.62227  0.25130  Biso   1.000  Zr
  Zr34     1.0000 0.54081  0.63158  0.49993  Biso   1.000  Zr
  Zr35     1.0000 0.46689  0.88226  0.49849  Biso   1.000  Zr
  Zr36     1.0000 0.45881  0.86760  0.24902  Biso   1.000  Zr
  Zr37     1.0000 0.27476  0.51303  0.62595  Biso   1.000  Zr
  Zr38     1.0000 0.27016  0.73404  0.87295  Biso   1.000  Zr
  Zr39     1.0000 0.73885  0.76263  0.62489  Biso   1.000  Zr
  Zr40     1.0000 0.73619  0.98099  0.87432  Biso   1.000  Zr
  Zr41     1.0000 0.07806  0.68050  0.69312  Biso   1.000  Zr
  Zr42     1.0000 0.07012  0.56952  0.94687  Biso   1.000  Zr
  Zr43     1.0000 0.93933  0.92838  0.69638  Biso   1.000  Zr
  Zr44     1.0000 0.93670  0.81572  0.94751  Biso   1.000  Zr
  Zr45     1.0000 0.54627  0.61237  0.75039  Biso   1.000  Zr
  Zr46     1.0000 0.54352  0.63311  0.99866  Biso   1.000  Zr
  Zr47     1.0000 0.46305  0.88032  0.99830  Biso   1.000  Zr
  Zr48     1.0000 0.47003  0.86336  0.74761  Biso   1.000  Zr
  Li1      1.0000 0.18309  0.30792  0.11141  Biso   1.000  Li
