data_image0
_cell_length_a       10.1311
_cell_length_b       10.2824
_cell_length_c       10.5064
_cell_angle_alpha    89.904
_cell_angle_beta     89.9383
_cell_angle_gamma    89.9687

_symmetry_space_group_name_H-M    "P 1"
_symmetry_int_tables_number       1

loop_
  _symmetry_equiv_pos_as_xyz
  'x, y, z'

loop_
  _atom_site_label
  _atom_site_occupancy
  _atom_site_fract_x
  _atom_site_fract_y
  _atom_site_fract_z
  _atom_site_thermal_displace_type
  _atom_site_B_iso_or_equiv
  _atom_site_type_symbol
  Li1      1.0000 0.12426  0.00979  0.17863  Biso   1.000  Li
  Zr1      1.0000 0.13982  0.02038  0.67143  Biso   1.000  Zr
  Zr2      1.0000 0.14072  0.52115  0.17208  Biso   1.000  Zr
  Zr3      1.0000 0.13983  0.52100  0.67288  Biso   1.000  Zr
  Zr4      1.0000 0.14105  0.22804  0.41896  Biso   1.000  Zr
  Zr5      1.0000 0.14035  0.22429  0.92791  Biso   1.000  Zr
  Zr6      1.0000 0.14185  0.73070  0.42000  Biso   1.000  Zr
  Zr7      1.0000 0.14232  0.73146  0.92333  Biso   1.000  Zr
  Zr8      1.0000 0.35565  0.26484  0.17219  Biso   1.000  Zr
  Zr9      1.0000 0.35974  0.27052  0.67278  Biso   1.000  Zr
  Zr10     1.0000 0.35662  0.77564  0.17156  Biso   1.000  Zr
  Zr11     1.0000 0.36119  0.77200  0.67136  Biso   1.000  Zr
  Zr12     1.0000 0.36068  0.47854  0.42135  Biso   1.000  Zr
  Zr13     1.0000 0.35948  0.47750  0.92347  Biso   1.000  Zr
  Zr14     1.0000 0.35638  0.98039  0.41788  Biso   1.000  Zr
  Zr15     1.0000 0.35838  0.97939  0.92483  Biso   1.000  Zr
  Zr16     1.0000 0.63961  0.02146  0.07805  Biso   1.000  Zr
  Zr17     1.0000 0.63799  0.02069  0.57615  Biso   1.000  Zr
  Zr18     1.0000 0.63774  0.52004  0.07867  Biso   1.000  Zr
  Zr19     1.0000 0.63859  0.52112  0.57826  Biso   1.000  Zr
  Zr20     1.0000 0.63884  0.22929  0.32742  Biso   1.000  Zr
  Zr21     1.0000 0.63923  0.22899  0.82831  Biso   1.000  Zr
  Zr22     1.0000 0.63825  0.73065  0.32662  Biso   1.000  Zr
  Zr23     1.0000 0.63848  0.72897  0.82858  Biso   1.000  Zr
  Zr24     1.0000 0.86481  0.26830  0.07845  Biso   1.000  Zr
  Zr25     1.0000 0.85945  0.27126  0.57685  Biso   1.000  Zr
  Zr26     1.0000 0.86145  0.77294  0.07897  Biso   1.000  Zr
  Zr27     1.0000 0.86057  0.77042  0.57769  Biso   1.000  Zr
  Zr28     1.0000 0.86036  0.48031  0.32790  Biso   1.000  Zr
  Zr29     1.0000 0.86093  0.47887  0.82927  Biso   1.000  Zr
  Zr30     1.0000 0.86493  0.97911  0.32466  Biso   1.000  Zr
  Zr31     1.0000 0.85966  0.97895  0.82743  Biso   1.000  Zr
  O1       1.0000 0.03256  0.16430  0.08388  Biso   1.000  O
  O2       1.0000 0.03036  0.16368  0.58283  Biso   1.000  O
  O3       1.0000 0.03106  0.66298  0.08240  Biso   1.000  O
  O4       1.0000 0.03157  0.66336  0.58393  Biso   1.000  O
  O5       1.0000 0.02736  0.08976  0.34362  Biso   1.000  O
  O6       1.0000 0.02981  0.08705  0.83133  Biso   1.000  O
  O7       1.0000 0.03099  0.58850  0.33224  Biso   1.000  O
  O8       1.0000 0.03141  0.58600  0.83357  Biso   1.000  O
  O9       1.0000 0.46779  0.41116  0.08285  Biso   1.000  O
  O10      1.0000 0.46856  0.41336  0.58282  Biso   1.000  O
  O11      1.0000 0.47207  0.91272  0.08185  Biso   1.000  O
  O12      1.0000 0.46808  0.91295  0.58055  Biso   1.000  O
  O13      1.0000 0.46917  0.33786  0.33276  Biso   1.000  O
  O14      1.0000 0.46927  0.33676  0.83226  Biso   1.000  O
  O15      1.0000 0.47141  0.84131  0.32983  Biso   1.000  O
  O16      1.0000 0.46914  0.83729  0.83131  Biso   1.000  O
  O17      1.0000 0.28155  0.13000  0.30366  Biso   1.000  O
  O18      1.0000 0.27344  0.12276  0.79418  Biso   1.000  O
  O19      1.0000 0.27629  0.62256  0.29547  Biso   1.000  O
  O20      1.0000 0.27540  0.62446  0.79645  Biso   1.000  O
  O21      1.0000 0.28948  0.13475  0.03683  Biso   1.000  O
  O22      1.0000 0.27426  0.12573  0.54751  Biso   1.000  O
  O23      1.0000 0.27490  0.62306  0.04694  Biso   1.000  O
  O24      1.0000 0.27560  0.62634  0.54593  Biso   1.000  O
  O25      1.0000 0.22362  0.37557  0.29622  Biso   1.000  O
  O26      1.0000 0.22545  0.37380  0.79705  Biso   1.000  O
  O27      1.0000 0.22790  0.86968  0.29897  Biso   1.000  O
  O28      1.0000 0.22452  0.87424  0.79330  Biso   1.000  O
  O29      1.0000 0.22210  0.37702  0.04723  Biso   1.000  O
  O30      1.0000 0.22516  0.37613  0.54656  Biso   1.000  O
  O31      1.0000 0.23341  0.86895  0.03902  Biso   1.000  O
  O32      1.0000 0.22393  0.87634  0.54611  Biso   1.000  O
  O33      1.0000 0.53270  0.16402  0.16706  Biso   1.000  O
  O34      1.0000 0.53125  0.16366  0.66685  Biso   1.000  O
  O35      1.0000 0.52971  0.66259  0.16778  Biso   1.000  O
  O36      1.0000 0.53144  0.66319  0.66770  Biso   1.000  O
  O37      1.0000 0.53137  0.08662  0.41622  Biso   1.000  O
  O38      1.0000 0.53374  0.08550  0.91612  Biso   1.000  O
  O39      1.0000 0.53063  0.58814  0.41788  Biso   1.000  O
  O40      1.0000 0.53016  0.58632  0.91791  Biso   1.000  O
  O41      1.0000 0.96878  0.41433  0.16739  Biso   1.000  O
  O42      1.0000 0.96899  0.41276  0.66746  Biso   1.000  O
  O43      1.0000 0.96537  0.90983  0.16888  Biso   1.000  O
  O44      1.0000 0.96782  0.91379  0.66628  Biso   1.000  O
  O45      1.0000 0.96857  0.33964  0.41772  Biso   1.000  O
  O46      1.0000 0.96959  0.33692  0.91715  Biso   1.000  O
  O47      1.0000 0.96938  0.83579  0.41802  Biso   1.000  O
  O48      1.0000 0.96890  0.83662  0.91591  Biso   1.000  O
  O49      1.0000 0.77656  0.12391  0.95363  Biso   1.000  O
  O50      1.0000 0.77353  0.12628  0.45423  Biso   1.000  O
  O51      1.0000 0.77375  0.62312  0.95389  Biso   1.000  O
  O52      1.0000 0.77445  0.62484  0.45415  Biso   1.000  O
  O53      1.0000 0.77504  0.12577  0.20413  Biso   1.000  O
  O54      1.0000 0.77447  0.12555  0.70361  Biso   1.000  O
  O55      1.0000 0.77452  0.62648  0.20399  Biso   1.000  O
  O56      1.0000 0.77486  0.62540  0.70414  Biso   1.000  O
  O57      1.0000 0.72479  0.37347  0.95391  Biso   1.000  O
  O58      1.0000 0.72427  0.37570  0.45396  Biso   1.000  O
  O59      1.0000 0.72537  0.87415  0.95307  Biso   1.000  O
  O60      1.0000 0.72641  0.87492  0.45311  Biso   1.000  O
  O61      1.0000 0.72573  0.37633  0.20462  Biso   1.000  O
  O62      1.0000 0.72525  0.37583  0.70363  Biso   1.000  O
  O63      1.0000 0.72128  0.87593  0.20279  Biso   1.000  O
  O64      1.0000 0.72455  0.87517  0.70340  Biso   1.000  O
