data_image0
_cell_length_a       10.0272
_cell_length_b       10.5662
_cell_length_c       5.11081
_cell_angle_alpha    89.8077
_cell_angle_beta     89.0674
_cell_angle_gamma    90.2179

_symmetry_space_group_name_H-M    "P 1"
_symmetry_int_tables_number       1

loop_
  _symmetry_equiv_pos_as_xyz
  'x, y, z'

loop_
  _atom_site_label
  _atom_site_occupancy
  _atom_site_fract_x
  _atom_site_fract_y
  _atom_site_fract_z
  _atom_site_thermal_displace_type
  _atom_site_B_iso_or_equiv
  _atom_site_type_symbol
  Zr1      1.0000 0.13149  0.00606  0.22551  Biso   1.000  Zr
  Zr2      1.0000 0.13054  0.22383  0.71224  Biso   1.000  Zr
  Zr3      1.0000 0.40619  0.24334  0.24335  Biso   1.000  Zr
  Zr4      1.0000 0.36675  0.48207  0.73458  Biso   1.000  Zr
  Zr5      1.0000 0.01852  0.17257  0.38510  Biso   1.000  Zr
  Zr6      1.0000 0.03366  0.06211  0.87822  Biso   1.000  Zr
  Zr7      1.0000 0.47622  0.41674  0.40447  Biso   1.000  Zr
  Zr8      1.0000 0.46354  0.32660  0.89503  Biso   1.000  Zr
  Zr9      1.0000 0.25495  0.09600  0.50150  Biso   1.000  Zr
  Zr10     1.0000 0.23898  0.16761  0.03194  Biso   1.000  Zr
  Zr11     1.0000 0.21793  0.40954  0.96491  Biso   1.000  Zr
  Zr12     1.0000 0.24192  0.34604  0.46692  Biso   1.000  Zr
  Zr13     1.0000 0.13468  0.54604  0.22856  Biso   1.000  Zr
  Zr14     1.0000 0.13673  0.74812  0.73322  Biso   1.000  Zr
  Zr15     1.0000 0.37960  0.76293  0.23072  Biso   1.000  Zr
  Zr16     1.0000 0.38681  0.98645  0.71143  Biso   1.000  Zr
  Zr17     1.0000 0.02955  0.68797  0.39610  Biso   1.000  Zr
  Zr18     1.0000 0.02874  0.58260  0.88677  Biso   1.000  Zr
  Zr19     1.0000 0.48082  0.91275  0.39543  Biso   1.000  Zr
  Zr20     1.0000 0.47723  0.82408  0.88820  Biso   1.000  Zr
  Zr21     1.0000 0.27183  0.61483  0.48287  Biso   1.000  Zr
  Zr22     1.0000 0.26528  0.65168  0.97874  Biso   1.000  Zr
  Zr23     1.0000 0.24177  0.89823  0.96448  Biso   1.000  Zr
  Zr24     1.0000 0.23849  0.85795  0.46152  Biso   1.000  Zr
  Zr25     1.0000 0.63798  0.02233  0.25730  Biso   1.000  Zr
  Zr26     1.0000 0.63236  0.23376  0.78878  Biso   1.000  Zr
  Zr27     1.0000 0.83869  0.26059  0.24987  Biso   1.000  Zr
  Zr28     1.0000 0.87570  0.48332  0.74029  Biso   1.000  Zr
  Zr29     1.0000 0.50651  0.13910  0.51768  Biso   1.000  Zr
  Zr30     1.0000 0.49680  0.08523  0.99502  Biso   1.000  Zr
  Zr31     1.0000 0.98416  0.42398  0.38632  Biso   1.000  Zr
  Zr32     1.0000 0.97492  0.31249  0.90925  Biso   1.000  Zr
  Zr33     1.0000 0.76515  0.11705  0.50736  Biso   1.000  Zr
  Zr34     1.0000 0.77621  0.12150  0.98790  Biso   1.000  Zr
  Zr35     1.0000 0.74144  0.38946  0.99547  Biso   1.000  Zr
  Zr36     1.0000 0.73175  0.36847  0.51624  Biso   1.000  Zr
  Zr37     1.0000 0.63481  0.51164  0.25240  Biso   1.000  Zr
  Zr38     1.0000 0.63678  0.72847  0.74955  Biso   1.000  Zr
  Zr39     1.0000 0.86082  0.76625  0.24348  Biso   1.000  Zr
  Zr40     1.0000 0.86650  0.97971  0.74627  Biso   1.000  Zr
  Zr41     1.0000 0.53408  0.67048  0.40674  Biso   1.000  Zr
  Zr42     1.0000 0.52454  0.57161  0.91442  Biso   1.000  Zr
  Zr43     1.0000 0.96787  0.92750  0.39535  Biso   1.000  Zr
  Zr44     1.0000 0.97292  0.82295  0.90665  Biso   1.000  Zr
  Zr45     1.0000 0.77362  0.61132  0.49247  Biso   1.000  Zr
  Zr46     1.0000 0.76819  0.63296  0.99256  Biso   1.000  Zr
  Zr47     1.0000 0.73081  0.88170  0.00244  Biso   1.000  Zr
  Zr48     1.0000 0.73429  0.86188  0.50295  Biso   1.000  Zr
  Mg1      1.0000 0.11484  0.29921  0.19697  Biso   1.000  Mg
