data_image0
_cell_length_a       10.0971
_cell_length_b       10.3647
_cell_length_c       10.1066
_cell_angle_alpha    90.0132
_cell_angle_beta     90.6726
_cell_angle_gamma    89.9755

_symmetry_space_group_name_H-M    "P 1"
_symmetry_int_tables_number       1

loop_
  _symmetry_equiv_pos_as_xyz
  'x, y, z'

loop_
  _atom_site_label
  _atom_site_occupancy
  _atom_site_fract_x
  _atom_site_fract_y
  _atom_site_fract_z
  _atom_site_thermal_displace_type
  _atom_site_B_iso_or_equiv
  _atom_site_type_symbol
  Zr1      1.0000 0.12490  0.01208  0.12445  Biso   1.000  Zr
  Zr2      1.0000 0.11820  0.24840  0.38894  Biso   1.000  Zr
  Zr3      1.0000 0.40382  0.23722  0.10155  Biso   1.000  Zr
  Zr4      1.0000 0.38428  0.99096  0.38094  Biso   1.000  Zr
  Zr5      1.0000 0.01959  0.18380  0.02257  Biso   1.000  Zr
  Zr6      1.0000 0.99429  0.09985  0.25995  Biso   1.000  Zr
  Zr7      1.0000 0.98104  0.34466  0.25754  Biso   1.000  Zr
  Zr8      1.0000 0.03685  0.43205  0.99792  Biso   1.000  Zr
  Zr9      1.0000 0.22995  0.18372  0.22625  Biso   1.000  Zr
  Zr10     1.0000 0.25536  0.09983  0.98888  Biso   1.000  Zr
  Zr11     1.0000 0.26855  0.34464  0.99132  Biso   1.000  Zr
  Zr12     1.0000 0.21278  0.43204  0.25080  Biso   1.000  Zr
  Zr13     1.0000 0.12490  0.00516  0.62441  Biso   1.000  Zr
  Zr14     1.0000 0.13138  0.24848  0.85999  Biso   1.000  Zr
  Zr15     1.0000 0.38581  0.24128  0.61916  Biso   1.000  Zr
  Zr16     1.0000 0.37458  0.99141  0.87050  Biso   1.000  Zr
  Zr17     1.0000 0.00501  0.14457  0.51418  Biso   1.000  Zr
  Zr18     1.0000 0.00120  0.09967  0.76285  Biso   1.000  Zr
  Zr19     1.0000 0.00016  0.35138  0.74957  Biso   1.000  Zr
  Zr20     1.0000 0.99564  0.39263  0.50191  Biso   1.000  Zr
  Zr21     1.0000 0.24467  0.14460  0.73469  Biso   1.000  Zr
  Zr22     1.0000 0.24853  0.09964  0.48597  Biso   1.000  Zr
  Zr23     1.0000 0.24931  0.35136  0.49929  Biso   1.000  Zr
  Zr24     1.0000 0.25385  0.39259  0.74688  Biso   1.000  Zr
  Zr25     1.0000 0.12525  0.56165  0.12411  Biso   1.000  Zr
  Zr26     1.0000 0.11562  0.75160  0.38802  Biso   1.000  Zr
  Zr27     1.0000 0.38153  0.76325  0.12072  Biso   1.000  Zr
  Zr28     1.0000 0.36483  0.50083  0.36977  Biso   1.000  Zr
  Zr29     1.0000 0.00327  0.67698  0.99904  Biso   1.000  Zr
  Zr30     1.0000 0.98702  0.61515  0.25507  Biso   1.000  Zr
  Zr31     1.0000 0.00763  0.85544  0.25282  Biso   1.000  Zr
  Zr32     1.0000 0.98433  0.92264  0.01166  Biso   1.000  Zr
  Zr33     1.0000 0.24717  0.67677  0.24960  Biso   1.000  Zr
  Zr34     1.0000 0.26342  0.61508  0.99332  Biso   1.000  Zr
  Zr35     1.0000 0.24241  0.85538  0.99588  Biso   1.000  Zr
  Zr36     1.0000 0.26549  0.92251  0.23716  Biso   1.000  Zr
  Zr37     1.0000 0.12492  0.49441  0.62417  Biso   1.000  Zr
  Zr38     1.0000 0.13455  0.75159  0.86055  Biso   1.000  Zr
  Zr39     1.0000 0.37662  0.74286  0.62073  Biso   1.000  Zr
  Zr40     1.0000 0.37590  0.49420  0.87397  Biso   1.000  Zr
  Zr41     1.0000 0.99368  0.63978  0.50209  Biso   1.000  Zr
  Zr42     1.0000 0.00900  0.60250  0.75095  Biso   1.000  Zr
  Zr43     1.0000 0.99243  0.85184  0.75487  Biso   1.000  Zr
  Zr44     1.0000 0.00528  0.88959  0.50592  Biso   1.000  Zr
  Zr45     1.0000 0.25627  0.63971  0.74633  Biso   1.000  Zr
  Zr46     1.0000 0.24088  0.60247  0.49764  Biso   1.000  Zr
  Zr47     1.0000 0.25763  0.85177  0.49382  Biso   1.000  Zr
  Zr48     1.0000 0.24478  0.88961  0.74278  Biso   1.000  Zr
  Zr49     1.0000 0.62492  0.00500  0.12439  Biso   1.000  Zr
  Zr50     1.0000 0.60323  0.25748  0.35403  Biso   1.000  Zr
  Zr51     1.0000 0.84570  0.23723  0.14747  Biso   1.000  Zr
  Zr52     1.0000 0.87522  0.99129  0.37833  Biso   1.000  Zr
  Zr53     1.0000 0.50623  0.12935  0.96791  Biso   1.000  Zr
  Zr54     1.0000 0.48404  0.10180  0.23925  Biso   1.000  Zr
  Zr55     1.0000 0.46730  0.36260  0.24864  Biso   1.000  Zr
  Zr56     1.0000 0.51415  0.39511  0.99181  Biso   1.000  Zr
  Zr57     1.0000 0.74347  0.12929  0.28104  Biso   1.000  Zr
  Zr58     1.0000 0.76569  0.10201  0.00957  Biso   1.000  Zr
  Zr59     1.0000 0.78195  0.36315  0.00069  Biso   1.000  Zr
  Zr60     1.0000 0.73538  0.39511  0.25755  Biso   1.000  Zr
  Zr61     1.0000 0.62482  0.99346  0.62443  Biso   1.000  Zr
  Zr62     1.0000 0.64636  0.25756  0.89504  Biso   1.000  Zr
  Zr63     1.0000 0.86377  0.24115  0.62977  Biso   1.000  Zr
  Zr64     1.0000 0.86555  0.99105  0.86784  Biso   1.000  Zr
  Zr65     1.0000 0.50743  0.13757  0.48792  Biso   1.000  Zr
  Zr66     1.0000 0.47819  0.08045  0.72175  Biso   1.000  Zr
  Zr67     1.0000 0.50958  0.33432  0.74674  Biso   1.000  Zr
  Zr68     1.0000 0.49299  0.39037  0.49521  Biso   1.000  Zr
  Zr69     1.0000 0.74221  0.13762  0.76104  Biso   1.000  Zr
  Zr70     1.0000 0.77162  0.08016  0.52722  Biso   1.000  Zr
  Zr71     1.0000 0.73951  0.33388  0.50272  Biso   1.000  Zr
  Zr72     1.0000 0.75644  0.39031  0.75395  Biso   1.000  Zr
  Zr73     1.0000 0.62540  0.50837  0.12411  Biso   1.000  Zr
  Zr74     1.0000 0.62131  0.73779  0.37693  Biso   1.000  Zr
  Zr75     1.0000 0.86869  0.76340  0.12780  Biso   1.000  Zr
  Zr76     1.0000 0.87440  0.49466  0.37418  Biso   1.000  Zr
  Zr77     1.0000 0.50696  0.64529  0.00185  Biso   1.000  Zr
  Zr78     1.0000 0.49321  0.60469  0.24657  Biso   1.000  Zr
  Zr79     1.0000 0.50886  0.85458  0.25452  Biso   1.000  Zr
  Zr80     1.0000 0.49294  0.89553  0.00661  Biso   1.000  Zr
  Zr81     1.0000 0.74354  0.64523  0.24684  Biso   1.000  Zr
  Zr82     1.0000 0.75721  0.60508  0.00207  Biso   1.000  Zr
  Zr83     1.0000 0.74115  0.85477  0.99408  Biso   1.000  Zr
  Zr84     1.0000 0.75706  0.89554  0.24198  Biso   1.000  Zr
  Zr85     1.0000 0.62498  0.48192  0.62423  Biso   1.000  Zr
  Zr86     1.0000 0.62870  0.73800  0.87170  Biso   1.000  Zr
  Zr87     1.0000 0.87342  0.74290  0.62802  Biso   1.000  Zr
  Zr88     1.0000 0.88509  0.50072  0.87861  Biso   1.000  Zr
  Zr89     1.0000 0.49381  0.63656  0.49698  Biso   1.000  Zr
  Zr90     1.0000 0.50572  0.58745  0.74965  Biso   1.000  Zr
  Zr91     1.0000 0.49408  0.83701  0.75688  Biso   1.000  Zr
  Zr92     1.0000 0.50509  0.88278  0.50348  Biso   1.000  Zr
  Zr93     1.0000 0.75614  0.63656  0.75160  Biso   1.000  Zr
  Zr94     1.0000 0.74420  0.58717  0.49894  Biso   1.000  Zr
  Zr95     1.0000 0.75605  0.83674  0.49161  Biso   1.000  Zr
  Zr96     1.0000 0.74497  0.88282  0.74512  Biso   1.000  Zr
  Mg1      1.0000 0.12473  0.30653  0.12446  Biso   1.000  Mg
