data_image0
_cell_length_a       10.1398
_cell_length_b       5.32207
_cell_length_c       10.1375
_cell_angle_alpha    95.0049
_cell_angle_beta     90.7292
_cell_angle_gamma    89.9791

_symmetry_space_group_name_H-M    "P 1"
_symmetry_int_tables_number       1

loop_
  _symmetry_equiv_pos_as_xyz
  'x, y, z'

loop_
  _atom_site_label
  _atom_site_occupancy
  _atom_site_fract_x
  _atom_site_fract_y
  _atom_site_fract_z
  _atom_site_thermal_displace_type
  _atom_site_B_iso_or_equiv
  _atom_site_type_symbol
  Zr1      1.0000 0.14223  0.12149  0.10385  Biso   1.000  Zr
  Zr2      1.0000 0.10598  0.44987  0.40506  Biso   1.000  Zr
  Zr3      1.0000 0.37922  0.57283  0.10237  Biso   1.000  Zr
  Zr4      1.0000 0.39019  0.95290  0.38163  Biso   1.000  Zr
  Zr5      1.0000 0.02451  0.39900  0.02677  Biso   1.000  Zr
  Zr6      1.0000 0.02515  0.14237  0.27697  Biso   1.000  Zr
  Zr7      1.0000 0.97715  0.63590  0.27682  Biso   1.000  Zr
  Zr8      1.0000 0.98017  0.88436  0.04058  Biso   1.000  Zr
  Zr9      1.0000 0.22468  0.42391  0.22264  Biso   1.000  Zr
  Zr10     1.0000 0.27670  0.26304  0.97929  Biso   1.000  Zr
  Zr11     1.0000 0.22902  0.74850  0.98530  Biso   1.000  Zr
  Zr12     1.0000 0.26155  0.90206  0.22072  Biso   1.000  Zr
  Zr13     1.0000 0.14070  0.02103  0.61430  Biso   1.000  Zr
  Zr14     1.0000 0.13920  0.46539  0.84219  Biso   1.000  Zr
  Zr15     1.0000 0.35016  0.49461  0.60904  Biso   1.000  Zr
  Zr16     1.0000 0.37461  0.96284  0.85922  Biso   1.000  Zr
  Zr17     1.0000 0.98602  0.22284  0.51834  Biso   1.000  Zr
  Zr18     1.0000 0.03728  0.12416  0.78652  Biso   1.000  Zr
  Zr19     1.0000 0.96653  0.63136  0.78688  Biso   1.000  Zr
  Zr20     1.0000 0.99846  0.74310  0.52600  Biso   1.000  Zr
  Zr21     1.0000 0.28833  0.22808  0.73586  Biso   1.000  Zr
  Zr22     1.0000 0.25020  0.20508  0.46985  Biso   1.000  Zr
  Zr23     1.0000 0.24908  0.72009  0.47732  Biso   1.000  Zr
  Zr24     1.0000 0.23604  0.75370  0.73646  Biso   1.000  Zr
  Zr25     1.0000 0.63792  0.06759  0.11086  Biso   1.000  Zr
  Zr26     1.0000 0.60487  0.44974  0.38894  Biso   1.000  Zr
  Zr27     1.0000 0.84364  0.56042  0.11262  Biso   1.000  Zr
  Zr28     1.0000 0.89168  0.95403  0.38107  Biso   1.000  Zr
  Zr29     1.0000 0.53388  0.37461  0.02384  Biso   1.000  Zr
  Zr30     1.0000 0.51562  0.14898  0.27244  Biso   1.000  Zr
  Zr31     1.0000 0.48040  0.64650  0.27433  Biso   1.000  Zr
  Zr32     1.0000 0.47564  0.87438  0.02737  Biso   1.000  Zr
  Zr33     1.0000 0.72928  0.37749  0.23204  Biso   1.000  Zr
  Zr34     1.0000 0.77028  0.24352  0.98627  Biso   1.000  Zr
  Zr35     1.0000 0.73169  0.74710  0.98202  Biso   1.000  Zr
  Zr36     1.0000 0.76250  0.87697  0.22766  Biso   1.000  Zr
  Zr37     1.0000 0.64072  0.99160  0.61079  Biso   1.000  Zr
  Zr38     1.0000 0.63201  0.46015  0.85605  Biso   1.000  Zr
  Zr39     1.0000 0.86450  0.50091  0.61693  Biso   1.000  Zr
  Zr40     1.0000 0.87591  0.96405  0.86827  Biso   1.000  Zr
  Zr41     1.0000 0.49763  0.24058  0.52375  Biso   1.000  Zr
  Zr42     1.0000 0.53999  0.11395  0.78104  Biso   1.000  Zr
  Zr43     1.0000 0.47053  0.61803  0.77806  Biso   1.000  Zr
  Zr44     1.0000 0.49874  0.74003  0.52211  Biso   1.000  Zr
  Zr45     1.0000 0.77264  0.24391  0.73501  Biso   1.000  Zr
  Zr46     1.0000 0.74434  0.20314  0.48242  Biso   1.000  Zr
  Zr47     1.0000 0.75102  0.70378  0.48410  Biso   1.000  Zr
  Zr48     1.0000 0.73441  0.74481  0.73518  Biso   1.000  Zr
  Mg1      1.0000 0.11026  0.66231  0.14375  Biso   1.000  Mg
