data_image0
_cell_length_a       10.1393
_cell_length_b       5.12944
_cell_length_c       10.4898
_cell_angle_alpha    89.9137
_cell_angle_beta     89.9399
_cell_angle_gamma    89.9438

_symmetry_space_group_name_H-M    "P 1"
_symmetry_int_tables_number       1

loop_
  _symmetry_equiv_pos_as_xyz
  'x, y, z'

loop_
  _atom_site_label
  _atom_site_occupancy
  _atom_site_fract_x
  _atom_site_fract_y
  _atom_site_fract_z
  _atom_site_thermal_displace_type
  _atom_site_B_iso_or_equiv
  _atom_site_type_symbol
  Mg1      1.0000 0.13668  0.02799  0.17642  Biso   1.000  Mg
  Zr1      1.0000 0.14037  0.04189  0.67217  Biso   1.000  Zr
  Zr2      1.0000 0.14207  0.45837  0.41775  Biso   1.000  Zr
  Zr3      1.0000 0.14321  0.45669  0.92728  Biso   1.000  Zr
  Zr4      1.0000 0.35345  0.53888  0.17207  Biso   1.000  Zr
  Zr5      1.0000 0.36032  0.54393  0.67204  Biso   1.000  Zr
  Zr6      1.0000 0.35737  0.96063  0.41831  Biso   1.000  Zr
  Zr7      1.0000 0.35737  0.95864  0.92585  Biso   1.000  Zr
  Zr8      1.0000 0.63881  0.04030  0.07810  Biso   1.000  Zr
  Zr9      1.0000 0.63817  0.04177  0.57690  Biso   1.000  Zr
  Zr10     1.0000 0.63811  0.46076  0.32664  Biso   1.000  Zr
  Zr11     1.0000 0.63877  0.45820  0.82858  Biso   1.000  Zr
  Zr12     1.0000 0.86464  0.53966  0.07910  Biso   1.000  Zr
  Zr13     1.0000 0.85990  0.54116  0.57710  Biso   1.000  Zr
  Zr14     1.0000 0.86283  0.96107  0.32580  Biso   1.000  Zr
  Zr15     1.0000 0.86052  0.95779  0.82861  Biso   1.000  Zr
  O1       1.0000 0.03150  0.31761  0.08246  Biso   1.000  O
  O2       1.0000 0.03016  0.32320  0.58148  Biso   1.000  O
  O3       1.0000 0.02680  0.18538  0.33468  Biso   1.000  O
  O4       1.0000 0.02972  0.17808  0.83155  Biso   1.000  O
  O5       1.0000 0.47025  0.82209  0.08322  Biso   1.000  O
  O6       1.0000 0.46788  0.82889  0.58265  Biso   1.000  O
  O7       1.0000 0.46906  0.67645  0.33243  Biso   1.000  O
  O8       1.0000 0.46881  0.67323  0.83316  Biso   1.000  O
  O9       1.0000 0.27776  0.25017  0.29855  Biso   1.000  O
  O10      1.0000 0.27425  0.24814  0.79535  Biso   1.000  O
  O11      1.0000 0.28189  0.25821  0.04251  Biso   1.000  O
  O12      1.0000 0.27492  0.25333  0.54651  Biso   1.000  O
  O13      1.0000 0.22455  0.74707  0.29672  Biso   1.000  O
  O14      1.0000 0.22533  0.74937  0.79571  Biso   1.000  O
  O15      1.0000 0.22659  0.74978  0.04484  Biso   1.000  O
  O16      1.0000 0.22448  0.75319  0.54624  Biso   1.000  O
  O17      1.0000 0.53094  0.32641  0.16660  Biso   1.000  O
  O18      1.0000 0.53168  0.32940  0.66621  Biso   1.000  O
  O19      1.0000 0.53131  0.17289  0.41570  Biso   1.000  O
  O20      1.0000 0.53189  0.17086  0.91657  Biso   1.000  O
  O21      1.0000 0.96931  0.81701  0.16992  Biso   1.000  O
  O22      1.0000 0.96957  0.82324  0.66821  Biso   1.000  O
  O23      1.0000 0.97023  0.68097  0.41937  Biso   1.000  O
  O24      1.0000 0.97055  0.67623  0.91830  Biso   1.000  O
  O25      1.0000 0.77501  0.24607  0.95338  Biso   1.000  O
  O26      1.0000 0.77356  0.25225  0.45387  Biso   1.000  O
  O27      1.0000 0.77404  0.25164  0.20349  Biso   1.000  O
  O28      1.0000 0.77458  0.25060  0.70366  Biso   1.000  O
  O29      1.0000 0.72574  0.74624  0.95344  Biso   1.000  O
  O30      1.0000 0.72559  0.75082  0.45345  Biso   1.000  O
  O31      1.0000 0.72421  0.75210  0.20353  Biso   1.000  O
  O32      1.0000 0.72526  0.75135  0.70350  Biso   1.000  O
