data_image0
_cell_length_a       10.0151
_cell_length_b       5.21735
_cell_length_c       10.0185
_cell_angle_alpha    92.1036
_cell_angle_beta     89.2203
_cell_angle_gamma    90.1708

_symmetry_space_group_name_H-M    "P 1"
_symmetry_int_tables_number       1

loop_
  _symmetry_equiv_pos_as_xyz
  'x, y, z'

loop_
  _atom_site_label
  _atom_site_occupancy
  _atom_site_fract_x
  _atom_site_fract_y
  _atom_site_fract_z
  _atom_site_thermal_displace_type
  _atom_site_B_iso_or_equiv
  _atom_site_type_symbol
  Mn1      1.0000 0.11626  0.06811  0.11137  Biso   1.000  Mn
  Zr1      1.0000 0.13728  0.03798  0.63053  Biso   1.000  Zr
  Zr2      1.0000 0.63764  0.04413  0.12675  Biso   1.000  Zr
  Zr3      1.0000 0.62314  0.02357  0.61505  Biso   1.000  Zr
  Zr4      1.0000 0.13775  0.43975  0.37198  Biso   1.000  Zr
  Zr5      1.0000 0.13058  0.48587  0.88725  Biso   1.000  Zr
  Zr6      1.0000 0.63917  0.47269  0.37940  Biso   1.000  Zr
  Zr7      1.0000 0.63558  0.47432  0.86637  Biso   1.000  Zr
  Zr8      1.0000 0.39059  0.52348  0.10573  Biso   1.000  Zr
  Zr9      1.0000 0.36339  0.54134  0.63137  Biso   1.000  Zr
  Zr10     1.0000 0.86985  0.53850  0.11915  Biso   1.000  Zr
  Zr11     1.0000 0.87389  0.52746  0.61785  Biso   1.000  Zr
  Zr12     1.0000 0.36428  0.93980  0.37119  Biso   1.000  Zr
  Zr13     1.0000 0.35302  0.98654  0.88824  Biso   1.000  Zr
  Zr14     1.0000 0.87196  0.97271  0.37251  Biso   1.000  Zr
  Zr15     1.0000 0.86245  0.97539  0.86744  Biso   1.000  Zr
  Zr16     1.0000 0.03678  0.36783  0.18450  Biso   1.000  Zr
  Zr17     1.0000 0.03386  0.37050  0.70380  Biso   1.000  Zr
  Zr18     1.0000 0.54067  0.37633  0.20537  Biso   1.000  Zr
  Zr19     1.0000 0.53208  0.36958  0.69273  Biso   1.000  Zr
  Zr20     1.0000 0.03032  0.13764  0.45927  Biso   1.000  Zr
  Zr21     1.0000 0.03110  0.13581  0.94794  Biso   1.000  Zr
  Zr22     1.0000 0.53594  0.13481  0.43676  Biso   1.000  Zr
  Zr23     1.0000 0.51375  0.18858  0.96545  Biso   1.000  Zr
  Zr24     1.0000 0.46919  0.87523  0.18890  Biso   1.000  Zr
  Zr25     1.0000 0.45844  0.88319  0.70346  Biso   1.000  Zr
  Zr26     1.0000 0.98380  0.87801  0.18335  Biso   1.000  Zr
  Zr27     1.0000 0.96624  0.86814  0.69076  Biso   1.000  Zr
  Zr28     1.0000 0.47825  0.65203  0.46416  Biso   1.000  Zr
  Zr29     1.0000 0.46345  0.66637  0.93198  Biso   1.000  Zr
  Zr30     1.0000 0.96785  0.62951  0.43307  Biso   1.000  Zr
  Zr31     1.0000 0.95405  0.63750  0.93675  Biso   1.000  Zr
  Zr32     1.0000 0.22048  0.10196  0.25411  Biso   1.000  Zr
  Zr33     1.0000 0.26863  0.25225  0.75943  Biso   1.000  Zr
  Zr34     1.0000 0.77851  0.23825  0.24560  Biso   1.000  Zr
  Zr35     1.0000 0.76234  0.22478  0.74324  Biso   1.000  Zr
  Zr36     1.0000 0.27520  0.25545  0.49981  Biso   1.000  Zr
  Zr37     1.0000 0.25256  0.27487  0.01638  Biso   1.000  Zr
  Zr38     1.0000 0.76811  0.26664  0.49600  Biso   1.000  Zr
  Zr39     1.0000 0.76396  0.27567  0.99421  Biso   1.000  Zr
  Zr40     1.0000 0.22721  0.75454  0.50370  Biso   1.000  Zr
  Zr41     1.0000 0.22009  0.78645  0.01831  Biso   1.000  Zr
  Zr42     1.0000 0.74025  0.77163  0.49477  Biso   1.000  Zr
  Zr43     1.0000 0.72437  0.77913  0.99225  Biso   1.000  Zr
  Zr44     1.0000 0.28160  0.60849  0.26803  Biso   1.000  Zr
  Zr45     1.0000 0.22459  0.74820  0.75955  Biso   1.000  Zr
  Zr46     1.0000 0.73755  0.74045  0.24429  Biso   1.000  Zr
  Zr47     1.0000 0.73140  0.72717  0.74063  Biso   1.000  Zr
