data_image0
_cell_length_a       10.0857
_cell_length_b       10.4892
_cell_length_c       10.1224
_cell_angle_alpha    89.7477
_cell_angle_beta     89.7116
_cell_angle_gamma    89.8117

_symmetry_space_group_name_H-M    "P 1"
_symmetry_int_tables_number       1

loop_
  _symmetry_equiv_pos_as_xyz
  'x, y, z'

loop_
  _atom_site_label
  _atom_site_occupancy
  _atom_site_fract_x
  _atom_site_fract_y
  _atom_site_fract_z
  _atom_site_thermal_displace_type
  _atom_site_B_iso_or_equiv
  _atom_site_type_symbol
  Zr1      1.0000 0.13116  0.01786  0.12325  Biso   1.000  Zr
  Zr2      1.0000 0.13522  0.22869  0.37745  Biso   1.000  Zr
  Zr3      1.0000 0.37947  0.26708  0.12257  Biso   1.000  Zr
  Zr4      1.0000 0.36778  0.48310  0.37397  Biso   1.000  Zr
  Zr5      1.0000 0.00474  0.16706  0.22756  Biso   1.000  Zr
  Zr6      1.0000 0.03703  0.06026  0.45216  Biso   1.000  Zr
  Zr7      1.0000 0.47153  0.43286  0.19926  Biso   1.000  Zr
  Zr8      1.0000 0.46952  0.31822  0.44987  Biso   1.000  Zr
  Zr9      1.0000 0.26736  0.10964  0.25031  Biso   1.000  Zr
  Zr10     1.0000 0.27234  0.13078  0.50085  Biso   1.000  Zr
  Zr11     1.0000 0.23409  0.38378  0.49886  Biso   1.000  Zr
  Zr12     1.0000 0.23940  0.36212  0.24980  Biso   1.000  Zr
  Zr13     1.0000 0.13437  0.00924  0.62433  Biso   1.000  Zr
  Zr14     1.0000 0.12880  0.23212  0.85505  Biso   1.000  Zr
  Zr15     1.0000 0.36901  0.26481  0.62318  Biso   1.000  Zr
  Zr16     1.0000 0.37035  0.48974  0.87104  Biso   1.000  Zr
  Zr17     1.0000 0.02881  0.17263  0.68813  Biso   1.000  Zr
  Zr18     1.0000 0.02905  0.06449  0.94364  Biso   1.000  Zr
  Zr19     1.0000 0.47010  0.43018  0.69639  Biso   1.000  Zr
  Zr20     1.0000 0.46886  0.32147  0.94435  Biso   1.000  Zr
  Zr21     1.0000 0.26716  0.11184  0.74912  Biso   1.000  Zr
  Zr22     1.0000 0.24680  0.16020  0.00672  Biso   1.000  Zr
  Zr23     1.0000 0.23941  0.40423  0.99776  Biso   1.000  Zr
  Zr24     1.0000 0.23615  0.36524  0.74575  Biso   1.000  Zr
  Zr25     1.0000 0.13601  0.53719  0.11864  Biso   1.000  Zr
  Zr26     1.0000 0.13550  0.73507  0.37613  Biso   1.000  Zr
  Zr27     1.0000 0.36798  0.76928  0.12436  Biso   1.000  Zr
  Zr28     1.0000 0.36660  0.98431  0.37586  Biso   1.000  Zr
  Zr29     1.0000 0.02872  0.68623  0.20459  Biso   1.000  Zr
  Zr30     1.0000 0.03462  0.56732  0.44724  Biso   1.000  Zr
  Zr31     1.0000 0.46596  0.93110  0.19938  Biso   1.000  Zr
  Zr32     1.0000 0.46938  0.81649  0.44735  Biso   1.000  Zr
  Zr33     1.0000 0.27461  0.62120  0.24746  Biso   1.000  Zr
  Zr34     1.0000 0.26995  0.63192  0.49688  Biso   1.000  Zr
  Zr35     1.0000 0.23418  0.88074  0.49751  Biso   1.000  Zr
  Zr36     1.0000 0.22955  0.86600  0.24663  Biso   1.000  Zr
  Zr37     1.0000 0.13408  0.51278  0.62353  Biso   1.000  Zr
  Zr38     1.0000 0.12991  0.73942  0.86783  Biso   1.000  Zr
  Zr39     1.0000 0.36924  0.76071  0.62188  Biso   1.000  Zr
  Zr40     1.0000 0.37177  0.98223  0.86881  Biso   1.000  Zr
  Zr41     1.0000 0.03406  0.67958  0.69311  Biso   1.000  Zr
  Zr42     1.0000 0.03099  0.57307  0.94473  Biso   1.000  Zr
  Zr43     1.0000 0.47003  0.92812  0.69693  Biso   1.000  Zr
  Zr44     1.0000 0.47093  0.82101  0.94689  Biso   1.000  Zr
  Zr45     1.0000 0.26745  0.61370  0.74469  Biso   1.000  Zr
  Zr46     1.0000 0.26781  0.65028  0.99165  Biso   1.000  Zr
  Zr47     1.0000 0.23538  0.89604  0.99569  Biso   1.000  Zr
  Zr48     1.0000 0.23639  0.86211  0.74510  Biso   1.000  Zr
  Zr49     1.0000 0.63081  0.01089  0.12518  Biso   1.000  Zr
  Zr50     1.0000 0.63362  0.23217  0.37662  Biso   1.000  Zr
  Zr51     1.0000 0.85090  0.25758  0.12401  Biso   1.000  Zr
  Zr52     1.0000 0.87110  0.48103  0.37324  Biso   1.000  Zr
  Zr53     1.0000 0.53320  0.17797  0.20400  Biso   1.000  Zr
  Zr54     1.0000 0.53364  0.06674  0.44994  Biso   1.000  Zr
  Zr55     1.0000 0.97465  0.42476  0.19603  Biso   1.000  Zr
  Zr56     1.0000 0.97085  0.32003  0.45256  Biso   1.000  Zr
  Zr57     1.0000 0.75796  0.10892  0.24887  Biso   1.000  Zr
  Zr58     1.0000 0.77070  0.13423  0.49663  Biso   1.000  Zr
  Zr59     1.0000 0.73465  0.38405  0.49861  Biso   1.000  Zr
  Zr60     1.0000 0.73109  0.36579  0.25100  Biso   1.000  Zr
  Zr61     1.0000 0.63652  0.01275  0.62216  Biso   1.000  Zr
  Zr62     1.0000 0.63166  0.23380  0.87195  Biso   1.000  Zr
  Zr63     1.0000 0.86524  0.26536  0.62324  Biso   1.000  Zr
  Zr64     1.0000 0.86560  0.48358  0.87621  Biso   1.000  Zr
  Zr65     1.0000 0.53267  0.17798  0.69892  Biso   1.000  Zr
  Zr66     1.0000 0.52148  0.07516  0.95546  Biso   1.000  Zr
  Zr67     1.0000 0.97193  0.42546  0.70492  Biso   1.000  Zr
  Zr68     1.0000 0.96600  0.31684  0.95191  Biso   1.000  Zr
  Zr69     1.0000 0.76784  0.11346  0.74627  Biso   1.000  Zr
  Zr70     1.0000 0.76161  0.12976  0.99531  Biso   1.000  Zr
  Zr71     1.0000 0.72729  0.38339  0.99789  Biso   1.000  Zr
  Zr72     1.0000 0.73276  0.36499  0.74860  Biso   1.000  Zr
  Zr73     1.0000 0.63505  0.51711  0.12612  Biso   1.000  Zr
  Zr74     1.0000 0.63508  0.73338  0.37377  Biso   1.000  Zr
  Zr75     1.0000 0.86487  0.76492  0.12483  Biso   1.000  Zr
  Zr76     1.0000 0.87183  0.98639  0.37039  Biso   1.000  Zr
  Zr77     1.0000 0.53615  0.68391  0.19577  Biso   1.000  Zr
  Zr78     1.0000 0.53353  0.56726  0.44725  Biso   1.000  Zr
  Zr79     1.0000 0.96372  0.93012  0.19268  Biso   1.000  Zr
  Zr80     1.0000 0.96801  0.81794  0.44653  Biso   1.000  Zr
  Zr81     1.0000 0.77077  0.61307  0.24753  Biso   1.000  Zr
  Zr82     1.0000 0.76907  0.63308  0.49681  Biso   1.000  Zr
  Zr83     1.0000 0.73517  0.88497  0.49540  Biso   1.000  Zr
  Zr84     1.0000 0.73134  0.86313  0.24706  Biso   1.000  Zr
  Zr85     1.0000 0.63543  0.51454  0.62337  Biso   1.000  Zr
  Zr86     1.0000 0.63528  0.73322  0.87432  Biso   1.000  Zr
  Zr87     1.0000 0.86722  0.76372  0.62138  Biso   1.000  Zr
  Zr88     1.0000 0.86617  0.98189  0.87323  Biso   1.000  Zr
  Zr89     1.0000 0.53379  0.67873  0.69914  Biso   1.000  Zr
  Zr90     1.0000 0.53324  0.57062  0.94957  Biso   1.000  Zr
  Zr91     1.0000 0.97019  0.92439  0.70060  Biso   1.000  Zr
  Zr92     1.0000 0.96597  0.81691  0.94850  Biso   1.000  Zr
  Zr93     1.0000 0.77018  0.61323  0.74705  Biso   1.000  Zr
  Zr94     1.0000 0.76921  0.63306  0.99718  Biso   1.000  Zr
  Zr95     1.0000 0.72973  0.88285  0.99634  Biso   1.000  Zr
  Zr96     1.0000 0.73237  0.86289  0.74542  Biso   1.000  Zr
  Mo1      1.0000 0.10744  0.29662  0.10607  Biso   1.000  Mo
