data_image0
_cell_length_a       10.2779
_cell_length_b       10.3159
_cell_length_c       10.602
_cell_angle_alpha    89.9004
_cell_angle_beta     79.5758
_cell_angle_gamma    90.1577

_symmetry_space_group_name_H-M    "P 1"
_symmetry_int_tables_number       1

loop_
  _symmetry_equiv_pos_as_xyz
  'x, y, z'

loop_
  _atom_site_label
  _atom_site_occupancy
  _atom_site_fract_x
  _atom_site_fract_y
  _atom_site_fract_z
  _atom_site_thermal_displace_type
  _atom_site_B_iso_or_equiv
  _atom_site_type_symbol
  Zr1      1.0000 0.13628  0.02084  0.14586  Biso   1.000  Zr
  Zr2      1.0000 0.12776  0.22770  0.39441  Biso   1.000  Zr
  Zr3      1.0000 0.35755  0.27225  0.10218  Biso   1.000  Zr
  Zr4      1.0000 0.35829  0.49592  0.34960  Biso   1.000  Zr
  O1       1.0000 0.03172  0.16280  0.07408  Biso   1.000  O
  O2       1.0000 0.02844  0.08470  0.32145  Biso   1.000  O
  O3       1.0000 0.47851  0.38525  0.20162  Biso   1.000  O
  O4       1.0000 0.48964  0.37724  0.45002  Biso   1.000  O
  O5       1.0000 0.27683  0.12745  0.24562  Biso   1.000  O
  O6       1.0000 0.28181  0.11636  0.48958  Biso   1.000  O
  O7       1.0000 0.22403  0.37835  0.00379  Biso   1.000  O
  O8       1.0000 0.21510  0.37710  0.24970  Biso   1.000  O
  Zr5      1.0000 0.13963  0.02223  0.64596  Biso   1.000  Zr
  Zr6      1.0000 0.13770  0.22853  0.89462  Biso   1.000  Zr
  Zr7      1.0000 0.37055  0.27248  0.60875  Biso   1.000  Zr
  Zr8      1.0000 0.36122  0.47960  0.85525  Biso   1.000  Zr
  O9       1.0000 0.03359  0.16265  0.57406  Biso   1.000  O
  O10      1.0000 0.03136  0.08695  0.82389  Biso   1.000  O
  O11      1.0000 0.47569  0.40393  0.69330  Biso   1.000  O
  O12      1.0000 0.47380  0.35107  0.93904  Biso   1.000  O
  O13      1.0000 0.27421  0.12763  0.74370  Biso   1.000  O
  O14      1.0000 0.27363  0.12257  0.99189  Biso   1.000  O
  O15      1.0000 0.24325  0.36803  0.49147  Biso   1.000  O
  O16      1.0000 0.22492  0.37417  0.75569  Biso   1.000  O
  Zr9      1.0000 0.13652  0.52094  0.14282  Biso   1.000  Zr
  Zr10     1.0000 0.13161  0.72871  0.39643  Biso   1.000  Zr
  Zr11     1.0000 0.36101  0.77111  0.10134  Biso   1.000  Zr
  Zr12     1.0000 0.35919  0.96654  0.35352  Biso   1.000  Zr
  O17      1.0000 0.02841  0.66261  0.07143  Biso   1.000  O
  O18      1.0000 0.02941  0.58911  0.32225  Biso   1.000  O
  O19      1.0000 0.46986  0.90416  0.17761  Biso   1.000  O
  O20      1.0000 0.46963  0.83943  0.43011  Biso   1.000  O
  O21      1.0000 0.27079  0.63106  0.23846  Biso   1.000  O
  O22      1.0000 0.26830  0.62463  0.49343  Biso   1.000  O
  O23      1.0000 0.22468  0.87828  0.00952  Biso   1.000  O
  O24      1.0000 0.22203  0.87082  0.25877  Biso   1.000  O
  Zr13     1.0000 0.13883  0.52027  0.64506  Biso   1.000  Zr
  Zr14     1.0000 0.13682  0.72839  0.89455  Biso   1.000  Zr
  Zr15     1.0000 0.36129  0.77170  0.60626  Biso   1.000  Zr
  Zr16     1.0000 0.36141  0.97904  0.85505  Biso   1.000  Zr
  O25      1.0000 0.02749  0.66026  0.57443  Biso   1.000  O
  O26      1.0000 0.03217  0.58762  0.82040  Biso   1.000  O
  O27      1.0000 0.46892  0.91033  0.67822  Biso   1.000  O
  O28      1.0000 0.46999  0.84042  0.92756  Biso   1.000  O
  O29      1.0000 0.27433  0.62752  0.73970  Biso   1.000  O
  O30      1.0000 0.27214  0.62341  0.98926  Biso   1.000  O
  O31      1.0000 0.22321  0.87543  0.51087  Biso   1.000  O
  O32      1.0000 0.22491  0.87238  0.76021  Biso   1.000  O
  Zr17     1.0000 0.63883  0.02169  0.14238  Biso   1.000  Zr
  Zr18     1.0000 0.63744  0.23360  0.40208  Biso   1.000  Zr
  Zr19     1.0000 0.86065  0.27151  0.10577  Biso   1.000  Zr
  Zr20     1.0000 0.86004  0.47907  0.35432  Biso   1.000  Zr
  O33      1.0000 0.52680  0.15482  0.07045  Biso   1.000  O
  O34      1.0000 0.52942  0.08807  0.31927  Biso   1.000  O
  O35      1.0000 0.96577  0.41381  0.17292  Biso   1.000  O
  O36      1.0000 0.96645  0.34009  0.42525  Biso   1.000  O
  O37      1.0000 0.77354  0.12708  0.23831  Biso   1.000  O
  O38      1.0000 0.77867  0.12033  0.49147  Biso   1.000  O
  O39      1.0000 0.72596  0.37673  0.01219  Biso   1.000  O
  O40      1.0000 0.72689  0.37393  0.26179  Biso   1.000  O
  Zr21     1.0000 0.64052  0.02030  0.64681  Biso   1.000  Zr
  Zr22     1.0000 0.63658  0.22850  0.89770  Biso   1.000  Zr
  Zr23     1.0000 0.86012  0.27098  0.60686  Biso   1.000  Zr
  Zr24     1.0000 0.86152  0.47711  0.85465  Biso   1.000  Zr
  O41      1.0000 0.53810  0.16323  0.58148  Biso   1.000  O
  O42      1.0000 0.52987  0.09071  0.82469  Biso   1.000  O
  O43      1.0000 0.97099  0.41035  0.67402  Biso   1.000  O
  O44      1.0000 0.96765  0.33663  0.92374  Biso   1.000  O
  O45      1.0000 0.77469  0.12748  0.74140  Biso   1.000  O
  O46      1.0000 0.77329  0.12202  0.98899  Biso   1.000  O
  O47      1.0000 0.73013  0.37857  0.51472  Biso   1.000  O
  O48      1.0000 0.72740  0.37197  0.76272  Biso   1.000  O
  Zr25     1.0000 0.63828  0.51966  0.14721  Biso   1.000  Zr
  Zr26     1.0000 0.63911  0.72840  0.39527  Biso   1.000  Zr
  Zr27     1.0000 0.86042  0.77141  0.10299  Biso   1.000  Zr
  Zr28     1.0000 0.85673  0.97914  0.35353  Biso   1.000  Zr
  O49      1.0000 0.52510  0.64974  0.06853  Biso   1.000  O
  O50      1.0000 0.52864  0.60247  0.31379  Biso   1.000  O
  O51      1.0000 0.96675  0.91265  0.17213  Biso   1.000  O
  O52      1.0000 0.96500  0.83823  0.42447  Biso   1.000  O
  O53      1.0000 0.77349  0.62711  0.23808  Biso   1.000  O
  O54      1.0000 0.77312  0.62295  0.48844  Biso   1.000  O
  O55      1.0000 0.72445  0.87693  0.00978  Biso   1.000  O
  O56      1.0000 0.72368  0.87195  0.25981  Biso   1.000  O
  Zr29     1.0000 0.63722  0.52186  0.64586  Biso   1.000  Zr
  Zr30     1.0000 0.63762  0.72612  0.89545  Biso   1.000  Zr
  Zr31     1.0000 0.86042  0.77197  0.60473  Biso   1.000  Zr
  Zr32     1.0000 0.86099  0.97816  0.85373  Biso   1.000  Zr
  O57      1.0000 0.52799  0.65656  0.57080  Biso   1.000  O
  O58      1.0000 0.52798  0.59559  0.81967  Biso   1.000  O
  O59      1.0000 0.96848  0.91311  0.67378  Biso   1.000  O
  O60      1.0000 0.96684  0.83676  0.92276  Biso   1.000  O
  O61      1.0000 0.77353  0.62675  0.73911  Biso   1.000  O
  O62      1.0000 0.77290  0.62077  0.98930  Biso   1.000  O
  O63      1.0000 0.72348  0.87708  0.51057  Biso   1.000  O
  O64      1.0000 0.72571  0.87104  0.76052  Biso   1.000  O
  Mo1      1.0000 0.39362  0.24513  0.35789  Biso   1.000  Mo
