data_image0
_cell_length_a       10.1658
_cell_length_b       10.42
_cell_length_c       5.09115
_cell_angle_alpha    90.7782
_cell_angle_beta     88.0299
_cell_angle_gamma    89.4002

_symmetry_space_group_name_H-M    "P 1"
_symmetry_int_tables_number       1

loop_
  _symmetry_equiv_pos_as_xyz
  'x, y, z'

loop_
  _atom_site_label
  _atom_site_occupancy
  _atom_site_fract_x
  _atom_site_fract_y
  _atom_site_fract_z
  _atom_site_thermal_displace_type
  _atom_site_B_iso_or_equiv
  _atom_site_type_symbol
  Zr1      1.0000 0.12123  0.99340  0.21002  Biso   1.000  Zr
  Zr2      1.0000 0.13008  0.20937  0.70335  Biso   1.000  Zr
  Zr3      1.0000 0.39297  0.24910  0.24293  Biso   1.000  Zr
  Zr4      1.0000 0.37382  0.49710  0.72946  Biso   1.000  Zr
  Zr5      1.0000 0.01154  0.15943  0.39715  Biso   1.000  Zr
  Zr6      1.0000 0.99814  0.08694  0.92517  Biso   1.000  Zr
  Zr7      1.0000 0.50609  0.39542  0.47757  Biso   1.000  Zr
  Zr8      1.0000 0.51435  0.34853  0.97984  Biso   1.000  Zr
  Zr9      1.0000 0.25584  0.07765  0.47564  Biso   1.000  Zr
  Zr10     1.0000 0.25641  0.15712  0.99919  Biso   1.000  Zr
  Zr11     1.0000 0.27114  0.41712  0.02895  Biso   1.000  Zr
  Zr12     1.0000 0.26278  0.33841  0.52856  Biso   1.000  Zr
  Zr13     1.0000 0.12759  0.54349  0.20507  Biso   1.000  Zr
  Zr14     1.0000 0.12414  0.75937  0.70836  Biso   1.000  Zr
  Zr15     1.0000 0.38350  0.74061  0.23343  Biso   1.000  Zr
  Zr16     1.0000 0.38568  0.00514  0.74530  Biso   1.000  Zr
  Zr17     1.0000 0.99613  0.66283  0.45497  Biso   1.000  Zr
  Zr18     1.0000 0.99993  0.60681  0.93261  Biso   1.000  Zr
  Zr19     1.0000 0.48610  0.89245  0.46388  Biso   1.000  Zr
  Zr20     1.0000 0.48686  0.84893  0.96015  Biso   1.000  Zr
  Zr21     1.0000 0.25601  0.60273  0.48313  Biso   1.000  Zr
  Zr22     1.0000 0.25497  0.66481  0.95732  Biso   1.000  Zr
  Zr23     1.0000 0.22647  0.91329  0.89059  Biso   1.000  Zr
  Zr24     1.0000 0.22380  0.83605  0.38460  Biso   1.000  Zr
  Zr25     1.0000 0.62154  0.99789  0.24526  Biso   1.000  Zr
  Zr26     1.0000 0.63577  0.25521  0.71043  Biso   1.000  Zr
  Zr27     1.0000 0.87236  0.24930  0.17345  Biso   1.000  Zr
  Zr28     1.0000 0.88460  0.49840  0.69268  Biso   1.000  Zr
  Zr29     1.0000 0.50530  0.14228  0.50810  Biso   1.000  Zr
  Zr30     1.0000 0.50029  0.09771  0.01032  Biso   1.000  Zr
  Zr31     1.0000 0.99357  0.41618  0.39673  Biso   1.000  Zr
  Zr32     1.0000 0.99942  0.34116  0.89688  Biso   1.000  Zr
  Zr33     1.0000 0.75599  0.09872  0.45321  Biso   1.000  Zr
  Zr34     1.0000 0.74754  0.14115  0.94941  Biso   1.000  Zr
  Zr35     1.0000 0.75660  0.39720  0.94659  Biso   1.000  Zr
  Zr36     1.0000 0.75064  0.35032  0.44471  Biso   1.000  Zr
  Zr37     1.0000 0.63035  0.49565  0.21693  Biso   1.000  Zr
  Zr38     1.0000 0.62193  0.73873  0.73415  Biso   1.000  Zr
  Zr39     1.0000 0.86561  0.75115  0.21849  Biso   1.000  Zr
  Zr40     1.0000 0.85870  0.98992  0.72960  Biso   1.000  Zr
  Zr41     1.0000 0.50379  0.64187  0.47807  Biso   1.000  Zr
  Zr42     1.0000 0.50128  0.59753  0.97927  Biso   1.000  Zr
  Zr43     1.0000 0.98791  0.90792  0.46364  Biso   1.000  Zr
  Zr44     1.0000 0.98779  0.84860  0.96738  Biso   1.000  Zr
  Zr45     1.0000 0.75029  0.59898  0.47114  Biso   1.000  Zr
  Zr46     1.0000 0.74620  0.64447  0.97701  Biso   1.000  Zr
  Zr47     1.0000 0.73813  0.89008  0.98356  Biso   1.000  Zr
  Zr48     1.0000 0.73872  0.84920  0.48328  Biso   1.000  Zr
  Mo1      1.0000 0.13358  0.30159  0.20745  Biso   1.000  Mo
