data_image0
_cell_length_a       10.1096
_cell_length_b       10.1095
_cell_length_c       5.04658
_cell_angle_alpha    88.5114
_cell_angle_beta     88.5091
_cell_angle_gamma    87.6297

_symmetry_space_group_name_H-M    "P 1"
_symmetry_int_tables_number       1

loop_
  _symmetry_equiv_pos_as_xyz
  'x, y, z'

loop_
  _atom_site_label
  _atom_site_occupancy
  _atom_site_fract_x
  _atom_site_fract_y
  _atom_site_fract_z
  _atom_site_thermal_displace_type
  _atom_site_B_iso_or_equiv
  _atom_site_type_symbol
  N1       1.0000 0.16113  0.03597  0.28033  Biso   1.000  N 
  Zr1      1.0000 0.11193  0.49262  0.24077  Biso   1.000  Zr
  Zr2      1.0000 0.61778  0.98677  0.24078  Biso   1.000  Zr
  Zr3      1.0000 0.62246  0.49730  0.24549  Biso   1.000  Zr
  Zr4      1.0000 0.12558  0.25591  0.75164  Biso   1.000  Zr
  Zr5      1.0000 0.10879  0.74655  0.78138  Biso   1.000  Zr
  Zr6      1.0000 0.63202  0.24588  0.74953  Biso   1.000  Zr
  Zr7      1.0000 0.61925  0.74063  0.73428  Biso   1.000  Zr
  Zr8      1.0000 0.38308  0.25792  0.26787  Biso   1.000  Zr
  Zr9      1.0000 0.36294  0.75682  0.22427  Biso   1.000  Zr
  Zr10     1.0000 0.88197  0.23780  0.22427  Biso   1.000  Zr
  Zr11     1.0000 0.88574  0.76059  0.27467  Biso   1.000  Zr
  Zr12     1.0000 0.38107  0.00042  0.75166  Biso   1.000  Zr
  Zr13     1.0000 0.37104  0.50686  0.74954  Biso   1.000  Zr
  Zr14     1.0000 0.87171  0.98364  0.78139  Biso   1.000  Zr
  Zr15     1.0000 0.86579  0.49411  0.73429  Biso   1.000  Zr
  Zr16     1.0000 0.98011  0.14149  0.91722  Biso   1.000  Zr
  Zr17     1.0000 0.97781  0.62929  0.00877  Biso   1.000  Zr
  Zr18     1.0000 0.48138  0.13191  0.00319  Biso   1.000  Zr
  Zr19     1.0000 0.47964  0.63638  0.99305  Biso   1.000  Zr
  Zr20     1.0000 0.07166  0.10617  0.41416  Biso   1.000  Zr
  Zr21     1.0000 0.00920  0.60715  0.51630  Biso   1.000  Zr
  Zr22     1.0000 0.53290  0.11400  0.50749  Biso   1.000  Zr
  Zr23     1.0000 0.50763  0.61289  0.49935  Biso   1.000  Zr
  Zr24     1.0000 0.99040  0.34980  0.49240  Biso   1.000  Zr
  Zr25     1.0000 0.98352  0.85837  0.54143  Biso   1.000  Zr
  Zr26     1.0000 0.49060  0.36546  0.51442  Biso   1.000  Zr
  Zr27     1.0000 0.47496  0.86525  0.49239  Biso   1.000  Zr
  Zr28     1.0000 0.00674  0.38529  0.99177  Biso   1.000  Zr
  Zr29     1.0000 0.00392  0.87876  0.02774  Biso   1.000  Zr
  Zr30     1.0000 0.50937  0.38419  0.00479  Biso   1.000  Zr
  Zr31     1.0000 0.51045  0.88157  0.99176  Biso   1.000  Zr
  Zr32     1.0000 0.29254  0.16737  0.59738  Biso   1.000  Zr
  Zr33     1.0000 0.26066  0.66895  0.52569  Biso   1.000  Zr
  Zr34     1.0000 0.79412  0.13550  0.52568  Biso   1.000  Zr
  Zr35     1.0000 0.75615  0.63099  0.46839  Biso   1.000  Zr
  Zr36     1.0000 0.23054  0.10539  0.09846  Biso   1.000  Zr
  Zr37     1.0000 0.23384  0.61019  0.02146  Biso   1.000  Zr
  Zr38     1.0000 0.73533  0.10870  0.02146  Biso   1.000  Zr
  Zr39     1.0000 0.72410  0.59896  0.95563  Biso   1.000  Zr
  Zr40     1.0000 0.25709  0.35623  0.00317  Biso   1.000  Zr
  Zr41     1.0000 0.26664  0.85495  0.91722  Biso   1.000  Zr
  Zr42     1.0000 0.76156  0.35451  0.99304  Biso   1.000  Zr
  Zr43     1.0000 0.75445  0.85268  0.00879  Biso   1.000  Zr
  Zr44     1.0000 0.23914  0.40774  0.50748  Biso   1.000  Zr
  Zr45     1.0000 0.23134  0.94650  0.41414  Biso   1.000  Zr
  Zr46     1.0000 0.73804  0.38246  0.49934  Biso   1.000  Zr
  Zr47     1.0000 0.73230  0.88404  0.51633  Biso   1.000  Zr
