data_image0
_cell_length_a       5.06544
_cell_length_b       10.49
_cell_length_c       10.1317
_cell_angle_alpha    89.2668
_cell_angle_beta     89.645
_cell_angle_gamma    89.4962

_symmetry_space_group_name_H-M    "P 1"
_symmetry_int_tables_number       1

loop_
  _symmetry_equiv_pos_as_xyz
  'x, y, z'

loop_
  _atom_site_label
  _atom_site_occupancy
  _atom_site_fract_x
  _atom_site_fract_y
  _atom_site_fract_z
  _atom_site_thermal_displace_type
  _atom_site_B_iso_or_equiv
  _atom_site_type_symbol
  Zr1      1.0000 0.25567  0.00863  0.12296  Biso   1.000  Zr
  Zr2      1.0000 0.26533  0.22836  0.38339  Biso   1.000  Zr
  Zr3      1.0000 0.72121  0.26149  0.12529  Biso   1.000  Zr
  Zr4      1.0000 0.74377  0.48074  0.37339  Biso   1.000  Zr
  Zr5      1.0000 0.02175  0.16706  0.21852  Biso   1.000  Zr
  Zr6      1.0000 0.07077  0.06127  0.44983  Biso   1.000  Zr
  Zr7      1.0000 0.94576  0.42757  0.19490  Biso   1.000  Zr
  Zr8      1.0000 0.93445  0.31744  0.44947  Biso   1.000  Zr
  Zr9      1.0000 0.50888  0.11378  0.24372  Biso   1.000  Zr
  Zr10     1.0000 0.54525  0.13003  0.49494  Biso   1.000  Zr
  Zr11     1.0000 0.46117  0.38041  0.49881  Biso   1.000  Zr
  Zr12     1.0000 0.46156  0.36270  0.25105  Biso   1.000  Zr
  Zr13     1.0000 0.27395  0.00630  0.62213  Biso   1.000  Zr
  Zr14     1.0000 0.24740  0.22935  0.84540  Biso   1.000  Zr
  Zr15     1.0000 0.72838  0.26608  0.62254  Biso   1.000  Zr
  Zr16     1.0000 0.74571  0.48631  0.87649  Biso   1.000  Zr
  Zr17     1.0000 0.07105  0.17416  0.68149  Biso   1.000  Zr
  Zr18     1.0000 0.04449  0.07165  0.95174  Biso   1.000  Zr
  Zr19     1.0000 0.95829  0.42094  0.70607  Biso   1.000  Zr
  Zr20     1.0000 0.93822  0.31394  0.94833  Biso   1.000  Zr
  Zr21     1.0000 0.54847  0.11434  0.74042  Biso   1.000  Zr
  Zr22     1.0000 0.50328  0.14531  0.99526  Biso   1.000  Zr
  Zr23     1.0000 0.48781  0.40288  0.00504  Biso   1.000  Zr
  Zr24     1.0000 0.47709  0.36836  0.75124  Biso   1.000  Zr
  Zr25     1.0000 0.27402  0.53317  0.12787  Biso   1.000  Zr
  Zr26     1.0000 0.27381  0.73397  0.37921  Biso   1.000  Zr
  Zr27     1.0000 0.73163  0.76720  0.12468  Biso   1.000  Zr
  Zr28     1.0000 0.74033  0.98699  0.36993  Biso   1.000  Zr
  Zr29     1.0000 0.06660  0.68598  0.20314  Biso   1.000  Zr
  Zr30     1.0000 0.06989  0.56606  0.44883  Biso   1.000  Zr
  Zr31     1.0000 0.92248  0.92961  0.19474  Biso   1.000  Zr
  Zr32     1.0000 0.94228  0.81921  0.44927  Biso   1.000  Zr
  Zr33     1.0000 0.54734  0.61806  0.24978  Biso   1.000  Zr
  Zr34     1.0000 0.54391  0.63061  0.49945  Biso   1.000  Zr
  Zr35     1.0000 0.47451  0.88076  0.49502  Biso   1.000  Zr
  Zr36     1.0000 0.45611  0.86437  0.24641  Biso   1.000  Zr
  Zr37     1.0000 0.27748  0.51393  0.62686  Biso   1.000  Zr
  Zr38     1.0000 0.26368  0.73801  0.87144  Biso   1.000  Zr
  Zr39     1.0000 0.74078  0.76306  0.62354  Biso   1.000  Zr
  Zr40     1.0000 0.73100  0.98556  0.87322  Biso   1.000  Zr
  Zr41     1.0000 0.07130  0.67670  0.69811  Biso   1.000  Zr
  Zr42     1.0000 0.06484  0.57386  0.95348  Biso   1.000  Zr
  Zr43     1.0000 0.94532  0.92505  0.70306  Biso   1.000  Zr
  Zr44     1.0000 0.93855  0.82108  0.95089  Biso   1.000  Zr
  Zr45     1.0000 0.54430  0.61398  0.74869  Biso   1.000  Zr
  Zr46     1.0000 0.53111  0.64531  0.99756  Biso   1.000  Zr
  Zr47     1.0000 0.46311  0.88946  0.99581  Biso   1.000  Zr
  Zr48     1.0000 0.47259  0.86228  0.74611  Biso   1.000  Zr
  Na1      1.0000 0.22122  0.28576  0.09821  Biso   1.000  Na
