data_image0
_cell_length_a       5.13819
_cell_length_b       10.3462
_cell_length_c       10.5305
_cell_angle_alpha    89.9444
_cell_angle_beta     79.8351
_cell_angle_gamma    90.142

_symmetry_space_group_name_H-M    "P 1"
_symmetry_int_tables_number       1

loop_
  _symmetry_equiv_pos_as_xyz
  'x, y, z'

loop_
  _atom_site_label
  _atom_site_occupancy
  _atom_site_fract_x
  _atom_site_fract_y
  _atom_site_fract_z
  _atom_site_thermal_displace_type
  _atom_site_B_iso_or_equiv
  _atom_site_type_symbol
  Na1      1.0000 0.28568  0.01541  0.14633  Biso   1.000  Na
  Zr1      1.0000 0.27934  0.01967  0.64563  Biso   1.000  Zr
  Zr2      1.0000 0.27674  0.51954  0.14407  Biso   1.000  Zr
  Zr3      1.0000 0.27933  0.52170  0.64584  Biso   1.000  Zr
  Zr4      1.0000 0.28108  0.22836  0.39434  Biso   1.000  Zr
  Zr5      1.0000 0.27959  0.22696  0.89878  Biso   1.000  Zr
  Zr6      1.0000 0.27950  0.72762  0.39388  Biso   1.000  Zr
  Zr7      1.0000 0.28442  0.73049  0.89596  Biso   1.000  Zr
  Zr8      1.0000 0.71037  0.26441  0.10460  Biso   1.000  Zr
  Zr9      1.0000 0.71695  0.27087  0.60444  Biso   1.000  Zr
  Zr10     1.0000 0.71646  0.77267  0.10461  Biso   1.000  Zr
  Zr11     1.0000 0.72182  0.77221  0.60299  Biso   1.000  Zr
  Zr12     1.0000 0.71828  0.47812  0.35277  Biso   1.000  Zr
  Zr13     1.0000 0.72078  0.47818  0.85472  Biso   1.000  Zr
  Zr14     1.0000 0.71670  0.98014  0.35095  Biso   1.000  Zr
  Zr15     1.0000 0.71627  0.97974  0.85671  Biso   1.000  Zr
  O1       1.0000 0.06605  0.17885  0.07770  Biso   1.000  O
  O2       1.0000 0.06312  0.16643  0.58168  Biso   1.000  O
  O3       1.0000 0.06465  0.66433  0.07683  Biso   1.000  O
  O4       1.0000 0.06459  0.66391  0.57812  Biso   1.000  O
  O5       1.0000 0.05494  0.08704  0.34573  Biso   1.000  O
  O6       1.0000 0.06829  0.08403  0.82794  Biso   1.000  O
  O7       1.0000 0.06132  0.58515  0.32632  Biso   1.000  O
  O8       1.0000 0.06502  0.58577  0.82663  Biso   1.000  O
  O9       1.0000 0.92827  0.41464  0.17103  Biso   1.000  O
  O10      1.0000 0.93521  0.41418  0.67155  Biso   1.000  O
  O11      1.0000 0.91059  0.91557  0.17278  Biso   1.000  O
  O12      1.0000 0.93377  0.91438  0.67307  Biso   1.000  O
  O13      1.0000 0.93262  0.33666  0.42301  Biso   1.000  O
  O14      1.0000 0.93832  0.33825  0.91947  Biso   1.000  O
  O15      1.0000 0.93736  0.83534  0.42263  Biso   1.000  O
  O16      1.0000 0.94627  0.83898  0.92201  Biso   1.000  O
  O17      1.0000 0.56716  0.13584  0.25128  Biso   1.000  O
  O18      1.0000 0.54935  0.12701  0.73892  Biso   1.000  O
  O19      1.0000 0.54794  0.62379  0.23874  Biso   1.000  O
  O20      1.0000 0.55140  0.62874  0.73932  Biso   1.000  O
  O21      1.0000 0.54440  0.12216  0.49452  Biso   1.000  O
  O22      1.0000 0.57174  0.12945  0.98029  Biso   1.000  O
  O23      1.0000 0.54954  0.62159  0.48974  Biso   1.000  O
  O24      1.0000 0.54838  0.61793  0.98936  Biso   1.000  O
  O25      1.0000 0.44873  0.37877  0.00856  Biso   1.000  O
  O26      1.0000 0.44842  0.37897  0.50961  Biso   1.000  O
  O27      1.0000 0.46881  0.86892  0.99879  Biso   1.000  O
  O28      1.0000 0.45040  0.87789  0.50963  Biso   1.000  O
  O29      1.0000 0.44092  0.37347  0.25924  Biso   1.000  O
  O30      1.0000 0.45092  0.37148  0.75890  Biso   1.000  O
  O31      1.0000 0.45818  0.86230  0.26409  Biso   1.000  O
  O32      1.0000 0.44999  0.87209  0.75592  Biso   1.000  O
