data_image0
_cell_length_a       5.01473
_cell_length_b       10.1482
_cell_length_c       10.1074
_cell_angle_alpha    90.0002
_cell_angle_beta     89.9997
_cell_angle_gamma    90.0008

_symmetry_space_group_name_H-M    "P 1"
_symmetry_int_tables_number       1

loop_
  _symmetry_equiv_pos_as_xyz
  'x, y, z'

loop_
  _atom_site_label
  _atom_site_occupancy
  _atom_site_fract_x
  _atom_site_fract_y
  _atom_site_fract_z
  _atom_site_thermal_displace_type
  _atom_site_B_iso_or_equiv
  _atom_site_type_symbol
  Na1      1.0000 0.25182  0.99991  0.12513  Biso   1.000  Na
  Zr1      1.0000 0.25181  0.99991  0.62514  Biso   1.000  Zr
  Zr2      1.0000 0.25181  0.49991  0.12513  Biso   1.000  Zr
  Zr3      1.0000 0.25180  0.49991  0.62514  Biso   1.000  Zr
  Zr4      1.0000 0.25167  0.24913  0.37391  Biso   1.000  Zr
  Zr5      1.0000 0.25195  0.24913  0.87636  Biso   1.000  Zr
  Zr6      1.0000 0.25195  0.75069  0.37390  Biso   1.000  Zr
  Zr7      1.0000 0.25168  0.75068  0.87636  Biso   1.000  Zr
  Zr8      1.0000 0.75181  0.24715  0.12513  Biso   1.000  Zr
  Zr9      1.0000 0.75181  0.24957  0.62513  Biso   1.000  Zr
  Zr10     1.0000 0.75182  0.75267  0.12512  Biso   1.000  Zr
  Zr11     1.0000 0.75181  0.75025  0.62514  Biso   1.000  Zr
  Zr12     1.0000 0.75181  0.99991  0.37109  Biso   1.000  Zr
  Zr13     1.0000 0.75182  0.99991  0.87918  Biso   1.000  Zr
  Zr14     1.0000 0.75181  0.49991  0.37510  Biso   1.000  Zr
  Zr15     1.0000 0.75181  0.49991  0.87516  Biso   1.000  Zr
  Zr16     1.0000 0.99667  0.13770  0.99542  Biso   1.000  Zr
  Zr17     1.0000 0.01066  0.13741  0.50501  Biso   1.000  Zr
  Zr18     1.0000 0.01261  0.63101  0.00422  Biso   1.000  Zr
  Zr19     1.0000 0.00870  0.63689  0.50463  Biso   1.000  Zr
  Zr20     1.0000 0.98724  0.12613  0.25837  Biso   1.000  Zr
  Zr21     1.0000 0.99545  0.11253  0.75055  Biso   1.000  Zr
  Zr22     1.0000 0.99364  0.61562  0.25323  Biso   1.000  Zr
  Zr23     1.0000 0.99635  0.61249  0.75309  Biso   1.000  Zr
  Zr24     1.0000 0.01258  0.36882  0.24606  Biso   1.000  Zr
  Zr25     1.0000 0.00873  0.36290  0.74563  Biso   1.000  Zr
  Zr26     1.0000 0.99664  0.86212  0.25484  Biso   1.000  Zr
  Zr27     1.0000 0.01070  0.86238  0.74525  Biso   1.000  Zr
  Zr28     1.0000 0.99359  0.38420  0.99704  Biso   1.000  Zr
  Zr29     1.0000 0.99636  0.38731  0.49718  Biso   1.000  Zr
  Zr30     1.0000 0.98723  0.87369  0.99189  Biso   1.000  Zr
  Zr31     1.0000 0.99550  0.88727  0.49970  Biso   1.000  Zr
  Zr32     1.0000 0.50698  0.13770  0.25484  Biso   1.000  Zr
  Zr33     1.0000 0.49291  0.13743  0.74525  Biso   1.000  Zr
  Zr34     1.0000 0.49105  0.63099  0.24605  Biso   1.000  Zr
  Zr35     1.0000 0.49490  0.63691  0.74563  Biso   1.000  Zr
  Zr36     1.0000 0.51641  0.12613  0.99189  Biso   1.000  Zr
  Zr37     1.0000 0.50813  0.11255  0.49970  Biso   1.000  Zr
  Zr38     1.0000 0.51002  0.61561  0.99704  Biso   1.000  Zr
  Zr39     1.0000 0.50725  0.61250  0.49718  Biso   1.000  Zr
  Zr40     1.0000 0.49099  0.36881  0.00421  Biso   1.000  Zr
  Zr41     1.0000 0.49491  0.36292  0.50463  Biso   1.000  Zr
  Zr42     1.0000 0.50697  0.86211  0.99543  Biso   1.000  Zr
  Zr43     1.0000 0.49296  0.86241  0.50502  Biso   1.000  Zr
  Zr44     1.0000 0.51000  0.38419  0.25323  Biso   1.000  Zr
  Zr45     1.0000 0.50729  0.38733  0.75308  Biso   1.000  Zr
  Zr46     1.0000 0.51637  0.87368  0.25837  Biso   1.000  Zr
  Zr47     1.0000 0.50817  0.88728  0.75056  Biso   1.000  Zr
