data_image0
_cell_length_a       5.03833
_cell_length_b       10.3933
_cell_length_c       10.1573
_cell_angle_alpha    90.0952
_cell_angle_beta     90.1835
_cell_angle_gamma    89.9597

_symmetry_space_group_name_H-M    "P 1"
_symmetry_int_tables_number       1

loop_
  _symmetry_equiv_pos_as_xyz
  'x, y, z'

loop_
  _atom_site_label
  _atom_site_occupancy
  _atom_site_fract_x
  _atom_site_fract_y
  _atom_site_fract_z
  _atom_site_thermal_displace_type
  _atom_site_B_iso_or_equiv
  _atom_site_type_symbol
  Na1      1.0000 0.26291  0.01292  0.11644  Biso   1.000  Na
  Zr1      1.0000 0.26320  0.01611  0.62553  Biso   1.000  Zr
  Zr2      1.0000 0.27309  0.51469  0.12482  Biso   1.000  Zr
  Zr3      1.0000 0.26638  0.51623  0.62596  Biso   1.000  Zr
  Zr4      1.0000 0.26753  0.23253  0.37339  Biso   1.000  Zr
  Zr5      1.0000 0.27432  0.23187  0.87462  Biso   1.000  Zr
  Zr6      1.0000 0.26564  0.73625  0.37558  Biso   1.000  Zr
  Zr7      1.0000 0.27683  0.73422  0.87659  Biso   1.000  Zr
  Zr8      1.0000 0.71974  0.26237  0.12594  Biso   1.000  Zr
  Zr9      1.0000 0.72749  0.26608  0.62290  Biso   1.000  Zr
  Zr10     1.0000 0.72537  0.76886  0.12693  Biso   1.000  Zr
  Zr11     1.0000 0.73081  0.76597  0.62493  Biso   1.000  Zr
  Zr12     1.0000 0.72774  0.48518  0.37658  Biso   1.000  Zr
  Zr13     1.0000 0.73281  0.48282  0.87609  Biso   1.000  Zr
  Zr14     1.0000 0.72224  0.98309  0.37069  Biso   1.000  Zr
  Zr15     1.0000 0.72588  0.98364  0.87412  Biso   1.000  Zr
  Zr16     1.0000 0.06331  0.19765  0.20059  Biso   1.000  Zr
  Zr17     1.0000 0.07313  0.18826  0.68895  Biso   1.000  Zr
  Zr18     1.0000 0.06256  0.67777  0.19809  Biso   1.000  Zr
  Zr19     1.0000 0.06861  0.68319  0.69644  Biso   1.000  Zr
  Zr20     1.0000 0.05992  0.06846  0.44709  Biso   1.000  Zr
  Zr21     1.0000 0.07706  0.06740  0.91168  Biso   1.000  Zr
  Zr22     1.0000 0.06444  0.56708  0.44806  Biso   1.000  Zr
  Zr23     1.0000 0.06934  0.56777  0.94608  Biso   1.000  Zr
  Zr24     1.0000 0.93185  0.43427  0.19755  Biso   1.000  Zr
  Zr25     1.0000 0.93109  0.43367  0.69610  Biso   1.000  Zr
  Zr26     1.0000 0.92053  0.92451  0.20568  Biso   1.000  Zr
  Zr27     1.0000 0.92519  0.93269  0.69172  Biso   1.000  Zr
  Zr28     1.0000 0.93153  0.31962  0.44719  Biso   1.000  Zr
  Zr29     1.0000 0.93825  0.31897  0.94651  Biso   1.000  Zr
  Zr30     1.0000 0.93230  0.81699  0.45043  Biso   1.000  Zr
  Zr31     1.0000 0.94542  0.82037  0.94897  Biso   1.000  Zr
  Zr32     1.0000 0.55780  0.12651  0.25433  Biso   1.000  Zr
  Zr33     1.0000 0.54294  0.11796  0.74398  Biso   1.000  Zr
  Zr34     1.0000 0.53676  0.61451  0.24824  Biso   1.000  Zr
  Zr35     1.0000 0.54037  0.61660  0.74855  Biso   1.000  Zr
  Zr36     1.0000 0.53137  0.13347  0.49935  Biso   1.000  Zr
  Zr37     1.0000 0.56091  0.13596  0.98980  Biso   1.000  Zr
  Zr38     1.0000 0.53499  0.63394  0.49829  Biso   1.000  Zr
  Zr39     1.0000 0.54261  0.62744  0.99893  Biso   1.000  Zr
  Zr40     1.0000 0.46051  0.38442  0.49859  Biso   1.000  Zr
  Zr41     1.0000 0.46260  0.38197  0.99863  Biso   1.000  Zr
  Zr42     1.0000 0.45698  0.88401  0.49952  Biso   1.000  Zr
  Zr43     1.0000 0.47848  0.87130  0.99242  Biso   1.000  Zr
  Zr44     1.0000 0.45751  0.36997  0.24914  Biso   1.000  Zr
  Zr45     1.0000 0.46237  0.36764  0.74811  Biso   1.000  Zr
  Zr46     1.0000 0.46567  0.85772  0.25440  Biso   1.000  Zr
  Zr47     1.0000 0.45847  0.86716  0.74616  Biso   1.000  Zr
