data_image0
_cell_length_a       10.0529
_cell_length_b       5.1086
_cell_length_c       10.0528
_cell_angle_alpha    89.1317
_cell_angle_beta     92.5817
_cell_angle_gamma    90.868

_symmetry_space_group_name_H-M    "P 1"
_symmetry_int_tables_number       1

loop_
  _symmetry_equiv_pos_as_xyz
  'x, y, z'

loop_
  _atom_site_label
  _atom_site_occupancy
  _atom_site_fract_x
  _atom_site_fract_y
  _atom_site_fract_z
  _atom_site_thermal_displace_type
  _atom_site_B_iso_or_equiv
  _atom_site_type_symbol
  Ni1      1.0000 0.12077  0.09356  0.12988  Biso   1.000  Ni
  Zr1      1.0000 0.13569  0.01807  0.61557  Biso   1.000  Zr
  Zr2      1.0000 0.63511  0.01812  0.11495  Biso   1.000  Zr
  Zr3      1.0000 0.62617  0.99979  0.62449  Biso   1.000  Zr
  Zr4      1.0000 0.12274  0.51073  0.36749  Biso   1.000  Zr
  Zr5      1.0000 0.14314  0.47416  0.86511  Biso   1.000  Zr
  Zr6      1.0000 0.62254  0.49965  0.37182  Biso   1.000  Zr
  Zr7      1.0000 0.63698  0.49827  0.86836  Biso   1.000  Zr
  Zr8      1.0000 0.38555  0.47412  0.10754  Biso   1.000  Zr
  Zr9      1.0000 0.38229  0.49825  0.61369  Biso   1.000  Zr
  Zr10     1.0000 0.88319  0.51069  0.12785  Biso   1.000  Zr
  Zr11     1.0000 0.87885  0.49966  0.62810  Biso   1.000  Zr
  Zr12     1.0000 0.36841  0.99540  0.36227  Biso   1.000  Zr
  Zr13     1.0000 0.37906  0.97496  0.87162  Biso   1.000  Zr
  Zr14     1.0000 0.86875  0.99825  0.38188  Biso   1.000  Zr
  Zr15     1.0000 0.88842  0.99542  0.88223  Biso   1.000  Zr
  Zr16     1.0000 0.02037  0.32346  0.01340  Biso   1.000  Zr
  Zr17     1.0000 0.99777  0.30058  0.49815  Biso   1.000  Zr
  Zr18     1.0000 0.50497  0.27302  0.98470  Biso   1.000  Zr
  Zr19     1.0000 0.49347  0.28461  0.48808  Biso   1.000  Zr
  Zr20     1.0000 0.00060  0.18990  0.25002  Biso   1.000  Zr
  Zr21     1.0000 0.01418  0.18918  0.75145  Biso   1.000  Zr
  Zr22     1.0000 0.49918  0.18912  0.23647  Biso   1.000  Zr
  Zr23     1.0000 0.50945  0.20960  0.74122  Biso   1.000  Zr
  Zr24     1.0000 0.95991  0.68080  0.29069  Biso   1.000  Zr
  Zr25     1.0000 0.98669  0.67934  0.78805  Biso   1.000  Zr
  Zr26     1.0000 0.46251  0.67922  0.26403  Biso   1.000  Zr
  Zr27     1.0000 0.49768  0.70698  0.75299  Biso   1.000  Zr
  Zr28     1.0000 0.00789  0.85025  0.04282  Biso   1.000  Zr
  Zr29     1.0000 0.99333  0.80001  0.52740  Biso   1.000  Zr
  Zr30     1.0000 0.51394  0.77046  0.00515  Biso   1.000  Zr
  Zr31     1.0000 0.49894  0.78822  0.50108  Biso   1.000  Zr
  Zr32     1.0000 0.23720  0.32353  0.23028  Biso   1.000  Zr
  Zr33     1.0000 0.26597  0.27303  0.74571  Biso   1.000  Zr
  Zr34     1.0000 0.75248  0.30063  0.25284  Biso   1.000  Zr
  Zr35     1.0000 0.76258  0.28465  0.75716  Biso   1.000  Zr
  Zr36     1.0000 0.25180  0.16618  0.99888  Biso   1.000  Zr
  Zr37     1.0000 0.24771  0.22540  0.48781  Biso   1.000  Zr
  Zr38     1.0000 0.76287  0.22542  0.00291  Biso   1.000  Zr
  Zr39     1.0000 0.74644  0.21454  0.50418  Biso   1.000  Zr
  Zr40     1.0000 0.27253  0.67924  0.97813  Biso   1.000  Zr
  Zr41     1.0000 0.25198  0.72268  0.48811  Biso   1.000  Zr
  Zr42     1.0000 0.76255  0.72272  0.99868  Biso   1.000  Zr
  Zr43     1.0000 0.74907  0.70844  0.50160  Biso   1.000  Zr
  Zr44     1.0000 0.20779  0.85032  0.24281  Biso   1.000  Zr
  Zr45     1.0000 0.24556  0.77047  0.73672  Biso   1.000  Zr
  Zr46     1.0000 0.72317  0.80008  0.25738  Biso   1.000  Zr
  Zr47     1.0000 0.74960  0.78824  0.75173  Biso   1.000  Zr
