data_image0
_cell_length_a       10.0592
_cell_length_b       10.2435
_cell_length_c       5.22207
_cell_angle_alpha    90.0589
_cell_angle_beta     90.9189
_cell_angle_gamma    89.3996

_symmetry_space_group_name_H-M    "P 1"
_symmetry_int_tables_number       1

loop_
  _symmetry_equiv_pos_as_xyz
  'x, y, z'

loop_
  _atom_site_label
  _atom_site_occupancy
  _atom_site_fract_x
  _atom_site_fract_y
  _atom_site_fract_z
  _atom_site_thermal_displace_type
  _atom_site_B_iso_or_equiv
  _atom_site_type_symbol
  Ni1      1.0000 0.12213  0.00977  0.38302  Biso   1.000  Ni
  Zr1      1.0000 0.13959  0.52261  0.34493  Biso   1.000  Zr
  Zr2      1.0000 0.14540  0.22593  0.83333  Biso   1.000  Zr
  Zr3      1.0000 0.13622  0.73346  0.84577  Biso   1.000  Zr
  Zr4      1.0000 0.35885  0.27059  0.33167  Biso   1.000  Zr
  Zr5      1.0000 0.35601  0.77873  0.33731  Biso   1.000  Zr
  Zr6      1.0000 0.36063  0.48042  0.84207  Biso   1.000  Zr
  Zr7      1.0000 0.35683  0.98382  0.83800  Biso   1.000  Zr
  Zr8      1.0000 0.63701  0.02187  0.15492  Biso   1.000  Zr
  Zr9      1.0000 0.63971  0.51978  0.16334  Biso   1.000  Zr
  Zr10     1.0000 0.63895  0.23034  0.65987  Biso   1.000  Zr
  Zr11     1.0000 0.63525  0.72791  0.65910  Biso   1.000  Zr
  Zr12     1.0000 0.87049  0.26291  0.17162  Biso   1.000  Zr
  Zr13     1.0000 0.86061  0.77050  0.16285  Biso   1.000  Zr
  Zr14     1.0000 0.86352  0.47635  0.66942  Biso   1.000  Zr
  Zr15     1.0000 0.85677  0.97760  0.66220  Biso   1.000  Zr
  O1       1.0000 0.04895  0.14704  0.17335  Biso   1.000  O
  O2       1.0000 0.03328  0.66762  0.17478  Biso   1.000  O
  O3       1.0000 0.03582  0.07917  0.65403  Biso   1.000  O
  O4       1.0000 0.03469  0.58202  0.67999  Biso   1.000  O
  O5       1.0000 0.46534  0.42029  0.17279  Biso   1.000  O
  O6       1.0000 0.46554  0.91914  0.16556  Biso   1.000  O
  O7       1.0000 0.46629  0.33210  0.67070  Biso   1.000  O
  O8       1.0000 0.45888  0.83180  0.67060  Biso   1.000  O
  O9       1.0000 0.26299  0.11335  0.53966  Biso   1.000  O
  O10      1.0000 0.27426  0.62857  0.58935  Biso   1.000  O
  O11      1.0000 0.30350  0.14980  0.03090  Biso   1.000  O
  O12      1.0000 0.27621  0.63280  0.08848  Biso   1.000  O
  O13      1.0000 0.22585  0.37301  0.59004  Biso   1.000  O
  O14      1.0000 0.21022  0.87909  0.58223  Biso   1.000  O
  O15      1.0000 0.21996  0.38269  0.08749  Biso   1.000  O
  O16      1.0000 0.21650  0.89256  0.09629  Biso   1.000  O
  O17      1.0000 0.53617  0.17124  0.32225  Biso   1.000  O
  O18      1.0000 0.53250  0.67079  0.32479  Biso   1.000  O
  O19      1.0000 0.53748  0.07773  0.81434  Biso   1.000  O
  O20      1.0000 0.53495  0.58051  0.82658  Biso   1.000  O
  O21      1.0000 0.97081  0.41135  0.34417  Biso   1.000  O
  O22      1.0000 0.96773  0.91917  0.33453  Biso   1.000  O
  O23      1.0000 0.96974  0.32577  0.84587  Biso   1.000  O
  O24      1.0000 0.96187  0.83199  0.83465  Biso   1.000  O
  O25      1.0000 0.77900  0.12226  0.91402  Biso   1.000  O
  O26      1.0000 0.77653  0.62321  0.91820  Biso   1.000  O
  O27      1.0000 0.77700  0.12451  0.41258  Biso   1.000  O
  O28      1.0000 0.77618  0.62415  0.41893  Biso   1.000  O
  O29      1.0000 0.72882  0.37181  0.92099  Biso   1.000  O
  O30      1.0000 0.72087  0.87226  0.91212  Biso   1.000  O
  O31      1.0000 0.72855  0.37386  0.41743  Biso   1.000  O
  O32      1.0000 0.72555  0.87573  0.41288  Biso   1.000  O
