data_image0
_cell_length_a       10.1297
_cell_length_b       10.3469
_cell_length_c       10.106
_cell_angle_alpha    89.9219
_cell_angle_beta     90.2374
_cell_angle_gamma    89.2935

_symmetry_space_group_name_H-M    "P 1"
_symmetry_int_tables_number       1

loop_
  _symmetry_equiv_pos_as_xyz
  'x, y, z'

loop_
  _atom_site_label
  _atom_site_occupancy
  _atom_site_fract_x
  _atom_site_fract_y
  _atom_site_fract_z
  _atom_site_thermal_displace_type
  _atom_site_B_iso_or_equiv
  _atom_site_type_symbol
  Zr1      1.0000 0.11514  0.99942  0.12122  Biso   1.000  Zr
  Zr2      1.0000 0.11593  0.24053  0.39788  Biso   1.000  Zr
  Zr3      1.0000 0.39119  0.25904  0.12741  Biso   1.000  Zr
  Zr4      1.0000 0.37698  0.00227  0.37859  Biso   1.000  Zr
  Zr5      1.0000 0.97435  0.13390  0.98392  Biso   1.000  Zr
  Zr6      1.0000 0.99574  0.09188  0.25594  Biso   1.000  Zr
  Zr7      1.0000 0.98331  0.33604  0.27413  Biso   1.000  Zr
  Zr8      1.0000 0.00475  0.40694  0.02048  Biso   1.000  Zr
  Zr9      1.0000 0.24834  0.18533  0.25255  Biso   1.000  Zr
  Zr10     1.0000 0.24113  0.09145  0.99635  Biso   1.000  Zr
  Zr11     1.0000 0.25788  0.33839  0.98410  Biso   1.000  Zr
  Zr12     1.0000 0.29189  0.44053  0.21629  Biso   1.000  Zr
  Zr13     1.0000 0.12198  0.99516  0.62561  Biso   1.000  Zr
  Zr14     1.0000 0.11809  0.23244  0.87955  Biso   1.000  Zr
  Zr15     1.0000 0.37354  0.24966  0.62651  Biso   1.000  Zr
  Zr16     1.0000 0.37257  0.00106  0.87416  Biso   1.000  Zr
  Zr17     1.0000 0.98878  0.13756  0.50779  Biso   1.000  Zr
  Zr18     1.0000 0.99838  0.09603  0.74892  Biso   1.000  Zr
  Zr19     1.0000 0.99572  0.34723  0.76491  Biso   1.000  Zr
  Zr20     1.0000 0.00206  0.39334  0.51363  Biso   1.000  Zr
  Zr21     1.0000 0.24916  0.14490  0.74850  Biso   1.000  Zr
  Zr22     1.0000 0.24394  0.10175  0.50178  Biso   1.000  Zr
  Zr23     1.0000 0.25572  0.35520  0.48704  Biso   1.000  Zr
  Zr24     1.0000 0.25760  0.39863  0.73737  Biso   1.000  Zr
  Zr25     1.0000 0.13627  0.54696  0.12393  Biso   1.000  Zr
  Zr26     1.0000 0.12248  0.75816  0.37895  Biso   1.000  Zr
  Zr27     1.0000 0.38678  0.75283  0.11520  Biso   1.000  Zr
  Zr28     1.0000 0.38691  0.50102  0.37736  Biso   1.000  Zr
  Zr29     1.0000 0.00268  0.65545  0.99728  Biso   1.000  Zr
  Zr30     1.0000 0.00004  0.60150  0.25824  Biso   1.000  Zr
  Zr31     1.0000 0.99300  0.84793  0.24883  Biso   1.000  Zr
  Zr32     1.0000 0.99784  0.89381  0.99803  Biso   1.000  Zr
  Zr33     1.0000 0.24613  0.68014  0.23902  Biso   1.000  Zr
  Zr34     1.0000 0.26170  0.61010  0.98261  Biso   1.000  Zr
  Zr35     1.0000 0.24772  0.85088  0.00481  Biso   1.000  Zr
  Zr36     1.0000 0.23653  0.92548  0.26235  Biso   1.000  Zr
  Zr37     1.0000 0.13235  0.50609  0.61931  Biso   1.000  Zr
  Zr38     1.0000 0.13016  0.75279  0.86971  Biso   1.000  Zr
  Zr39     1.0000 0.37800  0.74874  0.62239  Biso   1.000  Zr
  Zr40     1.0000 0.38038  0.49290  0.86712  Biso   1.000  Zr
  Zr41     1.0000 0.00282  0.64621  0.50318  Biso   1.000  Zr
  Zr42     1.0000 0.00536  0.59694  0.75213  Biso   1.000  Zr
  Zr43     1.0000 0.99686  0.84916  0.74747  Biso   1.000  Zr
  Zr44     1.0000 0.00123  0.89391  0.49789  Biso   1.000  Zr
  Zr45     1.0000 0.25046  0.64807  0.73846  Biso   1.000  Zr
  Zr46     1.0000 0.25062  0.60515  0.48850  Biso   1.000  Zr
  Zr47     1.0000 0.25155  0.85378  0.50459  Biso   1.000  Zr
  Zr48     1.0000 0.24577  0.89578  0.75470  Biso   1.000  Zr
  Zr49     1.0000 0.61950  0.00041  0.12586  Biso   1.000  Zr
  Zr50     1.0000 0.63058  0.24734  0.38189  Biso   1.000  Zr
  Zr51     1.0000 0.87300  0.24119  0.12811  Biso   1.000  Zr
  Zr52     1.0000 0.86842  0.99407  0.37503  Biso   1.000  Zr
  Zr53     1.0000 0.49400  0.14585  0.99321  Biso   1.000  Zr
  Zr54     1.0000 0.49246  0.10404  0.24484  Biso   1.000  Zr
  Zr55     1.0000 0.51491  0.35365  0.25355  Biso   1.000  Zr
  Zr56     1.0000 0.50504  0.39783  0.00072  Biso   1.000  Zr
  Zr57     1.0000 0.74547  0.13969  0.25273  Biso   1.000  Zr
  Zr58     1.0000 0.73805  0.09776  0.99948  Biso   1.000  Zr
  Zr59     1.0000 0.75219  0.35023  0.00075  Biso   1.000  Zr
  Zr60     1.0000 0.75253  0.39658  0.25460  Biso   1.000  Zr
  Zr61     1.0000 0.62240  0.99767  0.62557  Biso   1.000  Zr
  Zr62     1.0000 0.62806  0.24765  0.88012  Biso   1.000  Zr
  Zr63     1.0000 0.87603  0.24821  0.63776  Biso   1.000  Zr
  Zr64     1.0000 0.86979  0.99351  0.87523  Biso   1.000  Zr
  Zr65     1.0000 0.49375  0.14731  0.49500  Biso   1.000  Zr
  Zr66     1.0000 0.49576  0.09887  0.74459  Biso   1.000  Zr
  Zr67     1.0000 0.50206  0.34735  0.75136  Biso   1.000  Zr
  Zr68     1.0000 0.50575  0.39481  0.50376  Biso   1.000  Zr
  Zr69     1.0000 0.74777  0.14295  0.75172  Biso   1.000  Zr
  Zr70     1.0000 0.74220  0.09670  0.50017  Biso   1.000  Zr
  Zr71     1.0000 0.75417  0.34774  0.50472  Biso   1.000  Zr
  Zr72     1.0000 0.75204  0.39471  0.75458  Biso   1.000  Zr
  Zr73     1.0000 0.63120  0.49928  0.12775  Biso   1.000  Zr
  Zr74     1.0000 0.62398  0.74874  0.37182  Biso   1.000  Zr
  Zr75     1.0000 0.87034  0.74852  0.12458  Biso   1.000  Zr
  Zr76     1.0000 0.87677  0.49584  0.37905  Biso   1.000  Zr
  Zr77     1.0000 0.51004  0.64548  0.99946  Biso   1.000  Zr
  Zr78     1.0000 0.50545  0.60795  0.24931  Biso   1.000  Zr
  Zr79     1.0000 0.49373  0.85603  0.25290  Biso   1.000  Zr
  Zr80     1.0000 0.49847  0.89594  0.00026  Biso   1.000  Zr
  Zr81     1.0000 0.75254  0.64440  0.25399  Biso   1.000  Zr
  Zr82     1.0000 0.75810  0.59933  0.00555  Biso   1.000  Zr
  Zr83     1.0000 0.74917  0.84995  0.99615  Biso   1.000  Zr
  Zr84     1.0000 0.74344  0.89225  0.24701  Biso   1.000  Zr
  Zr85     1.0000 0.63058  0.49512  0.62725  Biso   1.000  Zr
  Zr86     1.0000 0.62766  0.74684  0.87141  Biso   1.000  Zr
  Zr87     1.0000 0.87413  0.74441  0.62536  Biso   1.000  Zr
  Zr88     1.0000 0.88275  0.49653  0.87933  Biso   1.000  Zr
  Zr89     1.0000 0.50261  0.64577  0.49941  Biso   1.000  Zr
  Zr90     1.0000 0.50373  0.59881  0.74911  Biso   1.000  Zr
  Zr91     1.0000 0.49668  0.84856  0.75149  Biso   1.000  Zr
  Zr92     1.0000 0.50055  0.89555  0.50011  Biso   1.000  Zr
  Zr93     1.0000 0.75557  0.64179  0.75470  Biso   1.000  Zr
  Zr94     1.0000 0.75258  0.59752  0.50488  Biso   1.000  Zr
  Zr95     1.0000 0.75255  0.84618  0.49613  Biso   1.000  Zr
  Zr96     1.0000 0.74504  0.89081  0.74555  Biso   1.000  Zr
  Os1      1.0000 0.12854  0.30871  0.13942  Biso   1.000  Os
