data_image0
_cell_length_a       10.0658
_cell_length_b       10.2558
_cell_length_c       5.25546
_cell_angle_alpha    89.8528
_cell_angle_beta     89.8701
_cell_angle_gamma    90.0022

_symmetry_space_group_name_H-M    "P 1"
_symmetry_int_tables_number       1

loop_
  _symmetry_equiv_pos_as_xyz
  'x, y, z'

loop_
  _atom_site_label
  _atom_site_occupancy
  _atom_site_fract_x
  _atom_site_fract_y
  _atom_site_fract_z
  _atom_site_thermal_displace_type
  _atom_site_B_iso_or_equiv
  _atom_site_type_symbol
  Os1      1.0000 0.14064  0.02064  0.35226  Biso   1.000  Os
  Zr1      1.0000 0.13919  0.52113  0.34403  Biso   1.000  Zr
  Zr2      1.0000 0.13783  0.22650  0.84547  Biso   1.000  Zr
  Zr3      1.0000 0.13844  0.73008  0.84231  Biso   1.000  Zr
  Zr4      1.0000 0.35913  0.27010  0.34619  Biso   1.000  Zr
  Zr5      1.0000 0.35845  0.77472  0.34177  Biso   1.000  Zr
  Zr6      1.0000 0.36104  0.47919  0.84411  Biso   1.000  Zr
  Zr7      1.0000 0.35994  0.97760  0.84514  Biso   1.000  Zr
  Zr8      1.0000 0.63817  0.02214  0.15513  Biso   1.000  Zr
  Zr9      1.0000 0.63868  0.52160  0.16008  Biso   1.000  Zr
  Zr10     1.0000 0.63840  0.23004  0.65779  Biso   1.000  Zr
  Zr11     1.0000 0.63836  0.72896  0.65709  Biso   1.000  Zr
  Zr12     1.0000 0.86469  0.26874  0.16010  Biso   1.000  Zr
  Zr13     1.0000 0.86367  0.77285  0.15467  Biso   1.000  Zr
  Zr14     1.0000 0.86100  0.47893  0.65887  Biso   1.000  Zr
  Zr15     1.0000 0.86126  0.98049  0.65340  Biso   1.000  Zr
  O1       1.0000 0.03156  0.15630  0.15604  Biso   1.000  O
  O2       1.0000 0.03093  0.66174  0.16045  Biso   1.000  O
  O3       1.0000 0.03507  0.08815  0.63933  Biso   1.000  O
  O4       1.0000 0.03156  0.58691  0.66289  Biso   1.000  O
  O5       1.0000 0.46731  0.41380  0.16780  Biso   1.000  O
  O6       1.0000 0.46961  0.91232  0.16220  Biso   1.000  O
  O7       1.0000 0.46670  0.33567  0.66696  Biso   1.000  O
  O8       1.0000 0.46630  0.83726  0.66374  Biso   1.000  O
  O9       1.0000 0.27620  0.12073  0.59516  Biso   1.000  O
  O10      1.0000 0.27576  0.62551  0.59158  Biso   1.000  O
  O11      1.0000 0.27080  0.11935  0.10789  Biso   1.000  O
  O12      1.0000 0.27566  0.62700  0.09113  Biso   1.000  O
  O13      1.0000 0.22421  0.37426  0.59133  Biso   1.000  O
  O14      1.0000 0.21913  0.87636  0.58405  Biso   1.000  O
  O15      1.0000 0.22484  0.37366  0.09016  Biso   1.000  O
  O16      1.0000 0.22026  0.87798  0.08955  Biso   1.000  O
  O17      1.0000 0.53124  0.16334  0.33860  Biso   1.000  O
  O18      1.0000 0.53147  0.66536  0.33565  Biso   1.000  O
  O19      1.0000 0.52891  0.08918  0.84085  Biso   1.000  O
  O20      1.0000 0.53275  0.58573  0.83543  Biso   1.000  O
  O21      1.0000 0.96910  0.41240  0.33843  Biso   1.000  O
  O22      1.0000 0.97823  0.91721  0.32808  Biso   1.000  O
  O23      1.0000 0.96901  0.33454  0.83688  Biso   1.000  O
  O24      1.0000 0.96794  0.83813  0.83227  Biso   1.000  O
  O25      1.0000 0.77568  0.12375  0.90485  Biso   1.000  O
  O26      1.0000 0.77632  0.62564  0.91170  Biso   1.000  O
  O27      1.0000 0.77485  0.12588  0.40773  Biso   1.000  O
  O28      1.0000 0.77585  0.62628  0.41124  Biso   1.000  O
  O29      1.0000 0.72516  0.37411  0.91213  Biso   1.000  O
  O30      1.0000 0.72369  0.87505  0.90746  Biso   1.000  O
  O31      1.0000 0.72489  0.37587  0.41135  Biso   1.000  O
  O32      1.0000 0.73012  0.87681  0.40870  Biso   1.000  O
