data_image0
_cell_length_a       10.0483
_cell_length_b       10.173
_cell_length_c       10.0482
_cell_angle_alpha    90.0027
_cell_angle_beta     90.0001
_cell_angle_gamma    90.0017

_symmetry_space_group_name_H-M    "P 1"
_symmetry_int_tables_number       1

loop_
  _symmetry_equiv_pos_as_xyz
  'x, y, z'

loop_
  _atom_site_label
  _atom_site_occupancy
  _atom_site_fract_x
  _atom_site_fract_y
  _atom_site_fract_z
  _atom_site_thermal_displace_type
  _atom_site_B_iso_or_equiv
  _atom_site_type_symbol
  Os1      1.0000 0.12503  0.99989  0.12503  Biso   1.000  Os
  Zr1      1.0000 0.12504  0.99989  0.62504  Biso   1.000  Zr
  Zr2      1.0000 0.12503  0.49990  0.12503  Biso   1.000  Zr
  Zr3      1.0000 0.12504  0.49990  0.62503  Biso   1.000  Zr
  Zr4      1.0000 0.62504  0.99989  0.12503  Biso   1.000  Zr
  Zr5      1.0000 0.62504  0.99990  0.62503  Biso   1.000  Zr
  Zr6      1.0000 0.62504  0.49990  0.12503  Biso   1.000  Zr
  Zr7      1.0000 0.62503  0.49990  0.62503  Biso   1.000  Zr
  Zr8      1.0000 0.12499  0.24853  0.37318  Biso   1.000  Zr
  Zr9      1.0000 0.12506  0.24853  0.87688  Biso   1.000  Zr
  Zr10     1.0000 0.12506  0.75127  0.37318  Biso   1.000  Zr
  Zr11     1.0000 0.12499  0.75126  0.87687  Biso   1.000  Zr
  Zr12     1.0000 0.62487  0.25010  0.37537  Biso   1.000  Zr
  Zr13     1.0000 0.62518  0.25011  0.87469  Biso   1.000  Zr
  Zr14     1.0000 0.62518  0.74969  0.37537  Biso   1.000  Zr
  Zr15     1.0000 0.62488  0.74969  0.87469  Biso   1.000  Zr
  Zr16     1.0000 0.37318  0.24852  0.12499  Biso   1.000  Zr
  Zr17     1.0000 0.37536  0.25010  0.62488  Biso   1.000  Zr
  Zr18     1.0000 0.37318  0.75127  0.12506  Biso   1.000  Zr
  Zr19     1.0000 0.37537  0.74969  0.62518  Biso   1.000  Zr
  Zr20     1.0000 0.87687  0.24853  0.12507  Biso   1.000  Zr
  Zr21     1.0000 0.87468  0.25010  0.62518  Biso   1.000  Zr
  Zr22     1.0000 0.87687  0.75126  0.12499  Biso   1.000  Zr
  Zr23     1.0000 0.87468  0.74969  0.62488  Biso   1.000  Zr
  Zr24     1.0000 0.37374  0.99840  0.37373  Biso   1.000  Zr
  Zr25     1.0000 0.37373  0.00140  0.87633  Biso   1.000  Zr
  Zr26     1.0000 0.37507  0.49933  0.37507  Biso   1.000  Zr
  Zr27     1.0000 0.37508  0.50045  0.87500  Biso   1.000  Zr
  Zr28     1.0000 0.87634  0.00140  0.37373  Biso   1.000  Zr
  Zr29     1.0000 0.87634  0.99840  0.87634  Biso   1.000  Zr
  Zr30     1.0000 0.87500  0.50045  0.37507  Biso   1.000  Zr
  Zr31     1.0000 0.87500  0.49933  0.87499  Biso   1.000  Zr
  Zr32     1.0000 0.00179  0.13592  0.00179  Biso   1.000  Zr
  Zr33     1.0000 0.99635  0.14522  0.49562  Biso   1.000  Zr
  Zr34     1.0000 0.99729  0.64293  0.99729  Biso   1.000  Zr
  Zr35     1.0000 0.99769  0.64566  0.49709  Biso   1.000  Zr
  Zr36     1.0000 0.49562  0.14522  0.99635  Biso   1.000  Zr
  Zr37     1.0000 0.49660  0.14450  0.49660  Biso   1.000  Zr
  Zr38     1.0000 0.49709  0.64566  0.99769  Biso   1.000  Zr
  Zr39     1.0000 0.49801  0.64422  0.49801  Biso   1.000  Zr
  Zr40     1.0000 0.00521  0.10671  0.24485  Biso   1.000  Zr
  Zr41     1.0000 0.00205  0.10495  0.74880  Biso   1.000  Zr
  Zr42     1.0000 0.00183  0.60846  0.24823  Biso   1.000  Zr
  Zr43     1.0000 0.00113  0.60477  0.74854  Biso   1.000  Zr
  Zr44     1.0000 0.50126  0.10495  0.24800  Biso   1.000  Zr
  Zr45     1.0000 0.50180  0.10551  0.74825  Biso   1.000  Zr
  Zr46     1.0000 0.50153  0.60477  0.24894  Biso   1.000  Zr
  Zr47     1.0000 0.50145  0.60540  0.74862  Biso   1.000  Zr
  Zr48     1.0000 0.99728  0.35686  0.25278  Biso   1.000  Zr
  Zr49     1.0000 0.99768  0.35413  0.75298  Biso   1.000  Zr
  Zr50     1.0000 0.00179  0.86387  0.24827  Biso   1.000  Zr
  Zr51     1.0000 0.99635  0.85457  0.75444  Biso   1.000  Zr
  Zr52     1.0000 0.49708  0.35413  0.25238  Biso   1.000  Zr
  Zr53     1.0000 0.49800  0.35557  0.75206  Biso   1.000  Zr
  Zr54     1.0000 0.49562  0.85457  0.25371  Biso   1.000  Zr
  Zr55     1.0000 0.49661  0.85529  0.75345  Biso   1.000  Zr
  Zr56     1.0000 0.00183  0.39133  0.00183  Biso   1.000  Zr
  Zr57     1.0000 0.00113  0.39502  0.50153  Biso   1.000  Zr
  Zr58     1.0000 0.00521  0.89309  0.00521  Biso   1.000  Zr
  Zr59     1.0000 0.00205  0.89484  0.50125  Biso   1.000  Zr
  Zr60     1.0000 0.50153  0.39502  0.00113  Biso   1.000  Zr
  Zr61     1.0000 0.50144  0.39440  0.50145  Biso   1.000  Zr
  Zr62     1.0000 0.50125  0.89484  0.00206  Biso   1.000  Zr
  Zr63     1.0000 0.50181  0.89429  0.50181  Biso   1.000  Zr
  Zr64     1.0000 0.24827  0.13592  0.24828  Biso   1.000  Zr
  Zr65     1.0000 0.25371  0.14522  0.75444  Biso   1.000  Zr
  Zr66     1.0000 0.25278  0.64293  0.25278  Biso   1.000  Zr
  Zr67     1.0000 0.25238  0.64566  0.75298  Biso   1.000  Zr
  Zr68     1.0000 0.75444  0.14522  0.25371  Biso   1.000  Zr
  Zr69     1.0000 0.75345  0.14450  0.75345  Biso   1.000  Zr
  Zr70     1.0000 0.75298  0.64566  0.25238  Biso   1.000  Zr
  Zr71     1.0000 0.75206  0.64423  0.75206  Biso   1.000  Zr
  Zr72     1.0000 0.24485  0.10670  0.00521  Biso   1.000  Zr
  Zr73     1.0000 0.24800  0.10495  0.50126  Biso   1.000  Zr
  Zr74     1.0000 0.24823  0.60846  0.00183  Biso   1.000  Zr
  Zr75     1.0000 0.24894  0.60477  0.50152  Biso   1.000  Zr
  Zr76     1.0000 0.74880  0.10495  0.00205  Biso   1.000  Zr
  Zr77     1.0000 0.74825  0.10551  0.50180  Biso   1.000  Zr
  Zr78     1.0000 0.74854  0.60477  0.00113  Biso   1.000  Zr
  Zr79     1.0000 0.74862  0.60540  0.50145  Biso   1.000  Zr
  Zr80     1.0000 0.25278  0.35686  0.99728  Biso   1.000  Zr
  Zr81     1.0000 0.25238  0.35413  0.49708  Biso   1.000  Zr
  Zr82     1.0000 0.24827  0.86387  0.00179  Biso   1.000  Zr
  Zr83     1.0000 0.25371  0.85457  0.49562  Biso   1.000  Zr
  Zr84     1.0000 0.75298  0.35413  0.99768  Biso   1.000  Zr
  Zr85     1.0000 0.75206  0.35557  0.49800  Biso   1.000  Zr
  Zr86     1.0000 0.75444  0.85457  0.99635  Biso   1.000  Zr
  Zr87     1.0000 0.75345  0.85529  0.49661  Biso   1.000  Zr
  Zr88     1.0000 0.24823  0.39133  0.24822  Biso   1.000  Zr
  Zr89     1.0000 0.24893  0.39502  0.74853  Biso   1.000  Zr
  Zr90     1.0000 0.24485  0.89309  0.24485  Biso   1.000  Zr
  Zr91     1.0000 0.24801  0.89484  0.74880  Biso   1.000  Zr
  Zr92     1.0000 0.74853  0.39502  0.24893  Biso   1.000  Zr
  Zr93     1.0000 0.74861  0.39440  0.74861  Biso   1.000  Zr
  Zr94     1.0000 0.74880  0.89484  0.24801  Biso   1.000  Zr
  Zr95     1.0000 0.74825  0.89429  0.74826  Biso   1.000  Zr
