data_image0
_cell_length_a       5.0151
_cell_length_b       10.4201
_cell_length_c       10.0643
_cell_angle_alpha    90.2173
_cell_angle_beta     89.117
_cell_angle_gamma    89.8808

_symmetry_space_group_name_H-M    "P 1"
_symmetry_int_tables_number       1

loop_
  _symmetry_equiv_pos_as_xyz
  'x, y, z'

loop_
  _atom_site_label
  _atom_site_occupancy
  _atom_site_fract_x
  _atom_site_fract_y
  _atom_site_fract_z
  _atom_site_thermal_displace_type
  _atom_site_B_iso_or_equiv
  _atom_site_type_symbol
  P1       1.0000 0.16726  0.03730  0.10640  Biso   1.000  P 
  Zr1      1.0000 0.25828  0.01308  0.62554  Biso   1.000  Zr
  Zr2      1.0000 0.26554  0.51687  0.12913  Biso   1.000  Zr
  Zr3      1.0000 0.27052  0.51741  0.62371  Biso   1.000  Zr
  Zr4      1.0000 0.28653  0.23053  0.37620  Biso   1.000  Zr
  Zr5      1.0000 0.27097  0.23783  0.87414  Biso   1.000  Zr
  Zr6      1.0000 0.28282  0.73681  0.37534  Biso   1.000  Zr
  Zr7      1.0000 0.26335  0.73402  0.87899  Biso   1.000  Zr
  Zr8      1.0000 0.71484  0.26663  0.12327  Biso   1.000  Zr
  Zr9      1.0000 0.73798  0.26422  0.62497  Biso   1.000  Zr
  Zr10     1.0000 0.73269  0.76129  0.12018  Biso   1.000  Zr
  Zr11     1.0000 0.73803  0.76757  0.62598  Biso   1.000  Zr
  Zr12     1.0000 0.74069  0.48286  0.37580  Biso   1.000  Zr
  Zr13     1.0000 0.73404  0.48491  0.87416  Biso   1.000  Zr
  Zr14     1.0000 0.73142  0.98690  0.37532  Biso   1.000  Zr
  Zr15     1.0000 0.69660  0.97996  0.88028  Biso   1.000  Zr
  Zr16     1.0000 0.09859  0.17375  0.17716  Biso   1.000  Zr
  Zr17     1.0000 0.06456  0.18102  0.70095  Biso   1.000  Zr
  Zr18     1.0000 0.07525  0.68786  0.19648  Biso   1.000  Zr
  Zr19     1.0000 0.07069  0.68265  0.69530  Biso   1.000  Zr
  Zr20     1.0000 0.07586  0.06769  0.44277  Biso   1.000  Zr
  Zr21     1.0000 0.05224  0.06400  0.96108  Biso   1.000  Zr
  Zr22     1.0000 0.07876  0.56592  0.44302  Biso   1.000  Zr
  Zr23     1.0000 0.06355  0.56707  0.94947  Biso   1.000  Zr
  Zr24     1.0000 0.93062  0.42598  0.19529  Biso   1.000  Zr
  Zr25     1.0000 0.93305  0.43292  0.69374  Biso   1.000  Zr
  Zr26     1.0000 0.95647  0.94589  0.17696  Biso   1.000  Zr
  Zr27     1.0000 0.92137  0.93498  0.70018  Biso   1.000  Zr
  Zr28     1.0000 0.93920  0.31490  0.44477  Biso   1.000  Zr
  Zr29     1.0000 0.92607  0.31493  0.94201  Biso   1.000  Zr
  Zr30     1.0000 0.94790  0.82159  0.44945  Biso   1.000  Zr
  Zr31     1.0000 0.91487  0.81646  0.93889  Biso   1.000  Zr
  Zr32     1.0000 0.58786  0.13258  0.25945  Biso   1.000  Zr
  Zr33     1.0000 0.52784  0.11438  0.75011  Biso   1.000  Zr
  Zr34     1.0000 0.54404  0.61122  0.24764  Biso   1.000  Zr
  Zr35     1.0000 0.53817  0.61701  0.74941  Biso   1.000  Zr
  Zr36     1.0000 0.53862  0.13108  0.50412  Biso   1.000  Zr
  Zr37     1.0000 0.52486  0.13435  0.99781  Biso   1.000  Zr
  Zr38     1.0000 0.54732  0.63365  0.49876  Biso   1.000  Zr
  Zr39     1.0000 0.53498  0.63019  0.99945  Biso   1.000  Zr
  Zr40     1.0000 0.46810  0.38093  0.49876  Biso   1.000  Zr
  Zr41     1.0000 0.45887  0.38369  0.99931  Biso   1.000  Zr
  Zr42     1.0000 0.46871  0.88416  0.50232  Biso   1.000  Zr
  Zr43     1.0000 0.44249  0.87742  0.00249  Biso   1.000  Zr
  Zr44     1.0000 0.45045  0.36969  0.24851  Biso   1.000  Zr
  Zr45     1.0000 0.46300  0.36651  0.74864  Biso   1.000  Zr
  Zr46     1.0000 0.51869  0.85600  0.25952  Biso   1.000  Zr
  Zr47     1.0000 0.45094  0.86686  0.75033  Biso   1.000  Zr
