data_image0
_cell_length_a       10.0792
_cell_length_b       10.4703
_cell_length_c       5.11381
_cell_angle_alpha    89.9948
_cell_angle_beta     89.5502
_cell_angle_gamma    91.2384

_symmetry_space_group_name_H-M    "P 1"
_symmetry_int_tables_number       1

loop_
  _symmetry_equiv_pos_as_xyz
  'x, y, z'

loop_
  _atom_site_label
  _atom_site_occupancy
  _atom_site_fract_x
  _atom_site_fract_y
  _atom_site_fract_z
  _atom_site_thermal_displace_type
  _atom_site_B_iso_or_equiv
  _atom_site_type_symbol
  Zr1      1.0000 0.14679  0.00797  0.25002  Biso   1.000  Zr
  Zr2      1.0000 0.14081  0.22235  0.79353  Biso   1.000  Zr
  Zr3      1.0000 0.37395  0.25910  0.23776  Biso   1.000  Zr
  Zr4      1.0000 0.37202  0.48824  0.74057  Biso   1.000  Zr
  Zr5      1.0000 0.02826  0.18353  0.44676  Biso   1.000  Zr
  Zr6      1.0000 0.03532  0.06403  0.92014  Biso   1.000  Zr
  Zr7      1.0000 0.46035  0.42988  0.38716  Biso   1.000  Zr
  Zr8      1.0000 0.46707  0.31389  0.87940  Biso   1.000  Zr
  Zr9      1.0000 0.26893  0.11014  0.50884  Biso   1.000  Zr
  Zr10     1.0000 0.29206  0.11449  0.99180  Biso   1.000  Zr
  Zr11     1.0000 0.24197  0.38856  0.99273  Biso   1.000  Zr
  Zr12     1.0000 0.22022  0.35596  0.51055  Biso   1.000  Zr
  Zr13     1.0000 0.12442  0.52392  0.23311  Biso   1.000  Zr
  Zr14     1.0000 0.13232  0.73487  0.74545  Biso   1.000  Zr
  Zr15     1.0000 0.36863  0.75968  0.24574  Biso   1.000  Zr
  Zr16     1.0000 0.37463  0.97706  0.74474  Biso   1.000  Zr
  Zr17     1.0000 0.03209  0.68817  0.39090  Biso   1.000  Zr
  Zr18     1.0000 0.03101  0.57060  0.88648  Biso   1.000  Zr
  Zr19     1.0000 0.47030  0.92775  0.38351  Biso   1.000  Zr
  Zr20     1.0000 0.46889  0.81367  0.89300  Biso   1.000  Zr
  Zr21     1.0000 0.26450  0.61161  0.48924  Biso   1.000  Zr
  Zr22     1.0000 0.26788  0.63531  0.98561  Biso   1.000  Zr
  Zr23     1.0000 0.23244  0.87836  0.99503  Biso   1.000  Zr
  Zr24     1.0000 0.23737  0.86078  0.49315  Biso   1.000  Zr
  Zr25     1.0000 0.63799  0.01593  0.24699  Biso   1.000  Zr
  Zr26     1.0000 0.63514  0.23121  0.74500  Biso   1.000  Zr
  Zr27     1.0000 0.85778  0.27705  0.23213  Biso   1.000  Zr
  Zr28     1.0000 0.86203  0.48512  0.74354  Biso   1.000  Zr
  Zr29     1.0000 0.53617  0.17684  0.38960  Biso   1.000  Zr
  Zr30     1.0000 0.54351  0.06172  0.88397  Biso   1.000  Zr
  Zr31     1.0000 0.94151  0.45288  0.37919  Biso   1.000  Zr
  Zr32     1.0000 0.95442  0.31903  0.85364  Biso   1.000  Zr
  Zr33     1.0000 0.77238  0.11924  0.49030  Biso   1.000  Zr
  Zr34     1.0000 0.77205  0.13505  0.99153  Biso   1.000  Zr
  Zr35     1.0000 0.72444  0.38311  0.99676  Biso   1.000  Zr
  Zr36     1.0000 0.72023  0.37010  0.49356  Biso   1.000  Zr
  Zr37     1.0000 0.63295  0.51748  0.25500  Biso   1.000  Zr
  Zr38     1.0000 0.63745  0.73522  0.75250  Biso   1.000  Zr
  Zr39     1.0000 0.86751  0.76888  0.24927  Biso   1.000  Zr
  Zr40     1.0000 0.86816  0.98718  0.74629  Biso   1.000  Zr
  Zr41     1.0000 0.52935  0.67763  0.40641  Biso   1.000  Zr
  Zr42     1.0000 0.53309  0.56776  0.90227  Biso   1.000  Zr
  Zr43     1.0000 0.97327  0.93526  0.40212  Biso   1.000  Zr
  Zr44     1.0000 0.96661  0.81941  0.89254  Biso   1.000  Zr
  Zr45     1.0000 0.76343  0.62262  0.50233  Biso   1.000  Zr
  Zr46     1.0000 0.76668  0.63515  0.00290  Biso   1.000  Zr
  Zr47     1.0000 0.73512  0.88472  0.99630  Biso   1.000  Zr
  Zr48     1.0000 0.73390  0.86923  0.49650  Biso   1.000  Zr
  P1       1.0000 0.11654  0.28137  0.25967  Biso   1.000  P 
