data_image0
_cell_length_a       10.1437
_cell_length_b       10.3721
_cell_length_c       5.27937
_cell_angle_alpha    89.5621
_cell_angle_beta     90.5772
_cell_angle_gamma    90.023

_symmetry_space_group_name_H-M    "P 1"
_symmetry_int_tables_number       1

loop_
  _symmetry_equiv_pos_as_xyz
  'x, y, z'

loop_
  _atom_site_label
  _atom_site_occupancy
  _atom_site_fract_x
  _atom_site_fract_y
  _atom_site_fract_z
  _atom_site_thermal_displace_type
  _atom_site_B_iso_or_equiv
  _atom_site_type_symbol
  Zr1      1.0000 0.13939  0.01952  0.34544  Biso   1.000  Zr
  Zr2      1.0000 0.13793  0.22688  0.85015  Biso   1.000  Zr
  Zr3      1.0000 0.35182  0.26960  0.36215  Biso   1.000  Zr
  Zr4      1.0000 0.36243  0.48123  0.84712  Biso   1.000  Zr
  Zr5      1.0000 0.64269  0.01788  0.14707  Biso   1.000  Zr
  Zr6      1.0000 0.64326  0.22158  0.64071  Biso   1.000  Zr
  Zr7      1.0000 0.86258  0.27095  0.15817  Biso   1.000  Zr
  Zr8      1.0000 0.86600  0.48043  0.66334  Biso   1.000  Zr
  O1       1.0000 0.03249  0.16262  0.16749  Biso   1.000  O
  O2       1.0000 0.03379  0.08442  0.66496  Biso   1.000  O
  O3       1.0000 0.45222  0.44139  0.20312  Biso   1.000  O
  O4       1.0000 0.47073  0.33283  0.66809  Biso   1.000  O
  O5       1.0000 0.27284  0.12480  0.59875  Biso   1.000  O
  O6       1.0000 0.27492  0.12329  0.09643  Biso   1.000  O
  O7       1.0000 0.22399  0.37481  0.60066  Biso   1.000  O
  O8       1.0000 0.22406  0.37334  0.09566  Biso   1.000  O
  O9       1.0000 0.51920  0.14150  0.35982  Biso   1.000  O
  O10      1.0000 0.53502  0.07490  0.82565  Biso   1.000  O
  O11      1.0000 0.97073  0.41344  0.33918  Biso   1.000  O
  O12      1.0000 0.97022  0.33614  0.84009  Biso   1.000  O
  O13      1.0000 0.78383  0.12082  0.89347  Biso   1.000  O
  O14      1.0000 0.77777  0.12211  0.39974  Biso   1.000  O
  O15      1.0000 0.72934  0.37739  0.91612  Biso   1.000  O
  O16      1.0000 0.73306  0.37976  0.42429  Biso   1.000  O
  Zr9      1.0000 0.14016  0.52035  0.34285  Biso   1.000  Zr
  Zr10     1.0000 0.14045  0.72883  0.84313  Biso   1.000  Zr
  Zr11     1.0000 0.36271  0.77131  0.34539  Biso   1.000  Zr
  Zr12     1.0000 0.36259  0.97647  0.84759  Biso   1.000  Zr
  Zr13     1.0000 0.64065  0.52911  0.16687  Biso   1.000  Zr
  Zr14     1.0000 0.64078  0.73088  0.65973  Biso   1.000  Zr
  Zr15     1.0000 0.86478  0.77059  0.16015  Biso   1.000  Zr
  Zr16     1.0000 0.86478  0.97691  0.65674  Biso   1.000  Zr
  O17      1.0000 0.03393  0.66273  0.16434  Biso   1.000  O
  O18      1.0000 0.03558  0.58675  0.66321  Biso   1.000  O
  O19      1.0000 0.46991  0.91053  0.16291  Biso   1.000  O
  O20      1.0000 0.46774  0.83200  0.66947  Biso   1.000  O
  O21      1.0000 0.27766  0.62341  0.59113  Biso   1.000  O
  O22      1.0000 0.27523  0.62632  0.08817  Biso   1.000  O
  O23      1.0000 0.22692  0.87403  0.59335  Biso   1.000  O
  O24      1.0000 0.22529  0.87446  0.09428  Biso   1.000  O
  O25      1.0000 0.53765  0.67262  0.33392  Biso   1.000  O
  O26      1.0000 0.53577  0.58254  0.83436  Biso   1.000  O
  O27      1.0000 0.97108  0.91260  0.33493  Biso   1.000  O
  O28      1.0000 0.97001  0.83447  0.83702  Biso   1.000  O
  O29      1.0000 0.77727  0.62622  0.91350  Biso   1.000  O
  O30      1.0000 0.77835  0.62720  0.41416  Biso   1.000  O
  O31      1.0000 0.72789  0.87313  0.91171  Biso   1.000  O
  O32      1.0000 0.72844  0.87445  0.41161  Biso   1.000  O
  Pd1      1.0000 0.57279  0.28067  0.10234  Biso   1.000  Pd
