data_image0
_cell_length_a       10.094
_cell_length_b       10.29
_cell_length_c       10.4926
_cell_angle_alpha    90.048
_cell_angle_beta     90.2749
_cell_angle_gamma    89.7044

_symmetry_space_group_name_H-M    "P 1"
_symmetry_int_tables_number       1

loop_
  _symmetry_equiv_pos_as_xyz
  'x, y, z'

loop_
  _atom_site_label
  _atom_site_occupancy
  _atom_site_fract_x
  _atom_site_fract_y
  _atom_site_fract_z
  _atom_site_thermal_displace_type
  _atom_site_B_iso_or_equiv
  _atom_site_type_symbol
  Pd1      1.0000 0.12514  0.00973  0.19105  Biso   1.000  Pd
  Zr1      1.0000 0.13773  0.02087  0.66806  Biso   1.000  Zr
  Zr2      1.0000 0.13878  0.52321  0.17074  Biso   1.000  Zr
  Zr3      1.0000 0.13941  0.52065  0.67295  Biso   1.000  Zr
  Zr4      1.0000 0.14072  0.23209  0.41730  Biso   1.000  Zr
  Zr5      1.0000 0.14445  0.22487  0.92225  Biso   1.000  Zr
  Zr6      1.0000 0.13586  0.72714  0.42302  Biso   1.000  Zr
  Zr7      1.0000 0.13886  0.73303  0.92172  Biso   1.000  Zr
  Zr8      1.0000 0.35918  0.27045  0.16657  Biso   1.000  Zr
  Zr9      1.0000 0.36176  0.27162  0.67024  Biso   1.000  Zr
  Zr10     1.0000 0.35895  0.77587  0.16902  Biso   1.000  Zr
  Zr11     1.0000 0.36138  0.77156  0.67194  Biso   1.000  Zr
  Zr12     1.0000 0.36104  0.47954  0.42063  Biso   1.000  Zr
  Zr13     1.0000 0.36141  0.47965  0.92116  Biso   1.000  Zr
  Zr14     1.0000 0.36023  0.98008  0.42020  Biso   1.000  Zr
  Zr15     1.0000 0.36099  0.98294  0.92160  Biso   1.000  Zr
  Zr16     1.0000 0.63948  0.02193  0.07750  Biso   1.000  Zr
  Zr17     1.0000 0.63713  0.02101  0.58000  Biso   1.000  Zr
  Zr18     1.0000 0.63893  0.51969  0.07890  Biso   1.000  Zr
  Zr19     1.0000 0.63915  0.52043  0.58027  Biso   1.000  Zr
  Zr20     1.0000 0.63730  0.22938  0.32838  Biso   1.000  Zr
  Zr21     1.0000 0.64030  0.22982  0.82992  Biso   1.000  Zr
  Zr22     1.0000 0.63576  0.72716  0.32835  Biso   1.000  Zr
  Zr23     1.0000 0.63876  0.72914  0.82944  Biso   1.000  Zr
  Zr24     1.0000 0.86820  0.26603  0.08311  Biso   1.000  Zr
  Zr25     1.0000 0.86153  0.27027  0.57935  Biso   1.000  Zr
  Zr26     1.0000 0.86018  0.76926  0.07792  Biso   1.000  Zr
  Zr27     1.0000 0.85933  0.77010  0.58048  Biso   1.000  Zr
  Zr28     1.0000 0.86048  0.47866  0.32943  Biso   1.000  Zr
  Zr29     1.0000 0.86437  0.47638  0.83214  Biso   1.000  Zr
  Zr30     1.0000 0.85406  0.97657  0.33114  Biso   1.000  Zr
  Zr31     1.0000 0.86252  0.97980  0.82939  Biso   1.000  Zr
  O1       1.0000 0.04402  0.15626  0.08925  Biso   1.000  O
  O2       1.0000 0.03231  0.16262  0.57711  Biso   1.000  O
  O3       1.0000 0.03367  0.66840  0.08509  Biso   1.000  O
  O4       1.0000 0.03113  0.66383  0.58485  Biso   1.000  O
  O5       1.0000 0.03121  0.08352  0.33371  Biso   1.000  O
  O6       1.0000 0.03353  0.08552  0.83083  Biso   1.000  O
  O7       1.0000 0.03175  0.58374  0.33497  Biso   1.000  O
  O8       1.0000 0.03451  0.58436  0.83645  Biso   1.000  O
  O9       1.0000 0.46673  0.41771  0.08480  Biso   1.000  O
  O10      1.0000 0.46628  0.41826  0.58497  Biso   1.000  O
  O11      1.0000 0.46828  0.91677  0.08309  Biso   1.000  O
  O12      1.0000 0.46527  0.91801  0.58493  Biso   1.000  O
  O13      1.0000 0.46427  0.33051  0.33631  Biso   1.000  O
  O14      1.0000 0.46836  0.33463  0.83375  Biso   1.000  O
  O15      1.0000 0.46169  0.83220  0.33472  Biso   1.000  O
  O16      1.0000 0.46685  0.83339  0.83449  Biso   1.000  O
  O17      1.0000 0.27139  0.11817  0.28395  Biso   1.000  O
  O18      1.0000 0.27534  0.12247  0.78693  Biso   1.000  O
  O19      1.0000 0.27450  0.62654  0.29499  Biso   1.000  O
  O20      1.0000 0.27581  0.62470  0.79498  Biso   1.000  O
  O21      1.0000 0.29834  0.14443  0.02669  Biso   1.000  O
  O22      1.0000 0.27616  0.12786  0.53880  Biso   1.000  O
  O23      1.0000 0.27685  0.63239  0.04401  Biso   1.000  O
  O24      1.0000 0.27471  0.62530  0.54573  Biso   1.000  O
  O25      1.0000 0.22426  0.37486  0.29412  Biso   1.000  O
  O26      1.0000 0.22612  0.37349  0.79514  Biso   1.000  O
  O27      1.0000 0.21596  0.87404  0.29445  Biso   1.000  O
  O28      1.0000 0.22427  0.87459  0.79595  Biso   1.000  O
  O29      1.0000 0.22190  0.38272  0.04455  Biso   1.000  O
  O30      1.0000 0.22361  0.37586  0.54388  Biso   1.000  O
  O31      1.0000 0.21987  0.88942  0.04861  Biso   1.000  O
  O32      1.0000 0.22417  0.87558  0.54424  Biso   1.000  O
  O33      1.0000 0.53552  0.16851  0.16360  Biso   1.000  O
  O34      1.0000 0.53436  0.16859  0.66387  Biso   1.000  O
  O35      1.0000 0.53178  0.66757  0.16441  Biso   1.000  O
  O36      1.0000 0.53404  0.66757  0.66439  Biso   1.000  O
  O37      1.0000 0.53265  0.08160  0.41355  Biso   1.000  O
  O38      1.0000 0.53819  0.08095  0.91140  Biso   1.000  O
  O39      1.0000 0.53305  0.58197  0.41457  Biso   1.000  O
  O40      1.0000 0.53451  0.58280  0.91491  Biso   1.000  O
  O41      1.0000 0.96818  0.41563  0.16773  Biso   1.000  O
  O42      1.0000 0.96953  0.41180  0.66994  Biso   1.000  O
  O43      1.0000 0.96046  0.91782  0.16506  Biso   1.000  O
  O44      1.0000 0.96695  0.91429  0.66649  Biso   1.000  O
  O45      1.0000 0.96688  0.33372  0.41638  Biso   1.000  O
  O46      1.0000 0.97079  0.33124  0.92279  Biso   1.000  O
  O47      1.0000 0.96474  0.83466  0.41744  Biso   1.000  O
  O48      1.0000 0.96574  0.83339  0.91589  Biso   1.000  O
  O49      1.0000 0.77865  0.12410  0.95639  Biso   1.000  O
  O50      1.0000 0.77487  0.12284  0.45557  Biso   1.000  O
  O51      1.0000 0.77683  0.62318  0.95629  Biso   1.000  O
  O52      1.0000 0.77453  0.62372  0.45580  Biso   1.000  O
  O53      1.0000 0.77633  0.12429  0.20644  Biso   1.000  O
  O54      1.0000 0.77632  0.12592  0.70510  Biso   1.000  O
  O55      1.0000 0.77427  0.62488  0.20567  Biso   1.000  O
  O56      1.0000 0.77675  0.62456  0.70687  Biso   1.000  O
  O57      1.0000 0.72779  0.37275  0.95739  Biso   1.000  O
  O58      1.0000 0.72444  0.37346  0.45634  Biso   1.000  O
  O59      1.0000 0.72448  0.87364  0.95521  Biso   1.000  O
  O60      1.0000 0.72053  0.87255  0.45573  Biso   1.000  O
  O61      1.0000 0.72610  0.37385  0.20606  Biso   1.000  O
  O62      1.0000 0.72606  0.37599  0.70657  Biso   1.000  O
  O63      1.0000 0.72397  0.87495  0.20600  Biso   1.000  O
  O64      1.0000 0.72416  0.87610  0.70568  Biso   1.000  O
