data_image0
_cell_length_a       5.05249
_cell_length_b       10.2518
_cell_length_c       10.0746
_cell_angle_alpha    90.6009
_cell_angle_beta     88.3878
_cell_angle_gamma    88.9707

_symmetry_space_group_name_H-M    "P 1"
_symmetry_int_tables_number       1

loop_
  _symmetry_equiv_pos_as_xyz
  'x, y, z'

loop_
  _atom_site_label
  _atom_site_occupancy
  _atom_site_fract_x
  _atom_site_fract_y
  _atom_site_fract_z
  _atom_site_thermal_displace_type
  _atom_site_B_iso_or_equiv
  _atom_site_type_symbol
  Pd1      1.0000 0.25739  0.96199  0.11904  Biso   1.000  Pd
  Zr1      1.0000 0.25285  0.00148  0.61290  Biso   1.000  Zr
  Zr2      1.0000 0.25642  0.50699  0.12550  Biso   1.000  Zr
  Zr3      1.0000 0.23635  0.49115  0.63036  Biso   1.000  Zr
  Zr4      1.0000 0.27153  0.25166  0.36765  Biso   1.000  Zr
  Zr5      1.0000 0.23587  0.24535  0.88152  Biso   1.000  Zr
  Zr6      1.0000 0.23372  0.74030  0.39121  Biso   1.000  Zr
  Zr7      1.0000 0.21853  0.75553  0.86635  Biso   1.000  Zr
  Zr8      1.0000 0.76360  0.26020  0.12574  Biso   1.000  Zr
  Zr9      1.0000 0.75023  0.24339  0.62276  Biso   1.000  Zr
  Zr10     1.0000 0.75211  0.75038  0.12904  Biso   1.000  Zr
  Zr11     1.0000 0.71855  0.74973  0.62856  Biso   1.000  Zr
  Zr12     1.0000 0.79196  0.00903  0.36186  Biso   1.000  Zr
  Zr13     1.0000 0.72315  0.00503  0.87096  Biso   1.000  Zr
  Zr14     1.0000 0.74796  0.49821  0.38080  Biso   1.000  Zr
  Zr15     1.0000 0.73753  0.48920  0.87180  Biso   1.000  Zr
  Zr16     1.0000 0.91627  0.16135  0.96887  Biso   1.000  Zr
  Zr17     1.0000 0.01813  0.14555  0.48613  Biso   1.000  Zr
  Zr18     1.0000 0.05327  0.65860  0.01870  Biso   1.000  Zr
  Zr19     1.0000 0.98203  0.63953  0.51181  Biso   1.000  Zr
  Zr20     1.0000 0.06518  0.09862  0.22999  Biso   1.000  Zr
  Zr21     1.0000 0.97799  0.09660  0.73242  Biso   1.000  Zr
  Zr22     1.0000 0.99941  0.60389  0.26144  Biso   1.000  Zr
  Zr23     1.0000 0.99746  0.60060  0.76233  Biso   1.000  Zr
  Zr24     1.0000 0.01385  0.35510  0.25102  Biso   1.000  Zr
  Zr25     1.0000 0.99416  0.34802  0.75049  Biso   1.000  Zr
  Zr26     1.0000 0.04776  0.85019  0.24534  Biso   1.000  Zr
  Zr27     1.0000 0.94953  0.84971  0.75661  Biso   1.000  Zr
  Zr28     1.0000 0.00404  0.40427  0.00275  Biso   1.000  Zr
  Zr29     1.0000 0.99396  0.39296  0.50371  Biso   1.000  Zr
  Zr30     1.0000 0.97152  0.91007  0.99952  Biso   1.000  Zr
  Zr31     1.0000 0.99592  0.89169  0.50007  Biso   1.000  Zr
  Zr32     1.0000 0.57971  0.16404  0.27081  Biso   1.000  Zr
  Zr33     1.0000 0.48699  0.14454  0.75167  Biso   1.000  Zr
  Zr34     1.0000 0.50316  0.65765  0.26027  Biso   1.000  Zr
  Zr35     1.0000 0.49278  0.64088  0.75959  Biso   1.000  Zr
  Zr36     1.0000 0.42966  0.08940  0.00178  Biso   1.000  Zr
  Zr37     1.0000 0.52529  0.09935  0.50458  Biso   1.000  Zr
  Zr38     1.0000 0.55802  0.59554  0.01891  Biso   1.000  Zr
  Zr39     1.0000 0.48200  0.60058  0.50752  Biso   1.000  Zr
  Zr40     1.0000 0.49237  0.34839  0.00060  Biso   1.000  Zr
  Zr41     1.0000 0.49816  0.35145  0.50050  Biso   1.000  Zr
  Zr42     1.0000 0.47865  0.84229  0.00074  Biso   1.000  Zr
  Zr43     1.0000 0.49560  0.84992  0.49595  Biso   1.000  Zr
  Zr44     1.0000 0.50781  0.40584  0.25014  Biso   1.000  Zr
  Zr45     1.0000 0.49383  0.39039  0.74979  Biso   1.000  Zr
  Zr46     1.0000 0.56218  0.91902  0.23156  Biso   1.000  Zr
  Zr47     1.0000 0.45885  0.89360  0.74876  Biso   1.000  Zr
