data_image0
_cell_length_a       5.08649
_cell_length_b       10.3291
_cell_length_c       10.1744
_cell_angle_alpha    90.8754
_cell_angle_beta     90.3243
_cell_angle_gamma    90.9546

_symmetry_space_group_name_H-M    "P 1"
_symmetry_int_tables_number       1

loop_
  _symmetry_equiv_pos_as_xyz
  'x, y, z'

loop_
  _atom_site_label
  _atom_site_occupancy
  _atom_site_fract_x
  _atom_site_fract_y
  _atom_site_fract_z
  _atom_site_thermal_displace_type
  _atom_site_B_iso_or_equiv
  _atom_site_type_symbol
  Zr1      1.0000 0.31436  0.97717  0.14494  Biso   1.000  Zr
  Zr2      1.0000 0.25052  0.23995  0.37626  Biso   1.000  Zr
  Zr3      1.0000 0.66695  0.27238  0.11249  Biso   1.000  Zr
  Zr4      1.0000 0.75999  0.00736  0.39192  Biso   1.000  Zr
  Zr5      1.0000 0.89482  0.18631  0.95161  Biso   1.000  Zr
  Zr6      1.0000 0.08224  0.06412  0.28622  Biso   1.000  Zr
  Zr7      1.0000 0.94524  0.32439  0.26900  Biso   1.000  Zr
  Zr8      1.0000 0.91773  0.42704  0.02830  Biso   1.000  Zr
  Zr9      1.0000 0.56158  0.13448  0.25733  Biso   1.000  Zr
  Zr10     1.0000 0.44778  0.11564  0.00330  Biso   1.000  Zr
  Zr11     1.0000 0.43968  0.37925  0.98098  Biso   1.000  Zr
  Zr12     1.0000 0.46285  0.39850  0.24500  Biso   1.000  Zr
  Zr13     1.0000 0.25624  0.99461  0.62558  Biso   1.000  Zr
  Zr14     1.0000 0.24392  0.24651  0.85419  Biso   1.000  Zr
  Zr15     1.0000 0.74929  0.25455  0.62401  Biso   1.000  Zr
  Zr16     1.0000 0.76475  0.00675  0.87771  Biso   1.000  Zr
  Zr17     1.0000 0.99431  0.14692  0.50712  Biso   1.000  Zr
  Zr18     1.0000 0.01576  0.10176  0.74203  Biso   1.000  Zr
  Zr19     1.0000 0.99336  0.36403  0.75456  Biso   1.000  Zr
  Zr20     1.0000 0.01630  0.39422  0.50333  Biso   1.000  Zr
  Zr21     1.0000 0.51405  0.14641  0.74912  Biso   1.000  Zr
  Zr22     1.0000 0.49365  0.10431  0.50529  Biso   1.000  Zr
  Zr23     1.0000 0.52263  0.34760  0.49001  Biso   1.000  Zr
  Zr24     1.0000 0.49906  0.39734  0.73902  Biso   1.000  Zr
  Zr25     1.0000 0.24660  0.51619  0.11391  Biso   1.000  Zr
  Zr26     1.0000 0.26484  0.73842  0.38340  Biso   1.000  Zr
  Zr27     1.0000 0.76458  0.73962  0.13561  Biso   1.000  Zr
  Zr28     1.0000 0.74817  0.48648  0.37594  Biso   1.000  Zr
  Zr29     1.0000 0.01795  0.66163  0.99717  Biso   1.000  Zr
  Zr30     1.0000 0.99462  0.58927  0.25239  Biso   1.000  Zr
  Zr31     1.0000 0.09223  0.82304  0.22647  Biso   1.000  Zr
  Zr32     1.0000 0.05680  0.92526  0.99026  Biso   1.000  Zr
  Zr33     1.0000 0.50533  0.63803  0.25199  Biso   1.000  Zr
  Zr34     1.0000 0.50875  0.62039  0.00117  Biso   1.000  Zr
  Zr35     1.0000 0.55025  0.86143  0.00456  Biso   1.000  Zr
  Zr36     1.0000 0.58594  0.88180  0.25744  Biso   1.000  Zr
  Zr37     1.0000 0.24074  0.50545  0.62855  Biso   1.000  Zr
  Zr38     1.0000 0.26630  0.76829  0.87946  Biso   1.000  Zr
  Zr39     1.0000 0.75815  0.74733  0.62634  Biso   1.000  Zr
  Zr40     1.0000 0.73654  0.50896  0.87126  Biso   1.000  Zr
  Zr41     1.0000 0.99918  0.64154  0.50042  Biso   1.000  Zr
  Zr42     1.0000 0.99365  0.60871  0.74762  Biso   1.000  Zr
  Zr43     1.0000 0.99508  0.85637  0.75178  Biso   1.000  Zr
  Zr44     1.0000 0.01297  0.88699  0.49767  Biso   1.000  Zr
  Zr45     1.0000 0.49710  0.65156  0.75233  Biso   1.000  Zr
  Zr46     1.0000 0.50100  0.59887  0.50147  Biso   1.000  Zr
  Zr47     1.0000 0.50863  0.85230  0.50572  Biso   1.000  Zr
  Zr48     1.0000 0.49668  0.90129  0.75553  Biso   1.000  Zr
  Pd1      1.0000 0.14102  0.21334  0.11633  Biso   1.000  Pd
