data_image0
_cell_length_a       10.1223
_cell_length_b       5.24853
_cell_length_c       10.1334
_cell_angle_alpha    89.3651
_cell_angle_beta     89.5273
_cell_angle_gamma    89.9174

_symmetry_space_group_name_H-M    "P 1"
_symmetry_int_tables_number       1

loop_
  _symmetry_equiv_pos_as_xyz
  'x, y, z'

loop_
  _atom_site_label
  _atom_site_occupancy
  _atom_site_fract_x
  _atom_site_fract_y
  _atom_site_fract_z
  _atom_site_thermal_displace_type
  _atom_site_B_iso_or_equiv
  _atom_site_type_symbol
  Zr1      1.0000 0.13882  0.06322  0.12409  Biso   1.000  Zr
  Zr2      1.0000 0.13811  0.46769  0.38515  Biso   1.000  Zr
  Zr3      1.0000 0.36992  0.53570  0.12579  Biso   1.000  Zr
  Zr4      1.0000 0.36804  0.97248  0.37890  Biso   1.000  Zr
  Zr5      1.0000 0.00829  0.32259  0.22774  Biso   1.000  Zr
  Zr6      1.0000 0.03834  0.13103  0.45364  Biso   1.000  Zr
  Zr7      1.0000 0.46514  0.86759  0.19682  Biso   1.000  Zr
  Zr8      1.0000 0.46767  0.63719  0.44773  Biso   1.000  Zr
  Zr9      1.0000 0.27111  0.24745  0.25276  Biso   1.000  Zr
  Zr10     1.0000 0.27293  0.26515  0.50170  Biso   1.000  Zr
  Zr11     1.0000 0.23489  0.76484  0.50426  Biso   1.000  Zr
  Zr12     1.0000 0.23799  0.75465  0.25964  Biso   1.000  Zr
  Zr13     1.0000 0.13529  0.02373  0.62756  Biso   1.000  Zr
  Zr14     1.0000 0.13427  0.45282  0.86588  Biso   1.000  Zr
  Zr15     1.0000 0.37045  0.53074  0.62680  Biso   1.000  Zr
  Zr16     1.0000 0.37184  0.96517  0.87370  Biso   1.000  Zr
  Zr17     1.0000 0.03718  0.36297  0.69073  Biso   1.000  Zr
  Zr18     1.0000 0.03881  0.11820  0.94182  Biso   1.000  Zr
  Zr19     1.0000 0.46907  0.86428  0.69352  Biso   1.000  Zr
  Zr20     1.0000 0.46925  0.63217  0.94533  Biso   1.000  Zr
  Zr21     1.0000 0.26984  0.22570  0.74742  Biso   1.000  Zr
  Zr22     1.0000 0.28225  0.25703  0.99328  Biso   1.000  Zr
  Zr23     1.0000 0.23631  0.77250  0.00167  Biso   1.000  Zr
  Zr24     1.0000 0.23588  0.72647  0.75123  Biso   1.000  Zr
  Zr25     1.0000 0.63022  0.02859  0.12518  Biso   1.000  Zr
  Zr26     1.0000 0.63366  0.46882  0.37730  Biso   1.000  Zr
  Zr27     1.0000 0.84506  0.52429  0.12349  Biso   1.000  Zr
  Zr28     1.0000 0.87443  0.97722  0.37005  Biso   1.000  Zr
  Zr29     1.0000 0.53422  0.36616  0.19536  Biso   1.000  Zr
  Zr30     1.0000 0.53739  0.13570  0.44642  Biso   1.000  Zr
  Zr31     1.0000 0.95687  0.86581  0.18797  Biso   1.000  Zr
  Zr32     1.0000 0.97092  0.64254  0.44657  Biso   1.000  Zr
  Zr33     1.0000 0.75906  0.22860  0.24886  Biso   1.000  Zr
  Zr34     1.0000 0.77229  0.27459  0.49655  Biso   1.000  Zr
  Zr35     1.0000 0.73708  0.77417  0.49595  Biso   1.000  Zr
  Zr36     1.0000 0.72614  0.73320  0.24922  Biso   1.000  Zr
  Zr37     1.0000 0.63836  0.03017  0.62285  Biso   1.000  Zr
  Zr38     1.0000 0.63474  0.46328  0.87170  Biso   1.000  Zr
  Zr39     1.0000 0.86794  0.53411  0.62408  Biso   1.000  Zr
  Zr40     1.0000 0.86768  0.96065  0.87321  Biso   1.000  Zr
  Zr41     1.0000 0.53699  0.36261  0.69522  Biso   1.000  Zr
  Zr42     1.0000 0.53846  0.12957  0.94281  Biso   1.000  Zr
  Zr43     1.0000 0.96632  0.86465  0.69419  Biso   1.000  Zr
  Zr44     1.0000 0.95240  0.61722  0.92486  Biso   1.000  Zr
  Zr45     1.0000 0.77130  0.23063  0.74628  Biso   1.000  Zr
  Zr46     1.0000 0.76745  0.25836  0.99756  Biso   1.000  Zr
  Zr47     1.0000 0.72666  0.76013  0.99864  Biso   1.000  Zr
  Zr48     1.0000 0.73084  0.73259  0.74605  Biso   1.000  Zr
  Pd1      1.0000 0.09579  0.57318  0.11021  Biso   1.000  Pd
