data_image0
_cell_length_a       10.187
_cell_length_b       10.2856
_cell_length_c       5.25622
_cell_angle_alpha    90.0216
_cell_angle_beta     80.8436
_cell_angle_gamma    89.2814

_symmetry_space_group_name_H-M    "P 1"
_symmetry_int_tables_number       1

loop_
  _symmetry_equiv_pos_as_xyz
  'x, y, z'

loop_
  _atom_site_label
  _atom_site_occupancy
  _atom_site_fract_x
  _atom_site_fract_y
  _atom_site_fract_z
  _atom_site_thermal_displace_type
  _atom_site_B_iso_or_equiv
  _atom_site_type_symbol
  Pd1      1.0000 0.12395  0.00843  0.33225  Biso   1.000  Pd
  Zr1      1.0000 0.14042  0.52250  0.29338  Biso   1.000  Zr
  Zr2      1.0000 0.63783  0.02205  0.29102  Biso   1.000  Zr
  Zr3      1.0000 0.63753  0.51899  0.29088  Biso   1.000  Zr
  Zr4      1.0000 0.14371  0.22644  0.78292  Biso   1.000  Zr
  Zr5      1.0000 0.13613  0.73052  0.79607  Biso   1.000  Zr
  Zr6      1.0000 0.64042  0.23046  0.79298  Biso   1.000  Zr
  Zr7      1.0000 0.63553  0.72742  0.79112  Biso   1.000  Zr
  Zr8      1.0000 0.35937  0.27002  0.20021  Biso   1.000  Zr
  Zr9      1.0000 0.35879  0.77678  0.20797  Biso   1.000  Zr
  Zr10     1.0000 0.86901  0.26572  0.21614  Biso   1.000  Zr
  Zr11     1.0000 0.85768  0.76787  0.20969  Biso   1.000  Zr
  Zr12     1.0000 0.36181  0.48046  0.70822  Biso   1.000  Zr
  Zr13     1.0000 0.36121  0.98480  0.70613  Biso   1.000  Zr
  Zr14     1.0000 0.86381  0.47620  0.71444  Biso   1.000  Zr
  Zr15     1.0000 0.85497  0.97636  0.71391  Biso   1.000  Zr
  O1       1.0000 0.04395  0.15220  0.14896  Biso   1.000  O
  O2       1.0000 0.03320  0.66649  0.15948  Biso   1.000  O
  O3       1.0000 0.53565  0.16835  0.15621  Biso   1.000  O
  O4       1.0000 0.53337  0.66775  0.15585  Biso   1.000  O
  O5       1.0000 0.02951  0.08549  0.64643  Biso   1.000  O
  O6       1.0000 0.03580  0.58276  0.66201  Biso   1.000  O
  O7       1.0000 0.53798  0.08262  0.65696  Biso   1.000  O
  O8       1.0000 0.53425  0.58339  0.65420  Biso   1.000  O
  O9       1.0000 0.46565  0.41646  0.34397  Biso   1.000  O
  O10      1.0000 0.46465  0.91821  0.34364  Biso   1.000  O
  O11      1.0000 0.97126  0.41160  0.35403  Biso   1.000  O
  O12      1.0000 0.95841  0.91534  0.34325  Biso   1.000  O
  O13      1.0000 0.47192  0.34081  0.84741  Biso   1.000  O
  O14      1.0000 0.45957  0.83182  0.83983  Biso   1.000  O
  O15      1.0000 0.96973  0.33099  0.85824  Biso   1.000  O
  O16      1.0000 0.96208  0.83240  0.84614  Biso   1.000  O
  O17      1.0000 0.26786  0.11965  0.44744  Biso   1.000  O
  O18      1.0000 0.27495  0.63251  0.48268  Biso   1.000  O
  O19      1.0000 0.77593  0.12724  0.48181  Biso   1.000  O
  O20      1.0000 0.77541  0.62625  0.48263  Biso   1.000  O
  O21      1.0000 0.29714  0.14210  0.92678  Biso   1.000  O
  O22      1.0000 0.27504  0.62627  0.98308  Biso   1.000  O
  O23      1.0000 0.77753  0.11995  0.98297  Biso   1.000  O
  O24      1.0000 0.77484  0.61990  0.98161  Biso   1.000  O
  O25      1.0000 0.22432  0.38369  0.01566  Biso   1.000  O
  O26      1.0000 0.22226  0.89533  0.02652  Biso   1.000  O
  O27      1.0000 0.72956  0.37599  0.02492  Biso   1.000  O
  O28      1.0000 0.71985  0.87754  0.01982  Biso   1.000  O
  O29      1.0000 0.22836  0.36935  0.51723  Biso   1.000  O
  O30      1.0000 0.21537  0.87260  0.52008  Biso   1.000  O
  O31      1.0000 0.72908  0.37020  0.52246  Biso   1.000  O
  O32      1.0000 0.72333  0.86976  0.52040  Biso   1.000  O
