data_image0
_cell_length_a       10.0347
_cell_length_b       5.23097
_cell_length_c       10.0892
_cell_angle_alpha    91.5738
_cell_angle_beta     89.3454
_cell_angle_gamma    90.1626

_symmetry_space_group_name_H-M    "P 1"
_symmetry_int_tables_number       1

loop_
  _symmetry_equiv_pos_as_xyz
  'x, y, z'

loop_
  _atom_site_label
  _atom_site_occupancy
  _atom_site_fract_x
  _atom_site_fract_y
  _atom_site_fract_z
  _atom_site_thermal_displace_type
  _atom_site_B_iso_or_equiv
  _atom_site_type_symbol
  Pt1      1.0000 0.12034  0.07347  0.10345  Biso   1.000  Pt
  Zr1      1.0000 0.13776  0.44411  0.37708  Biso   1.000  Zr
  Zr2      1.0000 0.38797  0.53670  0.11176  Biso   1.000  Zr
  Zr3      1.0000 0.36328  0.94315  0.37367  Biso   1.000  Zr
  Zr4      1.0000 0.03504  0.37544  0.18939  Biso   1.000  Zr
  Zr5      1.0000 0.02692  0.14097  0.46299  Biso   1.000  Zr
  Zr6      1.0000 0.46944  0.87753  0.19017  Biso   1.000  Zr
  Zr7      1.0000 0.47542  0.64442  0.46090  Biso   1.000  Zr
  Zr8      1.0000 0.22182  0.11400  0.26754  Biso   1.000  Zr
  Zr9      1.0000 0.27396  0.25713  0.50236  Biso   1.000  Zr
  Zr10     1.0000 0.22732  0.75673  0.50523  Biso   1.000  Zr
  Zr11     1.0000 0.27526  0.62232  0.26752  Biso   1.000  Zr
  Zr12     1.0000 0.13604  0.03616  0.63133  Biso   1.000  Zr
  Zr13     1.0000 0.13095  0.48691  0.87954  Biso   1.000  Zr
  Zr14     1.0000 0.36545  0.53621  0.62966  Biso   1.000  Zr
  Zr15     1.0000 0.36248  0.98314  0.88033  Biso   1.000  Zr
  Zr16     1.0000 0.03609  0.37489  0.70032  Biso   1.000  Zr
  Zr17     1.0000 0.03567  0.12758  0.92744  Biso   1.000  Zr
  Zr18     1.0000 0.46207  0.87730  0.70008  Biso   1.000  Zr
  Zr19     1.0000 0.46320  0.65257  0.93204  Biso   1.000  Zr
  Zr20     1.0000 0.27039  0.24747  0.75671  Biso   1.000  Zr
  Zr21     1.0000 0.26011  0.27667  0.01069  Biso   1.000  Zr
  Zr22     1.0000 0.22716  0.78583  0.01204  Biso   1.000  Zr
  Zr23     1.0000 0.22874  0.74382  0.75657  Biso   1.000  Zr
  Zr24     1.0000 0.63915  0.04270  0.12677  Biso   1.000  Zr
  Zr25     1.0000 0.63719  0.47194  0.37841  Biso   1.000  Zr
  Zr26     1.0000 0.86630  0.54326  0.12165  Biso   1.000  Zr
  Zr27     1.0000 0.87214  0.97410  0.37253  Biso   1.000  Zr
  Zr28     1.0000 0.53856  0.37298  0.20241  Biso   1.000  Zr
  Zr29     1.0000 0.53477  0.13515  0.43947  Biso   1.000  Zr
  Zr30     1.0000 0.97126  0.87764  0.18786  Biso   1.000  Zr
  Zr31     1.0000 0.96693  0.63162  0.43570  Biso   1.000  Zr
  Zr32     1.0000 0.77457  0.24241  0.24740  Biso   1.000  Zr
  Zr33     1.0000 0.76623  0.26867  0.49628  Biso   1.000  Zr
  Zr34     1.0000 0.73864  0.77127  0.49473  Biso   1.000  Zr
  Zr35     1.0000 0.73332  0.74236  0.24581  Biso   1.000  Zr
  Zr36     1.0000 0.62678  0.02582  0.61505  Biso   1.000  Zr
  Zr37     1.0000 0.63703  0.46766  0.86768  Biso   1.000  Zr
  Zr38     1.0000 0.87316  0.52702  0.61638  Biso   1.000  Zr
  Zr39     1.0000 0.86030  0.96674  0.86680  Biso   1.000  Zr
  Zr40     1.0000 0.53320  0.36635  0.69463  Biso   1.000  Zr
  Zr41     1.0000 0.52411  0.16689  0.95795  Biso   1.000  Zr
  Zr42     1.0000 0.96568  0.86478  0.69123  Biso   1.000  Zr
  Zr43     1.0000 0.95828  0.63633  0.94116  Biso   1.000  Zr
  Zr44     1.0000 0.76454  0.22344  0.74345  Biso   1.000  Zr
  Zr45     1.0000 0.76943  0.26920  0.99486  Biso   1.000  Zr
  Zr46     1.0000 0.72466  0.77063  0.99387  Biso   1.000  Zr
  Zr47     1.0000 0.73205  0.72390  0.74159  Biso   1.000  Zr
