data_image0
_cell_length_a       10.0989
_cell_length_b       10.2885
_cell_length_c       10.4987
_cell_angle_alpha    90.0464
_cell_angle_beta     90.2649
_cell_angle_gamma    89.6998

_symmetry_space_group_name_H-M    "P 1"
_symmetry_int_tables_number       1

loop_
  _symmetry_equiv_pos_as_xyz
  'x, y, z'

loop_
  _atom_site_label
  _atom_site_occupancy
  _atom_site_fract_x
  _atom_site_fract_y
  _atom_site_fract_z
  _atom_site_thermal_displace_type
  _atom_site_B_iso_or_equiv
  _atom_site_type_symbol
  Pt1      1.0000 0.12531  0.00879  0.19094  Biso   1.000  Pt
  Zr1      1.0000 0.14022  0.23232  0.41772  Biso   1.000  Zr
  Zr2      1.0000 0.35931  0.27059  0.16644  Biso   1.000  Zr
  Zr3      1.0000 0.36117  0.47921  0.42071  Biso   1.000  Zr
  Zr4      1.0000 0.63945  0.02185  0.07750  Biso   1.000  Zr
  Zr5      1.0000 0.63740  0.22935  0.32826  Biso   1.000  Zr
  Zr6      1.0000 0.86858  0.26588  0.08295  Biso   1.000  Zr
  Zr7      1.0000 0.86050  0.47854  0.32939  Biso   1.000  Zr
  O1       1.0000 0.04384  0.15558  0.08860  Biso   1.000  O
  O2       1.0000 0.02973  0.08574  0.33334  Biso   1.000  O
  O3       1.0000 0.46688  0.41746  0.08444  Biso   1.000  O
  O4       1.0000 0.46457  0.33074  0.33589  Biso   1.000  O
  O5       1.0000 0.27224  0.11656  0.28247  Biso   1.000  O
  O6       1.0000 0.29957  0.14615  0.02502  Biso   1.000  O
  O7       1.0000 0.22424  0.37417  0.29425  Biso   1.000  O
  O8       1.0000 0.22175  0.38331  0.04467  Biso   1.000  O
  O9       1.0000 0.53557  0.16827  0.16373  Biso   1.000  O
  O10      1.0000 0.53278  0.08181  0.41398  Biso   1.000  O
  O11      1.0000 0.96851  0.41508  0.16833  Biso   1.000  O
  O12      1.0000 0.96723  0.33486  0.41762  Biso   1.000  O
  O13      1.0000 0.77501  0.12282  0.45567  Biso   1.000  O
  O14      1.0000 0.77629  0.12410  0.20636  Biso   1.000  O
  O15      1.0000 0.72446  0.37343  0.45621  Biso   1.000  O
  O16      1.0000 0.72632  0.37367  0.20593  Biso   1.000  O
  Zr8      1.0000 0.13762  0.02094  0.66804  Biso   1.000  Zr
  Zr9      1.0000 0.14428  0.22517  0.92179  Biso   1.000  Zr
  Zr10     1.0000 0.36180  0.27165  0.67022  Biso   1.000  Zr
  Zr11     1.0000 0.36137  0.47971  0.92125  Biso   1.000  Zr
  Zr12     1.0000 0.63744  0.02116  0.58020  Biso   1.000  Zr
  Zr13     1.0000 0.64025  0.22984  0.82991  Biso   1.000  Zr
  Zr14     1.0000 0.86160  0.27049  0.57960  Biso   1.000  Zr
  Zr15     1.0000 0.86425  0.47648  0.83207  Biso   1.000  Zr
  O17      1.0000 0.03264  0.16344  0.57822  Biso   1.000  O
  O18      1.0000 0.03355  0.08541  0.83099  Biso   1.000  O
  O19      1.0000 0.46663  0.41777  0.58462  Biso   1.000  O
  O20      1.0000 0.46847  0.33507  0.83336  Biso   1.000  O
  O21      1.0000 0.27518  0.12247  0.78639  Biso   1.000  O
  O22      1.0000 0.27613  0.12785  0.53825  Biso   1.000  O
  O23      1.0000 0.22620  0.37359  0.79517  Biso   1.000  O
  O24      1.0000 0.22378  0.37602  0.54416  Biso   1.000  O
  O25      1.0000 0.53422  0.16827  0.66413  Biso   1.000  O
  O26      1.0000 0.53826  0.08103  0.91140  Biso   1.000  O
  O27      1.0000 0.96954  0.41194  0.67035  Biso   1.000  O
  O28      1.0000 0.97084  0.33175  0.92293  Biso   1.000  O
  O29      1.0000 0.77852  0.12402  0.95638  Biso   1.000  O
  O30      1.0000 0.77630  0.12601  0.70522  Biso   1.000  O
  O31      1.0000 0.72778  0.37261  0.95726  Biso   1.000  O
  O32      1.0000 0.72608  0.37608  0.70652  Biso   1.000  O
  Zr16     1.0000 0.13873  0.52340  0.17088  Biso   1.000  Zr
  Zr17     1.0000 0.13609  0.72662  0.42336  Biso   1.000  Zr
  Zr18     1.0000 0.35983  0.77547  0.16934  Biso   1.000  Zr
  Zr19     1.0000 0.36098  0.97968  0.42092  Biso   1.000  Zr
  Zr20     1.0000 0.63903  0.51936  0.07868  Biso   1.000  Zr
  Zr21     1.0000 0.63601  0.72696  0.32846  Biso   1.000  Zr
  Zr22     1.0000 0.85934  0.76902  0.07786  Biso   1.000  Zr
  Zr23     1.0000 0.85352  0.97649  0.33108  Biso   1.000  Zr
  O33      1.0000 0.03337  0.66809  0.08489  Biso   1.000  O
  O34      1.0000 0.03157  0.58413  0.33475  Biso   1.000  O
  O35      1.0000 0.46797  0.91657  0.08273  Biso   1.000  O
  O36      1.0000 0.46216  0.83215  0.33466  Biso   1.000  O
  O37      1.0000 0.27473  0.62583  0.29515  Biso   1.000  O
  O38      1.0000 0.27686  0.63321  0.04406  Biso   1.000  O
  O39      1.0000 0.21616  0.87268  0.29510  Biso   1.000  O
  O40      1.0000 0.21903  0.89130  0.04945  Biso   1.000  O
  O41      1.0000 0.53175  0.66696  0.16481  Biso   1.000  O
  O42      1.0000 0.53293  0.58215  0.41492  Biso   1.000  O
  O43      1.0000 0.95928  0.91696  0.16341  Biso   1.000  O
  O44      1.0000 0.96534  0.83539  0.41730  Biso   1.000  O
  O45      1.0000 0.77463  0.62377  0.45569  Biso   1.000  O
  O46      1.0000 0.77411  0.62465  0.20556  Biso   1.000  O
  O47      1.0000 0.72077  0.87257  0.45578  Biso   1.000  O
  O48      1.0000 0.72293  0.87484  0.20623  Biso   1.000  O
  Zr24     1.0000 0.13937  0.52067  0.67310  Biso   1.000  Zr
  Zr25     1.0000 0.13836  0.73298  0.92181  Biso   1.000  Zr
  Zr26     1.0000 0.36131  0.77151  0.67234  Biso   1.000  Zr
  Zr27     1.0000 0.36115  0.98332  0.92141  Biso   1.000  Zr
  Zr28     1.0000 0.63916  0.52046  0.58014  Biso   1.000  Zr
  Zr29     1.0000 0.63868  0.72905  0.82926  Biso   1.000  Zr
  Zr30     1.0000 0.85952  0.77026  0.58038  Biso   1.000  Zr
  Zr31     1.0000 0.86253  0.97974  0.82953  Biso   1.000  Zr
  O49      1.0000 0.03098  0.66369  0.58474  Biso   1.000  O
  O50      1.0000 0.03437  0.58472  0.83632  Biso   1.000  O
  O51      1.0000 0.46579  0.91756  0.58493  Biso   1.000  O
  O52      1.0000 0.46700  0.83376  0.83426  Biso   1.000  O
  O53      1.0000 0.27561  0.62473  0.79515  Biso   1.000  O
  O54      1.0000 0.27474  0.62518  0.54595  Biso   1.000  O
  O55      1.0000 0.22432  0.87462  0.79647  Biso   1.000  O
  O56      1.0000 0.22448  0.87548  0.54471  Biso   1.000  O
  O57      1.0000 0.53374  0.66710  0.66475  Biso   1.000  O
  O58      1.0000 0.53418  0.58320  0.91529  Biso   1.000  O
  O59      1.0000 0.96697  0.91432  0.66653  Biso   1.000  O
  O60      1.0000 0.96541  0.83320  0.91568  Biso   1.000  O
  O61      1.0000 0.77649  0.62284  0.95594  Biso   1.000  O
  O62      1.0000 0.77669  0.62474  0.70660  Biso   1.000  O
  O63      1.0000 0.72411  0.87349  0.95514  Biso   1.000  O
  O64      1.0000 0.72431  0.87613  0.70564  Biso   1.000  O
