data_image0
_cell_length_a       10.0836
_cell_length_b       10.4671
_cell_length_c       10.1056
_cell_angle_alpha    89.6488
_cell_angle_beta     89.5539
_cell_angle_gamma    90.124

_symmetry_space_group_name_H-M    "P 1"
_symmetry_int_tables_number       1

loop_
  _symmetry_equiv_pos_as_xyz
  'x, y, z'

loop_
  _atom_site_label
  _atom_site_occupancy
  _atom_site_fract_x
  _atom_site_fract_y
  _atom_site_fract_z
  _atom_site_thermal_displace_type
  _atom_site_B_iso_or_equiv
  _atom_site_type_symbol
  Zr1      1.0000 0.13774  0.01448  0.12086  Biso   1.000  Zr
  Zr2      1.0000 0.13782  0.23176  0.38686  Biso   1.000  Zr
  Zr3      1.0000 0.37249  0.26346  0.12602  Biso   1.000  Zr
  Zr4      1.0000 0.36916  0.48619  0.37869  Biso   1.000  Zr
  Zr5      1.0000 0.00239  0.16450  0.22900  Biso   1.000  Zr
  Zr6      1.0000 0.03847  0.06278  0.45228  Biso   1.000  Zr
  Zr7      1.0000 0.46749  0.43323  0.19464  Biso   1.000  Zr
  Zr8      1.0000 0.46744  0.31880  0.44960  Biso   1.000  Zr
  Zr9      1.0000 0.26634  0.11452  0.25231  Biso   1.000  Zr
  Zr10     1.0000 0.27383  0.13223  0.50182  Biso   1.000  Zr
  Zr11     1.0000 0.23369  0.38327  0.50546  Biso   1.000  Zr
  Zr12     1.0000 0.24469  0.37134  0.26296  Biso   1.000  Zr
  Zr13     1.0000 0.13557  0.01186  0.62707  Biso   1.000  Zr
  Zr14     1.0000 0.13141  0.22496  0.86675  Biso   1.000  Zr
  Zr15     1.0000 0.36770  0.26694  0.62860  Biso   1.000  Zr
  Zr16     1.0000 0.36674  0.48427  0.87590  Biso   1.000  Zr
  Zr17     1.0000 0.03708  0.18123  0.68773  Biso   1.000  Zr
  Zr18     1.0000 0.03980  0.05558  0.93679  Biso   1.000  Zr
  Zr19     1.0000 0.46451  0.43487  0.69693  Biso   1.000  Zr
  Zr20     1.0000 0.46375  0.31588  0.94314  Biso   1.000  Zr
  Zr21     1.0000 0.26949  0.11451  0.74733  Biso   1.000  Zr
  Zr22     1.0000 0.28574  0.12376  0.99289  Biso   1.000  Zr
  Zr23     1.0000 0.22763  0.38461  0.00405  Biso   1.000  Zr
  Zr24     1.0000 0.23060  0.36619  0.75238  Biso   1.000  Zr
  Zr25     1.0000 0.13305  0.53099  0.12889  Biso   1.000  Zr
  Zr26     1.0000 0.13618  0.73706  0.37832  Biso   1.000  Zr
  Zr27     1.0000 0.36751  0.76635  0.12654  Biso   1.000  Zr
  Zr28     1.0000 0.36771  0.98466  0.37633  Biso   1.000  Zr
  Zr29     1.0000 0.03612  0.68899  0.19705  Biso   1.000  Zr
  Zr30     1.0000 0.03846  0.56798  0.44257  Biso   1.000  Zr
  Zr31     1.0000 0.46404  0.93325  0.19570  Biso   1.000  Zr
  Zr32     1.0000 0.46702  0.81664  0.44470  Biso   1.000  Zr
  Zr33     1.0000 0.27244  0.62165  0.25125  Biso   1.000  Zr
  Zr34     1.0000 0.27128  0.63339  0.50047  Biso   1.000  Zr
  Zr35     1.0000 0.23340  0.88249  0.49972  Biso   1.000  Zr
  Zr36     1.0000 0.23156  0.86823  0.24925  Biso   1.000  Zr
  Zr37     1.0000 0.13471  0.51593  0.62590  Biso   1.000  Zr
  Zr38     1.0000 0.13333  0.73430  0.87400  Biso   1.000  Zr
  Zr39     1.0000 0.36953  0.76479  0.62542  Biso   1.000  Zr
  Zr40     1.0000 0.36973  0.98172  0.87442  Biso   1.000  Zr
  Zr41     1.0000 0.03704  0.68483  0.69316  Biso   1.000  Zr
  Zr42     1.0000 0.03514  0.56542  0.94664  Biso   1.000  Zr
  Zr43     1.0000 0.46802  0.93240  0.69245  Biso   1.000  Zr
  Zr44     1.0000 0.46757  0.81672  0.94703  Biso   1.000  Zr
  Zr45     1.0000 0.26926  0.61545  0.75025  Biso   1.000  Zr
  Zr46     1.0000 0.26883  0.63473  0.99962  Biso   1.000  Zr
  Zr47     1.0000 0.23074  0.87996  0.99931  Biso   1.000  Zr
  Zr48     1.0000 0.23451  0.86450  0.74931  Biso   1.000  Zr
  Zr49     1.0000 0.63192  0.01160  0.12356  Biso   1.000  Zr
  Zr50     1.0000 0.63336  0.23367  0.37885  Biso   1.000  Zr
  Zr51     1.0000 0.84515  0.26451  0.12071  Biso   1.000  Zr
  Zr52     1.0000 0.86880  0.48494  0.37630  Biso   1.000  Zr
  Zr53     1.0000 0.53352  0.18070  0.19689  Biso   1.000  Zr
  Zr54     1.0000 0.53594  0.06654  0.44619  Biso   1.000  Zr
  Zr55     1.0000 0.95463  0.44321  0.19181  Biso   1.000  Zr
  Zr56     1.0000 0.96990  0.32007  0.44829  Biso   1.000  Zr
  Zr57     1.0000 0.75848  0.11434  0.24784  Biso   1.000  Zr
  Zr58     1.0000 0.77263  0.13611  0.49732  Biso   1.000  Zr
  Zr59     1.0000 0.73291  0.38346  0.49900  Biso   1.000  Zr
  Zr60     1.0000 0.72644  0.36766  0.25108  Biso   1.000  Zr
  Zr61     1.0000 0.63703  0.01525  0.62360  Biso   1.000  Zr
  Zr62     1.0000 0.63281  0.23295  0.87188  Biso   1.000  Zr
  Zr63     1.0000 0.86693  0.26843  0.62764  Biso   1.000  Zr
  Zr64     1.0000 0.86609  0.48382  0.87261  Biso   1.000  Zr
  Zr65     1.0000 0.53654  0.18299  0.69396  Biso   1.000  Zr
  Zr66     1.0000 0.54015  0.06407  0.94137  Biso   1.000  Zr
  Zr67     1.0000 0.96191  0.43898  0.68783  Biso   1.000  Zr
  Zr68     1.0000 0.94508  0.30920  0.91104  Biso   1.000  Zr
  Zr69     1.0000 0.77036  0.11634  0.74759  Biso   1.000  Zr
  Zr70     1.0000 0.76788  0.13010  0.99751  Biso   1.000  Zr
  Zr71     1.0000 0.72389  0.38252  0.99927  Biso   1.000  Zr
  Zr72     1.0000 0.72638  0.36912  0.74679  Biso   1.000  Zr
  Zr73     1.0000 0.63369  0.51861  0.12769  Biso   1.000  Zr
  Zr74     1.0000 0.63696  0.73607  0.37570  Biso   1.000  Zr
  Zr75     1.0000 0.86492  0.76516  0.12407  Biso   1.000  Zr
  Zr76     1.0000 0.87231  0.98915  0.36932  Biso   1.000  Zr
  Zr77     1.0000 0.53637  0.68506  0.19588  Biso   1.000  Zr
  Zr78     1.0000 0.53951  0.56762  0.44485  Biso   1.000  Zr
  Zr79     1.0000 0.96574  0.93077  0.18899  Biso   1.000  Zr
  Zr80     1.0000 0.96671  0.81895  0.44308  Biso   1.000  Zr
  Zr81     1.0000 0.76942  0.61868  0.25011  Biso   1.000  Zr
  Zr82     1.0000 0.77149  0.63478  0.49861  Biso   1.000  Zr
  Zr83     1.0000 0.73536  0.88666  0.49597  Biso   1.000  Zr
  Zr84     1.0000 0.73210  0.86711  0.24698  Biso   1.000  Zr
  Zr85     1.0000 0.63515  0.51602  0.62462  Biso   1.000  Zr
  Zr86     1.0000 0.63476  0.73281  0.87493  Biso   1.000  Zr
  Zr87     1.0000 0.86799  0.76623  0.62333  Biso   1.000  Zr
  Zr88     1.0000 0.86641  0.98133  0.87293  Biso   1.000  Zr
  Zr89     1.0000 0.53585  0.68259  0.69595  Biso   1.000  Zr
  Zr90     1.0000 0.53289  0.56727  0.94619  Biso   1.000  Zr
  Zr91     1.0000 0.96625  0.93094  0.69591  Biso   1.000  Zr
  Zr92     1.0000 0.96291  0.81221  0.94223  Biso   1.000  Zr
  Zr93     1.0000 0.76924  0.61728  0.74751  Biso   1.000  Zr
  Zr94     1.0000 0.76786  0.63212  0.99845  Biso   1.000  Zr
  Zr95     1.0000 0.73132  0.88097  0.99769  Biso   1.000  Zr
  Zr96     1.0000 0.73177  0.86599  0.74708  Biso   1.000  Zr
  Pt1      1.0000 0.09979  0.27962  0.11475  Biso   1.000  Pt
