data_image0
_cell_length_a       10.1982
_cell_length_b       10.2859
_cell_length_c       5.26175
_cell_angle_alpha    89.9856
_cell_angle_beta     80.804
_cell_angle_gamma    89.2781

_symmetry_space_group_name_H-M    "P 1"
_symmetry_int_tables_number       1

loop_
  _symmetry_equiv_pos_as_xyz
  'x, y, z'

loop_
  _atom_site_label
  _atom_site_occupancy
  _atom_site_fract_x
  _atom_site_fract_y
  _atom_site_fract_z
  _atom_site_thermal_displace_type
  _atom_site_B_iso_or_equiv
  _atom_site_type_symbol
  Pt1      1.0000 0.12412  0.00787  0.33269  Biso   1.000  Pt
  Zr1      1.0000 0.14307  0.22705  0.78393  Biso   1.000  Zr
  Zr2      1.0000 0.35966  0.27021  0.19999  Biso   1.000  Zr
  Zr3      1.0000 0.36183  0.48028  0.70819  Biso   1.000  Zr
  O1       1.0000 0.04356  0.15233  0.14981  Biso   1.000  O
  O2       1.0000 0.02802  0.08762  0.64682  Biso   1.000  O
  O3       1.0000 0.46610  0.41564  0.34520  Biso   1.000  O
  O4       1.0000 0.47246  0.34146  0.84846  Biso   1.000  O
  O5       1.0000 0.26875  0.11906  0.44548  Biso   1.000  O
  O6       1.0000 0.29752  0.14313  0.92444  Biso   1.000  O
  O7       1.0000 0.22457  0.38401  0.01623  Biso   1.000  O
  O8       1.0000 0.22851  0.36923  0.51749  Biso   1.000  O
  Zr4      1.0000 0.14029  0.52261  0.29360  Biso   1.000  Zr
  Zr5      1.0000 0.13595  0.72993  0.79639  Biso   1.000  Zr
  Zr6      1.0000 0.35974  0.77620  0.20824  Biso   1.000  Zr
  Zr7      1.0000 0.36213  0.98505  0.70687  Biso   1.000  Zr
  O9       1.0000 0.03273  0.66596  0.15850  Biso   1.000  O
  O10      1.0000 0.03541  0.58344  0.66098  Biso   1.000  O
  O11      1.0000 0.46488  0.91775  0.34466  Biso   1.000  O
  O12      1.0000 0.45983  0.83197  0.84097  Biso   1.000  O
  O13      1.0000 0.27495  0.63194  0.48252  Biso   1.000  O
  O14      1.0000 0.27498  0.62653  0.98306  Biso   1.000  O
  O15      1.0000 0.22275  0.89600  0.02779  Biso   1.000  O
  O16      1.0000 0.21577  0.87194  0.52150  Biso   1.000  O
  Zr8      1.0000 0.63800  0.02202  0.29084  Biso   1.000  Zr
  Zr9      1.0000 0.64054  0.23051  0.79317  Biso   1.000  Zr
  Zr10     1.0000 0.86935  0.26585  0.21640  Biso   1.000  Zr
  Zr11     1.0000 0.86373  0.47621  0.71446  Biso   1.000  Zr
  O17      1.0000 0.53546  0.16769  0.15520  Biso   1.000  O
  O18      1.0000 0.53814  0.08302  0.65623  Biso   1.000  O
  O19      1.0000 0.97149  0.41124  0.35564  Biso   1.000  O
  O20      1.0000 0.97013  0.33268  0.86052  Biso   1.000  O
  O21      1.0000 0.77582  0.12705  0.48150  Biso   1.000  O
  O22      1.0000 0.77740  0.11988  0.98276  Biso   1.000  O
  O23      1.0000 0.72956  0.37577  0.02506  Biso   1.000  O
  O24      1.0000 0.72927  0.37018  0.52267  Biso   1.000  O
  Zr12     1.0000 0.63765  0.51858  0.29082  Biso   1.000  Zr
  Zr13     1.0000 0.63549  0.72709  0.79034  Biso   1.000  Zr
  Zr14     1.0000 0.85709  0.76772  0.20914  Biso   1.000  Zr
  Zr15     1.0000 0.85427  0.97622  0.71409  Biso   1.000  Zr
  O25      1.0000 0.53331  0.66697  0.15504  Biso   1.000  O
  O26      1.0000 0.53383  0.58380  0.65304  Biso   1.000  O
  O27      1.0000 0.95752  0.91434  0.34112  Biso   1.000  O
  O28      1.0000 0.96251  0.83316  0.84549  Biso   1.000  O
  O29      1.0000 0.77508  0.62604  0.48197  Biso   1.000  O
  O30      1.0000 0.77453  0.61979  0.98077  Biso   1.000  O
  O31      1.0000 0.71962  0.87742  0.01932  Biso   1.000  O
  O32      1.0000 0.72264  0.86957  0.52058  Biso   1.000  O
