data_image0
_cell_length_a       10.0792
_cell_length_b       10.2534
_cell_length_c       5.04792
_cell_angle_alpha    90.0002
_cell_angle_beta     88.808
_cell_angle_gamma    89.9996

_symmetry_space_group_name_H-M    "P 1"
_symmetry_int_tables_number       1

loop_
  _symmetry_equiv_pos_as_xyz
  'x, y, z'

loop_
  _atom_site_label
  _atom_site_occupancy
  _atom_site_fract_x
  _atom_site_fract_y
  _atom_site_fract_z
  _atom_site_thermal_displace_type
  _atom_site_B_iso_or_equiv
  _atom_site_type_symbol
  Pt1      1.0000 0.12540  0.96486  0.25078  Biso   1.000  Pt
  Zr1      1.0000 0.12540  0.25815  0.75080  Biso   1.000  Zr
  Zr2      1.0000 0.36798  0.24990  0.26260  Biso   1.000  Zr
  Zr3      1.0000 0.37371  0.00743  0.77904  Biso   1.000  Zr
  Zr4      1.0000 0.97202  0.16537  0.92195  Biso   1.000  Zr
  Zr5      1.0000 0.01079  0.09623  0.43808  Biso   1.000  Zr
  Zr6      1.0000 0.00100  0.35401  0.49333  Biso   1.000  Zr
  Zr7      1.0000 0.00224  0.40654  0.00084  Biso   1.000  Zr
  Zr8      1.0000 0.27876  0.16537  0.57962  Biso   1.000  Zr
  Zr9      1.0000 0.24000  0.09624  0.06349  Biso   1.000  Zr
  Zr10     1.0000 0.24980  0.35401  0.00826  Biso   1.000  Zr
  Zr11     1.0000 0.24855  0.40654  0.50076  Biso   1.000  Zr
  Zr12     1.0000 0.12540  0.51015  0.25079  Biso   1.000  Zr
  Zr13     1.0000 0.12540  0.75422  0.75079  Biso   1.000  Zr
  Zr14     1.0000 0.38777  0.74369  0.25151  Biso   1.000  Zr
  Zr15     1.0000 0.37858  0.49461  0.75382  Biso   1.000  Zr
  Zr16     1.0000 0.00553  0.65836  0.01944  Biso   1.000  Zr
  Zr17     1.0000 0.99905  0.60460  0.51930  Biso   1.000  Zr
  Zr18     1.0000 0.00292  0.84828  0.46207  Biso   1.000  Zr
  Zr19     1.0000 0.01386  0.91983  0.94448  Biso   1.000  Zr
  Zr20     1.0000 0.24526  0.65835  0.48215  Biso   1.000  Zr
  Zr21     1.0000 0.25174  0.60460  0.98229  Biso   1.000  Zr
  Zr22     1.0000 0.24788  0.84828  0.03951  Biso   1.000  Zr
  Zr23     1.0000 0.23694  0.91983  0.55708  Biso   1.000  Zr
  Zr24     1.0000 0.62540  0.00030  0.25079  Biso   1.000  Zr
  Zr25     1.0000 0.62540  0.24419  0.75079  Biso   1.000  Zr
  Zr26     1.0000 0.88282  0.24990  0.23899  Biso   1.000  Zr
  Zr27     1.0000 0.87708  0.00743  0.72254  Biso   1.000  Zr
  Zr28     1.0000 0.49299  0.14523  0.01599  Biso   1.000  Zr
  Zr29     1.0000 0.51320  0.09773  0.52373  Biso   1.000  Zr
  Zr30     1.0000 0.50125  0.34994  0.49893  Biso   1.000  Zr
  Zr31     1.0000 0.50129  0.39199  0.99741  Biso   1.000  Zr
  Zr32     1.0000 0.75780  0.14523  0.48559  Biso   1.000  Zr
  Zr33     1.0000 0.73759  0.09773  0.97785  Biso   1.000  Zr
  Zr34     1.0000 0.74955  0.34994  0.00266  Biso   1.000  Zr
  Zr35     1.0000 0.74950  0.39199  0.50417  Biso   1.000  Zr
  Zr36     1.0000 0.62539  0.49059  0.25079  Biso   1.000  Zr
  Zr37     1.0000 0.62540  0.75221  0.75080  Biso   1.000  Zr
  Zr38     1.0000 0.86303  0.74368  0.25009  Biso   1.000  Zr
  Zr39     1.0000 0.87221  0.49461  0.74777  Biso   1.000  Zr
  Zr40     1.0000 0.50454  0.63945  0.99607  Biso   1.000  Zr
  Zr41     1.0000 0.49738  0.60021  0.49336  Biso   1.000  Zr
  Zr42     1.0000 0.49253  0.85032  0.51892  Biso   1.000  Zr
  Zr43     1.0000 0.50293  0.89076  0.01421  Biso   1.000  Zr
  Zr44     1.0000 0.74625  0.63945  0.50552  Biso   1.000  Zr
  Zr45     1.0000 0.75341  0.60021  0.00824  Biso   1.000  Zr
  Zr46     1.0000 0.75827  0.85032  0.98268  Biso   1.000  Zr
  Zr47     1.0000 0.74786  0.89076  0.48738  Biso   1.000  Zr
