data_image0
_cell_length_a       10.2328
_cell_length_b       10.3991
_cell_length_c       10.5582
_cell_angle_alpha    89.7428
_cell_angle_beta     80.4541
_cell_angle_gamma    90.2014

_symmetry_space_group_name_H-M    "P 1"
_symmetry_int_tables_number       1

loop_
  _symmetry_equiv_pos_as_xyz
  'x, y, z'

loop_
  _atom_site_label
  _atom_site_occupancy
  _atom_site_fract_x
  _atom_site_fract_y
  _atom_site_fract_z
  _atom_site_thermal_displace_type
  _atom_site_B_iso_or_equiv
  _atom_site_type_symbol
  Rb1      1.0000 0.08817  0.98507  0.13389  Biso   1.000  Rb
  Zr1      1.0000 0.14017  0.02293  0.64395  Biso   1.000  Zr
  Zr2      1.0000 0.14375  0.51893  0.14266  Biso   1.000  Zr
  Zr3      1.0000 0.14226  0.52299  0.64460  Biso   1.000  Zr
  Zr4      1.0000 0.64176  0.02615  0.14269  Biso   1.000  Zr
  Zr5      1.0000 0.63770  0.02319  0.65102  Biso   1.000  Zr
  Zr6      1.0000 0.63192  0.51445  0.14633  Biso   1.000  Zr
  Zr7      1.0000 0.64024  0.52017  0.64413  Biso   1.000  Zr
  Zr8      1.0000 0.14107  0.22789  0.39452  Biso   1.000  Zr
  Zr9      1.0000 0.13905  0.22972  0.89624  Biso   1.000  Zr
  Zr10     1.0000 0.14138  0.72799  0.39353  Biso   1.000  Zr
  Zr11     1.0000 0.15252  0.72928  0.88887  Biso   1.000  Zr
  Zr12     1.0000 0.63664  0.23150  0.39611  Biso   1.000  Zr
  Zr13     1.0000 0.64077  0.23062  0.89667  Biso   1.000  Zr
  Zr14     1.0000 0.63424  0.72194  0.39901  Biso   1.000  Zr
  Zr15     1.0000 0.63734  0.73000  0.89169  Biso   1.000  Zr
  Zr16     1.0000 0.35268  0.26057  0.10437  Biso   1.000  Zr
  Zr17     1.0000 0.35998  0.27058  0.60407  Biso   1.000  Zr
  Zr18     1.0000 0.36667  0.77158  0.10424  Biso   1.000  Zr
  Zr19     1.0000 0.36244  0.77563  0.60102  Biso   1.000  Zr
  Zr20     1.0000 0.86273  0.27522  0.10462  Biso   1.000  Zr
  Zr21     1.0000 0.86373  0.27421  0.60504  Biso   1.000  Zr
  Zr22     1.0000 0.86707  0.73936  0.07740  Biso   1.000  Zr
  Zr23     1.0000 0.86474  0.77112  0.60545  Biso   1.000  Zr
  Zr24     1.0000 0.35694  0.47669  0.35259  Biso   1.000  Zr
  Zr25     1.0000 0.36427  0.47527  0.85392  Biso   1.000  Zr
  Zr26     1.0000 0.35877  0.98226  0.34865  Biso   1.000  Zr
  Zr27     1.0000 0.36099  0.98235  0.85475  Biso   1.000  Zr
  Zr28     1.0000 0.86321  0.48093  0.35323  Biso   1.000  Zr
  Zr29     1.0000 0.86440  0.47568  0.84882  Biso   1.000  Zr
  Zr30     1.0000 0.86042  0.99047  0.38063  Biso   1.000  Zr
  Zr31     1.0000 0.86232  0.97922  0.85527  Biso   1.000  Zr
  O1       1.0000 0.04075  0.20489  0.08251  Biso   1.000  O
  O2       1.0000 0.03870  0.17853  0.58952  Biso   1.000  O
  O3       1.0000 0.04964  0.68185  0.08232  Biso   1.000  O
  O4       1.0000 0.03873  0.67098  0.58148  Biso   1.000  O
  O5       1.0000 0.53526  0.16683  0.07738  Biso   1.000  O
  O6       1.0000 0.53137  0.16536  0.57831  Biso   1.000  O
  O7       1.0000 0.53678  0.66353  0.07559  Biso   1.000  O
  O8       1.0000 0.53312  0.66397  0.57647  Biso   1.000  O
  O9       1.0000 0.02803  0.07924  0.36507  Biso   1.000  O
  O10      1.0000 0.03789  0.07794  0.83451  Biso   1.000  O
  O11      1.0000 0.03713  0.58162  0.32826  Biso   1.000  O
  O12      1.0000 0.03665  0.58170  0.83184  Biso   1.000  O
  O13      1.0000 0.53719  0.08652  0.32478  Biso   1.000  O
  O14      1.0000 0.53760  0.08441  0.82940  Biso   1.000  O
  O15      1.0000 0.53076  0.58095  0.32849  Biso   1.000  O
  O16      1.0000 0.53470  0.58427  0.82482  Biso   1.000  O
  O17      1.0000 0.46278  0.41075  0.17262  Biso   1.000  O
  O18      1.0000 0.46808  0.41468  0.67064  Biso   1.000  O
  O19      1.0000 0.47421  0.91603  0.17051  Biso   1.000  O
  O20      1.0000 0.46891  0.91485  0.67410  Biso   1.000  O
  O21      1.0000 0.95719  0.43699  0.16225  Biso   1.000  O
  O22      1.0000 0.96583  0.42491  0.66552  Biso   1.000  O
  O23      1.0000 0.84855  0.88827  0.20972  Biso   1.000  O
  O24      1.0000 0.96480  0.92199  0.66919  Biso   1.000  O
  O25      1.0000 0.46502  0.33376  0.42171  Biso   1.000  O
  O26      1.0000 0.46990  0.33443  0.92121  Biso   1.000  O
  O27      1.0000 0.47320  0.83832  0.42227  Biso   1.000  O
  O28      1.0000 0.47972  0.84211  0.92236  Biso   1.000  O
  O29      1.0000 0.96386  0.33278  0.41797  Biso   1.000  O
  O30      1.0000 0.96057  0.32799  0.91034  Biso   1.000  O
  O31      1.0000 0.96651  0.83088  0.41966  Biso   1.000  O
  O32      1.0000 0.97538  0.83464  0.92060  Biso   1.000  O
  O33      1.0000 0.28255  0.13407  0.25001  Biso   1.000  O
  O34      1.0000 0.27588  0.12832  0.73744  Biso   1.000  O
  O35      1.0000 0.27837  0.62189  0.23665  Biso   1.000  O
  O36      1.0000 0.27963  0.63016  0.73696  Biso   1.000  O
  O37      1.0000 0.78121  0.13157  0.24527  Biso   1.000  O
  O38      1.0000 0.77864  0.13020  0.74360  Biso   1.000  O
  O39      1.0000 0.76826  0.63412  0.23794  Biso   1.000  O
  O40      1.0000 0.77622  0.62926  0.73722  Biso   1.000  O
  O41      1.0000 0.27547  0.12200  0.49242  Biso   1.000  O
  O42      1.0000 0.28515  0.12822  0.97805  Biso   1.000  O
  O43      1.0000 0.27707  0.62215  0.48825  Biso   1.000  O
  O44      1.0000 0.28017  0.61552  0.98737  Biso   1.000  O
  O45      1.0000 0.76939  0.12823  0.50054  Biso   1.000  O
  O46      1.0000 0.77851  0.12033  0.99249  Biso   1.000  O
  O47      1.0000 0.77615  0.62218  0.48870  Biso   1.000  O
  O48      1.0000 0.77227  0.61233  0.98387  Biso   1.000  O
  O49      1.0000 0.22709  0.37960  0.00710  Biso   1.000  O
  O50      1.0000 0.22438  0.38049  0.50828  Biso   1.000  O
  O51      1.0000 0.24808  0.86130  0.98973  Biso   1.000  O
  O52      1.0000 0.22754  0.88108  0.50772  Biso   1.000  O
  O53      1.0000 0.72331  0.37816  0.00866  Biso   1.000  O
  O54      1.0000 0.72510  0.38101  0.50917  Biso   1.000  O
  O55      1.0000 0.73035  0.87273  0.00901  Biso   1.000  O
  O56      1.0000 0.72679  0.88072  0.51757  Biso   1.000  O
  O57      1.0000 0.21908  0.37152  0.25682  Biso   1.000  O
  O58      1.0000 0.22562  0.37229  0.75836  Biso   1.000  O
  O59      1.0000 0.24115  0.85669  0.26304  Biso   1.000  O
  O60      1.0000 0.22614  0.87298  0.75299  Biso   1.000  O
  O61      1.0000 0.72384  0.37371  0.26086  Biso   1.000  O
  O62      1.0000 0.72599  0.37136  0.75707  Biso   1.000  O
  O63      1.0000 0.71194  0.88591  0.27316  Biso   1.000  O
  O64      1.0000 0.72873  0.87158  0.76081  Biso   1.000  O
