data_image0
_cell_length_a       10.2745
_cell_length_b       5.21844
_cell_length_c       10.6425
_cell_angle_alpha    89.6999
_cell_angle_beta     80.6253
_cell_angle_gamma    90.4221

_symmetry_space_group_name_H-M    "P 1"
_symmetry_int_tables_number       1

loop_
  _symmetry_equiv_pos_as_xyz
  'x, y, z'

loop_
  _atom_site_label
  _atom_site_occupancy
  _atom_site_fract_x
  _atom_site_fract_y
  _atom_site_fract_z
  _atom_site_thermal_displace_type
  _atom_site_B_iso_or_equiv
  _atom_site_type_symbol
  Rb1      1.0000 0.09301  0.97600  0.13177  Biso   1.000  Rb
  Zr1      1.0000 0.14323  0.04766  0.64344  Biso   1.000  Zr
  Zr2      1.0000 0.63485  0.04292  0.14229  Biso   1.000  Zr
  Zr3      1.0000 0.63892  0.04450  0.64978  Biso   1.000  Zr
  Zr4      1.0000 0.14317  0.45436  0.39530  Biso   1.000  Zr
  Zr5      1.0000 0.14989  0.46171  0.88948  Biso   1.000  Zr
  Zr6      1.0000 0.63199  0.44736  0.39981  Biso   1.000  Zr
  Zr7      1.0000 0.63995  0.46401  0.89304  Biso   1.000  Zr
  Zr8      1.0000 0.35960  0.52392  0.10264  Biso   1.000  Zr
  Zr9      1.0000 0.36178  0.54956  0.60112  Biso   1.000  Zr
  Zr10     1.0000 0.86639  0.49362  0.07975  Biso   1.000  Zr
  Zr11     1.0000 0.86702  0.54650  0.60848  Biso   1.000  Zr
  Zr12     1.0000 0.35722  0.95845  0.34731  Biso   1.000  Zr
  Zr13     1.0000 0.36460  0.96047  0.85255  Biso   1.000  Zr
  Zr14     1.0000 0.86175  0.97892  0.38260  Biso   1.000  Zr
  Zr15     1.0000 0.86565  0.95436  0.84921  Biso   1.000  Zr
  O1       1.0000 0.04876  0.43461  0.08053  Biso   1.000  O
  O2       1.0000 0.04240  0.35907  0.59088  Biso   1.000  O
  O3       1.0000 0.53733  0.32910  0.07373  Biso   1.000  O
  O4       1.0000 0.53026  0.32305  0.57484  Biso   1.000  O
  O5       1.0000 0.02584  0.16867  0.35960  Biso   1.000  O
  O6       1.0000 0.04084  0.15165  0.83584  Biso   1.000  O
  O7       1.0000 0.53357  0.17022  0.32354  Biso   1.000  O
  O8       1.0000 0.53861  0.17202  0.82526  Biso   1.000  O
  O9       1.0000 0.47225  0.82072  0.17139  Biso   1.000  O
  O10      1.0000 0.47089  0.82599  0.67316  Biso   1.000  O
  O11      1.0000 0.84894  0.79666  0.20889  Biso   1.000  O
  O12      1.0000 0.96482  0.85932  0.66351  Biso   1.000  O
  O13      1.0000 0.47330  0.67748  0.42293  Biso   1.000  O
  O14      1.0000 0.48249  0.68556  0.92108  Biso   1.000  O
  O15      1.0000 0.96706  0.66799  0.42282  Biso   1.000  O
  O16      1.0000 0.96580  0.65122  0.90342  Biso   1.000  O
  O17      1.0000 0.28334  0.25091  0.24516  Biso   1.000  O
  O18      1.0000 0.27904  0.26162  0.73469  Biso   1.000  O
  O19      1.0000 0.77303  0.27813  0.24150  Biso   1.000  O
  O20      1.0000 0.77917  0.26077  0.74099  Biso   1.000  O
  O21      1.0000 0.27682  0.24596  0.48971  Biso   1.000  O
  O22      1.0000 0.28885  0.24743  0.97571  Biso   1.000  O
  O23      1.0000 0.77010  0.25760  0.49968  Biso   1.000  O
  O24      1.0000 0.77548  0.22270  0.98631  Biso   1.000  O
  O25      1.0000 0.25193  0.72810  0.98619  Biso   1.000  O
  O26      1.0000 0.22870  0.76511  0.50703  Biso   1.000  O
  O27      1.0000 0.72899  0.74652  0.00911  Biso   1.000  O
  O28      1.0000 0.72760  0.76368  0.51880  Biso   1.000  O
  O29      1.0000 0.23925  0.70998  0.26137  Biso   1.000  O
  O30      1.0000 0.22704  0.74760  0.75199  Biso   1.000  O
  O31      1.0000 0.71375  0.78217  0.27521  Biso   1.000  O
  O32      1.0000 0.72973  0.74338  0.75914  Biso   1.000  O
