data_image0
_cell_length_a       10.1916
_cell_length_b       10.4588
_cell_length_c       5.1193
_cell_angle_alpha    90.0001
_cell_angle_beta     90.0003
_cell_angle_gamma    90.0002

_symmetry_space_group_name_H-M    "P 1"
_symmetry_int_tables_number       1

loop_
  _symmetry_equiv_pos_as_xyz
  'x, y, z'

loop_
  _atom_site_label
  _atom_site_occupancy
  _atom_site_fract_x
  _atom_site_fract_y
  _atom_site_fract_z
  _atom_site_thermal_displace_type
  _atom_site_B_iso_or_equiv
  _atom_site_type_symbol
  Zr1      1.0000 0.12540  0.96720  0.25080  Biso   1.000  Zr
  Zr2      1.0000 0.12540  0.25008  0.75078  Biso   1.000  Zr
  Zr3      1.0000 0.39705  0.25007  0.25079  Biso   1.000  Zr
  Zr4      1.0000 0.37570  0.00866  0.75134  Biso   1.000  Zr
  Zr5      1.0000 0.97217  0.15759  0.95063  Biso   1.000  Zr
  Zr6      1.0000 0.00377  0.08451  0.48125  Biso   1.000  Zr
  Zr7      1.0000 0.97218  0.34258  0.55091  Biso   1.000  Zr
  Zr8      1.0000 0.00378  0.41565  0.02030  Biso   1.000  Zr
  Zr9      1.0000 0.27861  0.15757  0.55092  Biso   1.000  Zr
  Zr10     1.0000 0.24702  0.08450  0.02031  Biso   1.000  Zr
  Zr11     1.0000 0.27862  0.34257  0.95064  Biso   1.000  Zr
  Zr12     1.0000 0.24702  0.41564  0.48127  Biso   1.000  Zr
  Zr13     1.0000 0.12539  0.53294  0.25080  Biso   1.000  Zr
  Zr14     1.0000 0.12539  0.75007  0.75080  Biso   1.000  Zr
  Zr15     1.0000 0.38594  0.75007  0.25080  Biso   1.000  Zr
  Zr16     1.0000 0.37569  0.49149  0.75025  Biso   1.000  Zr
  Zr17     1.0000 0.00455  0.66095  0.02468  Biso   1.000  Zr
  Zr18     1.0000 0.00139  0.60057  0.52803  Biso   1.000  Zr
  Zr19     1.0000 0.00454  0.83921  0.47694  Biso   1.000  Zr
  Zr20     1.0000 0.00139  0.89959  0.97358  Biso   1.000  Zr
  Zr21     1.0000 0.24625  0.66094  0.47694  Biso   1.000  Zr
  Zr22     1.0000 0.24940  0.60056  0.97358  Biso   1.000  Zr
  Zr23     1.0000 0.24624  0.83920  0.02467  Biso   1.000  Zr
  Zr24     1.0000 0.24940  0.89958  0.52803  Biso   1.000  Zr
  Zr25     1.0000 0.62539  0.99323  0.25079  Biso   1.000  Zr
  Zr26     1.0000 0.62540  0.25008  0.75079  Biso   1.000  Zr
  Zr27     1.0000 0.85375  0.25007  0.25079  Biso   1.000  Zr
  Zr28     1.0000 0.87510  0.00866  0.75024  Biso   1.000  Zr
  Zr29     1.0000 0.49819  0.14600  0.98278  Biso   1.000  Zr
  Zr30     1.0000 0.50875  0.10242  0.48848  Biso   1.000  Zr
  Zr31     1.0000 0.49819  0.35415  0.51880  Biso   1.000  Zr
  Zr32     1.0000 0.50875  0.39773  0.01310  Biso   1.000  Zr
  Zr33     1.0000 0.75260  0.14600  0.51880  Biso   1.000  Zr
  Zr34     1.0000 0.74205  0.10242  0.01310  Biso   1.000  Zr
  Zr35     1.0000 0.75261  0.35415  0.98278  Biso   1.000  Zr
  Zr36     1.0000 0.74204  0.39773  0.48848  Biso   1.000  Zr
  Zr37     1.0000 0.62540  0.50692  0.25079  Biso   1.000  Zr
  Zr38     1.0000 0.62540  0.75007  0.75079  Biso   1.000  Zr
  Zr39     1.0000 0.86485  0.75008  0.25080  Biso   1.000  Zr
  Zr40     1.0000 0.87510  0.49149  0.75133  Biso   1.000  Zr
  Zr41     1.0000 0.50242  0.64740  0.99466  Biso   1.000  Zr
  Zr42     1.0000 0.49776  0.60353  0.49220  Biso   1.000  Zr
  Zr43     1.0000 0.50242  0.85275  0.50693  Biso   1.000  Zr
  Zr44     1.0000 0.49776  0.89662  0.00938  Biso   1.000  Zr
  Zr45     1.0000 0.74837  0.64740  0.50693  Biso   1.000  Zr
  Zr46     1.0000 0.75303  0.60353  0.00939  Biso   1.000  Zr
  Zr47     1.0000 0.74837  0.85275  0.99465  Biso   1.000  Zr
  Zr48     1.0000 0.75303  0.89662  0.49220  Biso   1.000  Zr
  Rb1      1.0000 0.12540  0.25007  0.25077  Biso   1.000  Rb
