data_image0
_cell_length_a       5.06301
_cell_length_b       10.3131
_cell_length_c       10.1609
_cell_angle_alpha    89.9973
_cell_angle_beta     90.0013
_cell_angle_gamma    89.9967

_symmetry_space_group_name_H-M    "P 1"
_symmetry_int_tables_number       1

loop_
  _symmetry_equiv_pos_as_xyz
  'x, y, z'

loop_
  _atom_site_label
  _atom_site_occupancy
  _atom_site_fract_x
  _atom_site_fract_y
  _atom_site_fract_z
  _atom_site_thermal_displace_type
  _atom_site_B_iso_or_equiv
  _atom_site_type_symbol
  Rb1      1.0000 0.25324  0.00020  0.12571  Biso   1.000  Rb
  Zr1      1.0000 0.25327  0.00021  0.62571  Biso   1.000  Zr
  Zr2      1.0000 0.25325  0.50021  0.12571  Biso   1.000  Zr
  Zr3      1.0000 0.25325  0.50021  0.62570  Biso   1.000  Zr
  Zr4      1.0000 0.25074  0.25417  0.37791  Biso   1.000  Zr
  Zr5      1.0000 0.25578  0.25417  0.87353  Biso   1.000  Zr
  Zr6      1.0000 0.25577  0.74625  0.37791  Biso   1.000  Zr
  Zr7      1.0000 0.25072  0.74623  0.87353  Biso   1.000  Zr
  Zr8      1.0000 0.75326  0.25534  0.12573  Biso   1.000  Zr
  Zr9      1.0000 0.75326  0.24845  0.62572  Biso   1.000  Zr
  Zr10     1.0000 0.75325  0.74508  0.12570  Biso   1.000  Zr
  Zr11     1.0000 0.75328  0.75196  0.62573  Biso   1.000  Zr
  Zr12     1.0000 0.75323  0.00020  0.37713  Biso   1.000  Zr
  Zr13     1.0000 0.75324  0.00022  0.87428  Biso   1.000  Zr
  Zr14     1.0000 0.75325  0.50022  0.37700  Biso   1.000  Zr
  Zr15     1.0000 0.75324  0.50020  0.87442  Biso   1.000  Zr
  Zr16     1.0000 0.99407  0.15432  0.99290  Biso   1.000  Zr
  Zr17     1.0000 0.02174  0.14951  0.51006  Biso   1.000  Zr
  Zr18     1.0000 0.01902  0.64040  0.00448  Biso   1.000  Zr
  Zr19     1.0000 0.00292  0.64608  0.50468  Biso   1.000  Zr
  Zr20     1.0000 0.97340  0.12545  0.26682  Biso   1.000  Zr
  Zr21     1.0000 0.99232  0.10180  0.75009  Biso   1.000  Zr
  Zr22     1.0000 0.99204  0.60293  0.25151  Biso   1.000  Zr
  Zr23     1.0000 0.00527  0.60269  0.75380  Biso   1.000  Zr
  Zr24     1.0000 0.01906  0.36000  0.24694  Biso   1.000  Zr
  Zr25     1.0000 0.00291  0.35434  0.74675  Biso   1.000  Zr
  Zr26     1.0000 0.99402  0.84609  0.25852  Biso   1.000  Zr
  Zr27     1.0000 0.02178  0.85091  0.74137  Biso   1.000  Zr
  Zr28     1.0000 0.99205  0.39747  0.99991  Biso   1.000  Zr
  Zr29     1.0000 0.00530  0.39772  0.49762  Biso   1.000  Zr
  Zr30     1.0000 0.97338  0.87495  0.98461  Biso   1.000  Zr
  Zr31     1.0000 0.99235  0.89861  0.50133  Biso   1.000  Zr
  Zr32     1.0000 0.51245  0.15431  0.25854  Biso   1.000  Zr
  Zr33     1.0000 0.48481  0.14950  0.74140  Biso   1.000  Zr
  Zr34     1.0000 0.48746  0.64042  0.24693  Biso   1.000  Zr
  Zr35     1.0000 0.50354  0.64607  0.74672  Biso   1.000  Zr
  Zr36     1.0000 0.53315  0.12545  0.98463  Biso   1.000  Zr
  Zr37     1.0000 0.51424  0.10180  0.50136  Biso   1.000  Zr
  Zr38     1.0000 0.51445  0.60293  0.99990  Biso   1.000  Zr
  Zr39     1.0000 0.50117  0.60269  0.49761  Biso   1.000  Zr
  Zr40     1.0000 0.48747  0.36000  0.00449  Biso   1.000  Zr
  Zr41     1.0000 0.50356  0.35434  0.50470  Biso   1.000  Zr
  Zr42     1.0000 0.51243  0.84610  0.99289  Biso   1.000  Zr
  Zr43     1.0000 0.48484  0.85091  0.51002  Biso   1.000  Zr
  Zr44     1.0000 0.51448  0.39748  0.25152  Biso   1.000  Zr
  Zr45     1.0000 0.50118  0.39772  0.75382  Biso   1.000  Zr
  Zr46     1.0000 0.53310  0.87497  0.26680  Biso   1.000  Zr
  Zr47     1.0000 0.51428  0.89860  0.75006  Biso   1.000  Zr
