data_image0
_cell_length_a       10.1342
_cell_length_b       5.22887
_cell_length_c       10.1444
_cell_angle_alpha    89.9952
_cell_angle_beta     88.4195
_cell_angle_gamma    89.9861

_symmetry_space_group_name_H-M    "P 1"
_symmetry_int_tables_number       1

loop_
  _symmetry_equiv_pos_as_xyz
  'x, y, z'

loop_
  _atom_site_label
  _atom_site_occupancy
  _atom_site_fract_x
  _atom_site_fract_y
  _atom_site_fract_z
  _atom_site_thermal_displace_type
  _atom_site_B_iso_or_equiv
  _atom_site_type_symbol
  Zr1      1.0000 0.12538  0.85657  0.12539  Biso   1.000  Zr
  Zr2      1.0000 0.13839  0.50674  0.39105  Biso   1.000  Zr
  Zr3      1.0000 0.39809  0.51804  0.14444  Biso   1.000  Zr
  Zr4      1.0000 0.38247  0.02069  0.38444  Biso   1.000  Zr
  Zr5      1.0000 0.98200  0.30227  0.98380  Biso   1.000  Zr
  Zr6      1.0000 0.01721  0.10681  0.24349  Biso   1.000  Zr
  Zr7      1.0000 0.00273  0.59664  0.24361  Biso   1.000  Zr
  Zr8      1.0000 0.98596  0.79572  0.98561  Biso   1.000  Zr
  Zr9      1.0000 0.26880  0.30205  0.26703  Biso   1.000  Zr
  Zr10     1.0000 0.23360  0.10677  0.00733  Biso   1.000  Zr
  Zr11     1.0000 0.24803  0.59657  0.00719  Biso   1.000  Zr
  Zr12     1.0000 0.26481  0.79559  0.26519  Biso   1.000  Zr
  Zr13     1.0000 0.12531  0.00113  0.62530  Biso   1.000  Zr
  Zr14     1.0000 0.11240  0.50681  0.85975  Biso   1.000  Zr
  Zr15     1.0000 0.37921  0.52073  0.63180  Biso   1.000  Zr
  Zr16     1.0000 0.37630  0.01724  0.87181  Biso   1.000  Zr
  Zr17     1.0000 0.99439  0.30081  0.49100  Biso   1.000  Zr
  Zr18     1.0000 0.00028  0.22729  0.73913  Biso   1.000  Zr
  Zr19     1.0000 0.99415  0.72743  0.74048  Biso   1.000  Zr
  Zr20     1.0000 0.00918  0.80360  0.49245  Biso   1.000  Zr
  Zr21     1.0000 0.25651  0.30104  0.75989  Biso   1.000  Zr
  Zr22     1.0000 0.25058  0.22723  0.51174  Biso   1.000  Zr
  Zr23     1.0000 0.25668  0.72739  0.51027  Biso   1.000  Zr
  Zr24     1.0000 0.24160  0.80374  0.75828  Biso   1.000  Zr
  Zr25     1.0000 0.62528  0.99957  0.12530  Biso   1.000  Zr
  Zr26     1.0000 0.63852  0.50797  0.36693  Biso   1.000  Zr
  Zr27     1.0000 0.85264  0.51821  0.10638  Biso   1.000  Zr
  Zr28     1.0000 0.87441  0.01729  0.37888  Biso   1.000  Zr
  Zr29     1.0000 0.48185  0.29053  0.99531  Biso   1.000  Zr
  Zr30     1.0000 0.51233  0.22994  0.25255  Biso   1.000  Zr
  Zr31     1.0000 0.50814  0.74530  0.26975  Biso   1.000  Zr
  Zr32     1.0000 0.48906  0.80316  0.01305  Biso   1.000  Zr
  Zr33     1.0000 0.76902  0.29101  0.25562  Biso   1.000  Zr
  Zr34     1.0000 0.73851  0.22999  0.99834  Biso   1.000  Zr
  Zr35     1.0000 0.74259  0.74537  0.98092  Biso   1.000  Zr
  Zr36     1.0000 0.76166  0.80354  0.23766  Biso   1.000  Zr
  Zr37     1.0000 0.62537  0.02838  0.62535  Biso   1.000  Zr
  Zr38     1.0000 0.61220  0.50783  0.88397  Biso   1.000  Zr
  Zr39     1.0000 0.87158  0.52075  0.61904  Biso   1.000  Zr
  Zr40     1.0000 0.86829  0.02083  0.86633  Biso   1.000  Zr
  Zr41     1.0000 0.50048  0.32923  0.49725  Biso   1.000  Zr
  Zr42     1.0000 0.50144  0.23124  0.74866  Biso   1.000  Zr
  Zr43     1.0000 0.49347  0.72717  0.76324  Biso   1.000  Zr
  Zr44     1.0000 0.49874  0.82762  0.51722  Biso   1.000  Zr
  Zr45     1.0000 0.75035  0.32948  0.75363  Biso   1.000  Zr
  Zr46     1.0000 0.74941  0.23128  0.50222  Biso   1.000  Zr
  Zr47     1.0000 0.75737  0.72717  0.48747  Biso   1.000  Zr
  Zr48     1.0000 0.75220  0.82793  0.73343  Biso   1.000  Zr
  Re1      1.0000 0.12540  0.34768  0.12542  Biso   1.000  Re
