data_image0
_cell_length_a       10.1393
_cell_length_b       10.5511
_cell_length_c       5.10385
_cell_angle_alpha    91.776
_cell_angle_beta     88.0555
_cell_angle_gamma    87.8563

_symmetry_space_group_name_H-M    "P 1"
_symmetry_int_tables_number       1

loop_
  _symmetry_equiv_pos_as_xyz
  'x, y, z'

loop_
  _atom_site_label
  _atom_site_occupancy
  _atom_site_fract_x
  _atom_site_fract_y
  _atom_site_fract_z
  _atom_site_thermal_displace_type
  _atom_site_B_iso_or_equiv
  _atom_site_type_symbol
  Zr1      1.0000 0.13258  0.93986  0.27866  Biso   1.000  Zr
  Zr2      1.0000 0.11666  0.28219  0.74393  Biso   1.000  Zr
  Zr3      1.0000 0.37792  0.25450  0.28914  Biso   1.000  Zr
  Zr4      1.0000 0.38591  0.00557  0.76425  Biso   1.000  Zr
  Zr5      1.0000 0.99027  0.15939  0.94802  Biso   1.000  Zr
  Zr6      1.0000 0.99950  0.07607  0.46436  Biso   1.000  Zr
  Zr7      1.0000 0.00356  0.33032  0.43042  Biso   1.000  Zr
  Zr8      1.0000 0.98531  0.41200  0.97185  Biso   1.000  Zr
  Zr9      1.0000 0.25485  0.15117  0.55755  Biso   1.000  Zr
  Zr10     1.0000 0.25543  0.05976  0.06037  Biso   1.000  Zr
  Zr11     1.0000 0.23013  0.31791  0.05750  Biso   1.000  Zr
  Zr12     1.0000 0.25485  0.40029  0.52047  Biso   1.000  Zr
  Zr13     1.0000 0.11828  0.49530  0.24536  Biso   1.000  Zr
  Zr14     1.0000 0.12809  0.72172  0.78004  Biso   1.000  Zr
  Zr15     1.0000 0.39656  0.76073  0.30493  Biso   1.000  Zr
  Zr16     1.0000 0.38931  0.51229  0.71721  Biso   1.000  Zr
  Zr17     1.0000 0.00296  0.64878  0.06761  Biso   1.000  Zr
  Zr18     1.0000 0.02439  0.57517  0.56941  Biso   1.000  Zr
  Zr19     1.0000 0.00633  0.82595  0.51795  Biso   1.000  Zr
  Zr20     1.0000 0.00103  0.88782  0.00132  Biso   1.000  Zr
  Zr21     1.0000 0.26672  0.64155  0.48969  Biso   1.000  Zr
  Zr22     1.0000 0.23309  0.56082  0.95823  Biso   1.000  Zr
  Zr23     1.0000 0.24824  0.80199  0.05352  Biso   1.000  Zr
  Zr24     1.0000 0.26538  0.88690  0.55787  Biso   1.000  Zr
  Zr25     1.0000 0.63623  0.01866  0.22944  Biso   1.000  Zr
  Zr26     1.0000 0.60966  0.24672  0.74726  Biso   1.000  Zr
  Zr27     1.0000 0.85544  0.27520  0.19077  Biso   1.000  Zr
  Zr28     1.0000 0.89356  0.99424  0.74626  Biso   1.000  Zr
  Zr29     1.0000 0.49701  0.14558  0.00543  Biso   1.000  Zr
  Zr30     1.0000 0.49903  0.11304  0.50904  Biso   1.000  Zr
  Zr31     1.0000 0.51078  0.36983  0.48970  Biso   1.000  Zr
  Zr32     1.0000 0.47751  0.38795  0.99593  Biso   1.000  Zr
  Zr33     1.0000 0.72639  0.18608  0.42657  Biso   1.000  Zr
  Zr34     1.0000 0.74613  0.11694  0.94081  Biso   1.000  Zr
  Zr35     1.0000 0.73627  0.37243  0.93072  Biso   1.000  Zr
  Zr36     1.0000 0.76684  0.44013  0.42215  Biso   1.000  Zr
  Zr37     1.0000 0.61001  0.49922  0.19805  Biso   1.000  Zr
  Zr38     1.0000 0.61768  0.75221  0.78684  Biso   1.000  Zr
  Zr39     1.0000 0.86209  0.76957  0.24462  Biso   1.000  Zr
  Zr40     1.0000 0.85319  0.52235  0.74064  Biso   1.000  Zr
  Zr41     1.0000 0.48262  0.64392  0.99844  Biso   1.000  Zr
  Zr42     1.0000 0.52269  0.62007  0.49548  Biso   1.000  Zr
  Zr43     1.0000 0.52072  0.87005  0.52985  Biso   1.000  Zr
  Zr44     1.0000 0.49611  0.89761  0.03446  Biso   1.000  Zr
  Zr45     1.0000 0.77813  0.68815  0.56379  Biso   1.000  Zr
  Zr46     1.0000 0.74383  0.62732  0.04495  Biso   1.000  Zr
  Zr47     1.0000 0.74806  0.87337  0.97905  Biso   1.000  Zr
  Zr48     1.0000 0.77274  0.93634  0.45575  Biso   1.000  Zr
  Re1      1.0000 0.12211  0.18126  0.25156  Biso   1.000  Re
