data_image0
_cell_length_a       5.00486
_cell_length_b       10.3875
_cell_length_c       10.0452
_cell_angle_alpha    89.7817
_cell_angle_beta     89.8549
_cell_angle_gamma    90.0048

_symmetry_space_group_name_H-M    "P 1"
_symmetry_int_tables_number       1

loop_
  _symmetry_equiv_pos_as_xyz
  'x, y, z'

loop_
  _atom_site_label
  _atom_site_occupancy
  _atom_site_fract_x
  _atom_site_fract_y
  _atom_site_fract_z
  _atom_site_thermal_displace_type
  _atom_site_B_iso_or_equiv
  _atom_site_type_symbol
  Re1      1.0000 0.27467  0.02111  0.12082  Biso   1.000  Re
  Zr1      1.0000 0.26532  0.23323  0.37491  Biso   1.000  Zr
  Zr2      1.0000 0.73396  0.26507  0.12538  Biso   1.000  Zr
  Zr3      1.0000 0.73278  0.48518  0.37572  Biso   1.000  Zr
  Zr4      1.0000 0.06823  0.17571  0.19679  Biso   1.000  Zr
  Zr5      1.0000 0.06529  0.06895  0.45096  Biso   1.000  Zr
  Zr6      1.0000 0.93324  0.43037  0.19530  Biso   1.000  Zr
  Zr7      1.0000 0.93007  0.31731  0.44567  Biso   1.000  Zr
  Zr8      1.0000 0.52961  0.11545  0.24437  Biso   1.000  Zr
  Zr9      1.0000 0.53977  0.13377  0.49641  Biso   1.000  Zr
  Zr10     1.0000 0.46073  0.38321  0.49919  Biso   1.000  Zr
  Zr11     1.0000 0.46322  0.36739  0.24944  Biso   1.000  Zr
  Zr12     1.0000 0.26870  0.01525  0.62544  Biso   1.000  Zr
  Zr13     1.0000 0.26855  0.23365  0.87726  Biso   1.000  Zr
  Zr14     1.0000 0.73241  0.26495  0.62587  Biso   1.000  Zr
  Zr15     1.0000 0.73110  0.48440  0.87532  Biso   1.000  Zr
  Zr16     1.0000 0.06685  0.18113  0.70161  Biso   1.000  Zr
  Zr17     1.0000 0.07180  0.06402  0.96018  Biso   1.000  Zr
  Zr18     1.0000 0.92760  0.43321  0.69398  Biso   1.000  Zr
  Zr19     1.0000 0.92610  0.31385  0.94434  Biso   1.000  Zr
  Zr20     1.0000 0.53843  0.11657  0.74906  Biso   1.000  Zr
  Zr21     1.0000 0.54199  0.12831  0.99913  Biso   1.000  Zr
  Zr22     1.0000 0.45966  0.38110  0.99978  Biso   1.000  Zr
  Zr23     1.0000 0.45947  0.36605  0.74963  Biso   1.000  Zr
  Zr24     1.0000 0.27049  0.51681  0.12653  Biso   1.000  Zr
  Zr25     1.0000 0.26936  0.73729  0.37280  Biso   1.000  Zr
  Zr26     1.0000 0.73455  0.77022  0.12438  Biso   1.000  Zr
  Zr27     1.0000 0.73882  0.98635  0.37099  Biso   1.000  Zr
  Zr28     1.0000 0.07152  0.68288  0.19293  Biso   1.000  Zr
  Zr29     1.0000 0.07186  0.56805  0.44319  Biso   1.000  Zr
  Zr30     1.0000 0.94882  0.93336  0.19137  Biso   1.000  Zr
  Zr31     1.0000 0.93041  0.81794  0.44345  Biso   1.000  Zr
  Zr32     1.0000 0.54242  0.62008  0.24886  Biso   1.000  Zr
  Zr33     1.0000 0.53879  0.63421  0.49818  Biso   1.000  Zr
  Zr34     1.0000 0.46329  0.88463  0.49630  Biso   1.000  Zr
  Zr35     1.0000 0.45879  0.87488  0.24411  Biso   1.000  Zr
  Zr36     1.0000 0.26703  0.51603  0.62457  Biso   1.000  Zr
  Zr37     1.0000 0.26557  0.73338  0.87563  Biso   1.000  Zr
  Zr38     1.0000 0.73263  0.76627  0.62459  Biso   1.000  Zr
  Zr39     1.0000 0.73094  0.98266  0.87667  Biso   1.000  Zr
  Zr40     1.0000 0.07011  0.68352  0.69397  Biso   1.000  Zr
  Zr41     1.0000 0.07221  0.56414  0.94416  Biso   1.000  Zr
  Zr42     1.0000 0.93090  0.93323  0.69680  Biso   1.000  Zr
  Zr43     1.0000 0.91849  0.81415  0.94115  Biso   1.000  Zr
  Zr44     1.0000 0.53805  0.61675  0.74851  Biso   1.000  Zr
  Zr45     1.0000 0.54043  0.63268  0.99895  Biso   1.000  Zr
  Zr46     1.0000 0.44383  0.88374  0.99903  Biso   1.000  Zr
  Zr47     1.0000 0.46170  0.86662  0.74867  Biso   1.000  Zr
