data_image0
_cell_length_a       10.1599
_cell_length_b       5.15579
_cell_length_c       10.4913
_cell_angle_alpha    89.8825
_cell_angle_beta     80.0568
_cell_angle_gamma    89.8404

_symmetry_space_group_name_H-M    "P 1"
_symmetry_int_tables_number       1

loop_
  _symmetry_equiv_pos_as_xyz
  'x, y, z'

loop_
  _atom_site_label
  _atom_site_occupancy
  _atom_site_fract_x
  _atom_site_fract_y
  _atom_site_fract_z
  _atom_site_thermal_displace_type
  _atom_site_B_iso_or_equiv
  _atom_site_type_symbol
  Re1      1.0000 0.14114  0.04339  0.14907  Biso   1.000  Re
  Zr1      1.0000 0.13952  0.46020  0.39438  Biso   1.000  Zr
  Zr2      1.0000 0.35652  0.55241  0.10565  Biso   1.000  Zr
  Zr3      1.0000 0.36151  0.95908  0.35389  Biso   1.000  Zr
  O1       1.0000 0.03742  0.32370  0.08052  Biso   1.000  O
  O2       1.0000 0.04020  0.16347  0.31839  Biso   1.000  O
  O3       1.0000 0.46607  0.83700  0.17169  Biso   1.000  O
  O4       1.0000 0.46546  0.66282  0.42000  Biso   1.000  O
  O5       1.0000 0.27559  0.25617  0.23965  Biso   1.000  O
  O6       1.0000 0.27705  0.24409  0.49104  Biso   1.000  O
  O7       1.0000 0.21487  0.76185  0.01016  Biso   1.000  O
  O8       1.0000 0.21969  0.75078  0.25815  Biso   1.000  O
  Zr4      1.0000 0.13847  0.04210  0.64551  Biso   1.000  Zr
  Zr5      1.0000 0.13843  0.45347  0.89737  Biso   1.000  Zr
  Zr6      1.0000 0.36132  0.54333  0.60499  Biso   1.000  Zr
  Zr7      1.0000 0.35814  0.95724  0.85606  Biso   1.000  Zr
  O9       1.0000 0.03252  0.32720  0.57350  Biso   1.000  O
  O10      1.0000 0.03271  0.16635  0.82647  Biso   1.000  O
  O11      1.0000 0.46383  0.83931  0.67056  Biso   1.000  O
  O12      1.0000 0.45950  0.65882  0.92062  Biso   1.000  O
  O13      1.0000 0.27605  0.25665  0.74255  Biso   1.000  O
  O14      1.0000 0.27270  0.23543  0.99876  Biso   1.000  O
  O15      1.0000 0.22386  0.75663  0.50836  Biso   1.000  O
  O16      1.0000 0.22331  0.74106  0.75902  Biso   1.000  O
  Zr8      1.0000 0.63886  0.04637  0.14491  Biso   1.000  Zr
  Zr9      1.0000 0.64014  0.45865  0.39487  Biso   1.000  Zr
  Zr10     1.0000 0.86697  0.54242  0.10411  Biso   1.000  Zr
  Zr11     1.0000 0.86194  0.95922  0.35278  Biso   1.000  Zr
  O17      1.0000 0.53317  0.34134  0.08167  Biso   1.000  O
  O18      1.0000 0.53640  0.16274  0.33123  Biso   1.000  O
  O19      1.0000 0.97824  0.83441  0.16702  Biso   1.000  O
  O20      1.0000 0.96537  0.66649  0.41977  Biso   1.000  O
  O21      1.0000 0.77730  0.25794  0.24007  Biso   1.000  O
  O22      1.0000 0.77779  0.24137  0.48932  Biso   1.000  O
  O23      1.0000 0.72331  0.75877  0.00991  Biso   1.000  O
  O24      1.0000 0.73062  0.74452  0.25853  Biso   1.000  O
  Zr12     1.0000 0.63808  0.04253  0.64637  Biso   1.000  Zr
  Zr13     1.0000 0.63720  0.45729  0.89735  Biso   1.000  Zr
  Zr14     1.0000 0.86008  0.54262  0.60451  Biso   1.000  Zr
  Zr15     1.0000 0.86015  0.95634  0.85521  Biso   1.000  Zr
  O25      1.0000 0.53686  0.34074  0.58075  Biso   1.000  O
  O26      1.0000 0.53352  0.16078  0.83212  Biso   1.000  O
  O27      1.0000 0.96575  0.83042  0.67111  Biso   1.000  O
  O28      1.0000 0.96509  0.66042  0.92106  Biso   1.000  O
  O29      1.0000 0.77482  0.25707  0.74090  Biso   1.000  O
  O30      1.0000 0.77563  0.24450  0.99056  Biso   1.000  O
  O31      1.0000 0.72406  0.75810  0.50937  Biso   1.000  O
  O32      1.0000 0.72279  0.74241  0.76015  Biso   1.000  O
