data_image0
_cell_length_a       10.1704
_cell_length_b       10.3354
_cell_length_c       10.4886
_cell_angle_alpha    89.9403
_cell_angle_beta     80.2356
_cell_angle_gamma    89.9459

_symmetry_space_group_name_H-M    "P 1"
_symmetry_int_tables_number       1

loop_
  _symmetry_equiv_pos_as_xyz
  'x, y, z'

loop_
  _atom_site_label
  _atom_site_occupancy
  _atom_site_fract_x
  _atom_site_fract_y
  _atom_site_fract_z
  _atom_site_thermal_displace_type
  _atom_site_B_iso_or_equiv
  _atom_site_type_symbol
  Re1      1.0000 0.14121  0.02234  0.14960  Biso   1.000  Re
  Zr1      1.0000 0.14016  0.22957  0.39450  Biso   1.000  Zr
  Zr2      1.0000 0.36027  0.27125  0.10564  Biso   1.000  Zr
  Zr3      1.0000 0.36190  0.47957  0.35457  Biso   1.000  Zr
  O1       1.0000 0.03689  0.16422  0.08142  Biso   1.000  O
  O2       1.0000 0.04202  0.07955  0.31933  Biso   1.000  O
  O3       1.0000 0.46406  0.42028  0.16896  Biso   1.000  O
  O4       1.0000 0.46412  0.33058  0.41961  Biso   1.000  O
  O5       1.0000 0.27752  0.12607  0.24062  Biso   1.000  O
  O6       1.0000 0.27704  0.12163  0.49138  Biso   1.000  O
  O7       1.0000 0.22349  0.37834  0.01015  Biso   1.000  O
  O8       1.0000 0.22482  0.37131  0.25964  Biso   1.000  O
  Zr4      1.0000 0.13876  0.02106  0.64517  Biso   1.000  Zr
  Zr5      1.0000 0.13779  0.22622  0.89733  Biso   1.000  Zr
  Zr6      1.0000 0.36103  0.27157  0.60540  Biso   1.000  Zr
  Zr7      1.0000 0.36012  0.47850  0.85511  Biso   1.000  Zr
  O9       1.0000 0.03395  0.16549  0.57523  Biso   1.000  O
  O10      1.0000 0.03374  0.08213  0.82729  Biso   1.000  O
  O11      1.0000 0.46400  0.42017  0.66951  Biso   1.000  O
  O12      1.0000 0.46199  0.32805  0.91923  Biso   1.000  O
  O13      1.0000 0.27607  0.12856  0.74292  Biso   1.000  O
  O14      1.0000 0.27170  0.11657  0.99872  Biso   1.000  O
  O15      1.0000 0.22355  0.37851  0.50927  Biso   1.000  O
  O16      1.0000 0.22346  0.37043  0.75994  Biso   1.000  O
  Zr8      1.0000 0.13919  0.52172  0.14543  Biso   1.000  Zr
  Zr9      1.0000 0.13857  0.72925  0.39509  Biso   1.000  Zr
  Zr10     1.0000 0.35771  0.77594  0.10483  Biso   1.000  Zr
  Zr11     1.0000 0.36094  0.97860  0.35431  Biso   1.000  Zr
  O17      1.0000 0.03528  0.66755  0.07943  Biso   1.000  O
  O18      1.0000 0.03543  0.58092  0.33038  Biso   1.000  O
  O19      1.0000 0.46561  0.91874  0.17138  Biso   1.000  O
  O20      1.0000 0.46522  0.83010  0.41926  Biso   1.000  O
  O21      1.0000 0.27564  0.63159  0.24099  Biso   1.000  O
  O22      1.0000 0.27625  0.62119  0.49077  Biso   1.000  O
  O23      1.0000 0.21621  0.88193  0.01032  Biso   1.000  O
  O24      1.0000 0.21866  0.87536  0.25738  Biso   1.000  O
  Zr12     1.0000 0.13874  0.52120  0.64565  Biso   1.000  Zr
  Zr13     1.0000 0.13870  0.72909  0.89540  Biso   1.000  Zr
  Zr14     1.0000 0.36154  0.77113  0.60445  Biso   1.000  Zr
  Zr15     1.0000 0.35933  0.97866  0.85570  Biso   1.000  Zr
  O25      1.0000 0.03492  0.66860  0.57944  Biso   1.000  O
  O26      1.0000 0.03496  0.58074  0.83000  Biso   1.000  O
  O27      1.0000 0.46376  0.91973  0.66988  Biso   1.000  O
  O28      1.0000 0.46160  0.83075  0.92015  Biso   1.000  O
  O29      1.0000 0.27600  0.62865  0.74063  Biso   1.000  O
  O30      1.0000 0.27596  0.62201  0.99077  Biso   1.000  O
  O31      1.0000 0.22436  0.87855  0.50859  Biso   1.000  O
  O32      1.0000 0.22378  0.87098  0.75881  Biso   1.000  O
  Zr16     1.0000 0.63889  0.02204  0.14543  Biso   1.000  Zr
  Zr17     1.0000 0.63905  0.22897  0.39512  Biso   1.000  Zr
  Zr18     1.0000 0.86377  0.26967  0.10486  Biso   1.000  Zr
  Zr19     1.0000 0.86102  0.47876  0.35387  Biso   1.000  Zr
  O33      1.0000 0.53570  0.17028  0.08154  Biso   1.000  O
  O34      1.0000 0.53619  0.08043  0.33142  Biso   1.000  O
  O35      1.0000 0.96526  0.41912  0.16969  Biso   1.000  O
  O36      1.0000 0.96431  0.32961  0.41835  Biso   1.000  O
  O37      1.0000 0.77688  0.12857  0.24067  Biso   1.000  O
  O38      1.0000 0.77743  0.12033  0.48930  Biso   1.000  O
  O39      1.0000 0.72427  0.37907  0.00936  Biso   1.000  O
  O40      1.0000 0.72431  0.37089  0.25903  Biso   1.000  O
  Zr20     1.0000 0.63813  0.02108  0.64564  Biso   1.000  Zr
  Zr21     1.0000 0.63847  0.22876  0.89568  Biso   1.000  Zr
  Zr22     1.0000 0.86088  0.27111  0.60404  Biso   1.000  Zr
  Zr23     1.0000 0.86085  0.47837  0.85526  Biso   1.000  Zr
  O41      1.0000 0.53652  0.17058  0.58131  Biso   1.000  O
  O42      1.0000 0.53447  0.07999  0.83179  Biso   1.000  O
  O43      1.0000 0.96504  0.41727  0.67018  Biso   1.000  O
  O44      1.0000 0.96542  0.32987  0.92097  Biso   1.000  O
  O45      1.0000 0.77512  0.12882  0.74015  Biso   1.000  O
  O46      1.0000 0.77543  0.12132  0.99016  Biso   1.000  O
  O47      1.0000 0.72417  0.37881  0.50950  Biso   1.000  O
  O48      1.0000 0.72373  0.37114  0.75963  Biso   1.000  O
  Zr24     1.0000 0.63895  0.52249  0.14484  Biso   1.000  Zr
  Zr25     1.0000 0.63993  0.72894  0.39522  Biso   1.000  Zr
  Zr26     1.0000 0.86408  0.77347  0.10384  Biso   1.000  Zr
  Zr27     1.0000 0.86191  0.97930  0.35302  Biso   1.000  Zr
  O49      1.0000 0.53355  0.67050  0.08118  Biso   1.000  O
  O50      1.0000 0.53654  0.58022  0.33110  Biso   1.000  O
  O51      1.0000 0.97500  0.92006  0.16571  Biso   1.000  O
  O52      1.0000 0.96518  0.83302  0.41965  Biso   1.000  O
  O53      1.0000 0.77641  0.62994  0.24024  Biso   1.000  O
  O54      1.0000 0.77653  0.62118  0.49064  Biso   1.000  O
  O55      1.0000 0.72291  0.87924  0.00976  Biso   1.000  O
  O56      1.0000 0.72946  0.87265  0.25888  Biso   1.000  O
  Zr28     1.0000 0.63895  0.52132  0.64592  Biso   1.000  Zr
  Zr29     1.0000 0.63760  0.72849  0.89688  Biso   1.000  Zr
  Zr30     1.0000 0.86056  0.77141  0.60482  Biso   1.000  Zr
  Zr31     1.0000 0.86024  0.97863  0.85445  Biso   1.000  Zr
  O57      1.0000 0.53650  0.67000  0.58075  Biso   1.000  O
  O58      1.0000 0.53524  0.57985  0.83144  Biso   1.000  O
  O59      1.0000 0.96461  0.91837  0.66953  Biso   1.000  O
  O60      1.0000 0.96360  0.83034  0.91874  Biso   1.000  O
  O61      1.0000 0.77583  0.62871  0.74127  Biso   1.000  O
  O62      1.0000 0.77599  0.62193  0.99096  Biso   1.000  O
  O63      1.0000 0.72406  0.87910  0.50897  Biso   1.000  O
  O64      1.0000 0.72307  0.87099  0.75964  Biso   1.000  O
