data_image0
_cell_length_a       10.0635
_cell_length_b       5.03222
_cell_length_c       10.2239
_cell_angle_alpha    89.9996
_cell_angle_beta     90.0032
_cell_angle_gamma    88.7244

_symmetry_space_group_name_H-M    "P 1"
_symmetry_int_tables_number       1

loop_
  _symmetry_equiv_pos_as_xyz
  'x, y, z'

loop_
  _atom_site_label
  _atom_site_occupancy
  _atom_site_fract_x
  _atom_site_fract_y
  _atom_site_fract_z
  _atom_site_thermal_displace_type
  _atom_site_B_iso_or_equiv
  _atom_site_type_symbol
  Rh1      1.0000 0.12500  0.99990  0.09360  Biso   1.000  Rh
  Zr1      1.0000 0.12498  0.99982  0.63078  Biso   1.000  Zr
  Zr2      1.0000 0.62499  0.99988  0.12511  Biso   1.000  Zr
  Zr3      1.0000 0.62500  0.99983  0.62015  Biso   1.000  Zr
  Zr4      1.0000 0.12498  0.49979  0.38121  Biso   1.000  Zr
  Zr5      1.0000 0.12501  0.49986  0.87697  Biso   1.000  Zr
  Zr6      1.0000 0.62499  0.49984  0.37207  Biso   1.000  Zr
  Zr7      1.0000 0.62501  0.49981  0.87559  Biso   1.000  Zr
  Zr8      1.0000 0.37284  0.52314  0.13058  Biso   1.000  Zr
  Zr9      1.0000 0.37710  0.50304  0.62220  Biso   1.000  Zr
  Zr10     1.0000 0.87716  0.47665  0.13057  Biso   1.000  Zr
  Zr11     1.0000 0.87288  0.49661  0.62221  Biso   1.000  Zr
  Zr12     1.0000 0.36918  0.01331  0.37501  Biso   1.000  Zr
  Zr13     1.0000 0.38193  0.00527  0.87440  Biso   1.000  Zr
  Zr14     1.0000 0.88078  0.98633  0.37500  Biso   1.000  Zr
  Zr15     1.0000 0.86810  0.99437  0.87444  Biso   1.000  Zr
  Zr16     1.0000 0.00083  0.23032  0.97696  Biso   1.000  Zr
  Zr17     1.0000 0.99848  0.24506  0.47813  Biso   1.000  Zr
  Zr18     1.0000 0.49270  0.27014  0.97817  Biso   1.000  Zr
  Zr19     1.0000 0.49883  0.24976  0.47771  Biso   1.000  Zr
  Zr20     1.0000 0.01502  0.19276  0.22135  Biso   1.000  Zr
  Zr21     1.0000 0.00079  0.25988  0.72992  Biso   1.000  Zr
  Zr22     1.0000 0.51249  0.26530  0.22669  Biso   1.000  Zr
  Zr23     1.0000 0.50031  0.24843  0.72872  Biso   1.000  Zr
  Zr24     1.0000 0.97381  0.67626  0.28508  Biso   1.000  Zr
  Zr25     1.0000 0.00108  0.75721  0.77703  Biso   1.000  Zr
  Zr26     1.0000 0.48874  0.75569  0.27033  Biso   1.000  Zr
  Zr27     1.0000 0.50004  0.74949  0.76793  Biso   1.000  Zr
  Zr28     1.0000 0.00625  0.72628  0.03306  Biso   1.000  Zr
  Zr29     1.0000 0.00273  0.74888  0.52788  Biso   1.000  Zr
  Zr30     1.0000 0.50252  0.76406  0.01802  Biso   1.000  Zr
  Zr31     1.0000 0.50266  0.74679  0.51907  Biso   1.000  Zr
  Zr32     1.0000 0.27623  0.32353  0.28511  Biso   1.000  Zr
  Zr33     1.0000 0.24894  0.24251  0.77704  Biso   1.000  Zr
  Zr34     1.0000 0.76128  0.24411  0.27032  Biso   1.000  Zr
  Zr35     1.0000 0.74997  0.25017  0.76794  Biso   1.000  Zr
  Zr36     1.0000 0.24372  0.27358  0.03310  Biso   1.000  Zr
  Zr37     1.0000 0.24727  0.25072  0.52789  Biso   1.000  Zr
  Zr38     1.0000 0.74749  0.23562  0.01802  Biso   1.000  Zr
  Zr39     1.0000 0.74734  0.25284  0.51907  Biso   1.000  Zr
  Zr40     1.0000 0.24915  0.76949  0.97695  Biso   1.000  Zr
  Zr41     1.0000 0.25151  0.75455  0.47812  Biso   1.000  Zr
  Zr42     1.0000 0.75730  0.72953  0.97819  Biso   1.000  Zr
  Zr43     1.0000 0.75117  0.74988  0.47772  Biso   1.000  Zr
  Zr44     1.0000 0.23502  0.80707  0.22134  Biso   1.000  Zr
  Zr45     1.0000 0.24923  0.73982  0.72992  Biso   1.000  Zr
  Zr46     1.0000 0.73754  0.73455  0.22672  Biso   1.000  Zr
  Zr47     1.0000 0.74970  0.75123  0.72874  Biso   1.000  Zr
