data_image0
_cell_length_a       5.06556
_cell_length_b       10.5136
_cell_length_c       10.1221
_cell_angle_alpha    89.3514
_cell_angle_beta     90.0716
_cell_angle_gamma    89.9893

_symmetry_space_group_name_H-M    "P 1"
_symmetry_int_tables_number       1

loop_
  _symmetry_equiv_pos_as_xyz
  'x, y, z'

loop_
  _atom_site_label
  _atom_site_occupancy
  _atom_site_fract_x
  _atom_site_fract_y
  _atom_site_fract_z
  _atom_site_thermal_displace_type
  _atom_site_B_iso_or_equiv
  _atom_site_type_symbol
  Zr1      1.0000 0.26151  0.01401  0.11890  Biso   1.000  Zr
  Zr2      1.0000 0.26406  0.23064  0.38438  Biso   1.000  Zr
  Zr3      1.0000 0.69279  0.25544  0.12252  Biso   1.000  Zr
  Zr4      1.0000 0.74005  0.48569  0.37664  Biso   1.000  Zr
  Zr5      1.0000 0.00814  0.16707  0.22307  Biso   1.000  Zr
  Zr6      1.0000 0.06967  0.06418  0.45337  Biso   1.000  Zr
  Zr7      1.0000 0.91811  0.44331  0.19859  Biso   1.000  Zr
  Zr8      1.0000 0.93845  0.32048  0.45120  Biso   1.000  Zr
  Zr9      1.0000 0.50647  0.11244  0.24961  Biso   1.000  Zr
  Zr10     1.0000 0.54584  0.13411  0.49757  Biso   1.000  Zr
  Zr11     1.0000 0.46767  0.38357  0.50138  Biso   1.000  Zr
  Zr12     1.0000 0.45904  0.36678  0.25592  Biso   1.000  Zr
  Zr13     1.0000 0.27465  0.01141  0.62474  Biso   1.000  Zr
  Zr14     1.0000 0.27955  0.22376  0.86554  Biso   1.000  Zr
  Zr15     1.0000 0.73887  0.26623  0.62611  Biso   1.000  Zr
  Zr16     1.0000 0.74081  0.48440  0.87390  Biso   1.000  Zr
  Zr17     1.0000 0.07583  0.17903  0.69095  Biso   1.000  Zr
  Zr18     1.0000 0.08669  0.05800  0.93637  Biso   1.000  Zr
  Zr19     1.0000 0.93721  0.43254  0.69632  Biso   1.000  Zr
  Zr20     1.0000 0.92961  0.31131  0.93418  Biso   1.000  Zr
  Zr21     1.0000 0.54661  0.11176  0.74447  Biso   1.000  Zr
  Zr22     1.0000 0.57134  0.12053  0.99073  Biso   1.000  Zr
  Zr23     1.0000 0.46858  0.39065  0.99988  Biso   1.000  Zr
  Zr24     1.0000 0.47020  0.36422  0.74922  Biso   1.000  Zr
  Zr25     1.0000 0.26606  0.53313  0.12755  Biso   1.000  Zr
  Zr26     1.0000 0.27267  0.73782  0.37761  Biso   1.000  Zr
  Zr27     1.0000 0.72886  0.76723  0.12642  Biso   1.000  Zr
  Zr28     1.0000 0.73890  0.98756  0.37111  Biso   1.000  Zr
  Zr29     1.0000 0.06922  0.68952  0.19987  Biso   1.000  Zr
  Zr30     1.0000 0.07233  0.56982  0.44762  Biso   1.000  Zr
  Zr31     1.0000 0.92728  0.93226  0.19241  Biso   1.000  Zr
  Zr32     1.0000 0.93499  0.81921  0.44451  Biso   1.000  Zr
  Zr33     1.0000 0.54094  0.62214  0.25206  Biso   1.000  Zr
  Zr34     1.0000 0.54009  0.63453  0.49990  Biso   1.000  Zr
  Zr35     1.0000 0.47182  0.88537  0.49680  Biso   1.000  Zr
  Zr36     1.0000 0.46205  0.86792  0.24774  Biso   1.000  Zr
  Zr37     1.0000 0.27312  0.51412  0.62520  Biso   1.000  Zr
  Zr38     1.0000 0.27023  0.73499  0.87281  Biso   1.000  Zr
  Zr39     1.0000 0.74198  0.76346  0.62270  Biso   1.000  Zr
  Zr40     1.0000 0.74252  0.97706  0.87266  Biso   1.000  Zr
  Zr41     1.0000 0.07359  0.68072  0.69582  Biso   1.000  Zr
  Zr42     1.0000 0.06918  0.56926  0.94772  Biso   1.000  Zr
  Zr43     1.0000 0.94471  0.92679  0.69633  Biso   1.000  Zr
  Zr44     1.0000 0.93639  0.81419  0.94792  Biso   1.000  Zr
  Zr45     1.0000 0.54081  0.61358  0.74891  Biso   1.000  Zr
  Zr46     1.0000 0.53778  0.63762  0.99844  Biso   1.000  Zr
  Zr47     1.0000 0.46331  0.88097  0.99773  Biso   1.000  Zr
  Zr48     1.0000 0.47536  0.86217  0.74674  Biso   1.000  Zr
  Rh1      1.0000 0.18199  0.29612  0.10563  Biso   1.000  Rh
