data_image0
_cell_length_a       10.0694
_cell_length_b       10.4805
_cell_length_c       10.1001
_cell_angle_alpha    89.7775
_cell_angle_beta     90.1699
_cell_angle_gamma    90.0933

_symmetry_space_group_name_H-M    "P 1"
_symmetry_int_tables_number       1

loop_
  _symmetry_equiv_pos_as_xyz
  'x, y, z'

loop_
  _atom_site_label
  _atom_site_occupancy
  _atom_site_fract_x
  _atom_site_fract_y
  _atom_site_fract_z
  _atom_site_thermal_displace_type
  _atom_site_B_iso_or_equiv
  _atom_site_type_symbol
  Zr1      1.0000 0.13468  0.02192  0.12008  Biso   1.000  Zr
  Zr2      1.0000 0.13386  0.23004  0.38371  Biso   1.000  Zr
  Zr3      1.0000 0.36635  0.26165  0.11952  Biso   1.000  Zr
  Zr4      1.0000 0.36841  0.48387  0.37393  Biso   1.000  Zr
  Zr5      1.0000 0.00750  0.17131  0.22285  Biso   1.000  Zr
  Zr6      1.0000 0.03511  0.06423  0.45323  Biso   1.000  Zr
  Zr7      1.0000 0.46267  0.43255  0.19434  Biso   1.000  Zr
  Zr8      1.0000 0.46539  0.31728  0.44626  Biso   1.000  Zr
  Zr9      1.0000 0.26528  0.11451  0.25110  Biso   1.000  Zr
  Zr10     1.0000 0.27141  0.13203  0.50014  Biso   1.000  Zr
  Zr11     1.0000 0.23309  0.38399  0.49901  Biso   1.000  Zr
  Zr12     1.0000 0.22995  0.36068  0.25012  Biso   1.000  Zr
  Zr13     1.0000 0.13499  0.01263  0.62712  Biso   1.000  Zr
  Zr14     1.0000 0.14381  0.22552  0.86953  Biso   1.000  Zr
  Zr15     1.0000 0.36898  0.26569  0.62496  Biso   1.000  Zr
  Zr16     1.0000 0.36887  0.48593  0.87293  Biso   1.000  Zr
  Zr17     1.0000 0.03609  0.17969  0.69408  Biso   1.000  Zr
  Zr18     1.0000 0.03892  0.06182  0.94040  Biso   1.000  Zr
  Zr19     1.0000 0.46842  0.43274  0.69584  Biso   1.000  Zr
  Zr20     1.0000 0.46604  0.31582  0.94108  Biso   1.000  Zr
  Zr21     1.0000 0.27325  0.11294  0.74513  Biso   1.000  Zr
  Zr22     1.0000 0.28947  0.12144  0.98930  Biso   1.000  Zr
  Zr23     1.0000 0.23319  0.39202  0.99779  Biso   1.000  Zr
  Zr24     1.0000 0.23499  0.36488  0.74751  Biso   1.000  Zr
  Zr25     1.0000 0.13207  0.53772  0.12252  Biso   1.000  Zr
  Zr26     1.0000 0.13526  0.73718  0.37860  Biso   1.000  Zr
  Zr27     1.0000 0.36530  0.76829  0.12683  Biso   1.000  Zr
  Zr28     1.0000 0.36513  0.98436  0.37529  Biso   1.000  Zr
  Zr29     1.0000 0.03217  0.69023  0.20140  Biso   1.000  Zr
  Zr30     1.0000 0.03437  0.56885  0.44716  Biso   1.000  Zr
  Zr31     1.0000 0.46384  0.93303  0.19595  Biso   1.000  Zr
  Zr32     1.0000 0.46538  0.81548  0.44359  Biso   1.000  Zr
  Zr33     1.0000 0.27162  0.62122  0.25017  Biso   1.000  Zr
  Zr34     1.0000 0.27014  0.63251  0.49862  Biso   1.000  Zr
  Zr35     1.0000 0.23256  0.88285  0.49964  Biso   1.000  Zr
  Zr36     1.0000 0.23024  0.86797  0.24948  Biso   1.000  Zr
  Zr37     1.0000 0.13415  0.51392  0.62506  Biso   1.000  Zr
  Zr38     1.0000 0.13290  0.73815  0.87158  Biso   1.000  Zr
  Zr39     1.0000 0.36987  0.76295  0.62327  Biso   1.000  Zr
  Zr40     1.0000 0.37106  0.97827  0.87336  Biso   1.000  Zr
  Zr41     1.0000 0.03661  0.68252  0.69242  Biso   1.000  Zr
  Zr42     1.0000 0.03314  0.57103  0.94490  Biso   1.000  Zr
  Zr43     1.0000 0.46977  0.92977  0.69237  Biso   1.000  Zr
  Zr44     1.0000 0.46957  0.81609  0.94841  Biso   1.000  Zr
  Zr45     1.0000 0.26933  0.61453  0.74761  Biso   1.000  Zr
  Zr46     1.0000 0.26972  0.64021  0.99572  Biso   1.000  Zr
  Zr47     1.0000 0.23056  0.88285  0.99859  Biso   1.000  Zr
  Zr48     1.0000 0.23610  0.86359  0.74734  Biso   1.000  Zr
  Zr49     1.0000 0.63025  0.01258  0.12313  Biso   1.000  Zr
  Zr50     1.0000 0.63057  0.23147  0.37736  Biso   1.000  Zr
  Zr51     1.0000 0.84637  0.26282  0.12841  Biso   1.000  Zr
  Zr52     1.0000 0.86682  0.48536  0.37676  Biso   1.000  Zr
  Zr53     1.0000 0.53128  0.17938  0.19646  Biso   1.000  Zr
  Zr54     1.0000 0.53404  0.06556  0.44698  Biso   1.000  Zr
  Zr55     1.0000 0.95690  0.44229  0.19613  Biso   1.000  Zr
  Zr56     1.0000 0.96900  0.32075  0.45116  Biso   1.000  Zr
  Zr57     1.0000 0.75825  0.11315  0.24975  Biso   1.000  Zr
  Zr58     1.0000 0.77107  0.13438  0.49746  Biso   1.000  Zr
  Zr59     1.0000 0.73213  0.38296  0.50073  Biso   1.000  Zr
  Zr60     1.0000 0.72357  0.36784  0.25266  Biso   1.000  Zr
  Zr61     1.0000 0.63679  0.01421  0.62411  Biso   1.000  Zr
  Zr62     1.0000 0.63274  0.23199  0.87251  Biso   1.000  Zr
  Zr63     1.0000 0.86820  0.26503  0.62606  Biso   1.000  Zr
  Zr64     1.0000 0.86580  0.48288  0.87776  Biso   1.000  Zr
  Zr65     1.0000 0.53829  0.18278  0.69220  Biso   1.000  Zr
  Zr66     1.0000 0.54154  0.06324  0.93964  Biso   1.000  Zr
  Zr67     1.0000 0.96864  0.43078  0.70291  Biso   1.000  Zr
  Zr68     1.0000 0.96864  0.31011  0.95265  Biso   1.000  Zr
  Zr69     1.0000 0.77190  0.11479  0.74788  Biso   1.000  Zr
  Zr70     1.0000 0.76896  0.13106  0.99841  Biso   1.000  Zr
  Zr71     1.0000 0.72735  0.38243  0.99949  Biso   1.000  Zr
  Zr72     1.0000 0.73447  0.36511  0.75057  Biso   1.000  Zr
  Zr73     1.0000 0.63129  0.51703  0.12745  Biso   1.000  Zr
  Zr74     1.0000 0.63430  0.73483  0.37508  Biso   1.000  Zr
  Zr75     1.0000 0.86397  0.76729  0.12586  Biso   1.000  Zr
  Zr76     1.0000 0.86919  0.98653  0.37144  Biso   1.000  Zr
  Zr77     1.0000 0.53430  0.68294  0.19586  Biso   1.000  Zr
  Zr78     1.0000 0.53414  0.56624  0.44625  Biso   1.000  Zr
  Zr79     1.0000 0.96437  0.93395  0.19214  Biso   1.000  Zr
  Zr80     1.0000 0.96611  0.81888  0.44593  Biso   1.000  Zr
  Zr81     1.0000 0.76726  0.61775  0.25057  Biso   1.000  Zr
  Zr82     1.0000 0.76820  0.63412  0.49989  Biso   1.000  Zr
  Zr83     1.0000 0.73357  0.88498  0.49693  Biso   1.000  Zr
  Zr84     1.0000 0.73003  0.86620  0.24802  Biso   1.000  Zr
  Zr85     1.0000 0.63648  0.51429  0.62561  Biso   1.000  Zr
  Zr86     1.0000 0.63587  0.73308  0.87534  Biso   1.000  Zr
  Zr87     1.0000 0.86809  0.76548  0.62412  Biso   1.000  Zr
  Zr88     1.0000 0.86729  0.98222  0.87523  Biso   1.000  Zr
  Zr89     1.0000 0.53678  0.68098  0.69650  Biso   1.000  Zr
  Zr90     1.0000 0.53503  0.56690  0.94602  Biso   1.000  Zr
  Zr91     1.0000 0.96905  0.92876  0.69960  Biso   1.000  Zr
  Zr92     1.0000 0.96450  0.81485  0.94584  Biso   1.000  Zr
  Zr93     1.0000 0.77172  0.61427  0.75016  Biso   1.000  Zr
  Zr94     1.0000 0.76908  0.63183  0.99986  Biso   1.000  Zr
  Zr95     1.0000 0.73168  0.88175  0.99824  Biso   1.000  Zr
  Zr96     1.0000 0.73350  0.86455  0.74799  Biso   1.000  Zr
  Ru1      1.0000 0.09715  0.30384  0.10934  Biso   1.000  Ru
