data_image0
_cell_length_a       10.274
_cell_length_b       10.4161
_cell_length_c       10.5583
_cell_angle_alpha    89.7723
_cell_angle_beta     79.5692
_cell_angle_gamma    89.7793

_symmetry_space_group_name_H-M    "P 1"
_symmetry_int_tables_number       1

loop_
  _symmetry_equiv_pos_as_xyz
  'x, y, z'

loop_
  _atom_site_label
  _atom_site_occupancy
  _atom_site_fract_x
  _atom_site_fract_y
  _atom_site_fract_z
  _atom_site_thermal_displace_type
  _atom_site_B_iso_or_equiv
  _atom_site_type_symbol
  Zr1      1.0000 0.13133  0.01930  0.14223  Biso   1.000  Zr
  Zr2      1.0000 0.14218  0.22686  0.39139  Biso   1.000  Zr
  Zr3      1.0000 0.34635  0.26836  0.09489  Biso   1.000  Zr
  Zr4      1.0000 0.35443  0.49041  0.35487  Biso   1.000  Zr
  O1       1.0000 0.03134  0.16805  0.07676  Biso   1.000  O
  O2       1.0000 0.03055  0.08124  0.32997  Biso   1.000  O
  O3       1.0000 0.46427  0.42477  0.17117  Biso   1.000  O
  O4       1.0000 0.48782  0.38604  0.44578  Biso   1.000  O
  O5       1.0000 0.26307  0.11705  0.23254  Biso   1.000  O
  O6       1.0000 0.27419  0.11200  0.48783  Biso   1.000  O
  O7       1.0000 0.21754  0.38073  0.00276  Biso   1.000  O
  O8       1.0000 0.21574  0.37394  0.25310  Biso   1.000  O
  Zr5      1.0000 0.13856  0.01964  0.64483  Biso   1.000  Zr
  Zr6      1.0000 0.13388  0.22853  0.89008  Biso   1.000  Zr
  Zr7      1.0000 0.36450  0.27534  0.60149  Biso   1.000  Zr
  Zr8      1.0000 0.35941  0.47756  0.85417  Biso   1.000  Zr
  O9       1.0000 0.04079  0.16991  0.58005  Biso   1.000  O
  O10      1.0000 0.03135  0.08252  0.82764  Biso   1.000  O
  O11      1.0000 0.46969  0.40839  0.68351  Biso   1.000  O
  O12      1.0000 0.46474  0.33621  0.92758  Biso   1.000  O
  O13      1.0000 0.27390  0.12954  0.73626  Biso   1.000  O
  O14      1.0000 0.26922  0.12289  0.98415  Biso   1.000  O
  O15      1.0000 0.22605  0.37864  0.50670  Biso   1.000  O
  O16      1.0000 0.22441  0.37204  0.75585  Biso   1.000  O
  Zr9      1.0000 0.13805  0.52176  0.14302  Biso   1.000  Zr
  Zr10     1.0000 0.13394  0.72852  0.39694  Biso   1.000  Zr
  Zr11     1.0000 0.35857  0.77077  0.10103  Biso   1.000  Zr
  Zr12     1.0000 0.35265  0.96388  0.35428  Biso   1.000  Zr
  O17      1.0000 0.03287  0.66925  0.07847  Biso   1.000  O
  O18      1.0000 0.03580  0.58386  0.32712  Biso   1.000  O
  O19      1.0000 0.46281  0.91083  0.16847  Biso   1.000  O
  O20      1.0000 0.45785  0.82352  0.42396  Biso   1.000  O
  O21      1.0000 0.27329  0.62970  0.23978  Biso   1.000  O
  O22      1.0000 0.26960  0.62334  0.49285  Biso   1.000  O
  O23      1.0000 0.22329  0.87936  0.00742  Biso   1.000  O
  O24      1.0000 0.21817  0.86602  0.25757  Biso   1.000  O
  Zr13     1.0000 0.13770  0.52232  0.64671  Biso   1.000  Zr
  Zr14     1.0000 0.13651  0.72862  0.89543  Biso   1.000  Zr
  Zr15     1.0000 0.36060  0.77093  0.60654  Biso   1.000  Zr
  Zr16     1.0000 0.35996  0.97980  0.85177  Biso   1.000  Zr
  O25      1.0000 0.02845  0.66465  0.57954  Biso   1.000  O
  O26      1.0000 0.03243  0.58363  0.82978  Biso   1.000  O
  O27      1.0000 0.46524  0.91797  0.66982  Biso   1.000  O
  O28      1.0000 0.46463  0.83492  0.91839  Biso   1.000  O
  O29      1.0000 0.27346  0.62764  0.74039  Biso   1.000  O
  O30      1.0000 0.27346  0.62190  0.98939  Biso   1.000  O
  O31      1.0000 0.21881  0.87310  0.51148  Biso   1.000  O
  O32      1.0000 0.22404  0.87163  0.75955  Biso   1.000  O
  Zr17     1.0000 0.63798  0.01341  0.14735  Biso   1.000  Zr
  Zr18     1.0000 0.67216  0.23982  0.41196  Biso   1.000  Zr
  Zr19     1.0000 0.85951  0.27298  0.10877  Biso   1.000  Zr
  Zr20     1.0000 0.86725  0.48230  0.35697  Biso   1.000  Zr
  O33      1.0000 0.52341  0.15500  0.07481  Biso   1.000  O
  O34      1.0000 0.53236  0.04903  0.33533  Biso   1.000  O
  O35      1.0000 0.96677  0.41947  0.16924  Biso   1.000  O
  O36      1.0000 0.96658  0.32981  0.42200  Biso   1.000  O
  O37      1.0000 0.77570  0.12881  0.24669  Biso   1.000  O
  O38      1.0000 0.78778  0.11564  0.50125  Biso   1.000  O
  O39      1.0000 0.72127  0.37759  0.01671  Biso   1.000  O
  O40      1.0000 0.73443  0.37937  0.26619  Biso   1.000  O
  Zr21     1.0000 0.63784  0.02272  0.64712  Biso   1.000  Zr
  Zr22     1.0000 0.63683  0.22798  0.89961  Biso   1.000  Zr
  Zr23     1.0000 0.86988  0.27096  0.61351  Biso   1.000  Zr
  Zr24     1.0000 0.85887  0.47905  0.85839  Biso   1.000  Zr
  O41      1.0000 0.53929  0.17000  0.57256  Biso   1.000  O
  O42      1.0000 0.53023  0.08820  0.82499  Biso   1.000  O
  O43      1.0000 0.96733  0.41805  0.67547  Biso   1.000  O
  O44      1.0000 0.96094  0.33177  0.92174  Biso   1.000  O
  O45      1.0000 0.77378  0.12940  0.74620  Biso   1.000  O
  O46      1.0000 0.77100  0.12032  0.99578  Biso   1.000  O
  O47      1.0000 0.73718  0.38198  0.52110  Biso   1.000  O
  O48      1.0000 0.72587  0.37183  0.76693  Biso   1.000  O
  Zr25     1.0000 0.63797  0.52638  0.14741  Biso   1.000  Zr
  Zr26     1.0000 0.63700  0.72767  0.39651  Biso   1.000  Zr
  Zr27     1.0000 0.85982  0.77040  0.10489  Biso   1.000  Zr
  Zr28     1.0000 0.85980  0.97713  0.35598  Biso   1.000  Zr
  O49      1.0000 0.53206  0.66654  0.07338  Biso   1.000  O
  O50      1.0000 0.52875  0.59695  0.32015  Biso   1.000  O
  O51      1.0000 0.96086  0.91556  0.17273  Biso   1.000  O
  O52      1.0000 0.96222  0.83093  0.42260  Biso   1.000  O
  O53      1.0000 0.77577  0.63014  0.24217  Biso   1.000  O
  O54      1.0000 0.77263  0.62219  0.49134  Biso   1.000  O
  O55      1.0000 0.72290  0.87686  0.01008  Biso   1.000  O
  O56      1.0000 0.72302  0.86973  0.25968  Biso   1.000  O
  Zr29     1.0000 0.63624  0.52219  0.64920  Biso   1.000  Zr
  Zr30     1.0000 0.63569  0.72838  0.89503  Biso   1.000  Zr
  Zr31     1.0000 0.85817  0.77241  0.60580  Biso   1.000  Zr
  Zr32     1.0000 0.85910  0.97852  0.85531  Biso   1.000  Zr
  O57      1.0000 0.53111  0.66354  0.57970  Biso   1.000  O
  O58      1.0000 0.53037  0.58532  0.82832  Biso   1.000  O
  O59      1.0000 0.96337  0.91755  0.67139  Biso   1.000  O
  O60      1.0000 0.96460  0.83388  0.92144  Biso   1.000  O
  O61      1.0000 0.77230  0.62889  0.74159  Biso   1.000  O
  O62      1.0000 0.77379  0.62190  0.99140  Biso   1.000  O
  O63      1.0000 0.72078  0.87831  0.51057  Biso   1.000  O
  O64      1.0000 0.72290  0.87315  0.76078  Biso   1.000  O
  Sb1      1.0000 0.47188  0.24132  0.29684  Biso   1.000  Sb
