data_image0
_cell_length_a       10.0704
_cell_length_b       10.2329
_cell_length_c       10.0703
_cell_angle_alpha    89.9979
_cell_angle_beta     90.0011
_cell_angle_gamma    89.9999

_symmetry_space_group_name_H-M    "P 1"
_symmetry_int_tables_number       1

loop_
  _symmetry_equiv_pos_as_xyz
  'x, y, z'

loop_
  _atom_site_label
  _atom_site_occupancy
  _atom_site_fract_x
  _atom_site_fract_y
  _atom_site_fract_z
  _atom_site_thermal_displace_type
  _atom_site_B_iso_or_equiv
  _atom_site_type_symbol
  Sb1      1.0000 0.12494  0.99990  0.12495  Biso   1.000  Sb
  Zr1      1.0000 0.12494  0.99990  0.62494  Biso   1.000  Zr
  Zr2      1.0000 0.12495  0.49991  0.12494  Biso   1.000  Zr
  Zr3      1.0000 0.12495  0.49991  0.62494  Biso   1.000  Zr
  Zr4      1.0000 0.62494  0.99991  0.12494  Biso   1.000  Zr
  Zr5      1.0000 0.62494  0.99991  0.62494  Biso   1.000  Zr
  Zr6      1.0000 0.62495  0.49992  0.12494  Biso   1.000  Zr
  Zr7      1.0000 0.62495  0.49991  0.62494  Biso   1.000  Zr
  Zr8      1.0000 0.12527  0.25100  0.37549  Biso   1.000  Zr
  Zr9      1.0000 0.12463  0.25100  0.87440  Biso   1.000  Zr
  Zr10     1.0000 0.12463  0.74881  0.37549  Biso   1.000  Zr
  Zr11     1.0000 0.12528  0.74881  0.87439  Biso   1.000  Zr
  Zr12     1.0000 0.62540  0.24968  0.37473  Biso   1.000  Zr
  Zr13     1.0000 0.62450  0.24968  0.87516  Biso   1.000  Zr
  Zr14     1.0000 0.62450  0.75013  0.37473  Biso   1.000  Zr
  Zr15     1.0000 0.62540  0.75014  0.87515  Biso   1.000  Zr
  Zr16     1.0000 0.37550  0.25100  0.12527  Biso   1.000  Zr
  Zr17     1.0000 0.37474  0.24967  0.62539  Biso   1.000  Zr
  Zr18     1.0000 0.37550  0.74881  0.12462  Biso   1.000  Zr
  Zr19     1.0000 0.37474  0.75013  0.62450  Biso   1.000  Zr
  Zr20     1.0000 0.87440  0.25100  0.12462  Biso   1.000  Zr
  Zr21     1.0000 0.87517  0.24967  0.62450  Biso   1.000  Zr
  Zr22     1.0000 0.87440  0.74881  0.12526  Biso   1.000  Zr
  Zr23     1.0000 0.87516  0.75013  0.62539  Biso   1.000  Zr
  Zr24     1.0000 0.37570  0.00137  0.37571  Biso   1.000  Zr
  Zr25     1.0000 0.37571  0.99845  0.87418  Biso   1.000  Zr
  Zr26     1.0000 0.37528  0.50001  0.37528  Biso   1.000  Zr
  Zr27     1.0000 0.37528  0.49979  0.87461  Biso   1.000  Zr
  Zr28     1.0000 0.87418  0.99844  0.37571  Biso   1.000  Zr
  Zr29     1.0000 0.87418  0.00137  0.87418  Biso   1.000  Zr
  Zr30     1.0000 0.87461  0.49980  0.37528  Biso   1.000  Zr
  Zr31     1.0000 0.87461  0.50001  0.87461  Biso   1.000  Zr
  Zr32     1.0000 0.99548  0.14827  0.99548  Biso   1.000  Zr
  Zr33     1.0000 0.99919  0.14630  0.49840  Biso   1.000  Zr
  Zr34     1.0000 0.99999  0.64625  0.99999  Biso   1.000  Zr
  Zr35     1.0000 0.99939  0.64584  0.50044  Biso   1.000  Zr
  Zr36     1.0000 0.49841  0.14630  0.99919  Biso   1.000  Zr
  Zr37     1.0000 0.49927  0.14648  0.49927  Biso   1.000  Zr
  Zr38     1.0000 0.50044  0.64584  0.99938  Biso   1.000  Zr
  Zr39     1.0000 0.49927  0.64641  0.49926  Biso   1.000  Zr
  Zr40     1.0000 0.00010  0.10539  0.24979  Biso   1.000  Zr
  Zr41     1.0000 0.99983  0.10364  0.74799  Biso   1.000  Zr
  Zr42     1.0000 0.99984  0.60272  0.25004  Biso   1.000  Zr
  Zr43     1.0000 0.00044  0.60354  0.75015  Biso   1.000  Zr
  Zr44     1.0000 0.50190  0.10364  0.25006  Biso   1.000  Zr
  Zr45     1.0000 0.50054  0.10338  0.74936  Biso   1.000  Zr
  Zr46     1.0000 0.49974  0.60354  0.24944  Biso   1.000  Zr
  Zr47     1.0000 0.50034  0.60350  0.74954  Biso   1.000  Zr
  Zr48     1.0000 0.99999  0.35357  0.24990  Biso   1.000  Zr
  Zr49     1.0000 0.99939  0.35397  0.74945  Biso   1.000  Zr
  Zr50     1.0000 0.99549  0.85154  0.25439  Biso   1.000  Zr
  Zr51     1.0000 0.99919  0.85351  0.75147  Biso   1.000  Zr
  Zr52     1.0000 0.50044  0.35397  0.25050  Biso   1.000  Zr
  Zr53     1.0000 0.49928  0.35340  0.75061  Biso   1.000  Zr
  Zr54     1.0000 0.49841  0.85351  0.25069  Biso   1.000  Zr
  Zr55     1.0000 0.49927  0.85333  0.75062  Biso   1.000  Zr
  Zr56     1.0000 0.99985  0.39709  0.99984  Biso   1.000  Zr
  Zr57     1.0000 0.00044  0.39627  0.49973  Biso   1.000  Zr
  Zr58     1.0000 0.00010  0.89442  0.00009  Biso   1.000  Zr
  Zr59     1.0000 0.99983  0.89617  0.50189  Biso   1.000  Zr
  Zr60     1.0000 0.49974  0.39627  0.00044  Biso   1.000  Zr
  Zr61     1.0000 0.50034  0.39631  0.50034  Biso   1.000  Zr
  Zr62     1.0000 0.50190  0.89618  0.99982  Biso   1.000  Zr
  Zr63     1.0000 0.50054  0.89642  0.50052  Biso   1.000  Zr
  Zr64     1.0000 0.25440  0.14827  0.25440  Biso   1.000  Zr
  Zr65     1.0000 0.25071  0.14630  0.75148  Biso   1.000  Zr
  Zr66     1.0000 0.24989  0.64625  0.24988  Biso   1.000  Zr
  Zr67     1.0000 0.25049  0.64584  0.74943  Biso   1.000  Zr
  Zr68     1.0000 0.75148  0.14630  0.25070  Biso   1.000  Zr
  Zr69     1.0000 0.75063  0.14649  0.75062  Biso   1.000  Zr
  Zr70     1.0000 0.74944  0.64584  0.25049  Biso   1.000  Zr
  Zr71     1.0000 0.75061  0.64641  0.75060  Biso   1.000  Zr
  Zr72     1.0000 0.24979  0.10538  0.00010  Biso   1.000  Zr
  Zr73     1.0000 0.25007  0.10364  0.50190  Biso   1.000  Zr
  Zr74     1.0000 0.25005  0.60272  0.99983  Biso   1.000  Zr
  Zr75     1.0000 0.24944  0.60354  0.49972  Biso   1.000  Zr
  Zr76     1.0000 0.74799  0.10364  0.99982  Biso   1.000  Zr
  Zr77     1.0000 0.74936  0.10339  0.50053  Biso   1.000  Zr
  Zr78     1.0000 0.75015  0.60354  0.00043  Biso   1.000  Zr
  Zr79     1.0000 0.74954  0.60349  0.50034  Biso   1.000  Zr
  Zr80     1.0000 0.24990  0.35356  0.99999  Biso   1.000  Zr
  Zr81     1.0000 0.25050  0.35397  0.50044  Biso   1.000  Zr
  Zr82     1.0000 0.25440  0.85154  0.99549  Biso   1.000  Zr
  Zr83     1.0000 0.25070  0.85351  0.49841  Biso   1.000  Zr
  Zr84     1.0000 0.74945  0.35397  0.99939  Biso   1.000  Zr
  Zr85     1.0000 0.75061  0.35341  0.49928  Biso   1.000  Zr
  Zr86     1.0000 0.75149  0.85352  0.99918  Biso   1.000  Zr
  Zr87     1.0000 0.75063  0.85333  0.49926  Biso   1.000  Zr
  Zr88     1.0000 0.25004  0.39709  0.25004  Biso   1.000  Zr
  Zr89     1.0000 0.24945  0.39627  0.75015  Biso   1.000  Zr
  Zr90     1.0000 0.24979  0.89442  0.24979  Biso   1.000  Zr
  Zr91     1.0000 0.25007  0.89617  0.74799  Biso   1.000  Zr
  Zr92     1.0000 0.75015  0.39627  0.24945  Biso   1.000  Zr
  Zr93     1.0000 0.74955  0.39632  0.74955  Biso   1.000  Zr
  Zr94     1.0000 0.74799  0.89618  0.25006  Biso   1.000  Zr
  Zr95     1.0000 0.74936  0.89642  0.74935  Biso   1.000  Zr
