data_image0
_cell_length_a       10.3561
_cell_length_b       10.5296
_cell_length_c       5.28546
_cell_angle_alpha    89.1589
_cell_angle_beta     78.839
_cell_angle_gamma    89.1456

_symmetry_space_group_name_H-M    "P 1"
_symmetry_int_tables_number       1

loop_
  _symmetry_equiv_pos_as_xyz
  'x, y, z'

loop_
  _atom_site_label
  _atom_site_occupancy
  _atom_site_fract_x
  _atom_site_fract_y
  _atom_site_fract_z
  _atom_site_thermal_displace_type
  _atom_site_B_iso_or_equiv
  _atom_site_type_symbol
  Zr1      1.0000 0.13166  0.01732  0.28565  Biso   1.000  Zr
  Zr2      1.0000 0.13781  0.22653  0.77427  Biso   1.000  Zr
  Zr3      1.0000 0.35257  0.26880  0.17611  Biso   1.000  Zr
  Zr4      1.0000 0.35444  0.48935  0.70967  Biso   1.000  Zr
  O1       1.0000 0.03725  0.17138  0.15971  Biso   1.000  O
  O2       1.0000 0.02778  0.08088  0.66164  Biso   1.000  O
  O3       1.0000 0.47043  0.42140  0.36539  Biso   1.000  O
  O4       1.0000 0.48190  0.38482  0.89972  Biso   1.000  O
  O5       1.0000 0.26147  0.11676  0.46280  Biso   1.000  O
  O6       1.0000 0.26628  0.11122  0.97038  Biso   1.000  O
  O7       1.0000 0.21798  0.38097  0.99937  Biso   1.000  O
  O8       1.0000 0.21883  0.37195  0.49722  Biso   1.000  O
  Zr5      1.0000 0.13852  0.52050  0.28953  Biso   1.000  Zr
  Zr6      1.0000 0.13181  0.72761  0.79393  Biso   1.000  Zr
  Zr7      1.0000 0.35686  0.76886  0.20285  Biso   1.000  Zr
  Zr8      1.0000 0.34782  0.96395  0.70024  Biso   1.000  Zr
  O9       1.0000 0.02787  0.66690  0.16126  Biso   1.000  O
  O10      1.0000 0.03513  0.58291  0.65929  Biso   1.000  O
  O11      1.0000 0.45884  0.91357  0.32109  Biso   1.000  O
  O12      1.0000 0.45442  0.82170  0.83431  Biso   1.000  O
  O13      1.0000 0.27154  0.62775  0.47968  Biso   1.000  O
  O14      1.0000 0.26806  0.62311  0.98443  Biso   1.000  O
  O15      1.0000 0.21580  0.87284  0.01644  Biso   1.000  O
  O16      1.0000 0.21660  0.86460  0.51218  Biso   1.000  O
  Zr9      1.0000 0.63400  0.01160  0.29532  Biso   1.000  Zr
  Zr10     1.0000 0.67249  0.24465  0.83607  Biso   1.000  Zr
  Zr11     1.0000 0.86871  0.27325  0.23786  Biso   1.000  Zr
  Zr12     1.0000 0.86614  0.48460  0.72265  Biso   1.000  Zr
  O17      1.0000 0.52957  0.16379  0.13289  Biso   1.000  O
  O18      1.0000 0.52581  0.04412  0.65944  Biso   1.000  O
  O19      1.0000 0.96846  0.42096  0.34665  Biso   1.000  O
  O20      1.0000 0.96108  0.32794  0.84406  Biso   1.000  O
  O21      1.0000 0.77417  0.13275  0.51185  Biso   1.000  O
  O22      1.0000 0.78176  0.11586  0.01712  Biso   1.000  O
  O23      1.0000 0.73427  0.38380  0.05705  Biso   1.000  O
  O24      1.0000 0.73605  0.38177  0.54762  Biso   1.000  O
  Zr13     1.0000 0.63772  0.53002  0.30520  Biso   1.000  Zr
  Zr14     1.0000 0.63428  0.72889  0.79281  Biso   1.000  Zr
  Zr15     1.0000 0.85866  0.77271  0.21202  Biso   1.000  Zr
  Zr16     1.0000 0.85764  0.97951  0.71285  Biso   1.000  Zr
  O25      1.0000 0.53057  0.66604  0.15337  Biso   1.000  O
  O26      1.0000 0.52828  0.59679  0.64846  Biso   1.000  O
  O27      1.0000 0.95841  0.91790  0.34517  Biso   1.000  O
  O28      1.0000 0.96142  0.83196  0.84422  Biso   1.000  O
  O29      1.0000 0.77375  0.63216  0.48901  Biso   1.000  O
  O30      1.0000 0.77253  0.62433  0.98685  Biso   1.000  O
  O31      1.0000 0.71946  0.87745  0.01909  Biso   1.000  O
  O32      1.0000 0.72166  0.87238  0.51875  Biso   1.000  O
  Sb1      1.0000 0.47278  0.23919  0.59647  Biso   1.000  Sb
