data_image0
_cell_length_a       5.09024
_cell_length_b       10.4757
_cell_length_c       10.2823
_cell_angle_alpha    88.204
_cell_angle_beta     92.8575
_cell_angle_gamma    91.9877

_symmetry_space_group_name_H-M    "P 1"
_symmetry_int_tables_number       1

loop_
  _symmetry_equiv_pos_as_xyz
  'x, y, z'

loop_
  _atom_site_label
  _atom_site_occupancy
  _atom_site_fract_x
  _atom_site_fract_y
  _atom_site_fract_z
  _atom_site_thermal_displace_type
  _atom_site_B_iso_or_equiv
  _atom_site_type_symbol
  Zr1      1.0000 0.27449  0.99153  0.09989  Biso   1.000  Zr
  Zr2      1.0000 0.23604  0.23114  0.40846  Biso   1.000  Zr
  Zr3      1.0000 0.59800  0.26295  0.15868  Biso   1.000  Zr
  Zr4      1.0000 0.72717  0.49302  0.38428  Biso   1.000  Zr
  Zr5      1.0000 0.89662  0.18411  0.27636  Biso   1.000  Zr
  Zr6      1.0000 0.07375  0.05699  0.46233  Biso   1.000  Zr
  Zr7      1.0000 0.87041  0.44653  0.21189  Biso   1.000  Zr
  Zr8      1.0000 0.95423  0.33953  0.46998  Biso   1.000  Zr
  Zr9      1.0000 0.41476  0.10763  0.25566  Biso   1.000  Zr
  Zr10     1.0000 0.56297  0.14004  0.50039  Biso   1.000  Zr
  Zr11     1.0000 0.47978  0.38630  0.50706  Biso   1.000  Zr
  Zr12     1.0000 0.38535  0.37567  0.26987  Biso   1.000  Zr
  Zr13     1.0000 0.30265  0.00780  0.62415  Biso   1.000  Zr
  Zr14     1.0000 0.34227  0.21882  0.85382  Biso   1.000  Zr
  Zr15     1.0000 0.77324  0.27150  0.63272  Biso   1.000  Zr
  Zr16     1.0000 0.74250  0.48340  0.86986  Biso   1.000  Zr
  Zr17     1.0000 0.13508  0.18450  0.66708  Biso   1.000  Zr
  Zr18     1.0000 0.12543  0.05007  0.91067  Biso   1.000  Zr
  Zr19     1.0000 0.93661  0.44954  0.69099  Biso   1.000  Zr
  Zr20     1.0000 0.97747  0.30136  0.87343  Biso   1.000  Zr
  Zr21     1.0000 0.59203  0.11049  0.74761  Biso   1.000  Zr
  Zr22     1.0000 0.59144  0.11569  0.00533  Biso   1.000  Zr
  Zr23     1.0000 0.50233  0.37421  0.99052  Biso   1.000  Zr
  Zr24     1.0000 0.48900  0.36616  0.74370  Biso   1.000  Zr
  Zr25     1.0000 0.23047  0.52518  0.13918  Biso   1.000  Zr
  Zr26     1.0000 0.27276  0.74560  0.37821  Biso   1.000  Zr
  Zr27     1.0000 0.72791  0.76202  0.12959  Biso   1.000  Zr
  Zr28     1.0000 0.74363  0.00339  0.35901  Biso   1.000  Zr
  Zr29     1.0000 0.06494  0.68659  0.20172  Biso   1.000  Zr
  Zr30     1.0000 0.06809  0.58097  0.44960  Biso   1.000  Zr
  Zr31     1.0000 0.93368  0.94320  0.18576  Biso   1.000  Zr
  Zr32     1.0000 0.93705  0.82338  0.43935  Biso   1.000  Zr
  Zr33     1.0000 0.52381  0.62416  0.25658  Biso   1.000  Zr
  Zr34     1.0000 0.53752  0.63994  0.50206  Biso   1.000  Zr
  Zr35     1.0000 0.48208  0.89134  0.49254  Biso   1.000  Zr
  Zr36     1.0000 0.47562  0.86652  0.24090  Biso   1.000  Zr
  Zr37     1.0000 0.27611  0.51441  0.62021  Biso   1.000  Zr
  Zr38     1.0000 0.28262  0.72829  0.87224  Biso   1.000  Zr
  Zr39     1.0000 0.76026  0.76922  0.61755  Biso   1.000  Zr
  Zr40     1.0000 0.76819  0.96999  0.87141  Biso   1.000  Zr
  Zr41     1.0000 0.08299  0.68349  0.69752  Biso   1.000  Zr
  Zr42     1.0000 0.07042  0.56356  0.95396  Biso   1.000  Zr
  Zr43     1.0000 0.96635  0.92676  0.69868  Biso   1.000  Zr
  Zr44     1.0000 0.97311  0.81405  0.96045  Biso   1.000  Zr
  Zr45     1.0000 0.54384  0.61335  0.75260  Biso   1.000  Zr
  Zr46     1.0000 0.53846  0.62912  0.00504  Biso   1.000  Zr
  Zr47     1.0000 0.49148  0.87160  0.99032  Biso   1.000  Zr
  Zr48     1.0000 0.49972  0.85883  0.74513  Biso   1.000  Zr
  Sb1      1.0000 0.05529  0.25710  0.06584  Biso   1.000  Sb
