data_image0
_cell_length_a       10.348
_cell_length_b       5.16515
_cell_length_c       10.6578
_cell_angle_alpha    89.5008
_cell_angle_beta     79.1433
_cell_angle_gamma    89.657

_symmetry_space_group_name_H-M    "P 1"
_symmetry_int_tables_number       1

loop_
  _symmetry_equiv_pos_as_xyz
  'x, y, z'

loop_
  _atom_site_label
  _atom_site_occupancy
  _atom_site_fract_x
  _atom_site_fract_y
  _atom_site_fract_z
  _atom_site_thermal_displace_type
  _atom_site_B_iso_or_equiv
  _atom_site_type_symbol
  Zr1      1.0000 0.13755  0.03524  0.14574  Biso   1.000  Zr
  Zr2      1.0000 0.11757  0.44709  0.39843  Biso   1.000  Zr
  Zr3      1.0000 0.35477  0.54060  0.08908  Biso   1.000  Zr
  Zr4      1.0000 0.35982  0.97287  0.35246  Biso   1.000  Zr
  O1       1.0000 0.02956  0.31045  0.06907  Biso   1.000  O
  O2       1.0000 0.02154  0.18136  0.31602  Biso   1.000  O
  O3       1.0000 0.47590  0.78705  0.18981  Biso   1.000  O
  O4       1.0000 0.48618  0.71364  0.43973  Biso   1.000  O
  O5       1.0000 0.27098  0.24549  0.23622  Biso   1.000  O
  O6       1.0000 0.27271  0.25699  0.48925  Biso   1.000  O
  O7       1.0000 0.22112  0.75958  0.00294  Biso   1.000  O
  O8       1.0000 0.23288  0.72429  0.25696  Biso   1.000  O
  Zr5      1.0000 0.14085  0.03962  0.64142  Biso   1.000  Zr
  Zr6      1.0000 0.13460  0.45247  0.89194  Biso   1.000  Zr
  Zr7      1.0000 0.36476  0.55000  0.61086  Biso   1.000  Zr
  Zr8      1.0000 0.36033  0.96206  0.85231  Biso   1.000  Zr
  O9       1.0000 0.02405  0.31579  0.57552  Biso   1.000  O
  O10      1.0000 0.03020  0.17825  0.81916  Biso   1.000  O
  O11      1.0000 0.47252  0.82128  0.68443  Biso   1.000  O
  O12      1.0000 0.47350  0.69736  0.93005  Biso   1.000  O
  O13      1.0000 0.27254  0.25306  0.73922  Biso   1.000  O
  O14      1.0000 0.27158  0.24709  0.98615  Biso   1.000  O
  O15      1.0000 0.23636  0.74458  0.50281  Biso   1.000  O
  O16      1.0000 0.22456  0.74775  0.75805  Biso   1.000  O
  Zr9      1.0000 0.63678  0.03763  0.14711  Biso   1.000  Zr
  Zr10     1.0000 0.64772  0.46665  0.40218  Biso   1.000  Zr
  Zr11     1.0000 0.86262  0.53997  0.10599  Biso   1.000  Zr
  Zr12     1.0000 0.85762  0.95887  0.35473  Biso   1.000  Zr
  O17      1.0000 0.52475  0.30460  0.07175  Biso   1.000  O
  O18      1.0000 0.53168  0.20005  0.32441  Biso   1.000  O
  O19      1.0000 0.97143  0.80696  0.17922  Biso   1.000  O
  O20      1.0000 0.96460  0.69341  0.43253  Biso   1.000  O
  O21      1.0000 0.77295  0.25388  0.23914  Biso   1.000  O
  O22      1.0000 0.77725  0.24586  0.49347  Biso   1.000  O
  O23      1.0000 0.72574  0.75300  0.01429  Biso   1.000  O
  O24      1.0000 0.72823  0.74711  0.26246  Biso   1.000  O
  Zr13     1.0000 0.63779  0.04877  0.64928  Biso   1.000  Zr
  Zr14     1.0000 0.63777  0.45547  0.89924  Biso   1.000  Zr
  Zr15     1.0000 0.85943  0.54921  0.61133  Biso   1.000  Zr
  Zr16     1.0000 0.86219  0.95721  0.85598  Biso   1.000  Zr
  O25      1.0000 0.53105  0.31850  0.57317  Biso   1.000  O
  O26      1.0000 0.52702  0.19483  0.82253  Biso   1.000  O
  O27      1.0000 0.97121  0.81843  0.67828  Biso   1.000  O
  O28      1.0000 0.96724  0.67633  0.92707  Biso   1.000  O
  O29      1.0000 0.77183  0.25786  0.74355  Biso   1.000  O
  O30      1.0000 0.77216  0.24150  0.99136  Biso   1.000  O
  O31      1.0000 0.72591  0.75799  0.51672  Biso   1.000  O
  O32      1.0000 0.72682  0.74831  0.76538  Biso   1.000  O
  Sc1      1.0000 0.38309  0.48384  0.33619  Biso   1.000  Sc
