data_image0
_cell_length_a       10.0891
_cell_length_b       10.4467
_cell_length_c       10.1313
_cell_angle_alpha    89.8165
_cell_angle_beta     90.0421
_cell_angle_gamma    89.6994

_symmetry_space_group_name_H-M    "P 1"
_symmetry_int_tables_number       1

loop_
  _symmetry_equiv_pos_as_xyz
  'x, y, z'

loop_
  _atom_site_label
  _atom_site_occupancy
  _atom_site_fract_x
  _atom_site_fract_y
  _atom_site_fract_z
  _atom_site_thermal_displace_type
  _atom_site_B_iso_or_equiv
  _atom_site_type_symbol
  Zr1      1.0000 0.12703  0.00276  0.12160  Biso   1.000  Zr
  Zr2      1.0000 0.13085  0.23065  0.38580  Biso   1.000  Zr
  Zr3      1.0000 0.37922  0.26941  0.11653  Biso   1.000  Zr
  Zr4      1.0000 0.36681  0.48474  0.37276  Biso   1.000  Zr
  Zr5      1.0000 0.99960  0.15723  0.23026  Biso   1.000  Zr
  Zr6      1.0000 0.03358  0.06419  0.45826  Biso   1.000  Zr
  Zr7      1.0000 0.46889  0.43578  0.19631  Biso   1.000  Zr
  Zr8      1.0000 0.46850  0.32042  0.44728  Biso   1.000  Zr
  Zr9      1.0000 0.25039  0.12169  0.24042  Biso   1.000  Zr
  Zr10     1.0000 0.27279  0.13217  0.49623  Biso   1.000  Zr
  Zr11     1.0000 0.23328  0.38416  0.49664  Biso   1.000  Zr
  Zr12     1.0000 0.23335  0.36806  0.24592  Biso   1.000  Zr
  Zr13     1.0000 0.13442  0.00894  0.62551  Biso   1.000  Zr
  Zr14     1.0000 0.13257  0.23836  0.85064  Biso   1.000  Zr
  Zr15     1.0000 0.37257  0.26618  0.62061  Biso   1.000  Zr
  Zr16     1.0000 0.36812  0.48762  0.87203  Biso   1.000  Zr
  Zr17     1.0000 0.02904  0.17330  0.69148  Biso   1.000  Zr
  Zr18     1.0000 0.02758  0.07115  0.95215  Biso   1.000  Zr
  Zr19     1.0000 0.47089  0.43310  0.69467  Biso   1.000  Zr
  Zr20     1.0000 0.47016  0.32267  0.94059  Biso   1.000  Zr
  Zr21     1.0000 0.26874  0.11523  0.74313  Biso   1.000  Zr
  Zr22     1.0000 0.25752  0.14477  0.99472  Biso   1.000  Zr
  Zr23     1.0000 0.23274  0.39177  0.99424  Biso   1.000  Zr
  Zr24     1.0000 0.24025  0.36828  0.74217  Biso   1.000  Zr
  Zr25     1.0000 0.13840  0.52983  0.12472  Biso   1.000  Zr
  Zr26     1.0000 0.13444  0.73582  0.37692  Biso   1.000  Zr
  Zr27     1.0000 0.36945  0.76691  0.12290  Biso   1.000  Zr
  Zr28     1.0000 0.36436  0.98885  0.37016  Biso   1.000  Zr
  Zr29     1.0000 0.02912  0.67925  0.20497  Biso   1.000  Zr
  Zr30     1.0000 0.03426  0.56829  0.44875  Biso   1.000  Zr
  Zr31     1.0000 0.46120  0.93469  0.19429  Biso   1.000  Zr
  Zr32     1.0000 0.46810  0.82218  0.44542  Biso   1.000  Zr
  Zr33     1.0000 0.27416  0.62194  0.24810  Biso   1.000  Zr
  Zr34     1.0000 0.26953  0.63435  0.49783  Biso   1.000  Zr
  Zr35     1.0000 0.23458  0.88457  0.49592  Biso   1.000  Zr
  Zr36     1.0000 0.23149  0.86474  0.24728  Biso   1.000  Zr
  Zr37     1.0000 0.13509  0.51539  0.62357  Biso   1.000  Zr
  Zr38     1.0000 0.13178  0.73648  0.87100  Biso   1.000  Zr
  Zr39     1.0000 0.36991  0.76620  0.62247  Biso   1.000  Zr
  Zr40     1.0000 0.36582  0.98780  0.87442  Biso   1.000  Zr
  Zr41     1.0000 0.03374  0.67905  0.69619  Biso   1.000  Zr
  Zr42     1.0000 0.03242  0.57207  0.94918  Biso   1.000  Zr
  Zr43     1.0000 0.46832  0.93296  0.69875  Biso   1.000  Zr
  Zr44     1.0000 0.47005  0.82237  0.94660  Biso   1.000  Zr
  Zr45     1.0000 0.26933  0.61640  0.74564  Biso   1.000  Zr
  Zr46     1.0000 0.26916  0.64039  0.99498  Biso   1.000  Zr
  Zr47     1.0000 0.23417  0.88555  0.99486  Biso   1.000  Zr
  Zr48     1.0000 0.23550  0.86421  0.74669  Biso   1.000  Zr
  Zr49     1.0000 0.62991  0.01188  0.12367  Biso   1.000  Zr
  Zr50     1.0000 0.63198  0.23236  0.37612  Biso   1.000  Zr
  Zr51     1.0000 0.84992  0.26054  0.12727  Biso   1.000  Zr
  Zr52     1.0000 0.87064  0.48222  0.37246  Biso   1.000  Zr
  Zr53     1.0000 0.52931  0.17689  0.20546  Biso   1.000  Zr
  Zr54     1.0000 0.53095  0.06836  0.45001  Biso   1.000  Zr
  Zr55     1.0000 0.97654  0.41738  0.19762  Biso   1.000  Zr
  Zr56     1.0000 0.96814  0.32148  0.45596  Biso   1.000  Zr
  Zr57     1.0000 0.75519  0.11019  0.24915  Biso   1.000  Zr
  Zr58     1.0000 0.76909  0.13554  0.49700  Biso   1.000  Zr
  Zr59     1.0000 0.73415  0.38551  0.49864  Biso   1.000  Zr
  Zr60     1.0000 0.72838  0.36832  0.25127  Biso   1.000  Zr
  Zr61     1.0000 0.63460  0.01294  0.62284  Biso   1.000  Zr
  Zr62     1.0000 0.63470  0.23377  0.87178  Biso   1.000  Zr
  Zr63     1.0000 0.86346  0.26521  0.62464  Biso   1.000  Zr
  Zr64     1.0000 0.86943  0.48163  0.87814  Biso   1.000  Zr
  Zr65     1.0000 0.53650  0.18190  0.69615  Biso   1.000  Zr
  Zr66     1.0000 0.52630  0.07485  0.95124  Biso   1.000  Zr
  Zr67     1.0000 0.97730  0.42292  0.70928  Biso   1.000  Zr
  Zr68     1.0000 0.97031  0.31379  0.95704  Biso   1.000  Zr
  Zr69     1.0000 0.76918  0.11382  0.74691  Biso   1.000  Zr
  Zr70     1.0000 0.76405  0.12999  0.99655  Biso   1.000  Zr
  Zr71     1.0000 0.72843  0.38323  0.99738  Biso   1.000  Zr
  Zr72     1.0000 0.73485  0.36613  0.74873  Biso   1.000  Zr
  Zr73     1.0000 0.63393  0.51758  0.12436  Biso   1.000  Zr
  Zr74     1.0000 0.63436  0.73556  0.37524  Biso   1.000  Zr
  Zr75     1.0000 0.86280  0.76202  0.12580  Biso   1.000  Zr
  Zr76     1.0000 0.87204  0.98936  0.36976  Biso   1.000  Zr
  Zr77     1.0000 0.53710  0.68556  0.19508  Biso   1.000  Zr
  Zr78     1.0000 0.53346  0.56985  0.44567  Biso   1.000  Zr
  Zr79     1.0000 0.96378  0.92145  0.19897  Biso   1.000  Zr
  Zr80     1.0000 0.96965  0.82030  0.45012  Biso   1.000  Zr
  Zr81     1.0000 0.77001  0.61377  0.24714  Biso   1.000  Zr
  Zr82     1.0000 0.77008  0.63471  0.49653  Biso   1.000  Zr
  Zr83     1.0000 0.73547  0.88653  0.49562  Biso   1.000  Zr
  Zr84     1.0000 0.72922  0.86406  0.24663  Biso   1.000  Zr
  Zr85     1.0000 0.63610  0.51633  0.62334  Biso   1.000  Zr
  Zr86     1.0000 0.63463  0.73453  0.87341  Biso   1.000  Zr
  Zr87     1.0000 0.86716  0.76512  0.62313  Biso   1.000  Zr
  Zr88     1.0000 0.86741  0.98326  0.87592  Biso   1.000  Zr
  Zr89     1.0000 0.53649  0.68338  0.69523  Biso   1.000  Zr
  Zr90     1.0000 0.53291  0.57155  0.94697  Biso   1.000  Zr
  Zr91     1.0000 0.97191  0.92500  0.70519  Biso   1.000  Zr
  Zr92     1.0000 0.97019  0.81939  0.95385  Biso   1.000  Zr
  Zr93     1.0000 0.77196  0.61340  0.74770  Biso   1.000  Zr
  Zr94     1.0000 0.76900  0.63241  0.99651  Biso   1.000  Zr
  Zr95     1.0000 0.73150  0.88214  0.99683  Biso   1.000  Zr
  Zr96     1.0000 0.73311  0.86438  0.74626  Biso   1.000  Zr
  Sc1      1.0000 0.11468  0.26731  0.11166  Biso   1.000  Sc
