data_image0
_cell_length_a       10.0425
_cell_length_b       5.10479
_cell_length_c       10.4608
_cell_angle_alpha    90.0348
_cell_angle_beta     90.8661
_cell_angle_gamma    89.1752

_symmetry_space_group_name_H-M    "P 1"
_symmetry_int_tables_number       1

loop_
  _symmetry_equiv_pos_as_xyz
  'x, y, z'

loop_
  _atom_site_label
  _atom_site_occupancy
  _atom_site_fract_x
  _atom_site_fract_y
  _atom_site_fract_z
  _atom_site_thermal_displace_type
  _atom_site_B_iso_or_equiv
  _atom_site_type_symbol
  Si1      1.0000 0.12069  0.02139  0.18888  Biso   1.000  Si
  Zr1      1.0000 0.13752  0.03583  0.66727  Biso   1.000  Zr
  Zr2      1.0000 0.13571  0.45456  0.41306  Biso   1.000  Zr
  Zr3      1.0000 0.14031  0.44778  0.91900  Biso   1.000  Zr
  Zr4      1.0000 0.35241  0.55846  0.16859  Biso   1.000  Zr
  Zr5      1.0000 0.36031  0.54551  0.67193  Biso   1.000  Zr
  Zr6      1.0000 0.35541  0.96195  0.41687  Biso   1.000  Zr
  Zr7      1.0000 0.36049  0.97004  0.92660  Biso   1.000  Zr
  Zr8      1.0000 0.64126  0.04391  0.07889  Biso   1.000  Zr
  Zr9      1.0000 0.63462  0.03901  0.58047  Biso   1.000  Zr
  Zr10     1.0000 0.63469  0.45507  0.32791  Biso   1.000  Zr
  Zr11     1.0000 0.63964  0.46145  0.83215  Biso   1.000  Zr
  Zr12     1.0000 0.87426  0.53037  0.08688  Biso   1.000  Zr
  Zr13     1.0000 0.85833  0.53402  0.58158  Biso   1.000  Zr
  Zr14     1.0000 0.85818  0.95414  0.33256  Biso   1.000  Zr
  Zr15     1.0000 0.86295  0.95242  0.83314  Biso   1.000  Zr
  O1       1.0000 0.05688  0.29060  0.09418  Biso   1.000  O
  O2       1.0000 0.02915  0.31253  0.57480  Biso   1.000  O
  O3       1.0000 0.03691  0.14815  0.32621  Biso   1.000  O
  O4       1.0000 0.03264  0.17126  0.83069  Biso   1.000  O
  O5       1.0000 0.46992  0.83528  0.08429  Biso   1.000  O
  O6       1.0000 0.46159  0.83999  0.58370  Biso   1.000  O
  O7       1.0000 0.45701  0.65671  0.33770  Biso   1.000  O
  O8       1.0000 0.46895  0.67766  0.83246  Biso   1.000  O
  O9       1.0000 0.26034  0.23087  0.26978  Biso   1.000  O
  O10      1.0000 0.27420  0.24004  0.78390  Biso   1.000  O
  O11      1.0000 0.30744  0.33726  0.01596  Biso   1.000  O
  O12      1.0000 0.27434  0.25570  0.53498  Biso   1.000  O
  O13      1.0000 0.20839  0.76143  0.29232  Biso   1.000  O
  O14      1.0000 0.22412  0.74523  0.80167  Biso   1.000  O
  O15      1.0000 0.21357  0.85228  0.06555  Biso   1.000  O
  O16      1.0000 0.22034  0.74877  0.54278  Biso   1.000  O
  O17      1.0000 0.53366  0.34021  0.16401  Biso   1.000  O
  O18      1.0000 0.53364  0.33990  0.66363  Biso   1.000  O
  O19      1.0000 0.53021  0.16039  0.41113  Biso   1.000  O
  O20      1.0000 0.53965  0.16109  0.91212  Biso   1.000  O
  O21      1.0000 0.97948  0.82844  0.17118  Biso   1.000  O
  O22      1.0000 0.96924  0.81159  0.67266  Biso   1.000  O
  O23      1.0000 0.96187  0.65753  0.41691  Biso   1.000  O
  O24      1.0000 0.97212  0.66533  0.92792  Biso   1.000  O
  O25      1.0000 0.78308  0.24624  0.95966  Biso   1.000  O
  O26      1.0000 0.77268  0.24193  0.45618  Biso   1.000  O
  O27      1.0000 0.77853  0.24745  0.20712  Biso   1.000  O
  O28      1.0000 0.77610  0.24749  0.70762  Biso   1.000  O
  O29      1.0000 0.73064  0.74244  0.96006  Biso   1.000  O
  O30      1.0000 0.72006  0.74306  0.45765  Biso   1.000  O
  O31      1.0000 0.73206  0.74561  0.20718  Biso   1.000  O
  O32      1.0000 0.72438  0.75161  0.70821  Biso   1.000  O
