data_image0
_cell_length_a       4.999
_cell_length_b       10.4179
_cell_length_c       10.0201
_cell_angle_alpha    91.7914
_cell_angle_beta     88.4928
_cell_angle_gamma    90.5292

_symmetry_space_group_name_H-M    "P 1"
_symmetry_int_tables_number       1

loop_
  _symmetry_equiv_pos_as_xyz
  'x, y, z'

loop_
  _atom_site_label
  _atom_site_occupancy
  _atom_site_fract_x
  _atom_site_fract_y
  _atom_site_fract_z
  _atom_site_thermal_displace_type
  _atom_site_B_iso_or_equiv
  _atom_site_type_symbol
  Si1      1.0000 0.22770  0.03524  0.10953  Biso   1.000  Si
  Zr1      1.0000 0.25925  0.01338  0.61964  Biso   1.000  Zr
  Zr2      1.0000 0.27273  0.51353  0.12723  Biso   1.000  Zr
  Zr3      1.0000 0.27132  0.51765  0.62243  Biso   1.000  Zr
  Zr4      1.0000 0.27463  0.22563  0.36959  Biso   1.000  Zr
  Zr5      1.0000 0.25907  0.24349  0.86737  Biso   1.000  Zr
  Zr6      1.0000 0.29148  0.73380  0.37930  Biso   1.000  Zr
  Zr7      1.0000 0.25519  0.74507  0.88051  Biso   1.000  Zr
  Zr8      1.0000 0.74554  0.25678  0.11166  Biso   1.000  Zr
  Zr9      1.0000 0.73513  0.26478  0.61901  Biso   1.000  Zr
  Zr10     1.0000 0.77283  0.75475  0.12105  Biso   1.000  Zr
  Zr11     1.0000 0.74242  0.77170  0.62785  Biso   1.000  Zr
  Zr12     1.0000 0.74638  0.47915  0.37331  Biso   1.000  Zr
  Zr13     1.0000 0.72635  0.49552  0.87109  Biso   1.000  Zr
  Zr14     1.0000 0.74772  0.98296  0.36010  Biso   1.000  Zr
  Zr15     1.0000 0.70191  0.99246  0.88285  Biso   1.000  Zr
  Zr16     1.0000 0.05401  0.16898  0.19832  Biso   1.000  Zr
  Zr17     1.0000 0.06191  0.18417  0.69699  Biso   1.000  Zr
  Zr18     1.0000 0.08122  0.67908  0.20895  Biso   1.000  Zr
  Zr19     1.0000 0.06125  0.68293  0.70459  Biso   1.000  Zr
  Zr20     1.0000 0.06798  0.06783  0.45083  Biso   1.000  Zr
  Zr21     1.0000 0.02221  0.08075  0.97405  Biso   1.000  Zr
  Zr22     1.0000 0.07926  0.56599  0.44762  Biso   1.000  Zr
  Zr23     1.0000 0.03590  0.58353  0.96497  Biso   1.000  Zr
  Zr24     1.0000 0.94790  0.42057  0.19561  Biso   1.000  Zr
  Zr25     1.0000 0.93264  0.43479  0.69556  Biso   1.000  Zr
  Zr26     1.0000 0.00414  0.93360  0.18854  Biso   1.000  Zr
  Zr27     1.0000 0.93252  0.93807  0.70810  Biso   1.000  Zr
  Zr28     1.0000 0.94434  0.31539  0.44478  Biso   1.000  Zr
  Zr29     1.0000 0.92122  0.32527  0.93944  Biso   1.000  Zr
  Zr30     1.0000 0.96299  0.82423  0.45735  Biso   1.000  Zr
  Zr31     1.0000 0.89641  0.82590  0.93975  Biso   1.000  Zr
  Zr32     1.0000 0.48493  0.08131  0.22948  Biso   1.000  Zr
  Zr33     1.0000 0.53000  0.11817  0.74520  Biso   1.000  Zr
  Zr34     1.0000 0.55096  0.59801  0.24673  Biso   1.000  Zr
  Zr35     1.0000 0.52780  0.62177  0.75104  Biso   1.000  Zr
  Zr36     1.0000 0.54910  0.13322  0.48612  Biso   1.000  Zr
  Zr37     1.0000 0.48344  0.14216  0.99864  Biso   1.000  Zr
  Zr38     1.0000 0.55255  0.63442  0.50031  Biso   1.000  Zr
  Zr39     1.0000 0.51580  0.64468  0.00009  Biso   1.000  Zr
  Zr40     1.0000 0.46892  0.38204  0.49436  Biso   1.000  Zr
  Zr41     1.0000 0.45757  0.39184  0.99044  Biso   1.000  Zr
  Zr42     1.0000 0.48499  0.88665  0.50058  Biso   1.000  Zr
  Zr43     1.0000 0.40510  0.91101  0.01462  Biso   1.000  Zr
  Zr44     1.0000 0.47775  0.34832  0.24103  Biso   1.000  Zr
  Zr45     1.0000 0.45979  0.36985  0.74296  Biso   1.000  Zr
  Zr46     1.0000 0.54374  0.83738  0.25964  Biso   1.000  Zr
  Zr47     1.0000 0.45524  0.86977  0.75415  Biso   1.000  Zr
