data_image0
_cell_length_a       10.0592
_cell_length_b       10.2472
_cell_length_c       5.242
_cell_angle_alpha    89.1256
_cell_angle_beta     91.7438
_cell_angle_gamma    89.3718

_symmetry_space_group_name_H-M    "P 1"
_symmetry_int_tables_number       1

loop_
  _symmetry_equiv_pos_as_xyz
  'x, y, z'

loop_
  _atom_site_label
  _atom_site_occupancy
  _atom_site_fract_x
  _atom_site_fract_y
  _atom_site_fract_z
  _atom_site_thermal_displace_type
  _atom_site_B_iso_or_equiv
  _atom_site_type_symbol
  Si1      1.0000 0.10426  0.02488  0.42328  Biso   1.000  Si
  Zr1      1.0000 0.13958  0.52097  0.34344  Biso   1.000  Zr
  Zr2      1.0000 0.14586  0.22630  0.84767  Biso   1.000  Zr
  Zr3      1.0000 0.13765  0.73279  0.83157  Biso   1.000  Zr
  Zr4      1.0000 0.35838  0.26885  0.33610  Biso   1.000  Zr
  Zr5      1.0000 0.35551  0.77705  0.31908  Biso   1.000  Zr
  Zr6      1.0000 0.36062  0.47935  0.84279  Biso   1.000  Zr
  Zr7      1.0000 0.35903  0.98298  0.82078  Biso   1.000  Zr
  Zr8      1.0000 0.63601  0.02246  0.15788  Biso   1.000  Zr
  Zr9      1.0000 0.64014  0.52109  0.16125  Biso   1.000  Zr
  Zr10     1.0000 0.63992  0.23169  0.66113  Biso   1.000  Zr
  Zr11     1.0000 0.63497  0.72806  0.65503  Biso   1.000  Zr
  Zr12     1.0000 0.86940  0.26468  0.17612  Biso   1.000  Zr
  Zr13     1.0000 0.86443  0.77268  0.16733  Biso   1.000  Zr
  Zr14     1.0000 0.86413  0.47708  0.67158  Biso   1.000  Zr
  Zr15     1.0000 0.85081  0.97767  0.67230  Biso   1.000  Zr
  O1       1.0000 0.05685  0.14372  0.20088  Biso   1.000  O
  O2       1.0000 0.03591  0.66913  0.17016  Biso   1.000  O
  O3       1.0000 0.02924  0.07899  0.68467  Biso   1.000  O
  O4       1.0000 0.03461  0.57963  0.67406  Biso   1.000  O
  O5       1.0000 0.46743  0.41622  0.16799  Biso   1.000  O
  O6       1.0000 0.46820  0.91807  0.15603  Biso   1.000  O
  O7       1.0000 0.46811  0.33378  0.66657  Biso   1.000  O
  O8       1.0000 0.46015  0.83502  0.65202  Biso   1.000  O
  O9       1.0000 0.25028  0.11827  0.54395  Biso   1.000  O
  O10      1.0000 0.27353  0.63144  0.58215  Biso   1.000  O
  O11      1.0000 0.30564  0.14526  0.03505  Biso   1.000  O
  O12      1.0000 0.27443  0.62423  0.08315  Biso   1.000  O
  O13      1.0000 0.22618  0.37327  0.59667  Biso   1.000  O
  O14      1.0000 0.20462  0.89026  0.53771  Biso   1.000  O
  O15      1.0000 0.21999  0.37891  0.09359  Biso   1.000  O
  O16      1.0000 0.23355  0.87347  0.04023  Biso   1.000  O
  O17      1.0000 0.53447  0.16802  0.32886  Biso   1.000  O
  O18      1.0000 0.53163  0.66809  0.32285  Biso   1.000  O
  O19      1.0000 0.53954  0.07937  0.81458  Biso   1.000  O
  O20      1.0000 0.53320  0.58253  0.82647  Biso   1.000  O
  O21      1.0000 0.97082  0.40946  0.34854  Biso   1.000  O
  O22      1.0000 0.97216  0.92431  0.34531  Biso   1.000  O
  O23      1.0000 0.97031  0.32709  0.85729  Biso   1.000  O
  O24      1.0000 0.96161  0.83163  0.83527  Biso   1.000  O
  O25      1.0000 0.77997  0.12233  0.92204  Biso   1.000  O
  O26      1.0000 0.77748  0.62369  0.91869  Biso   1.000  O
  O27      1.0000 0.77726  0.12578  0.41794  Biso   1.000  O
  O28      1.0000 0.77673  0.62543  0.41777  Biso   1.000  O
  O29      1.0000 0.72914  0.37202  0.92358  Biso   1.000  O
  O30      1.0000 0.72042  0.87190  0.91635  Biso   1.000  O
  O31      1.0000 0.72939  0.37456  0.41797  Biso   1.000  O
  O32      1.0000 0.72647  0.87552  0.41430  Biso   1.000  O
