data_image0
_cell_length_a       10.0286
_cell_length_b       5.21772
_cell_length_c       10.0672
_cell_angle_alpha    90.1551
_cell_angle_beta     89.737
_cell_angle_gamma    90.0134

_symmetry_space_group_name_H-M    "P 1"
_symmetry_int_tables_number       1

loop_
  _symmetry_equiv_pos_as_xyz
  'x, y, z'

loop_
  _atom_site_label
  _atom_site_occupancy
  _atom_site_fract_x
  _atom_site_fract_y
  _atom_site_fract_z
  _atom_site_thermal_displace_type
  _atom_site_B_iso_or_equiv
  _atom_site_type_symbol
  Sn1      1.0000 0.13089  0.03733  0.12007  Biso   1.000  Sn
  Zr1      1.0000 0.13375  0.03292  0.62624  Biso   1.000  Zr
  Zr2      1.0000 0.63450  0.03140  0.12659  Biso   1.000  Zr
  Zr3      1.0000 0.63327  0.03176  0.62428  Biso   1.000  Zr
  Zr4      1.0000 0.13472  0.46727  0.37570  Biso   1.000  Zr
  Zr5      1.0000 0.13265  0.47350  0.87509  Biso   1.000  Zr
  Zr6      1.0000 0.63477  0.46907  0.37553  Biso   1.000  Zr
  Zr7      1.0000 0.63259  0.46913  0.87538  Biso   1.000  Zr
  Zr8      1.0000 0.36704  0.52975  0.12657  Biso   1.000  Zr
  Zr9      1.0000 0.36620  0.53260  0.62611  Biso   1.000  Zr
  Zr10     1.0000 0.86702  0.53013  0.12393  Biso   1.000  Zr
  Zr11     1.0000 0.86623  0.53183  0.62475  Biso   1.000  Zr
  Zr12     1.0000 0.36595  0.96648  0.37577  Biso   1.000  Zr
  Zr13     1.0000 0.36620  0.97237  0.87583  Biso   1.000  Zr
  Zr14     1.0000 0.86817  0.96952  0.37525  Biso   1.000  Zr
  Zr15     1.0000 0.86384  0.96898  0.87421  Biso   1.000  Zr
  Zr16     1.0000 0.03511  0.36491  0.19431  Biso   1.000  Zr
  Zr17     1.0000 0.03532  0.36969  0.69504  Biso   1.000  Zr
  Zr18     1.0000 0.53566  0.36687  0.19597  Biso   1.000  Zr
  Zr19     1.0000 0.53489  0.36765  0.69497  Biso   1.000  Zr
  Zr20     1.0000 0.03570  0.13164  0.44639  Biso   1.000  Zr
  Zr21     1.0000 0.03316  0.13397  0.94237  Biso   1.000  Zr
  Zr22     1.0000 0.53616  0.13278  0.44404  Biso   1.000  Zr
  Zr23     1.0000 0.53457  0.13421  0.94588  Biso   1.000  Zr
  Zr24     1.0000 0.46709  0.86465  0.19536  Biso   1.000  Zr
  Zr25     1.0000 0.46417  0.86890  0.69499  Biso   1.000  Zr
  Zr26     1.0000 0.96806  0.86304  0.19385  Biso   1.000  Zr
  Zr27     1.0000 0.96393  0.86829  0.69392  Biso   1.000  Zr
  Zr28     1.0000 0.46583  0.63316  0.44620  Biso   1.000  Zr
  Zr29     1.0000 0.46074  0.63251  0.94317  Biso   1.000  Zr
  Zr30     1.0000 0.96496  0.63166  0.44424  Biso   1.000  Zr
  Zr31     1.0000 0.96258  0.63369  0.94295  Biso   1.000  Zr
  Zr32     1.0000 0.26729  0.22273  0.24747  Biso   1.000  Zr
  Zr33     1.0000 0.26942  0.23615  0.74900  Biso   1.000  Zr
  Zr34     1.0000 0.77006  0.23280  0.24885  Biso   1.000  Zr
  Zr35     1.0000 0.76831  0.23430  0.74843  Biso   1.000  Zr
  Zr36     1.0000 0.27062  0.26686  0.49847  Biso   1.000  Zr
  Zr37     1.0000 0.26750  0.26956  0.99835  Biso   1.000  Zr
  Zr38     1.0000 0.76980  0.26690  0.49857  Biso   1.000  Zr
  Zr39     1.0000 0.76857  0.26648  0.99843  Biso   1.000  Zr
  Zr40     1.0000 0.23058  0.76624  0.50090  Biso   1.000  Zr
  Zr41     1.0000 0.22837  0.77176  0.00305  Biso   1.000  Zr
  Zr42     1.0000 0.73157  0.76732  0.49829  Biso   1.000  Zr
  Zr43     1.0000 0.72854  0.76572  0.99835  Biso   1.000  Zr
  Zr44     1.0000 0.23535  0.72278  0.25215  Biso   1.000  Zr
  Zr45     1.0000 0.23033  0.73643  0.75085  Biso   1.000  Zr
  Zr46     1.0000 0.73379  0.73344  0.24836  Biso   1.000  Zr
  Zr47     1.0000 0.72940  0.73367  0.74814  Biso   1.000  Zr
