data_image0
_cell_length_a       10.1797
_cell_length_b       10.3373
_cell_length_c       10.1804
_cell_angle_alpha    89.9315
_cell_angle_beta     87.0643
_cell_angle_gamma    89.9228

_symmetry_space_group_name_H-M    "P 1"
_symmetry_int_tables_number       1

loop_
  _symmetry_equiv_pos_as_xyz
  'x, y, z'

loop_
  _atom_site_label
  _atom_site_occupancy
  _atom_site_fract_x
  _atom_site_fract_y
  _atom_site_fract_z
  _atom_site_thermal_displace_type
  _atom_site_B_iso_or_equiv
  _atom_site_type_symbol
  Zr1      1.0000 0.12400  0.89919  0.12406  Biso   1.000  Zr
  Zr2      1.0000 0.15144  0.27016  0.40349  Biso   1.000  Zr
  Zr3      1.0000 0.40341  0.27024  0.15155  Biso   1.000  Zr
  Zr4      1.0000 0.37783  0.02653  0.37793  Biso   1.000  Zr
  Zr5      1.0000 0.94348  0.16839  0.94329  Biso   1.000  Zr
  Zr6      1.0000 0.98805  0.06012  0.19389  Biso   1.000  Zr
  Zr7      1.0000 0.00998  0.34030  0.26518  Biso   1.000  Zr
  Zr8      1.0000 0.00380  0.41528  0.00386  Biso   1.000  Zr
  Zr9      1.0000 0.34537  0.22562  0.34541  Biso   1.000  Zr
  Zr10     1.0000 0.19398  0.06010  0.98820  Biso   1.000  Zr
  Zr11     1.0000 0.26520  0.34038  0.00998  Biso   1.000  Zr
  Zr12     1.0000 0.26179  0.43692  0.26164  Biso   1.000  Zr
  Zr13     1.0000 0.10901  0.98882  0.60460  Biso   1.000  Zr
  Zr14     1.0000 0.11980  0.25541  0.88439  Biso   1.000  Zr
  Zr15     1.0000 0.38045  0.24713  0.63679  Biso   1.000  Zr
  Zr16     1.0000 0.35274  0.99859  0.87175  Biso   1.000  Zr
  Zr17     1.0000 0.00729  0.13816  0.46988  Biso   1.000  Zr
  Zr18     1.0000 0.99149  0.09712  0.72076  Biso   1.000  Zr
  Zr19     1.0000 0.99827  0.35118  0.74746  Biso   1.000  Zr
  Zr20     1.0000 0.01347  0.39188  0.51022  Biso   1.000  Zr
  Zr21     1.0000 0.26325  0.15718  0.77381  Biso   1.000  Zr
  Zr22     1.0000 0.25072  0.11265  0.52749  Biso   1.000  Zr
  Zr23     1.0000 0.26181  0.37464  0.53233  Biso   1.000  Zr
  Zr24     1.0000 0.24391  0.40584  0.77457  Biso   1.000  Zr
  Zr25     1.0000 0.12745  0.50866  0.12745  Biso   1.000  Zr
  Zr26     1.0000 0.10754  0.73819  0.39375  Biso   1.000  Zr
  Zr27     1.0000 0.39372  0.73816  0.10753  Biso   1.000  Zr
  Zr28     1.0000 0.39413  0.49589  0.39410  Biso   1.000  Zr
  Zr29     1.0000 0.04500  0.68259  0.04508  Biso   1.000  Zr
  Zr30     1.0000 0.02337  0.58623  0.28527  Biso   1.000  Zr
  Zr31     1.0000 0.97822  0.82957  0.25843  Biso   1.000  Zr
  Zr32     1.0000 0.98276  0.89545  0.98280  Biso   1.000  Zr
  Zr33     1.0000 0.22487  0.74330  0.22487  Biso   1.000  Zr
  Zr34     1.0000 0.28516  0.58627  0.02326  Biso   1.000  Zr
  Zr35     1.0000 0.25837  0.82954  0.97826  Biso   1.000  Zr
  Zr36     1.0000 0.24421  0.99741  0.24443  Biso   1.000  Zr
  Zr37     1.0000 0.12912  0.50383  0.64294  Biso   1.000  Zr
  Zr38     1.0000 0.10996  0.75532  0.85569  Biso   1.000  Zr
  Zr39     1.0000 0.36128  0.76089  0.60678  Biso   1.000  Zr
  Zr40     1.0000 0.38595  0.48197  0.88532  Biso   1.000  Zr
  Zr41     1.0000 0.00091  0.63762  0.53830  Biso   1.000  Zr
  Zr42     1.0000 0.01316  0.59532  0.79382  Biso   1.000  Zr
  Zr43     1.0000 0.98615  0.84852  0.73577  Biso   1.000  Zr
  Zr44     1.0000 0.98680  0.88552  0.49019  Biso   1.000  Zr
  Zr45     1.0000 0.24658  0.65363  0.73634  Biso   1.000  Zr
  Zr46     1.0000 0.24793  0.61357  0.48545  Biso   1.000  Zr
  Zr47     1.0000 0.24285  0.86232  0.48311  Biso   1.000  Zr
  Zr48     1.0000 0.23504  0.90306  0.73643  Biso   1.000  Zr
  Zr49     1.0000 0.60453  0.98882  0.10902  Biso   1.000  Zr
  Zr50     1.0000 0.63648  0.24698  0.38068  Biso   1.000  Zr
  Zr51     1.0000 0.88424  0.25526  0.11969  Biso   1.000  Zr
  Zr52     1.0000 0.87173  0.99871  0.35286  Biso   1.000  Zr
  Zr53     1.0000 0.46999  0.13817  0.00740  Biso   1.000  Zr
  Zr54     1.0000 0.52746  0.11259  0.25084  Biso   1.000  Zr
  Zr55     1.0000 0.53242  0.37463  0.26186  Biso   1.000  Zr
  Zr56     1.0000 0.51019  0.39188  0.01359  Biso   1.000  Zr
  Zr57     1.0000 0.77385  0.15736  0.26355  Biso   1.000  Zr
  Zr58     1.0000 0.72104  0.09732  0.99198  Biso   1.000  Zr
  Zr59     1.0000 0.74746  0.35125  0.99805  Biso   1.000  Zr
  Zr60     1.0000 0.77477  0.40600  0.24352  Biso   1.000  Zr
  Zr61     1.0000 0.61860  0.99881  0.61873  Biso   1.000  Zr
  Zr62     1.0000 0.61934  0.23699  0.88155  Biso   1.000  Zr
  Zr63     1.0000 0.88132  0.23707  0.61945  Biso   1.000  Zr
  Zr64     1.0000 0.86461  0.00574  0.86466  Biso   1.000  Zr
  Zr65     1.0000 0.51354  0.14535  0.51375  Biso   1.000  Zr
  Zr66     1.0000 0.50150  0.09494  0.75880  Biso   1.000  Zr
  Zr67     1.0000 0.49699  0.34469  0.76329  Biso   1.000  Zr
  Zr68     1.0000 0.51295  0.39278  0.51303  Biso   1.000  Zr
  Zr69     1.0000 0.74499  0.14071  0.74523  Biso   1.000  Zr
  Zr70     1.0000 0.75867  0.09499  0.50172  Biso   1.000  Zr
  Zr71     1.0000 0.76319  0.34475  0.49679  Biso   1.000  Zr
  Zr72     1.0000 0.74587  0.38249  0.74552  Biso   1.000  Zr
  Zr73     1.0000 0.64297  0.50387  0.12909  Biso   1.000  Zr
  Zr74     1.0000 0.60679  0.76098  0.36126  Biso   1.000  Zr
  Zr75     1.0000 0.85564  0.75540  0.10995  Biso   1.000  Zr
  Zr76     1.0000 0.88530  0.48187  0.38577  Biso   1.000  Zr
  Zr77     1.0000 0.53813  0.63753  0.00073  Biso   1.000  Zr
  Zr78     1.0000 0.48548  0.61356  0.24784  Biso   1.000  Zr
  Zr79     1.0000 0.48305  0.86233  0.24284  Biso   1.000  Zr
  Zr80     1.0000 0.49013  0.88550  0.98681  Biso   1.000  Zr
  Zr81     1.0000 0.73635  0.65370  0.24653  Biso   1.000  Zr
  Zr82     1.0000 0.79369  0.59545  0.01301  Biso   1.000  Zr
  Zr83     1.0000 0.73568  0.84862  0.98614  Biso   1.000  Zr
  Zr84     1.0000 0.73640  0.90315  0.23504  Biso   1.000  Zr
  Zr85     1.0000 0.63214  0.49650  0.63197  Biso   1.000  Zr
  Zr86     1.0000 0.61297  0.75408  0.85202  Biso   1.000  Zr
  Zr87     1.0000 0.85205  0.75415  0.61293  Biso   1.000  Zr
  Zr88     1.0000 0.86765  0.47738  0.86761  Biso   1.000  Zr
  Zr89     1.0000 0.49929  0.64747  0.49920  Biso   1.000  Zr
  Zr90     1.0000 0.50450  0.59654  0.75548  Biso   1.000  Zr
  Zr91     1.0000 0.48581  0.84823  0.73734  Biso   1.000  Zr
  Zr92     1.0000 0.49253  0.90212  0.49256  Biso   1.000  Zr
  Zr93     1.0000 0.75462  0.63548  0.75454  Biso   1.000  Zr
  Zr94     1.0000 0.75563  0.59659  0.50442  Biso   1.000  Zr
  Zr95     1.0000 0.73734  0.84830  0.48578  Biso   1.000  Zr
  Zr96     1.0000 0.73818  0.89004  0.73819  Biso   1.000  Zr
  Sn1      1.0000 0.14394  0.18602  0.14406  Biso   1.000  Sn
