data_image0
_cell_length_a       10.0657
_cell_length_b       10.2274
_cell_length_c       10.0657
_cell_angle_alpha    90.0016
_cell_angle_beta     89.9991
_cell_angle_gamma    90.0004

_symmetry_space_group_name_H-M    "P 1"
_symmetry_int_tables_number       1

loop_
  _symmetry_equiv_pos_as_xyz
  'x, y, z'

loop_
  _atom_site_label
  _atom_site_occupancy
  _atom_site_fract_x
  _atom_site_fract_y
  _atom_site_fract_z
  _atom_site_thermal_displace_type
  _atom_site_B_iso_or_equiv
  _atom_site_type_symbol
  Sn1      1.0000 0.12496  0.99996  0.12497  Biso   1.000  Sn
  Zr1      1.0000 0.12496  0.99999  0.62497  Biso   1.000  Zr
  Zr2      1.0000 0.12496  0.50001  0.12497  Biso   1.000  Zr
  Zr3      1.0000 0.12496  0.50000  0.62497  Biso   1.000  Zr
  Zr4      1.0000 0.62496  0.99999  0.12497  Biso   1.000  Zr
  Zr5      1.0000 0.62496  0.00001  0.62497  Biso   1.000  Zr
  Zr6      1.0000 0.62496  0.50000  0.12497  Biso   1.000  Zr
  Zr7      1.0000 0.62496  0.49999  0.62497  Biso   1.000  Zr
  Zr8      1.0000 0.12602  0.25106  0.37531  Biso   1.000  Zr
  Zr9      1.0000 0.12389  0.25107  0.87464  Biso   1.000  Zr
  Zr10     1.0000 0.12390  0.74894  0.37532  Biso   1.000  Zr
  Zr11     1.0000 0.12601  0.74894  0.87462  Biso   1.000  Zr
  Zr12     1.0000 0.62576  0.24951  0.37476  Biso   1.000  Zr
  Zr13     1.0000 0.62415  0.24951  0.87517  Biso   1.000  Zr
  Zr14     1.0000 0.62415  0.75049  0.37477  Biso   1.000  Zr
  Zr15     1.0000 0.62575  0.75049  0.87517  Biso   1.000  Zr
  Zr16     1.0000 0.37529  0.25106  0.12604  Biso   1.000  Zr
  Zr17     1.0000 0.37475  0.24951  0.62578  Biso   1.000  Zr
  Zr18     1.0000 0.37530  0.74894  0.12391  Biso   1.000  Zr
  Zr19     1.0000 0.37476  0.75049  0.62417  Biso   1.000  Zr
  Zr20     1.0000 0.87462  0.25107  0.12391  Biso   1.000  Zr
  Zr21     1.0000 0.87516  0.24951  0.62416  Biso   1.000  Zr
  Zr22     1.0000 0.87460  0.74894  0.12603  Biso   1.000  Zr
  Zr23     1.0000 0.87515  0.75049  0.62577  Biso   1.000  Zr
  Zr24     1.0000 0.37510  0.00154  0.37512  Biso   1.000  Zr
  Zr25     1.0000 0.37509  0.99847  0.87484  Biso   1.000  Zr
  Zr26     1.0000 0.37558  0.50041  0.37560  Biso   1.000  Zr
  Zr27     1.0000 0.37558  0.49959  0.87435  Biso   1.000  Zr
  Zr28     1.0000 0.87483  0.99847  0.37510  Biso   1.000  Zr
  Zr29     1.0000 0.87481  0.00154  0.87482  Biso   1.000  Zr
  Zr30     1.0000 0.87434  0.49958  0.37559  Biso   1.000  Zr
  Zr31     1.0000 0.87434  0.50041  0.87435  Biso   1.000  Zr
  Zr32     1.0000 0.99027  0.14993  0.99028  Biso   1.000  Zr
  Zr33     1.0000 0.99558  0.14610  0.49293  Biso   1.000  Zr
  Zr34     1.0000 0.99842  0.64780  0.99843  Biso   1.000  Zr
  Zr35     1.0000 0.99794  0.64566  0.49911  Biso   1.000  Zr
  Zr36     1.0000 0.49292  0.14610  0.99559  Biso   1.000  Zr
  Zr37     1.0000 0.49657  0.14629  0.49658  Biso   1.000  Zr
  Zr38     1.0000 0.49909  0.64566  0.99795  Biso   1.000  Zr
  Zr39     1.0000 0.49809  0.64608  0.49810  Biso   1.000  Zr
  Zr40     1.0000 0.00551  0.10212  0.24442  Biso   1.000  Zr
  Zr41     1.0000 0.00115  0.10430  0.74482  Biso   1.000  Zr
  Zr42     1.0000 0.00073  0.60198  0.24919  Biso   1.000  Zr
  Zr43     1.0000 0.00117  0.60404  0.74914  Biso   1.000  Zr
  Zr44     1.0000 0.50510  0.10429  0.24877  Biso   1.000  Zr
  Zr45     1.0000 0.50199  0.10380  0.74793  Biso   1.000  Zr
  Zr46     1.0000 0.50078  0.60404  0.24875  Biso   1.000  Zr
  Zr47     1.0000 0.50117  0.60411  0.74876  Biso   1.000  Zr
  Zr48     1.0000 0.99842  0.35221  0.25151  Biso   1.000  Zr
  Zr49     1.0000 0.99794  0.35434  0.75083  Biso   1.000  Zr
  Zr50     1.0000 0.99032  0.85009  0.25961  Biso   1.000  Zr
  Zr51     1.0000 0.99558  0.85390  0.75698  Biso   1.000  Zr
  Zr52     1.0000 0.49910  0.35434  0.25198  Biso   1.000  Zr
  Zr53     1.0000 0.49809  0.35392  0.75183  Biso   1.000  Zr
  Zr54     1.0000 0.49294  0.85390  0.25435  Biso   1.000  Zr
  Zr55     1.0000 0.49656  0.85372  0.75337  Biso   1.000  Zr
  Zr56     1.0000 0.00074  0.39803  0.00075  Biso   1.000  Zr
  Zr57     1.0000 0.00117  0.39596  0.50081  Biso   1.000  Zr
  Zr58     1.0000 0.00547  0.89789  0.00548  Biso   1.000  Zr
  Zr59     1.0000 0.00117  0.89570  0.50508  Biso   1.000  Zr
  Zr60     1.0000 0.50079  0.39596  0.00118  Biso   1.000  Zr
  Zr61     1.0000 0.50117  0.39589  0.50118  Biso   1.000  Zr
  Zr62     1.0000 0.50507  0.89570  0.00118  Biso   1.000  Zr
  Zr63     1.0000 0.50200  0.89620  0.50202  Biso   1.000  Zr
  Zr64     1.0000 0.25965  0.14993  0.25966  Biso   1.000  Zr
  Zr65     1.0000 0.25433  0.14610  0.75701  Biso   1.000  Zr
  Zr66     1.0000 0.25148  0.64779  0.25149  Biso   1.000  Zr
  Zr67     1.0000 0.25197  0.64566  0.75082  Biso   1.000  Zr
  Zr68     1.0000 0.75700  0.14610  0.25435  Biso   1.000  Zr
  Zr69     1.0000 0.75334  0.14629  0.75335  Biso   1.000  Zr
  Zr70     1.0000 0.75081  0.64566  0.25198  Biso   1.000  Zr
  Zr71     1.0000 0.75182  0.64608  0.75184  Biso   1.000  Zr
  Zr72     1.0000 0.24441  0.10213  0.00552  Biso   1.000  Zr
  Zr73     1.0000 0.24876  0.10430  0.50512  Biso   1.000  Zr
  Zr74     1.0000 0.24917  0.60198  0.00074  Biso   1.000  Zr
  Zr75     1.0000 0.24874  0.60404  0.50079  Biso   1.000  Zr
  Zr76     1.0000 0.74481  0.10430  0.00117  Biso   1.000  Zr
  Zr77     1.0000 0.74792  0.10380  0.50201  Biso   1.000  Zr
  Zr78     1.0000 0.74912  0.60404  0.00119  Biso   1.000  Zr
  Zr79     1.0000 0.74875  0.60411  0.50118  Biso   1.000  Zr
  Zr80     1.0000 0.25150  0.35221  0.99844  Biso   1.000  Zr
  Zr81     1.0000 0.25197  0.35434  0.49911  Biso   1.000  Zr
  Zr82     1.0000 0.25960  0.85008  0.99033  Biso   1.000  Zr
  Zr83     1.0000 0.25434  0.85390  0.49295  Biso   1.000  Zr
  Zr84     1.0000 0.75082  0.35434  0.99796  Biso   1.000  Zr
  Zr85     1.0000 0.75182  0.35392  0.49810  Biso   1.000  Zr
  Zr86     1.0000 0.75697  0.85390  0.99559  Biso   1.000  Zr
  Zr87     1.0000 0.75335  0.85372  0.49657  Biso   1.000  Zr
  Zr88     1.0000 0.24918  0.39803  0.24919  Biso   1.000  Zr
  Zr89     1.0000 0.24874  0.39596  0.74914  Biso   1.000  Zr
  Zr90     1.0000 0.24444  0.89789  0.24446  Biso   1.000  Zr
  Zr91     1.0000 0.24875  0.89570  0.74485  Biso   1.000  Zr
  Zr92     1.0000 0.74912  0.39596  0.24876  Biso   1.000  Zr
  Zr93     1.0000 0.74875  0.39589  0.74876  Biso   1.000  Zr
  Zr94     1.0000 0.74484  0.89570  0.24876  Biso   1.000  Zr
  Zr95     1.0000 0.74791  0.89620  0.74792  Biso   1.000  Zr
