data_image0
_cell_length_a       10.1986
_cell_length_b       10.3801
_cell_length_c       5.26272
_cell_angle_alpha    89.9518
_cell_angle_beta     90.2027
_cell_angle_gamma    90.2093

_symmetry_space_group_name_H-M    "P 1"
_symmetry_int_tables_number       1

loop_
  _symmetry_equiv_pos_as_xyz
  'x, y, z'

loop_
  _atom_site_label
  _atom_site_occupancy
  _atom_site_fract_x
  _atom_site_fract_y
  _atom_site_fract_z
  _atom_site_thermal_displace_type
  _atom_site_B_iso_or_equiv
  _atom_site_type_symbol
  Sr1      1.0000 0.13283  0.01112  0.32994  Biso   1.000  Sr
  Zr1      1.0000 0.14091  0.52013  0.34142  Biso   1.000  Zr
  Zr2      1.0000 0.13968  0.23029  0.84256  Biso   1.000  Zr
  Zr3      1.0000 0.14517  0.72764  0.83968  Biso   1.000  Zr
  Zr4      1.0000 0.35780  0.26672  0.34157  Biso   1.000  Zr
  Zr5      1.0000 0.36435  0.76833  0.33876  Biso   1.000  Zr
  Zr6      1.0000 0.36025  0.47632  0.84148  Biso   1.000  Zr
  Zr7      1.0000 0.36253  0.98006  0.83873  Biso   1.000  Zr
  Zr8      1.0000 0.63982  0.02111  0.16377  Biso   1.000  Zr
  Zr9      1.0000 0.63706  0.51822  0.15503  Biso   1.000  Zr
  Zr10     1.0000 0.63792  0.23026  0.65772  Biso   1.000  Zr
  Zr11     1.0000 0.63931  0.72730  0.65679  Biso   1.000  Zr
  Zr12     1.0000 0.85891  0.27290  0.15396  Biso   1.000  Zr
  Zr13     1.0000 0.86019  0.76557  0.15364  Biso   1.000  Zr
  Zr14     1.0000 0.86072  0.48044  0.65378  Biso   1.000  Zr
  Zr15     1.0000 0.85718  0.98133  0.67338  Biso   1.000  Zr
  O1       1.0000 0.03518  0.19747  0.18137  Biso   1.000  O
  O2       1.0000 0.03687  0.67215  0.17755  Biso   1.000  O
  O3       1.0000 0.02474  0.08172  0.72308  Biso   1.000  O
  O4       1.0000 0.03410  0.58165  0.67208  Biso   1.000  O
  O5       1.0000 0.46910  0.40976  0.16088  Biso   1.000  O
  O6       1.0000 0.47265  0.91347  0.16395  Biso   1.000  O
  O7       1.0000 0.46929  0.33762  0.66075  Biso   1.000  O
  O8       1.0000 0.47658  0.84008  0.65721  Biso   1.000  O
  O9       1.0000 0.28136  0.12935  0.60200  Biso   1.000  O
  O10      1.0000 0.27742  0.61943  0.58821  Biso   1.000  O
  O11      1.0000 0.28647  0.13302  0.07286  Biso   1.000  O
  O12      1.0000 0.27497  0.61925  0.09098  Biso   1.000  O
  O13      1.0000 0.22364  0.37392  0.58725  Biso   1.000  O
  O14      1.0000 0.23765  0.86137  0.59471  Biso   1.000  O
  O15      1.0000 0.22472  0.37757  0.08902  Biso   1.000  O
  O16      1.0000 0.24334  0.86131  0.07042  Biso   1.000  O
  O17      1.0000 0.53237  0.16375  0.33504  Biso   1.000  O
  O18      1.0000 0.53234  0.65882  0.33814  Biso   1.000  O
  O19      1.0000 0.53611  0.08412  0.83257  Biso   1.000  O
  O20      1.0000 0.52868  0.58774  0.83884  Biso   1.000  O
  O21      1.0000 0.96230  0.42739  0.31612  Biso   1.000  O
  O22      1.0000 0.93034  0.92007  0.32843  Biso   1.000  O
  O23      1.0000 0.96381  0.33462  0.81380  Biso   1.000  O
  O24      1.0000 0.97028  0.83154  0.82828  Biso   1.000  O
  O25      1.0000 0.77229  0.12708  0.91894  Biso   1.000  O
  O26      1.0000 0.77302  0.62209  0.90552  Biso   1.000  O
  O27      1.0000 0.77436  0.12817  0.41938  Biso   1.000  O
  O28      1.0000 0.77453  0.62643  0.40639  Biso   1.000  O
  O29      1.0000 0.72347  0.37638  0.90467  Biso   1.000  O
  O30      1.0000 0.72677  0.87317  0.91475  Biso   1.000  O
  O31      1.0000 0.72459  0.37660  0.40716  Biso   1.000  O
  O32      1.0000 0.71204  0.87520  0.41745  Biso   1.000  O
