data_image0
_cell_length_a       10.1384
_cell_length_b       10.3064
_cell_length_c       10.1362
_cell_angle_alpha    89.7397
_cell_angle_beta     90.0027
_cell_angle_gamma    90.0046

_symmetry_space_group_name_H-M    "P 1"
_symmetry_int_tables_number       1

loop_
  _symmetry_equiv_pos_as_xyz
  'x, y, z'

loop_
  _atom_site_label
  _atom_site_occupancy
  _atom_site_fract_x
  _atom_site_fract_y
  _atom_site_fract_z
  _atom_site_thermal_displace_type
  _atom_site_B_iso_or_equiv
  _atom_site_type_symbol
  Zr1      1.0000 0.13597  0.96910  0.09697  Biso   1.000  Zr
  Zr2      1.0000 0.12723  0.24740  0.38094  Biso   1.000  Zr
  Zr3      1.0000 0.38242  0.25029  0.10643  Biso   1.000  Zr
  Zr4      1.0000 0.37555  0.49578  0.35932  Biso   1.000  Zr
  Zr5      1.0000 0.96291  0.17569  0.26643  Biso   1.000  Zr
  Zr6      1.0000 0.00431  0.10495  0.49373  Biso   1.000  Zr
  Zr7      1.0000 0.49565  0.39942  0.22437  Biso   1.000  Zr
  Zr8      1.0000 0.49814  0.35445  0.47724  Biso   1.000  Zr
  Zr9      1.0000 0.23417  0.10042  0.23168  Biso   1.000  Zr
  Zr10     1.0000 0.26162  0.14243  0.48095  Biso   1.000  Zr
  Zr11     1.0000 0.25045  0.39500  0.48830  Biso   1.000  Zr
  Zr12     1.0000 0.25052  0.36254  0.24407  Biso   1.000  Zr
  Zr13     1.0000 0.12430  0.99240  0.61133  Biso   1.000  Zr
  Zr14     1.0000 0.12724  0.25318  0.83201  Biso   1.000  Zr
  Zr15     1.0000 0.38049  0.25029  0.60646  Biso   1.000  Zr
  Zr16     1.0000 0.37200  0.49624  0.86094  Biso   1.000  Zr
  Zr17     1.0000 0.99450  0.13941  0.73735  Biso   1.000  Zr
  Zr18     1.0000 0.98593  0.07979  0.00774  Biso   1.000  Zr
  Zr19     1.0000 0.50410  0.39752  0.72734  Biso   1.000  Zr
  Zr20     1.0000 0.48605  0.35121  0.96827  Biso   1.000  Zr
  Zr21     1.0000 0.25045  0.10556  0.72463  Biso   1.000  Zr
  Zr22     1.0000 0.25044  0.13792  0.96889  Biso   1.000  Zr
  Zr23     1.0000 0.23423  0.40006  0.98127  Biso   1.000  Zr
  Zr24     1.0000 0.26166  0.35811  0.73199  Biso   1.000  Zr
  Zr25     1.0000 0.13600  0.53144  0.11586  Biso   1.000  Zr
  Zr26     1.0000 0.12704  0.75939  0.36401  Biso   1.000  Zr
  Zr27     1.0000 0.38855  0.75026  0.10647  Biso   1.000  Zr
  Zr28     1.0000 0.37196  0.00432  0.35196  Biso   1.000  Zr
  Zr29     1.0000 0.01625  0.66529  0.22187  Biso   1.000  Zr
  Zr30     1.0000 0.00460  0.60825  0.47043  Biso   1.000  Zr
  Zr31     1.0000 0.50288  0.89855  0.22958  Biso   1.000  Zr
  Zr32     1.0000 0.49836  0.85401  0.47908  Biso   1.000  Zr
  Zr33     1.0000 0.26626  0.61527  0.23692  Biso   1.000  Zr
  Zr34     1.0000 0.25160  0.64732  0.48491  Biso   1.000  Zr
  Zr35     1.0000 0.24707  0.89728  0.47874  Biso   1.000  Zr
  Zr36     1.0000 0.25706  0.85339  0.22881  Biso   1.000  Zr
  Zr37     1.0000 0.12426  0.50817  0.60154  Biso   1.000  Zr
  Zr38     1.0000 0.12706  0.74114  0.84889  Biso   1.000  Zr
  Zr39     1.0000 0.37903  0.75025  0.60648  Biso   1.000  Zr
  Zr40     1.0000 0.37552  0.00474  0.85358  Biso   1.000  Zr
  Zr41     1.0000 0.99999  0.64447  0.72273  Biso   1.000  Zr
  Zr42     1.0000 0.00901  0.59081  0.96994  Biso   1.000  Zr
  Zr43     1.0000 0.50193  0.89605  0.73003  Biso   1.000  Zr
  Zr44     1.0000 0.51359  0.85128  0.98101  Biso   1.000  Zr
  Zr45     1.0000 0.24712  0.60328  0.73410  Biso   1.000  Zr
  Zr46     1.0000 0.25716  0.64712  0.98401  Biso   1.000  Zr
  Zr47     1.0000 0.26615  0.88521  0.97589  Biso   1.000  Zr
  Zr48     1.0000 0.25156  0.85324  0.72793  Biso   1.000  Zr
  Zr49     1.0000 0.62757  0.99306  0.09877  Biso   1.000  Zr
  Zr50     1.0000 0.62149  0.24744  0.35923  Biso   1.000  Zr
  Zr51     1.0000 0.84264  0.25027  0.10645  Biso   1.000  Zr
  Zr52     1.0000 0.87562  0.49698  0.35509  Biso   1.000  Zr
  Zr53     1.0000 0.48607  0.14931  0.24456  Biso   1.000  Zr
  Zr54     1.0000 0.50408  0.10303  0.48553  Biso   1.000  Zr
  Zr55     1.0000 0.98600  0.42079  0.20524  Biso   1.000  Zr
  Zr56     1.0000 0.99449  0.36114  0.47563  Biso   1.000  Zr
  Zr57     1.0000 0.73354  0.10520  0.22981  Biso   1.000  Zr
  Zr58     1.0000 0.75315  0.14967  0.47880  Biso   1.000  Zr
  Zr59     1.0000 0.75035  0.39765  0.48504  Biso   1.000  Zr
  Zr60     1.0000 0.73958  0.36274  0.23922  Biso   1.000  Zr
  Zr61     1.0000 0.62628  0.99877  0.60678  Biso   1.000  Zr
  Zr62     1.0000 0.62150  0.25311  0.85367  Biso   1.000  Zr
  Zr63     1.0000 0.87446  0.25026  0.60649  Biso   1.000  Zr
  Zr64     1.0000 0.87590  0.48857  0.85879  Biso   1.000  Zr
  Zr65     1.0000 0.49816  0.14609  0.73562  Biso   1.000  Zr
  Zr66     1.0000 0.49560  0.10114  0.98850  Biso   1.000  Zr
  Zr67     1.0000 0.00435  0.39561  0.71922  Biso   1.000  Zr
  Zr68     1.0000 0.96293  0.32488  0.94653  Biso   1.000  Zr
  Zr69     1.0000 0.75038  0.10289  0.72787  Biso   1.000  Zr
  Zr70     1.0000 0.73954  0.13784  0.97369  Biso   1.000  Zr
  Zr71     1.0000 0.73355  0.39538  0.98311  Biso   1.000  Zr
  Zr72     1.0000 0.75318  0.35090  0.73411  Biso   1.000  Zr
  Zr73     1.0000 0.62769  0.50755  0.11420  Biso   1.000  Zr
  Zr74     1.0000 0.62888  0.75656  0.35943  Biso   1.000  Zr
  Zr75     1.0000 0.87142  0.75040  0.10655  Biso   1.000  Zr
  Zr76     1.0000 0.87588  0.01200  0.35415  Biso   1.000  Zr
  Zr77     1.0000 0.51367  0.64928  0.23191  Biso   1.000  Zr
  Zr78     1.0000 0.50196  0.60450  0.48289  Biso   1.000  Zr
  Zr79     1.0000 0.00877  0.90970  0.24275  Biso   1.000  Zr
  Zr80     1.0000 0.99993  0.85612  0.49003  Biso   1.000  Zr
  Zr81     1.0000 0.76057  0.60991  0.22811  Biso   1.000  Zr
  Zr82     1.0000 0.75281  0.64808  0.47953  Biso   1.000  Zr
  Zr83     1.0000 0.74936  0.89932  0.48249  Biso   1.000  Zr
  Zr84     1.0000 0.75628  0.85798  0.23376  Biso   1.000  Zr
  Zr85     1.0000 0.62633  0.50181  0.60616  Biso   1.000  Zr
  Zr86     1.0000 0.62892  0.74399  0.85362  Biso   1.000  Zr
  Zr87     1.0000 0.87211  0.75033  0.60649  Biso   1.000  Zr
  Zr88     1.0000 0.87564  0.00351  0.85787  Biso   1.000  Zr
  Zr89     1.0000 0.49839  0.64654  0.73387  Biso   1.000  Zr
  Zr90     1.0000 0.50298  0.60199  0.98334  Biso   1.000  Zr
  Zr91     1.0000 0.00453  0.89231  0.74232  Biso   1.000  Zr
  Zr92     1.0000 0.01608  0.83534  0.99082  Biso   1.000  Zr
  Zr93     1.0000 0.74939  0.60126  0.73050  Biso   1.000  Zr
  Zr94     1.0000 0.75641  0.64264  0.97923  Biso   1.000  Zr
  Zr95     1.0000 0.76046  0.89071  0.98487  Biso   1.000  Zr
  Zr96     1.0000 0.75279  0.85248  0.73346  Biso   1.000  Zr
  Sr1      1.0000 0.10855  0.25027  0.10648  Biso   1.000  Sr
