data_image0
_cell_length_a       5.04591
_cell_length_b       10.2809
_cell_length_c       10.1549
_cell_angle_alpha    89.9978
_cell_angle_beta     90.001
_cell_angle_gamma    89.9973

_symmetry_space_group_name_H-M    "P 1"
_symmetry_int_tables_number       1

loop_
  _symmetry_equiv_pos_as_xyz
  'x, y, z'

loop_
  _atom_site_label
  _atom_site_occupancy
  _atom_site_fract_x
  _atom_site_fract_y
  _atom_site_fract_z
  _atom_site_thermal_displace_type
  _atom_site_B_iso_or_equiv
  _atom_site_type_symbol
  Sr1      1.0000 0.25255  0.00043  0.12543  Biso   1.000  Sr
  Zr1      1.0000 0.25257  0.00042  0.62543  Biso   1.000  Zr
  Zr2      1.0000 0.25254  0.50043  0.12543  Biso   1.000  Zr
  Zr3      1.0000 0.25255  0.50043  0.62542  Biso   1.000  Zr
  Zr4      1.0000 0.24953  0.25299  0.37703  Biso   1.000  Zr
  Zr5      1.0000 0.25560  0.25298  0.87385  Biso   1.000  Zr
  Zr6      1.0000 0.25560  0.74787  0.37704  Biso   1.000  Zr
  Zr7      1.0000 0.24953  0.74786  0.87385  Biso   1.000  Zr
  Zr8      1.0000 0.75257  0.25520  0.12544  Biso   1.000  Zr
  Zr9      1.0000 0.75256  0.24931  0.62544  Biso   1.000  Zr
  Zr10     1.0000 0.75257  0.74564  0.12544  Biso   1.000  Zr
  Zr11     1.0000 0.75257  0.75154  0.62545  Biso   1.000  Zr
  Zr12     1.0000 0.75256  0.00043  0.37749  Biso   1.000  Zr
  Zr13     1.0000 0.75255  0.00043  0.87337  Biso   1.000  Zr
  Zr14     1.0000 0.75253  0.50043  0.37597  Biso   1.000  Zr
  Zr15     1.0000 0.75254  0.50042  0.87489  Biso   1.000  Zr
  Zr16     1.0000 0.00080  0.15119  0.99621  Biso   1.000  Zr
  Zr17     1.0000 0.01897  0.14771  0.50980  Biso   1.000  Zr
  Zr18     1.0000 0.01861  0.63993  0.00530  Biso   1.000  Zr
  Zr19     1.0000 0.00570  0.64550  0.50519  Biso   1.000  Zr
  Zr20     1.0000 0.97638  0.12280  0.26448  Biso   1.000  Zr
  Zr21     1.0000 0.99376  0.10388  0.75132  Biso   1.000  Zr
  Zr22     1.0000 0.99150  0.60519  0.25224  Biso   1.000  Zr
  Zr23     1.0000 0.00219  0.60426  0.75394  Biso   1.000  Zr
  Zr24     1.0000 0.01861  0.36092  0.24557  Biso   1.000  Zr
  Zr25     1.0000 0.00569  0.35536  0.74568  Biso   1.000  Zr
  Zr26     1.0000 0.00078  0.84968  0.25466  Biso   1.000  Zr
  Zr27     1.0000 0.01898  0.85315  0.74106  Biso   1.000  Zr
  Zr28     1.0000 0.99153  0.39567  0.99863  Biso   1.000  Zr
  Zr29     1.0000 0.00221  0.39660  0.49692  Biso   1.000  Zr
  Zr30     1.0000 0.97636  0.87805  0.98638  Biso   1.000  Zr
  Zr31     1.0000 0.99377  0.89698  0.49954  Biso   1.000  Zr
  Zr32     1.0000 0.50433  0.15119  0.25465  Biso   1.000  Zr
  Zr33     1.0000 0.48617  0.14770  0.74107  Biso   1.000  Zr
  Zr34     1.0000 0.48649  0.63994  0.24556  Biso   1.000  Zr
  Zr35     1.0000 0.49943  0.64548  0.74568  Biso   1.000  Zr
  Zr36     1.0000 0.52877  0.12279  0.98639  Biso   1.000  Zr
  Zr37     1.0000 0.51137  0.10388  0.49955  Biso   1.000  Zr
  Zr38     1.0000 0.51362  0.60518  0.99863  Biso   1.000  Zr
  Zr39     1.0000 0.50292  0.60426  0.49693  Biso   1.000  Zr
  Zr40     1.0000 0.48652  0.36092  0.00529  Biso   1.000  Zr
  Zr41     1.0000 0.49943  0.35537  0.50518  Biso   1.000  Zr
  Zr42     1.0000 0.50432  0.84967  0.99620  Biso   1.000  Zr
  Zr43     1.0000 0.48617  0.85315  0.50981  Biso   1.000  Zr
  Zr44     1.0000 0.51361  0.39567  0.25224  Biso   1.000  Zr
  Zr45     1.0000 0.50292  0.39658  0.75393  Biso   1.000  Zr
  Zr46     1.0000 0.52875  0.87805  0.26450  Biso   1.000  Zr
  Zr47     1.0000 0.51139  0.89697  0.75132  Biso   1.000  Zr
