data_image0
_cell_length_a       10.1453
_cell_length_b       5.11099
_cell_length_c       10.1453
_cell_angle_alpha    89.9989
_cell_angle_beta     89.9992
_cell_angle_gamma    89.998

_symmetry_space_group_name_H-M    "P 1"
_symmetry_int_tables_number       1

loop_
  _symmetry_equiv_pos_as_xyz
  'x, y, z'

loop_
  _atom_site_label
  _atom_site_occupancy
  _atom_site_fract_x
  _atom_site_fract_y
  _atom_site_fract_z
  _atom_site_thermal_displace_type
  _atom_site_B_iso_or_equiv
  _atom_site_type_symbol
  Sr1      1.0000 0.12572  0.00046  0.12573  Biso   1.000  Sr
  Zr1      1.0000 0.12572  0.00045  0.62573  Biso   1.000  Zr
  Zr2      1.0000 0.62572  0.00046  0.12573  Biso   1.000  Zr
  Zr3      1.0000 0.62572  0.00045  0.62573  Biso   1.000  Zr
  Zr4      1.0000 0.12571  0.50045  0.37851  Biso   1.000  Zr
  Zr5      1.0000 0.12572  0.50045  0.87296  Biso   1.000  Zr
  Zr6      1.0000 0.62573  0.50045  0.37584  Biso   1.000  Zr
  Zr7      1.0000 0.62573  0.50045  0.87563  Biso   1.000  Zr
  Zr8      1.0000 0.37849  0.50047  0.12573  Biso   1.000  Zr
  Zr9      1.0000 0.37583  0.50045  0.62574  Biso   1.000  Zr
  Zr10     1.0000 0.87296  0.50045  0.12573  Biso   1.000  Zr
  Zr11     1.0000 0.87562  0.50045  0.62574  Biso   1.000  Zr
  Zr12     1.0000 0.37697  0.00264  0.37697  Biso   1.000  Zr
  Zr13     1.0000 0.37695  0.99827  0.87448  Biso   1.000  Zr
  Zr14     1.0000 0.87448  0.99826  0.37696  Biso   1.000  Zr
  Zr15     1.0000 0.87449  0.00264  0.87449  Biso   1.000  Zr
  Zr16     1.0000 0.99520  0.29206  0.99520  Biso   1.000  Zr
  Zr17     1.0000 0.00594  0.28957  0.50991  Biso   1.000  Zr
  Zr18     1.0000 0.50991  0.28957  0.00595  Biso   1.000  Zr
  Zr19     1.0000 0.50425  0.29220  0.50425  Biso   1.000  Zr
  Zr20     1.0000 0.98691  0.24133  0.26457  Biso   1.000  Zr
  Zr21     1.0000 0.99833  0.21057  0.75259  Biso   1.000  Zr
  Zr22     1.0000 0.49888  0.21058  0.25314  Biso   1.000  Zr
  Zr23     1.0000 0.49930  0.21020  0.75217  Biso   1.000  Zr
  Zr24     1.0000 0.99519  0.70885  0.25625  Biso   1.000  Zr
  Zr25     1.0000 0.00594  0.71133  0.74155  Biso   1.000  Zr
  Zr26     1.0000 0.50989  0.71134  0.24553  Biso   1.000  Zr
  Zr27     1.0000 0.50424  0.70870  0.74722  Biso   1.000  Zr
  Zr28     1.0000 0.98690  0.75958  0.98691  Biso   1.000  Zr
  Zr29     1.0000 0.99832  0.79033  0.49887  Biso   1.000  Zr
  Zr30     1.0000 0.49886  0.79033  0.99833  Biso   1.000  Zr
  Zr31     1.0000 0.49929  0.79071  0.49930  Biso   1.000  Zr
  Zr32     1.0000 0.25625  0.29207  0.25626  Biso   1.000  Zr
  Zr33     1.0000 0.24553  0.28953  0.74157  Biso   1.000  Zr
  Zr34     1.0000 0.74156  0.28953  0.24553  Biso   1.000  Zr
  Zr35     1.0000 0.74721  0.29220  0.74722  Biso   1.000  Zr
  Zr36     1.0000 0.26456  0.24133  0.98691  Biso   1.000  Zr
  Zr37     1.0000 0.25313  0.21057  0.49888  Biso   1.000  Zr
  Zr38     1.0000 0.75258  0.21057  0.99834  Biso   1.000  Zr
  Zr39     1.0000 0.75217  0.21020  0.49930  Biso   1.000  Zr
  Zr40     1.0000 0.25625  0.70885  0.99520  Biso   1.000  Zr
  Zr41     1.0000 0.24552  0.71133  0.50991  Biso   1.000  Zr
  Zr42     1.0000 0.74155  0.71134  0.00594  Biso   1.000  Zr
  Zr43     1.0000 0.74721  0.70870  0.50425  Biso   1.000  Zr
  Zr44     1.0000 0.26454  0.75959  0.26455  Biso   1.000  Zr
  Zr45     1.0000 0.25313  0.79030  0.75258  Biso   1.000  Zr
  Zr46     1.0000 0.75257  0.79030  0.25314  Biso   1.000  Zr
  Zr47     1.0000 0.75216  0.79070  0.75217  Biso   1.000  Zr
