data_image0
_cell_length_a       10.0144
_cell_length_b       10.4042
_cell_length_c       5.02765
_cell_angle_alpha    89.9052
_cell_angle_beta     89.7989
_cell_angle_gamma    89.9519

_symmetry_space_group_name_H-M    "P 1"
_symmetry_int_tables_number       1

loop_
  _symmetry_equiv_pos_as_xyz
  'x, y, z'

loop_
  _atom_site_label
  _atom_site_occupancy
  _atom_site_fract_x
  _atom_site_fract_y
  _atom_site_fract_z
  _atom_site_thermal_displace_type
  _atom_site_B_iso_or_equiv
  _atom_site_type_symbol
  Ta1      1.0000 0.13460  0.01912  0.25929  Biso   1.000  Ta
  Zr1      1.0000 0.13383  0.51549  0.25168  Biso   1.000  Zr
  Zr2      1.0000 0.63450  0.01512  0.24954  Biso   1.000  Zr
  Zr3      1.0000 0.63432  0.51597  0.25094  Biso   1.000  Zr
  Zr4      1.0000 0.13329  0.23318  0.75327  Biso   1.000  Zr
  Zr5      1.0000 0.13320  0.73483  0.75065  Biso   1.000  Zr
  Zr6      1.0000 0.63372  0.23315  0.75018  Biso   1.000  Zr
  Zr7      1.0000 0.63413  0.73489  0.74894  Biso   1.000  Zr
  Zr8      1.0000 0.36735  0.26683  0.24972  Biso   1.000  Zr
  Zr9      1.0000 0.36588  0.76663  0.25137  Biso   1.000  Zr
  Zr10     1.0000 0.86584  0.26435  0.25101  Biso   1.000  Zr
  Zr11     1.0000 0.86712  0.76573  0.24628  Biso   1.000  Zr
  Zr12     1.0000 0.36584  0.48506  0.75076  Biso   1.000  Zr
  Zr13     1.0000 0.36451  0.98361  0.75205  Biso   1.000  Zr
  Zr14     1.0000 0.86598  0.48392  0.75064  Biso   1.000  Zr
  Zr15     1.0000 0.86963  0.98462  0.74986  Biso   1.000  Zr
  Zr16     1.0000 0.03694  0.17916  0.39921  Biso   1.000  Zr
  Zr17     1.0000 0.03561  0.68318  0.38722  Biso   1.000  Zr
  Zr18     1.0000 0.53657  0.18370  0.38750  Biso   1.000  Zr
  Zr19     1.0000 0.53521  0.68415  0.38866  Biso   1.000  Zr
  Zr20     1.0000 0.03253  0.06657  0.92740  Biso   1.000  Zr
  Zr21     1.0000 0.03527  0.56607  0.88919  Biso   1.000  Zr
  Zr22     1.0000 0.53344  0.06628  0.88957  Biso   1.000  Zr
  Zr23     1.0000 0.53573  0.56633  0.88796  Biso   1.000  Zr
  Zr24     1.0000 0.46386  0.43421  0.38736  Biso   1.000  Zr
  Zr25     1.0000 0.46473  0.93299  0.39048  Biso   1.000  Zr
  Zr26     1.0000 0.96517  0.43127  0.39105  Biso   1.000  Zr
  Zr27     1.0000 0.97138  0.93412  0.38083  Biso   1.000  Zr
  Zr28     1.0000 0.46373  0.31588  0.88641  Biso   1.000  Zr
  Zr29     1.0000 0.46108  0.81583  0.88766  Biso   1.000  Zr
  Zr30     1.0000 0.96544  0.31585  0.89272  Biso   1.000  Zr
  Zr31     1.0000 0.96196  0.81537  0.88219  Biso   1.000  Zr
  Zr32     1.0000 0.27172  0.11671  0.48801  Biso   1.000  Zr
  Zr33     1.0000 0.26957  0.61831  0.49816  Biso   1.000  Zr
  Zr34     1.0000 0.77085  0.11617  0.49591  Biso   1.000  Zr
  Zr35     1.0000 0.76940  0.61695  0.49806  Biso   1.000  Zr
  Zr36     1.0000 0.26636  0.13008  0.99943  Biso   1.000  Zr
  Zr37     1.0000 0.26908  0.63375  0.99805  Biso   1.000  Zr
  Zr38     1.0000 0.76938  0.13223  0.99547  Biso   1.000  Zr
  Zr39     1.0000 0.76913  0.63255  0.99763  Biso   1.000  Zr
  Zr40     1.0000 0.23052  0.38253  0.99846  Biso   1.000  Zr
  Zr41     1.0000 0.22319  0.88654  0.00325  Biso   1.000  Zr
  Zr42     1.0000 0.73056  0.38185  0.99867  Biso   1.000  Zr
  Zr43     1.0000 0.72900  0.88311  0.99146  Biso   1.000  Zr
  Zr44     1.0000 0.23048  0.36668  0.49907  Biso   1.000  Zr
  Zr45     1.0000 0.22677  0.87043  0.49301  Biso   1.000  Zr
  Zr46     1.0000 0.73014  0.36687  0.49793  Biso   1.000  Zr
  Zr47     1.0000 0.73300  0.86765  0.49337  Biso   1.000  Zr
