data_image0
_cell_length_a       10.0206
_cell_length_b       10.4083
_cell_length_c       10.0502
_cell_angle_alpha    89.9009
_cell_angle_beta     89.9385
_cell_angle_gamma    90.0174

_symmetry_space_group_name_H-M    "P 1"
_symmetry_int_tables_number       1

loop_
  _symmetry_equiv_pos_as_xyz
  'x, y, z'

loop_
  _atom_site_label
  _atom_site_occupancy
  _atom_site_fract_x
  _atom_site_fract_y
  _atom_site_fract_z
  _atom_site_thermal_displace_type
  _atom_site_B_iso_or_equiv
  _atom_site_type_symbol
  Tc1      1.0000 0.13654  0.02090  0.12154  Biso   1.000  Tc
  Zr1      1.0000 0.13253  0.23290  0.37441  Biso   1.000  Zr
  Zr2      1.0000 0.36659  0.26622  0.12534  Biso   1.000  Zr
  Zr3      1.0000 0.36642  0.48491  0.37585  Biso   1.000  Zr
  Zr4      1.0000 0.03500  0.17715  0.19702  Biso   1.000  Zr
  Zr5      1.0000 0.03379  0.06814  0.45102  Biso   1.000  Zr
  Zr6      1.0000 0.46435  0.43421  0.19364  Biso   1.000  Zr
  Zr7      1.0000 0.46439  0.31702  0.44413  Biso   1.000  Zr
  Zr8      1.0000 0.26519  0.11517  0.24435  Biso   1.000  Zr
  Zr9      1.0000 0.26987  0.13340  0.49724  Biso   1.000  Zr
  Zr10     1.0000 0.23026  0.38310  0.49906  Biso   1.000  Zr
  Zr11     1.0000 0.23137  0.36703  0.24944  Biso   1.000  Zr
  Zr12     1.0000 0.13445  0.01573  0.62681  Biso   1.000  Zr
  Zr13     1.0000 0.13480  0.23402  0.87811  Biso   1.000  Zr
  Zr14     1.0000 0.36602  0.26611  0.62542  Biso   1.000  Zr
  Zr15     1.0000 0.36592  0.48472  0.87526  Biso   1.000  Zr
  Zr16     1.0000 0.03298  0.18065  0.70265  Biso   1.000  Zr
  Zr17     1.0000 0.03602  0.06531  0.95972  Biso   1.000  Zr
  Zr18     1.0000 0.46372  0.43434  0.69363  Biso   1.000  Zr
  Zr19     1.0000 0.46246  0.31472  0.94327  Biso   1.000  Zr
  Zr20     1.0000 0.26984  0.11745  0.74975  Biso   1.000  Zr
  Zr21     1.0000 0.26995  0.12869  0.00079  Biso   1.000  Zr
  Zr22     1.0000 0.23006  0.38205  0.99948  Biso   1.000  Zr
  Zr23     1.0000 0.22962  0.36650  0.74977  Biso   1.000  Zr
  Zr24     1.0000 0.13461  0.51562  0.12644  Biso   1.000  Zr
  Zr25     1.0000 0.13370  0.73602  0.37477  Biso   1.000  Zr
  Zr26     1.0000 0.36371  0.76793  0.12632  Biso   1.000  Zr
  Zr27     1.0000 0.36484  0.98461  0.37400  Biso   1.000  Zr
  Zr28     1.0000 0.03615  0.68178  0.19421  Biso   1.000  Zr
  Zr29     1.0000 0.03556  0.56691  0.44374  Biso   1.000  Zr
  Zr30     1.0000 0.46516  0.93318  0.19492  Biso   1.000  Zr
  Zr31     1.0000 0.46400  0.81669  0.44289  Biso   1.000  Zr
  Zr32     1.0000 0.27044  0.61923  0.24924  Biso   1.000  Zr
  Zr33     1.0000 0.26944  0.63354  0.49862  Biso   1.000  Zr
  Zr34     1.0000 0.23059  0.88344  0.49917  Biso   1.000  Zr
  Zr35     1.0000 0.22634  0.87262  0.24726  Biso   1.000  Zr
  Zr36     1.0000 0.13348  0.51572  0.62505  Biso   1.000  Zr
  Zr37     1.0000 0.13314  0.73378  0.87587  Biso   1.000  Zr
  Zr38     1.0000 0.36643  0.76587  0.62520  Biso   1.000  Zr
  Zr39     1.0000 0.36471  0.98292  0.87728  Biso   1.000  Zr
  Zr40     1.0000 0.03520  0.68340  0.69404  Biso   1.000  Zr
  Zr41     1.0000 0.03548  0.56528  0.94530  Biso   1.000  Zr
  Zr42     1.0000 0.46396  0.93399  0.69447  Biso   1.000  Zr
  Zr43     1.0000 0.46181  0.81554  0.94447  Biso   1.000  Zr
  Zr44     1.0000 0.26929  0.61694  0.74875  Biso   1.000  Zr
  Zr45     1.0000 0.26999  0.63272  0.99907  Biso   1.000  Zr
  Zr46     1.0000 0.22404  0.88343  0.00196  Biso   1.000  Zr
  Zr47     1.0000 0.23082  0.86657  0.74999  Biso   1.000  Zr
  Zr48     1.0000 0.63376  0.01563  0.12480  Biso   1.000  Zr
  Zr49     1.0000 0.63381  0.23434  0.37578  Biso   1.000  Zr
  Zr50     1.0000 0.86687  0.26402  0.12562  Biso   1.000  Zr
  Zr51     1.0000 0.86621  0.48438  0.37550  Biso   1.000  Zr
  Zr52     1.0000 0.53430  0.18325  0.19503  Biso   1.000  Zr
  Zr53     1.0000 0.53478  0.06649  0.44359  Biso   1.000  Zr
  Zr54     1.0000 0.96655  0.43021  0.19571  Biso   1.000  Zr
  Zr55     1.0000 0.96494  0.31630  0.44580  Biso   1.000  Zr
  Zr56     1.0000 0.76847  0.11709  0.24816  Biso   1.000  Zr
  Zr57     1.0000 0.76979  0.13337  0.49803  Biso   1.000  Zr
  Zr58     1.0000 0.73052  0.38320  0.49905  Biso   1.000  Zr
  Zr59     1.0000 0.73089  0.36691  0.24874  Biso   1.000  Zr
  Zr60     1.0000 0.63347  0.01521  0.62412  Biso   1.000  Zr
  Zr61     1.0000 0.63330  0.23380  0.87483  Biso   1.000  Zr
  Zr62     1.0000 0.86624  0.26464  0.62597  Biso   1.000  Zr
  Zr63     1.0000 0.86582  0.48402  0.87554  Biso   1.000  Zr
  Zr64     1.0000 0.53605  0.18435  0.69296  Biso   1.000  Zr
  Zr65     1.0000 0.53509  0.06579  0.94410  Biso   1.000  Zr
  Zr66     1.0000 0.96429  0.43293  0.69439  Biso   1.000  Zr
  Zr67     1.0000 0.96464  0.31524  0.94507  Biso   1.000  Zr
  Zr68     1.0000 0.76875  0.11613  0.74863  Biso   1.000  Zr
  Zr69     1.0000 0.76940  0.13287  0.99816  Biso   1.000  Zr
  Zr70     1.0000 0.73017  0.38222  0.99899  Biso   1.000  Zr
  Zr71     1.0000 0.73040  0.36666  0.74871  Biso   1.000  Zr
  Zr72     1.0000 0.63458  0.51652  0.12558  Biso   1.000  Zr
  Zr73     1.0000 0.63469  0.73551  0.37361  Biso   1.000  Zr
  Zr74     1.0000 0.86987  0.76730  0.12369  Biso   1.000  Zr
  Zr75     1.0000 0.87008  0.98583  0.37215  Biso   1.000  Zr
  Zr76     1.0000 0.53592  0.68485  0.19286  Biso   1.000  Zr
  Zr77     1.0000 0.53623  0.56723  0.44357  Biso   1.000  Zr
  Zr78     1.0000 0.97372  0.93319  0.19127  Biso   1.000  Zr
  Zr79     1.0000 0.96535  0.81739  0.44476  Biso   1.000  Zr
  Zr80     1.0000 0.77064  0.61726  0.24850  Biso   1.000  Zr
  Zr81     1.0000 0.76964  0.63378  0.49854  Biso   1.000  Zr
  Zr82     1.0000 0.73155  0.88423  0.49655  Biso   1.000  Zr
  Zr83     1.0000 0.73501  0.86791  0.24658  Biso   1.000  Zr
  Zr84     1.0000 0.63399  0.51611  0.62509  Biso   1.000  Zr
  Zr85     1.0000 0.63359  0.73430  0.87558  Biso   1.000  Zr
  Zr86     1.0000 0.86608  0.76629  0.62526  Biso   1.000  Zr
  Zr87     1.0000 0.86682  0.98451  0.87577  Biso   1.000  Zr
  Zr88     1.0000 0.53582  0.68426  0.69411  Biso   1.000  Zr
  Zr89     1.0000 0.53642  0.56522  0.94293  Biso   1.000  Zr
  Zr90     1.0000 0.96575  0.93327  0.69677  Biso   1.000  Zr
  Zr91     1.0000 0.96178  0.81489  0.94056  Biso   1.000  Zr
  Zr92     1.0000 0.76941  0.61707  0.74885  Biso   1.000  Zr
  Zr93     1.0000 0.76993  0.63309  0.99871  Biso   1.000  Zr
  Zr94     1.0000 0.72974  0.88361  0.99723  Biso   1.000  Zr
  Zr95     1.0000 0.73037  0.86733  0.74818  Biso   1.000  Zr
