data_image0
_cell_length_a       10.0803
_cell_length_b       5.02761
_cell_length_c       10.0805
_cell_angle_alpha    90.0001
_cell_angle_beta     90
_cell_angle_gamma    90

_symmetry_space_group_name_H-M    "P 1"
_symmetry_int_tables_number       1

loop_
  _symmetry_equiv_pos_as_xyz
  'x, y, z'

loop_
  _atom_site_label
  _atom_site_occupancy
  _atom_site_fract_x
  _atom_site_fract_y
  _atom_site_fract_z
  _atom_site_thermal_displace_type
  _atom_site_B_iso_or_equiv
  _atom_site_type_symbol
  Tc1      1.0000 0.12540  0.00015  0.12540  Biso   1.000  Tc
  Zr1      1.0000 0.12540  0.50015  0.37391  Biso   1.000  Zr
  Zr2      1.0000 0.37391  0.50015  0.12540  Biso   1.000  Zr
  Zr3      1.0000 0.37425  0.00173  0.37425  Biso   1.000  Zr
  Zr4      1.0000 0.98931  0.26860  0.98929  Biso   1.000  Zr
  Zr5      1.0000 0.01493  0.23073  0.23584  Biso   1.000  Zr
  Zr6      1.0000 0.98931  0.73171  0.26150  Biso   1.000  Zr
  Zr7      1.0000 0.01493  0.76958  0.01495  Biso   1.000  Zr
  Zr8      1.0000 0.26148  0.26860  0.26150  Biso   1.000  Zr
  Zr9      1.0000 0.23587  0.23073  0.01495  Biso   1.000  Zr
  Zr10     1.0000 0.26148  0.73171  0.98929  Biso   1.000  Zr
  Zr11     1.0000 0.23587  0.76958  0.23584  Biso   1.000  Zr
  Zr12     1.0000 0.12540  0.00015  0.62540  Biso   1.000  Zr
  Zr13     1.0000 0.12540  0.50015  0.87689  Biso   1.000  Zr
  Zr14     1.0000 0.37600  0.50015  0.62540  Biso   1.000  Zr
  Zr15     1.0000 0.37425  0.99857  0.87655  Biso   1.000  Zr
  Zr16     1.0000 0.98740  0.26925  0.48505  Biso   1.000  Zr
  Zr17     1.0000 0.01068  0.23924  0.73894  Biso   1.000  Zr
  Zr18     1.0000 0.98740  0.73105  0.76574  Biso   1.000  Zr
  Zr19     1.0000 0.01068  0.76107  0.51186  Biso   1.000  Zr
  Zr20     1.0000 0.26340  0.26925  0.76574  Biso   1.000  Zr
  Zr21     1.0000 0.24011  0.23923  0.51186  Biso   1.000  Zr
  Zr22     1.0000 0.26339  0.73105  0.48505  Biso   1.000  Zr
  Zr23     1.0000 0.24011  0.76107  0.73894  Biso   1.000  Zr
  Zr24     1.0000 0.62540  0.00015  0.12540  Biso   1.000  Zr
  Zr25     1.0000 0.62540  0.50015  0.37600  Biso   1.000  Zr
  Zr26     1.0000 0.87689  0.50015  0.12540  Biso   1.000  Zr
  Zr27     1.0000 0.87655  0.99857  0.37425  Biso   1.000  Zr
  Zr28     1.0000 0.48507  0.26926  0.98737  Biso   1.000  Zr
  Zr29     1.0000 0.51183  0.23923  0.24008  Biso   1.000  Zr
  Zr30     1.0000 0.48507  0.73104  0.26342  Biso   1.000  Zr
  Zr31     1.0000 0.51183  0.76107  0.01071  Biso   1.000  Zr
  Zr32     1.0000 0.76572  0.26926  0.26342  Biso   1.000  Zr
  Zr33     1.0000 0.73896  0.23923  0.01071  Biso   1.000  Zr
  Zr34     1.0000 0.76572  0.73104  0.98737  Biso   1.000  Zr
  Zr35     1.0000 0.73896  0.76107  0.24008  Biso   1.000  Zr
  Zr36     1.0000 0.62540  0.00015  0.62540  Biso   1.000  Zr
  Zr37     1.0000 0.62540  0.50015  0.87479  Biso   1.000  Zr
  Zr38     1.0000 0.87479  0.50015  0.62540  Biso   1.000  Zr
  Zr39     1.0000 0.87655  0.00173  0.87655  Biso   1.000  Zr
  Zr40     1.0000 0.48767  0.26577  0.48765  Biso   1.000  Zr
  Zr41     1.0000 0.51124  0.24142  0.73953  Biso   1.000  Zr
  Zr42     1.0000 0.48767  0.73453  0.76314  Biso   1.000  Zr
  Zr43     1.0000 0.51124  0.75889  0.51126  Biso   1.000  Zr
  Zr44     1.0000 0.76312  0.26577  0.76314  Biso   1.000  Zr
  Zr45     1.0000 0.73956  0.24142  0.51126  Biso   1.000  Zr
  Zr46     1.0000 0.76312  0.73453  0.48765  Biso   1.000  Zr
  Zr47     1.0000 0.73956  0.75889  0.73953  Biso   1.000  Zr
