data_image0
_cell_length_a       10.1338
_cell_length_b       10.3332
_cell_length_c       10.56
_cell_angle_alpha    89.7556
_cell_angle_beta     90.4569
_cell_angle_gamma    89.9257

_symmetry_space_group_name_H-M    "P 1"
_symmetry_int_tables_number       1

loop_
  _symmetry_equiv_pos_as_xyz
  'x, y, z'

loop_
  _atom_site_label
  _atom_site_occupancy
  _atom_site_fract_x
  _atom_site_fract_y
  _atom_site_fract_z
  _atom_site_thermal_displace_type
  _atom_site_B_iso_or_equiv
  _atom_site_type_symbol
  Zr1      1.0000 0.14000  0.02047  0.17145  Biso   1.000  Zr
  Zr2      1.0000 0.13652  0.22988  0.42226  Biso   1.000  Zr
  Zr3      1.0000 0.35805  0.26777  0.17639  Biso   1.000  Zr
  Zr4      1.0000 0.36020  0.48047  0.42332  Biso   1.000  Zr
  Zr5      1.0000 0.63755  0.01305  0.06931  Biso   1.000  Zr
  Zr6      1.0000 0.63180  0.22999  0.33999  Biso   1.000  Zr
  Zr7      1.0000 0.87566  0.27190  0.07408  Biso   1.000  Zr
  Zr8      1.0000 0.86272  0.48110  0.33139  Biso   1.000  Zr
  O1       1.0000 0.03777  0.16133  0.07699  Biso   1.000  O
  O2       1.0000 0.02542  0.09293  0.32594  Biso   1.000  O
  O3       1.0000 0.47088  0.41578  0.08318  Biso   1.000  O
  O4       1.0000 0.46124  0.33382  0.33985  Biso   1.000  O
  O5       1.0000 0.26854  0.12440  0.29808  Biso   1.000  O
  O6       1.0000 0.27713  0.12238  0.04398  Biso   1.000  O
  O7       1.0000 0.22183  0.37569  0.29642  Biso   1.000  O
  O8       1.0000 0.22621  0.37525  0.04400  Biso   1.000  O
  O9       1.0000 0.51011  0.13184  0.18752  Biso   1.000  O
  O10      1.0000 0.52778  0.08858  0.43016  Biso   1.000  O
  O11      1.0000 0.97002  0.41428  0.17021  Biso   1.000  O
  O12      1.0000 0.96720  0.33880  0.42045  Biso   1.000  O
  O13      1.0000 0.77641  0.12242  0.45323  Biso   1.000  O
  O14      1.0000 0.75529  0.14250  0.19148  Biso   1.000  O
  O15      1.0000 0.72493  0.37399  0.46140  Biso   1.000  O
  O16      1.0000 0.72261  0.39057  0.21253  Biso   1.000  O
  Zr9      1.0000 0.13999  0.02100  0.67024  Biso   1.000  Zr
  Zr10     1.0000 0.14517  0.22675  0.91821  Biso   1.000  Zr
  Zr11     1.0000 0.36441  0.27065  0.67175  Biso   1.000  Zr
  Zr12     1.0000 0.36152  0.47837  0.91946  Biso   1.000  Zr
  Zr13     1.0000 0.63895  0.02089  0.58140  Biso   1.000  Zr
  Zr14     1.0000 0.64083  0.22457  0.83299  Biso   1.000  Zr
  Zr15     1.0000 0.86116  0.27042  0.58132  Biso   1.000  Zr
  Zr16     1.0000 0.86287  0.47926  0.82881  Biso   1.000  Zr
  O17      1.0000 0.03142  0.16262  0.58034  Biso   1.000  O
  O18      1.0000 0.03662  0.08575  0.82932  Biso   1.000  O
  O19      1.0000 0.46849  0.41534  0.58451  Biso   1.000  O
  O20      1.0000 0.46966  0.33610  0.83449  Biso   1.000  O
  O21      1.0000 0.27819  0.12315  0.79390  Biso   1.000  O
  O22      1.0000 0.27453  0.12602  0.54575  Biso   1.000  O
  O23      1.0000 0.22675  0.37346  0.79388  Biso   1.000  O
  O24      1.0000 0.22476  0.37596  0.54571  Biso   1.000  O
  O25      1.0000 0.53323  0.16356  0.67085  Biso   1.000  O
  O26      1.0000 0.53267  0.07208  0.90783  Biso   1.000  O
  O27      1.0000 0.96786  0.41408  0.66796  Biso   1.000  O
  O28      1.0000 0.97327  0.33683  0.91440  Biso   1.000  O
  O29      1.0000 0.78969  0.11771  0.94650  Biso   1.000  O
  O30      1.0000 0.77703  0.12415  0.70214  Biso   1.000  O
  O31      1.0000 0.72584  0.37525  0.96414  Biso   1.000  O
  O32      1.0000 0.72625  0.37501  0.71076  Biso   1.000  O
  Zr17     1.0000 0.14061  0.52081  0.17160  Biso   1.000  Zr
  Zr18     1.0000 0.13787  0.72952  0.42092  Biso   1.000  Zr
  Zr19     1.0000 0.35957  0.77166  0.17254  Biso   1.000  Zr
  Zr20     1.0000 0.36133  0.97884  0.42379  Biso   1.000  Zr
  Zr21     1.0000 0.64279  0.53612  0.07891  Biso   1.000  Zr
  Zr22     1.0000 0.63881  0.73148  0.33023  Biso   1.000  Zr
  Zr23     1.0000 0.86559  0.77383  0.07890  Biso   1.000  Zr
  Zr24     1.0000 0.86082  0.97981  0.32832  Biso   1.000  Zr
  O33      1.0000 0.03326  0.66290  0.08116  Biso   1.000  O
  O34      1.0000 0.03205  0.58868  0.33066  Biso   1.000  O
  O35      1.0000 0.46719  0.90446  0.07595  Biso   1.000  O
  O36      1.0000 0.46842  0.83957  0.33132  Biso   1.000  O
  O37      1.0000 0.27455  0.62508  0.29605  Biso   1.000  O
  O38      1.0000 0.27709  0.62395  0.04553  Biso   1.000  O
  O39      1.0000 0.22391  0.87459  0.29587  Biso   1.000  O
  O40      1.0000 0.22221  0.87357  0.04632  Biso   1.000  O
  O41      1.0000 0.53111  0.66564  0.17160  Biso   1.000  O
  O42      1.0000 0.53205  0.58721  0.41907  Biso   1.000  O
  O43      1.0000 0.96779  0.91714  0.16730  Biso   1.000  O
  O44      1.0000 0.96667  0.83943  0.41620  Biso   1.000  O
  O45      1.0000 0.77543  0.62466  0.45488  Biso   1.000  O
  O46      1.0000 0.77838  0.63420  0.20542  Biso   1.000  O
  O47      1.0000 0.72421  0.87474  0.45577  Biso   1.000  O
  O48      1.0000 0.72702  0.87944  0.20588  Biso   1.000  O
  Zr25     1.0000 0.13830  0.52053  0.67034  Biso   1.000  Zr
  Zr26     1.0000 0.13965  0.72721  0.92116  Biso   1.000  Zr
  Zr27     1.0000 0.36186  0.76978  0.67118  Biso   1.000  Zr
  Zr28     1.0000 0.35984  0.97423  0.92007  Biso   1.000  Zr
  Zr29     1.0000 0.63948  0.52061  0.57972  Biso   1.000  Zr
  Zr30     1.0000 0.63954  0.72869  0.82601  Biso   1.000  Zr
  Zr31     1.0000 0.86156  0.77181  0.57842  Biso   1.000  Zr
  Zr32     1.0000 0.86525  0.97779  0.82698  Biso   1.000  Zr
  O49      1.0000 0.03139  0.66362  0.57971  Biso   1.000  O
  O50      1.0000 0.03229  0.58647  0.82994  Biso   1.000  O
  O51      1.0000 0.46862  0.91119  0.58315  Biso   1.000  O
  O52      1.0000 0.46778  0.83201  0.82994  Biso   1.000  O
  O53      1.0000 0.27542  0.62229  0.79477  Biso   1.000  O
  O54      1.0000 0.27372  0.62579  0.54519  Biso   1.000  O
  O55      1.0000 0.22487  0.87210  0.79447  Biso   1.000  O
  O56      1.0000 0.22514  0.87561  0.54457  Biso   1.000  O
  O57      1.0000 0.53223  0.66234  0.66767  Biso   1.000  O
  O58      1.0000 0.53267  0.58812  0.91874  Biso   1.000  O
  O59      1.0000 0.97049  0.91289  0.66505  Biso   1.000  O
  O60      1.0000 0.97184  0.83626  0.91810  Biso   1.000  O
  O61      1.0000 0.77861  0.62567  0.95323  Biso   1.000  O
  O62      1.0000 0.77659  0.62514  0.70392  Biso   1.000  O
  O63      1.0000 0.72796  0.87020  0.95318  Biso   1.000  O
  O64      1.0000 0.72685  0.87418  0.70477  Biso   1.000  O
  Tc1      1.0000 0.61098  0.27016  0.10058  Biso   1.000  Tc
