data_image0
_cell_length_a       10.0104
_cell_length_b       10.3891
_cell_length_c       5.01641
_cell_angle_alpha    89.7771
_cell_angle_beta     89.8246
_cell_angle_gamma    90.0439

_symmetry_space_group_name_H-M    "P 1"
_symmetry_int_tables_number       1

loop_
  _symmetry_equiv_pos_as_xyz
  'x, y, z'

loop_
  _atom_site_label
  _atom_site_occupancy
  _atom_site_fract_x
  _atom_site_fract_y
  _atom_site_fract_z
  _atom_site_thermal_displace_type
  _atom_site_B_iso_or_equiv
  _atom_site_type_symbol
  Tc1      1.0000 0.13594  0.02124  0.25093  Biso   1.000  Tc
  Zr1      1.0000 0.13381  0.23242  0.75564  Biso   1.000  Zr
  Zr2      1.0000 0.36641  0.26647  0.25010  Biso   1.000  Zr
  Zr3      1.0000 0.36624  0.48532  0.75107  Biso   1.000  Zr
  Zr4      1.0000 0.03123  0.17366  0.41436  Biso   1.000  Zr
  Zr5      1.0000 0.03470  0.06666  0.93432  Biso   1.000  Zr
  Zr6      1.0000 0.46352  0.43486  0.38558  Biso   1.000  Zr
  Zr7      1.0000 0.46247  0.31551  0.88537  Biso   1.000  Zr
  Zr8      1.0000 0.26695  0.11586  0.48873  Biso   1.000  Zr
  Zr9      1.0000 0.26968  0.12903  0.99793  Biso   1.000  Zr
  Zr10     1.0000 0.23000  0.38229  0.99939  Biso   1.000  Zr
  Zr11     1.0000 0.23038  0.36621  0.50074  Biso   1.000  Zr
  Zr12     1.0000 0.13420  0.51560  0.25237  Biso   1.000  Zr
  Zr13     1.0000 0.13343  0.73555  0.75096  Biso   1.000  Zr
  Zr14     1.0000 0.36409  0.76817  0.25225  Biso   1.000  Zr
  Zr15     1.0000 0.36321  0.98320  0.75250  Biso   1.000  Zr
  Zr16     1.0000 0.03566  0.68166  0.38779  Biso   1.000  Zr
  Zr17     1.0000 0.03524  0.56623  0.89003  Biso   1.000  Zr
  Zr18     1.0000 0.46526  0.93322  0.39086  Biso   1.000  Zr
  Zr19     1.0000 0.46126  0.81610  0.88662  Biso   1.000  Zr
  Zr20     1.0000 0.26994  0.61906  0.49844  Biso   1.000  Zr
  Zr21     1.0000 0.26987  0.63333  0.99795  Biso   1.000  Zr
  Zr22     1.0000 0.22347  0.88454  0.00622  Biso   1.000  Zr
  Zr23     1.0000 0.22754  0.87182  0.49736  Biso   1.000  Zr
  Zr24     1.0000 0.63363  0.01488  0.24601  Biso   1.000  Zr
  Zr25     1.0000 0.63314  0.23361  0.74959  Biso   1.000  Zr
  Zr26     1.0000 0.86630  0.26306  0.25224  Biso   1.000  Zr
  Zr27     1.0000 0.86599  0.48413  0.75064  Biso   1.000  Zr
  Zr28     1.0000 0.53507  0.18405  0.38621  Biso   1.000  Zr
  Zr29     1.0000 0.53409  0.06613  0.88669  Biso   1.000  Zr
  Zr30     1.0000 0.96631  0.42935  0.39198  Biso   1.000  Zr
  Zr31     1.0000 0.96571  0.31549  0.89428  Biso   1.000  Zr
  Zr32     1.0000 0.76726  0.11606  0.49475  Biso   1.000  Zr
  Zr33     1.0000 0.77011  0.13334  0.99316  Biso   1.000  Zr
  Zr34     1.0000 0.73039  0.38244  0.99797  Biso   1.000  Zr
  Zr35     1.0000 0.73079  0.36663  0.49685  Biso   1.000  Zr
  Zr36     1.0000 0.63447  0.51694  0.24987  Biso   1.000  Zr
  Zr37     1.0000 0.63452  0.73591  0.74662  Biso   1.000  Zr
  Zr38     1.0000 0.86953  0.76733  0.24519  Biso   1.000  Zr
  Zr39     1.0000 0.87224  0.98659  0.74273  Biso   1.000  Zr
  Zr40     1.0000 0.53608  0.68534  0.38547  Biso   1.000  Zr
  Zr41     1.0000 0.53689  0.56640  0.88432  Biso   1.000  Zr
  Zr42     1.0000 0.97376  0.93251  0.38263  Biso   1.000  Zr
  Zr43     1.0000 0.96266  0.81638  0.87907  Biso   1.000  Zr
  Zr44     1.0000 0.77033  0.61725  0.49605  Biso   1.000  Zr
  Zr45     1.0000 0.76977  0.63394  0.99549  Biso   1.000  Zr
  Zr46     1.0000 0.73111  0.88511  0.98832  Biso   1.000  Zr
  Zr47     1.0000 0.73556  0.86822  0.49106  Biso   1.000  Zr
