data_image0
_cell_length_a       10.0109
_cell_length_b       10.4129
_cell_length_c       10.0459
_cell_angle_alpha    90.0345
_cell_angle_beta     89.8898
_cell_angle_gamma    90.0123

_symmetry_space_group_name_H-M    "P 1"
_symmetry_int_tables_number       1

loop_
  _symmetry_equiv_pos_as_xyz
  'x, y, z'

loop_
  _atom_site_label
  _atom_site_occupancy
  _atom_site_fract_x
  _atom_site_fract_y
  _atom_site_fract_z
  _atom_site_thermal_displace_type
  _atom_site_B_iso_or_equiv
  _atom_site_type_symbol
  Ti1      1.0000 0.13018  0.01875  0.12481  Biso   1.000  Ti
  Zr1      1.0000 0.13350  0.23231  0.37287  Biso   1.000  Zr
  Zr2      1.0000 0.36556  0.26370  0.12494  Biso   1.000  Zr
  Zr3      1.0000 0.36672  0.48393  0.37578  Biso   1.000  Zr
  Zr4      1.0000 0.03857  0.17939  0.18932  Biso   1.000  Zr
  Zr5      1.0000 0.03525  0.06678  0.44690  Biso   1.000  Zr
  Zr6      1.0000 0.46406  0.43350  0.19357  Biso   1.000  Zr
  Zr7      1.0000 0.46485  0.31654  0.44463  Biso   1.000  Zr
  Zr8      1.0000 0.26301  0.11032  0.24426  Biso   1.000  Zr
  Zr9      1.0000 0.27004  0.13332  0.49724  Biso   1.000  Zr
  Zr10     1.0000 0.22983  0.38241  0.49869  Biso   1.000  Zr
  Zr11     1.0000 0.23155  0.36521  0.24890  Biso   1.000  Zr
  Zr12     1.0000 0.13431  0.01629  0.62637  Biso   1.000  Zr
  Zr13     1.0000 0.13409  0.23318  0.87834  Biso   1.000  Zr
  Zr14     1.0000 0.36546  0.26619  0.62572  Biso   1.000  Zr
  Zr15     1.0000 0.36576  0.48484  0.87573  Biso   1.000  Zr
  Zr16     1.0000 0.03383  0.18205  0.69910  Biso   1.000  Zr
  Zr17     1.0000 0.03737  0.06330  0.95302  Biso   1.000  Zr
  Zr18     1.0000 0.46338  0.43460  0.69372  Biso   1.000  Zr
  Zr19     1.0000 0.46313  0.31570  0.94377  Biso   1.000  Zr
  Zr20     1.0000 0.26975  0.11775  0.74954  Biso   1.000  Zr
  Zr21     1.0000 0.26782  0.13196  0.00059  Biso   1.000  Zr
  Zr22     1.0000 0.23008  0.38290  0.99945  Biso   1.000  Zr
  Zr23     1.0000 0.22927  0.36710  0.74983  Biso   1.000  Zr
  Zr24     1.0000 0.13462  0.51541  0.12601  Biso   1.000  Zr
  Zr25     1.0000 0.13500  0.73498  0.37572  Biso   1.000  Zr
  Zr26     1.0000 0.36389  0.76749  0.12710  Biso   1.000  Zr
  Zr27     1.0000 0.36442  0.98393  0.37413  Biso   1.000  Zr
  Zr28     1.0000 0.03616  0.68366  0.19398  Biso   1.000  Zr
  Zr29     1.0000 0.03594  0.56593  0.44393  Biso   1.000  Zr
  Zr30     1.0000 0.46719  0.93250  0.19598  Biso   1.000  Zr
  Zr31     1.0000 0.46459  0.81636  0.44492  Biso   1.000  Zr
  Zr32     1.0000 0.26983  0.61653  0.24950  Biso   1.000  Zr
  Zr33     1.0000 0.27044  0.63290  0.49956  Biso   1.000  Zr
  Zr34     1.0000 0.23028  0.88287  0.50071  Biso   1.000  Zr
  Zr35     1.0000 0.23046  0.86725  0.25015  Biso   1.000  Zr
  Zr36     1.0000 0.13422  0.51589  0.62559  Biso   1.000  Zr
  Zr37     1.0000 0.13349  0.73527  0.87694  Biso   1.000  Zr
  Zr38     1.0000 0.36613  0.76663  0.62677  Biso   1.000  Zr
  Zr39     1.0000 0.36281  0.98503  0.87946  Biso   1.000  Zr
  Zr40     1.0000 0.03588  0.68422  0.69426  Biso   1.000  Zr
  Zr41     1.0000 0.03534  0.56590  0.94508  Biso   1.000  Zr
  Zr42     1.0000 0.46341  0.93444  0.69609  Biso   1.000  Zr
  Zr43     1.0000 0.46076  0.81660  0.94451  Biso   1.000  Zr
  Zr44     1.0000 0.26942  0.61790  0.74982  Biso   1.000  Zr
  Zr45     1.0000 0.26922  0.63399  0.99967  Biso   1.000  Zr
  Zr46     1.0000 0.22398  0.88799  0.00586  Biso   1.000  Zr
  Zr47     1.0000 0.22966  0.86808  0.75188  Biso   1.000  Zr
  Zr48     1.0000 0.63447  0.01584  0.12516  Biso   1.000  Zr
  Zr49     1.0000 0.63396  0.23386  0.37602  Biso   1.000  Zr
  Zr50     1.0000 0.86713  0.26506  0.12485  Biso   1.000  Zr
  Zr51     1.0000 0.86633  0.48407  0.37556  Biso   1.000  Zr
  Zr52     1.0000 0.53457  0.18300  0.19583  Biso   1.000  Zr
  Zr53     1.0000 0.53551  0.06588  0.44364  Biso   1.000  Zr
  Zr54     1.0000 0.96602  0.43157  0.19487  Biso   1.000  Zr
  Zr55     1.0000 0.96426  0.31450  0.44298  Biso   1.000  Zr
  Zr56     1.0000 0.77157  0.11656  0.24787  Biso   1.000  Zr
  Zr57     1.0000 0.77033  0.13232  0.49832  Biso   1.000  Zr
  Zr58     1.0000 0.73063  0.38277  0.49907  Biso   1.000  Zr
  Zr59     1.0000 0.73065  0.36637  0.24865  Biso   1.000  Zr
  Zr60     1.0000 0.63241  0.01509  0.62519  Biso   1.000  Zr
  Zr61     1.0000 0.63331  0.23425  0.87503  Biso   1.000  Zr
  Zr62     1.0000 0.86626  0.26509  0.62564  Biso   1.000  Zr
  Zr63     1.0000 0.86587  0.48462  0.87497  Biso   1.000  Zr
  Zr64     1.0000 0.53578  0.18456  0.69334  Biso   1.000  Zr
  Zr65     1.0000 0.53438  0.06677  0.94564  Biso   1.000  Zr
  Zr66     1.0000 0.96371  0.43382  0.69296  Biso   1.000  Zr
  Zr67     1.0000 0.96368  0.31568  0.94347  Biso   1.000  Zr
  Zr68     1.0000 0.76880  0.11662  0.74861  Biso   1.000  Zr
  Zr69     1.0000 0.76940  0.13342  0.99822  Biso   1.000  Zr
  Zr70     1.0000 0.73038  0.38306  0.99887  Biso   1.000  Zr
  Zr71     1.0000 0.73001  0.36713  0.74868  Biso   1.000  Zr
  Zr72     1.0000 0.63358  0.51588  0.12584  Biso   1.000  Zr
  Zr73     1.0000 0.63435  0.73520  0.37406  Biso   1.000  Zr
  Zr74     1.0000 0.86904  0.76524  0.12292  Biso   1.000  Zr
  Zr75     1.0000 0.86794  0.98526  0.37537  Biso   1.000  Zr
  Zr76     1.0000 0.53598  0.68476  0.19370  Biso   1.000  Zr
  Zr77     1.0000 0.53678  0.56653  0.44313  Biso   1.000  Zr
  Zr78     1.0000 0.97851  0.93696  0.18896  Biso   1.000  Zr
  Zr79     1.0000 0.96456  0.81683  0.44253  Biso   1.000  Zr
  Zr80     1.0000 0.77069  0.61656  0.24827  Biso   1.000  Zr
  Zr81     1.0000 0.76967  0.63355  0.49857  Biso   1.000  Zr
  Zr82     1.0000 0.73104  0.88367  0.49766  Biso   1.000  Zr
  Zr83     1.0000 0.73758  0.86745  0.24724  Biso   1.000  Zr
  Zr84     1.0000 0.63379  0.51614  0.62521  Biso   1.000  Zr
  Zr85     1.0000 0.63268  0.73541  0.87573  Biso   1.000  Zr
  Zr86     1.0000 0.86621  0.76588  0.62542  Biso   1.000  Zr
  Zr87     1.0000 0.86769  0.98554  0.87545  Biso   1.000  Zr
  Zr88     1.0000 0.53569  0.68432  0.69433  Biso   1.000  Zr
  Zr89     1.0000 0.53596  0.56620  0.94350  Biso   1.000  Zr
  Zr90     1.0000 0.96466  0.93409  0.69416  Biso   1.000  Zr
  Zr91     1.0000 0.96116  0.81441  0.94019  Biso   1.000  Zr
  Zr92     1.0000 0.76927  0.61748  0.74902  Biso   1.000  Zr
  Zr93     1.0000 0.76940  0.63389  0.99896  Biso   1.000  Zr
  Zr94     1.0000 0.73024  0.88411  0.99800  Biso   1.000  Zr
  Zr95     1.0000 0.73014  0.86717  0.74836  Biso   1.000  Zr
