data_image0
_cell_length_a       5.1083
_cell_length_b       10.1038
_cell_length_c       10.1038
_cell_angle_alpha    89.9995
_cell_angle_beta     89.9995
_cell_angle_gamma    90.0001

_symmetry_space_group_name_H-M    "P 1"
_symmetry_int_tables_number       1

loop_
  _symmetry_equiv_pos_as_xyz
  'x, y, z'

loop_
  _atom_site_label
  _atom_site_occupancy
  _atom_site_fract_x
  _atom_site_fract_y
  _atom_site_fract_z
  _atom_site_thermal_displace_type
  _atom_site_B_iso_or_equiv
  _atom_site_type_symbol
  Zr1      1.0000 0.25036  0.98744  0.10664  Biso   1.000  Zr
  Zr2      1.0000 0.25035  0.25002  0.36923  Biso   1.000  Zr
  Zr3      1.0000 0.75035  0.25002  0.10664  Biso   1.000  Zr
  Zr4      1.0000 0.74743  0.49677  0.35339  Biso   1.000  Zr
  Zr5      1.0000 0.99185  0.12767  0.22898  Biso   1.000  Zr
  Zr6      1.0000 0.02891  0.11798  0.48217  Biso   1.000  Zr
  Zr7      1.0000 0.02271  0.37516  0.23178  Biso   1.000  Zr
  Zr8      1.0000 0.96677  0.37096  0.48229  Biso   1.000  Zr
  Zr9      1.0000 0.47799  0.12489  0.23178  Biso   1.000  Zr
  Zr10     1.0000 0.53394  0.12909  0.48229  Biso   1.000  Zr
  Zr11     1.0000 0.47179  0.38206  0.48216  Biso   1.000  Zr
  Zr12     1.0000 0.50885  0.37237  0.22899  Biso   1.000  Zr
  Zr13     1.0000 0.25036  0.99719  0.60664  Biso   1.000  Zr
  Zr14     1.0000 0.25036  0.25002  0.84405  Biso   1.000  Zr
  Zr15     1.0000 0.75036  0.25002  0.60664  Biso   1.000  Zr
  Zr16     1.0000 0.75330  0.49677  0.85990  Biso   1.000  Zr
  Zr17     1.0000 0.96678  0.12908  0.73099  Biso   1.000  Zr
  Zr18     1.0000 0.02271  0.12489  0.98150  Biso   1.000  Zr
  Zr19     1.0000 0.02893  0.38206  0.73112  Biso   1.000  Zr
  Zr20     1.0000 0.99186  0.37237  0.98430  Biso   1.000  Zr
  Zr21     1.0000 0.47181  0.11798  0.73112  Biso   1.000  Zr
  Zr22     1.0000 0.50884  0.12767  0.98430  Biso   1.000  Zr
  Zr23     1.0000 0.47799  0.37516  0.98150  Biso   1.000  Zr
  Zr24     1.0000 0.53396  0.37096  0.73099  Biso   1.000  Zr
  Zr25     1.0000 0.25036  0.51261  0.10664  Biso   1.000  Zr
  Zr26     1.0000 0.25036  0.75002  0.35947  Biso   1.000  Zr
  Zr27     1.0000 0.75035  0.75002  0.10664  Biso   1.000  Zr
  Zr28     1.0000 0.75329  0.00327  0.35339  Biso   1.000  Zr
  Zr29     1.0000 0.96678  0.62567  0.22757  Biso   1.000  Zr
  Zr30     1.0000 0.03798  0.61928  0.47590  Biso   1.000  Zr
  Zr31     1.0000 0.02891  0.87450  0.23869  Biso   1.000  Zr
  Zr32     1.0000 0.96223  0.87180  0.48488  Biso   1.000  Zr
  Zr33     1.0000 0.47181  0.62555  0.23868  Biso   1.000  Zr
  Zr34     1.0000 0.53849  0.62824  0.48487  Biso   1.000  Zr
  Zr35     1.0000 0.46274  0.88076  0.47589  Biso   1.000  Zr
  Zr36     1.0000 0.53394  0.87438  0.22757  Biso   1.000  Zr
  Zr37     1.0000 0.25036  0.50285  0.60664  Biso   1.000  Zr
  Zr38     1.0000 0.25037  0.75002  0.85381  Biso   1.000  Zr
  Zr39     1.0000 0.75036  0.75001  0.60664  Biso   1.000  Zr
  Zr40     1.0000 0.74744  0.00327  0.85989  Biso   1.000  Zr
  Zr41     1.0000 0.96223  0.62824  0.72842  Biso   1.000  Zr
  Zr42     1.0000 0.02892  0.62555  0.97460  Biso   1.000  Zr
  Zr43     1.0000 0.03798  0.88077  0.73740  Biso   1.000  Zr
  Zr44     1.0000 0.96677  0.87438  0.98572  Biso   1.000  Zr
  Zr45     1.0000 0.46274  0.61928  0.73738  Biso   1.000  Zr
  Zr46     1.0000 0.53394  0.62567  0.98571  Biso   1.000  Zr
  Zr47     1.0000 0.47179  0.87449  0.97460  Biso   1.000  Zr
  Zr48     1.0000 0.53849  0.87180  0.72841  Biso   1.000  Zr
  Ti1      1.0000 0.25035  0.25002  0.10664  Biso   1.000  Ti
