data_image0
_cell_length_a       10.1156
_cell_length_b       5.10907
_cell_length_c       10.1156
_cell_angle_alpha    90.0008
_cell_angle_beta     89.9995
_cell_angle_gamma    90.0008

_symmetry_space_group_name_H-M    "P 1"
_symmetry_int_tables_number       1

loop_
  _symmetry_equiv_pos_as_xyz
  'x, y, z'

loop_
  _atom_site_label
  _atom_site_occupancy
  _atom_site_fract_x
  _atom_site_fract_y
  _atom_site_fract_z
  _atom_site_thermal_displace_type
  _atom_site_B_iso_or_equiv
  _atom_site_type_symbol
  Tl1      1.0000 0.12517  0.00047  0.12517  Biso   1.000  Tl
  Zr1      1.0000 0.12516  0.00047  0.62516  Biso   1.000  Zr
  Zr2      1.0000 0.62516  0.00047  0.12516  Biso   1.000  Zr
  Zr3      1.0000 0.62517  0.00046  0.62517  Biso   1.000  Zr
  Zr4      1.0000 0.12516  0.50046  0.37840  Biso   1.000  Zr
  Zr5      1.0000 0.12517  0.50046  0.87193  Biso   1.000  Zr
  Zr6      1.0000 0.62516  0.50047  0.37535  Biso   1.000  Zr
  Zr7      1.0000 0.62516  0.50047  0.87497  Biso   1.000  Zr
  Zr8      1.0000 0.37840  0.50046  0.12516  Biso   1.000  Zr
  Zr9      1.0000 0.37535  0.50047  0.62516  Biso   1.000  Zr
  Zr10     1.0000 0.87193  0.50046  0.12517  Biso   1.000  Zr
  Zr11     1.0000 0.87497  0.50047  0.62516  Biso   1.000  Zr
  Zr12     1.0000 0.37662  0.00248  0.37662  Biso   1.000  Zr
  Zr13     1.0000 0.37661  0.99845  0.87371  Biso   1.000  Zr
  Zr14     1.0000 0.87371  0.99845  0.37661  Biso   1.000  Zr
  Zr15     1.0000 0.87372  0.00247  0.87372  Biso   1.000  Zr
  Zr16     1.0000 0.99320  0.29964  0.99320  Biso   1.000  Zr
  Zr17     1.0000 0.99935  0.29246  0.50170  Biso   1.000  Zr
  Zr18     1.0000 0.50170  0.29246  0.99935  Biso   1.000  Zr
  Zr19     1.0000 0.49930  0.29387  0.49930  Biso   1.000  Zr
  Zr20     1.0000 0.99586  0.21972  0.25446  Biso   1.000  Zr
  Zr21     1.0000 0.00068  0.20738  0.74917  Biso   1.000  Zr
  Zr22     1.0000 0.50115  0.20738  0.24964  Biso   1.000  Zr
  Zr23     1.0000 0.50120  0.20767  0.74912  Biso   1.000  Zr
  Zr24     1.0000 0.99319  0.70128  0.25714  Biso   1.000  Zr
  Zr25     1.0000 0.99935  0.70847  0.74864  Biso   1.000  Zr
  Zr26     1.0000 0.50170  0.70848  0.25097  Biso   1.000  Zr
  Zr27     1.0000 0.49931  0.70706  0.75102  Biso   1.000  Zr
  Zr28     1.0000 0.99588  0.78120  0.99587  Biso   1.000  Zr
  Zr29     1.0000 0.00067  0.79356  0.50116  Biso   1.000  Zr
  Zr30     1.0000 0.50117  0.79356  0.00067  Biso   1.000  Zr
  Zr31     1.0000 0.50120  0.79326  0.50120  Biso   1.000  Zr
  Zr32     1.0000 0.25713  0.29965  0.25713  Biso   1.000  Zr
  Zr33     1.0000 0.25097  0.29245  0.74863  Biso   1.000  Zr
  Zr34     1.0000 0.74863  0.29246  0.25097  Biso   1.000  Zr
  Zr35     1.0000 0.75102  0.29386  0.75102  Biso   1.000  Zr
  Zr36     1.0000 0.25446  0.21972  0.99586  Biso   1.000  Zr
  Zr37     1.0000 0.24965  0.20738  0.50115  Biso   1.000  Zr
  Zr38     1.0000 0.74917  0.20738  0.00068  Biso   1.000  Zr
  Zr39     1.0000 0.74912  0.20767  0.50120  Biso   1.000  Zr
  Zr40     1.0000 0.25714  0.70128  0.99319  Biso   1.000  Zr
  Zr41     1.0000 0.25097  0.70848  0.50170  Biso   1.000  Zr
  Zr42     1.0000 0.74864  0.70847  0.99935  Biso   1.000  Zr
  Zr43     1.0000 0.75102  0.70706  0.49931  Biso   1.000  Zr
  Zr44     1.0000 0.25446  0.78121  0.25446  Biso   1.000  Zr
  Zr45     1.0000 0.24965  0.79355  0.74917  Biso   1.000  Zr
  Zr46     1.0000 0.74917  0.79355  0.24965  Biso   1.000  Zr
  Zr47     1.0000 0.74913  0.79326  0.74913  Biso   1.000  Zr
