data_image0
_cell_length_a       10.2255
_cell_length_b       10.4777
_cell_length_c       10.1883
_cell_angle_alpha    94.8492
_cell_angle_beta     90.0525
_cell_angle_gamma    90.1278

_symmetry_space_group_name_H-M    "P 1"
_symmetry_int_tables_number       1

loop_
  _symmetry_equiv_pos_as_xyz
  'x, y, z'

loop_
  _atom_site_label
  _atom_site_occupancy
  _atom_site_fract_x
  _atom_site_fract_y
  _atom_site_fract_z
  _atom_site_thermal_displace_type
  _atom_site_B_iso_or_equiv
  _atom_site_type_symbol
  Zr1      1.0000 0.10991  0.97998  0.11950  Biso   1.000  Zr
  Zr2      1.0000 0.10863  0.22418  0.43572  Biso   1.000  Zr
  Zr3      1.0000 0.37049  0.27070  0.13504  Biso   1.000  Zr
  Zr4      1.0000 0.35378  0.01549  0.38408  Biso   1.000  Zr
  Zr5      1.0000 0.98166  0.13716  0.03845  Biso   1.000  Zr
  Zr6      1.0000 0.03937  0.06529  0.29937  Biso   1.000  Zr
  Zr7      1.0000 0.93843  0.29342  0.31259  Biso   1.000  Zr
  Zr8      1.0000 0.99963  0.39673  0.01731  Biso   1.000  Zr
  Zr9      1.0000 0.29157  0.17902  0.30739  Biso   1.000  Zr
  Zr10     1.0000 0.23716  0.11184  0.02530  Biso   1.000  Zr
  Zr11     1.0000 0.25846  0.37073  0.98209  Biso   1.000  Zr
  Zr12     1.0000 0.29792  0.44957  0.22124  Biso   1.000  Zr
  Zr13     1.0000 0.10626  0.97776  0.62471  Biso   1.000  Zr
  Zr14     1.0000 0.11151  0.23568  0.89988  Biso   1.000  Zr
  Zr15     1.0000 0.35884  0.26723  0.63840  Biso   1.000  Zr
  Zr16     1.0000 0.35853  0.01609  0.88327  Biso   1.000  Zr
  Zr17     1.0000 0.98277  0.12365  0.54806  Biso   1.000  Zr
  Zr18     1.0000 0.03399  0.06846  0.79626  Biso   1.000  Zr
  Zr19     1.0000 0.98875  0.31846  0.77757  Biso   1.000  Zr
  Zr20     1.0000 0.00197  0.38583  0.53284  Biso   1.000  Zr
  Zr21     1.0000 0.27479  0.17766  0.78979  Biso   1.000  Zr
  Zr22     1.0000 0.23385  0.11113  0.53713  Biso   1.000  Zr
  Zr23     1.0000 0.24923  0.36350  0.49502  Biso   1.000  Zr
  Zr24     1.0000 0.27038  0.43009  0.73436  Biso   1.000  Zr
  Zr25     1.0000 0.15580  0.52840  0.10113  Biso   1.000  Zr
  Zr26     1.0000 0.10801  0.73105  0.36380  Biso   1.000  Zr
  Zr27     1.0000 0.36589  0.77311  0.09523  Biso   1.000  Zr
  Zr28     1.0000 0.40325  0.48756  0.38583  Biso   1.000  Zr
  Zr29     1.0000 0.00739  0.64172  0.00440  Biso   1.000  Zr
  Zr30     1.0000 0.03113  0.55305  0.26612  Biso   1.000  Zr
  Zr31     1.0000 0.01929  0.82277  0.21688  Biso   1.000  Zr
  Zr32     1.0000 0.98660  0.88652  0.97780  Biso   1.000  Zr
  Zr33     1.0000 0.24044  0.68537  0.21339  Biso   1.000  Zr
  Zr34     1.0000 0.26061  0.62261  0.96371  Biso   1.000  Zr
  Zr35     1.0000 0.23637  0.86647  0.97269  Biso   1.000  Zr
  Zr36     1.0000 0.27881  0.92916  0.21432  Biso   1.000  Zr
  Zr37     1.0000 0.14962  0.51850  0.60974  Biso   1.000  Zr
  Zr38     1.0000 0.10998  0.73798  0.86246  Biso   1.000  Zr
  Zr39     1.0000 0.36269  0.76795  0.59589  Biso   1.000  Zr
  Zr40     1.0000 0.40028  0.48657  0.88560  Biso   1.000  Zr
  Zr41     1.0000 0.00142  0.63499  0.50459  Biso   1.000  Zr
  Zr42     1.0000 0.02011  0.57404  0.76156  Biso   1.000  Zr
  Zr43     1.0000 0.01549  0.82603  0.71705  Biso   1.000  Zr
  Zr44     1.0000 0.98515  0.88042  0.47751  Biso   1.000  Zr
  Zr45     1.0000 0.24059  0.67892  0.71429  Biso   1.000  Zr
  Zr46     1.0000 0.25589  0.61288  0.46808  Biso   1.000  Zr
  Zr47     1.0000 0.23402  0.86141  0.47316  Biso   1.000  Zr
  Zr48     1.0000 0.27653  0.92549  0.71846  Biso   1.000  Zr
  Zr49     1.0000 0.61565  0.99484  0.12885  Biso   1.000  Zr
  Zr50     1.0000 0.60317  0.22984  0.40359  Biso   1.000  Zr
  Zr51     1.0000 0.83127  0.25845  0.13268  Biso   1.000  Zr
  Zr52     1.0000 0.86444  0.00704  0.38249  Biso   1.000  Zr
  Zr53     1.0000 0.49012  0.14258  0.02750  Biso   1.000  Zr
  Zr54     1.0000 0.51770  0.07041  0.28750  Biso   1.000  Zr
  Zr55     1.0000 0.50407  0.32930  0.27563  Biso   1.000  Zr
  Zr56     1.0000 0.50523  0.39047  0.02372  Biso   1.000  Zr
  Zr57     1.0000 0.73658  0.15623  0.25983  Biso   1.000  Zr
  Zr58     1.0000 0.73329  0.11006  0.00956  Biso   1.000  Zr
  Zr59     1.0000 0.74743  0.36243  0.98887  Biso   1.000  Zr
  Zr60     1.0000 0.76527  0.42851  0.23236  Biso   1.000  Zr
  Zr61     1.0000 0.61014  0.98863  0.61945  Biso   1.000  Zr
  Zr62     1.0000 0.60872  0.23395  0.89537  Biso   1.000  Zr
  Zr63     1.0000 0.85120  0.26380  0.63343  Biso   1.000  Zr
  Zr64     1.0000 0.86059  0.01081  0.87875  Biso   1.000  Zr
  Zr65     1.0000 0.48659  0.13724  0.53300  Biso   1.000  Zr
  Zr66     1.0000 0.52279  0.07540  0.78232  Biso   1.000  Zr
  Zr67     1.0000 0.49760  0.33063  0.77435  Biso   1.000  Zr
  Zr68     1.0000 0.50081  0.38747  0.52588  Biso   1.000  Zr
  Zr69     1.0000 0.76455  0.16719  0.77488  Biso   1.000  Zr
  Zr70     1.0000 0.73655  0.11047  0.51177  Biso   1.000  Zr
  Zr71     1.0000 0.74647  0.36035  0.49245  Biso   1.000  Zr
  Zr72     1.0000 0.76391  0.42371  0.73612  Biso   1.000  Zr
  Zr73     1.0000 0.64850  0.52088  0.11053  Biso   1.000  Zr
  Zr74     1.0000 0.60913  0.73908  0.36186  Biso   1.000  Zr
  Zr75     1.0000 0.86070  0.76553  0.09434  Biso   1.000  Zr
  Zr76     1.0000 0.89185  0.47985  0.38837  Biso   1.000  Zr
  Zr77     1.0000 0.50677  0.64205  0.00390  Biso   1.000  Zr
  Zr78     1.0000 0.52256  0.57994  0.26196  Biso   1.000  Zr
  Zr79     1.0000 0.52679  0.82986  0.21290  Biso   1.000  Zr
  Zr80     1.0000 0.48793  0.89463  0.97913  Biso   1.000  Zr
  Zr81     1.0000 0.74943  0.67648  0.22295  Biso   1.000  Zr
  Zr82     1.0000 0.75712  0.61363  0.97311  Biso   1.000  Zr
  Zr83     1.0000 0.73895  0.86348  0.97190  Biso   1.000  Zr
  Zr84     1.0000 0.78274  0.92453  0.21529  Biso   1.000  Zr
  Zr85     1.0000 0.64462  0.51675  0.61418  Biso   1.000  Zr
  Zr86     1.0000 0.60838  0.74138  0.86265  Biso   1.000  Zr
  Zr87     1.0000 0.85835  0.76243  0.59601  Biso   1.000  Zr
  Zr88     1.0000 0.89719  0.48546  0.88110  Biso   1.000  Zr
  Zr89     1.0000 0.50443  0.64042  0.50424  Biso   1.000  Zr
  Zr90     1.0000 0.51494  0.58160  0.75883  Biso   1.000  Zr
  Zr91     1.0000 0.52188  0.83083  0.71418  Biso   1.000  Zr
  Zr92     1.0000 0.48701  0.88941  0.47794  Biso   1.000  Zr
  Zr93     1.0000 0.74450  0.67392  0.72291  Biso   1.000  Zr
  Zr94     1.0000 0.75258  0.60977  0.47527  Biso   1.000  Zr
  Zr95     1.0000 0.73873  0.86154  0.47211  Biso   1.000  Zr
  Zr96     1.0000 0.77646  0.92404  0.71445  Biso   1.000  Zr
  Tl1      1.0000 0.11138  0.28546  0.18785  Biso   1.000  Tl
