data_image0
_cell_length_a       10.0681
_cell_length_b       10.291
_cell_length_c       10.4806
_cell_angle_alpha    89.9414
_cell_angle_beta     89.9984
_cell_angle_gamma    89.9655

_symmetry_space_group_name_H-M    "P 1"
_symmetry_int_tables_number       1

loop_
  _symmetry_equiv_pos_as_xyz
  'x, y, z'

loop_
  _atom_site_label
  _atom_site_occupancy
  _atom_site_fract_x
  _atom_site_fract_y
  _atom_site_fract_z
  _atom_site_thermal_displace_type
  _atom_site_B_iso_or_equiv
  _atom_site_type_symbol
  V1       1.0000 0.12968  0.02590  0.17629  Biso   1.000  V
  Zr1      1.0000 0.13890  0.02105  0.67070  Biso   1.000  Zr
  Zr2      1.0000 0.13963  0.52093  0.17115  Biso   1.000  Zr
  Zr3      1.0000 0.13902  0.52138  0.67148  Biso   1.000  Zr
  Zr4      1.0000 0.14003  0.22986  0.41948  Biso   1.000  Zr
  Zr5      1.0000 0.13998  0.22537  0.92371  Biso   1.000  Zr
  Zr6      1.0000 0.13895  0.73051  0.41961  Biso   1.000  Zr
  Zr7      1.0000 0.14028  0.73054  0.92166  Biso   1.000  Zr
  Zr8      1.0000 0.35917  0.26811  0.17120  Biso   1.000  Zr
  Zr9      1.0000 0.36114  0.27146  0.67137  Biso   1.000  Zr
  Zr10     1.0000 0.35655  0.77562  0.17065  Biso   1.000  Zr
  Zr11     1.0000 0.36160  0.77155  0.67067  Biso   1.000  Zr
  Zr12     1.0000 0.36145  0.47984  0.42090  Biso   1.000  Zr
  Zr13     1.0000 0.36107  0.47851  0.92153  Biso   1.000  Zr
  Zr14     1.0000 0.35825  0.98001  0.41837  Biso   1.000  Zr
  Zr15     1.0000 0.35874  0.97839  0.92385  Biso   1.000  Zr
  Zr16     1.0000 0.63885  0.02146  0.07799  Biso   1.000  Zr
  Zr17     1.0000 0.63755  0.02055  0.57793  Biso   1.000  Zr
  Zr18     1.0000 0.63766  0.52190  0.08002  Biso   1.000  Zr
  Zr19     1.0000 0.63921  0.52112  0.58001  Biso   1.000  Zr
  Zr20     1.0000 0.63827  0.22899  0.32898  Biso   1.000  Zr
  Zr21     1.0000 0.63891  0.22908  0.82932  Biso   1.000  Zr
  Zr22     1.0000 0.63760  0.72938  0.32788  Biso   1.000  Zr
  Zr23     1.0000 0.63870  0.72930  0.82993  Biso   1.000  Zr
  Zr24     1.0000 0.86244  0.26994  0.08076  Biso   1.000  Zr
  Zr25     1.0000 0.86122  0.27054  0.57875  Biso   1.000  Zr
  Zr26     1.0000 0.86447  0.77194  0.07835  Biso   1.000  Zr
  Zr27     1.0000 0.86059  0.77069  0.57874  Biso   1.000  Zr
  Zr28     1.0000 0.86102  0.47946  0.32913  Biso   1.000  Zr
  Zr29     1.0000 0.86238  0.47815  0.83060  Biso   1.000  Zr
  Zr30     1.0000 0.86311  0.97975  0.32800  Biso   1.000  Zr
  Zr31     1.0000 0.86091  0.97900  0.82798  Biso   1.000  Zr
  O1       1.0000 0.03611  0.15832  0.08965  Biso   1.000  O
  O2       1.0000 0.03164  0.16220  0.57882  Biso   1.000  O
  O3       1.0000 0.03341  0.66592  0.08486  Biso   1.000  O
  O4       1.0000 0.03276  0.66584  0.58348  Biso   1.000  O
  O5       1.0000 0.03789  0.08277  0.32521  Biso   1.000  O
  O6       1.0000 0.03192  0.08516  0.83225  Biso   1.000  O
  O7       1.0000 0.03315  0.58383  0.33410  Biso   1.000  O
  O8       1.0000 0.03357  0.58356  0.83519  Biso   1.000  O
  O9       1.0000 0.46618  0.41589  0.08557  Biso   1.000  O
  O10      1.0000 0.46636  0.41751  0.58518  Biso   1.000  O
  O11      1.0000 0.46849  0.91537  0.08400  Biso   1.000  O
  O12      1.0000 0.46572  0.91688  0.58361  Biso   1.000  O
  O13      1.0000 0.46520  0.33173  0.33578  Biso   1.000  O
  O14      1.0000 0.46712  0.33382  0.83469  Biso   1.000  O
  O15      1.0000 0.46509  0.83496  0.33376  Biso   1.000  O
  O16      1.0000 0.46617  0.83359  0.83523  Biso   1.000  O
  O17      1.0000 0.27103  0.12249  0.29207  Biso   1.000  O
  O18      1.0000 0.27616  0.12390  0.79627  Biso   1.000  O
  O19      1.0000 0.27563  0.62609  0.29463  Biso   1.000  O
  O20      1.0000 0.27629  0.62411  0.79475  Biso   1.000  O
  O21      1.0000 0.27040  0.12050  0.05075  Biso   1.000  O
  O22      1.0000 0.27613  0.12667  0.54433  Biso   1.000  O
  O23      1.0000 0.27595  0.62606  0.04480  Biso   1.000  O
  O24      1.0000 0.27603  0.62644  0.54447  Biso   1.000  O
  O25      1.0000 0.22451  0.37516  0.29479  Biso   1.000  O
  O26      1.0000 0.22392  0.37329  0.79553  Biso   1.000  O
  O27      1.0000 0.21925  0.87923  0.29166  Biso   1.000  O
  O28      1.0000 0.22389  0.87430  0.79431  Biso   1.000  O
  O29      1.0000 0.22429  0.37398  0.04519  Biso   1.000  O
  O30      1.0000 0.22373  0.37584  0.54433  Biso   1.000  O
  O31      1.0000 0.22100  0.87773  0.04572  Biso   1.000  O
  O32      1.0000 0.22336  0.87629  0.54368  Biso   1.000  O
  O33      1.0000 0.53330  0.16634  0.16556  Biso   1.000  O
  O34      1.0000 0.53320  0.16672  0.66546  Biso   1.000  O
  O35      1.0000 0.53223  0.66826  0.16509  Biso   1.000  O
  O36      1.0000 0.53398  0.66728  0.66529  Biso   1.000  O
  O37      1.0000 0.53247  0.08346  0.41456  Biso   1.000  O
  O38      1.0000 0.53163  0.08511  0.91699  Biso   1.000  O
  O39      1.0000 0.53379  0.58357  0.41505  Biso   1.000  O
  O40      1.0000 0.53396  0.58258  0.91515  Biso   1.000  O
  O41      1.0000 0.96815  0.41483  0.16626  Biso   1.000  O
  O42      1.0000 0.96797  0.41386  0.66717  Biso   1.000  O
  O43      1.0000 0.98102  0.92042  0.16417  Biso   1.000  O
  O44      1.0000 0.96724  0.91538  0.66537  Biso   1.000  O
  O45      1.0000 0.96655  0.33251  0.41444  Biso   1.000  O
  O46      1.0000 0.96853  0.33153  0.91909  Biso   1.000  O
  O47      1.0000 0.96647  0.83451  0.41454  Biso   1.000  O
  O48      1.0000 0.96699  0.83385  0.91544  Biso   1.000  O
  O49      1.0000 0.77641  0.12417  0.95501  Biso   1.000  O
  O50      1.0000 0.77687  0.12340  0.45376  Biso   1.000  O
  O51      1.0000 0.77703  0.62535  0.95689  Biso   1.000  O
  O52      1.0000 0.77562  0.62431  0.45547  Biso   1.000  O
  O53      1.0000 0.77643  0.12546  0.20477  Biso   1.000  O
  O54      1.0000 0.77551  0.12553  0.70442  Biso   1.000  O
  O55      1.0000 0.77593  0.62604  0.20556  Biso   1.000  O
  O56      1.0000 0.77663  0.62528  0.70642  Biso   1.000  O
  O57      1.0000 0.72533  0.37404  0.95649  Biso   1.000  O
  O58      1.0000 0.72408  0.37389  0.45600  Biso   1.000  O
  O59      1.0000 0.72455  0.87470  0.95500  Biso   1.000  O
  O60      1.0000 0.72381  0.87443  0.45410  Biso   1.000  O
  O61      1.0000 0.72467  0.37547  0.20563  Biso   1.000  O
  O62      1.0000 0.72458  0.37588  0.70605  Biso   1.000  O
  O63      1.0000 0.73161  0.87654  0.20443  Biso   1.000  O
  O64      1.0000 0.72374  0.87560  0.70476  Biso   1.000  O
