data_image0
_cell_length_a       10.2654
_cell_length_b       10.2908
_cell_length_c       5.33639
_cell_angle_alpha    89.5003
_cell_angle_beta     80.0596
_cell_angle_gamma    90.0372

_symmetry_space_group_name_H-M    "P 1"
_symmetry_int_tables_number       1

loop_
  _symmetry_equiv_pos_as_xyz
  'x, y, z'

loop_
  _atom_site_label
  _atom_site_occupancy
  _atom_site_fract_x
  _atom_site_fract_y
  _atom_site_fract_z
  _atom_site_thermal_displace_type
  _atom_site_B_iso_or_equiv
  _atom_site_type_symbol
  Zr1      1.0000 0.13576  0.02136  0.29266  Biso   1.000  Zr
  Zr2      1.0000 0.12894  0.22894  0.79089  Biso   1.000  Zr
  Zr3      1.0000 0.35864  0.27298  0.18386  Biso   1.000  Zr
  Zr4      1.0000 0.35853  0.49126  0.71488  Biso   1.000  Zr
  O1       1.0000 0.03100  0.15961  0.14800  Biso   1.000  O
  O2       1.0000 0.02811  0.08750  0.64201  Biso   1.000  O
  O3       1.0000 0.47853  0.38807  0.38919  Biso   1.000  O
  O4       1.0000 0.48110  0.35798  0.86741  Biso   1.000  O
  O5       1.0000 0.27682  0.12404  0.46317  Biso   1.000  O
  O6       1.0000 0.28208  0.12811  0.94433  Biso   1.000  O
  O7       1.0000 0.21731  0.38630  0.02554  Biso   1.000  O
  O8       1.0000 0.24022  0.36480  0.52386  Biso   1.000  O
  Zr5      1.0000 0.13726  0.52309  0.29570  Biso   1.000  Zr
  Zr6      1.0000 0.13354  0.72942  0.79598  Biso   1.000  Zr
  Zr7      1.0000 0.36103  0.77221  0.21018  Biso   1.000  Zr
  Zr8      1.0000 0.35950  0.97161  0.70456  Biso   1.000  Zr
  O9       1.0000 0.02697  0.65870  0.14993  Biso   1.000  O
  O10      1.0000 0.03008  0.59088  0.65025  Biso   1.000  O
  O11      1.0000 0.47113  0.90607  0.36070  Biso   1.000  O
  O12      1.0000 0.47077  0.84254  0.86416  Biso   1.000  O
  O13      1.0000 0.27298  0.62877  0.48269  Biso   1.000  O
  O14      1.0000 0.26986  0.62939  0.98743  Biso   1.000  O
  O15      1.0000 0.22453  0.88115  0.02236  Biso   1.000  O
  O16      1.0000 0.22251  0.86942  0.52025  Biso   1.000  O
  Zr9      1.0000 0.63905  0.02275  0.28799  Biso   1.000  Zr
  Zr10     1.0000 0.64173  0.23134  0.79900  Biso   1.000  Zr
  Zr11     1.0000 0.86214  0.27366  0.21950  Biso   1.000  Zr
  Zr12     1.0000 0.86025  0.48042  0.71707  Biso   1.000  Zr
  O17      1.0000 0.52969  0.15510  0.13641  Biso   1.000  O
  O18      1.0000 0.52543  0.09746  0.64202  Biso   1.000  O
  O19      1.0000 0.97254  0.40647  0.37030  Biso   1.000  O
  O20      1.0000 0.96665  0.34595  0.86949  Biso   1.000  O
  O21      1.0000 0.77264  0.12784  0.48144  Biso   1.000  O
  O22      1.0000 0.77780  0.12138  0.98348  Biso   1.000  O
  O23      1.0000 0.72621  0.37728  0.03161  Biso   1.000  O
  O24      1.0000 0.72947  0.37406  0.52807  Biso   1.000  O
  Zr13     1.0000 0.63516  0.51904  0.29784  Biso   1.000  Zr
  Zr14     1.0000 0.63704  0.72773  0.79397  Biso   1.000  Zr
  Zr15     1.0000 0.85904  0.77158  0.21491  Biso   1.000  Zr
  Zr16     1.0000 0.85867  0.97817  0.71203  Biso   1.000  Zr
  O25      1.0000 0.52425  0.65061  0.13807  Biso   1.000  O
  O26      1.0000 0.52916  0.59893  0.63255  Biso   1.000  O
  O27      1.0000 0.96777  0.90878  0.35840  Biso   1.000  O
  O28      1.0000 0.96619  0.84029  0.86036  Biso   1.000  O
  O29      1.0000 0.77317  0.62729  0.48103  Biso   1.000  O
  O30      1.0000 0.77150  0.62270  0.98327  Biso   1.000  O
  O31      1.0000 0.72308  0.87757  0.02600  Biso   1.000  O
  O32      1.0000 0.72359  0.87277  0.52550  Biso   1.000  O
  V1       1.0000 0.38797  0.24267  0.64371  Biso   1.000  V
