data_image0
_cell_length_a       10.0888
_cell_length_b       5.27677
_cell_length_c       10.1693
_cell_angle_alpha    88.8575
_cell_angle_beta     89.3131
_cell_angle_gamma    90.135

_symmetry_space_group_name_H-M    "P 1"
_symmetry_int_tables_number       1

loop_
  _symmetry_equiv_pos_as_xyz
  'x, y, z'

loop_
  _atom_site_label
  _atom_site_occupancy
  _atom_site_fract_x
  _atom_site_fract_y
  _atom_site_fract_z
  _atom_site_thermal_displace_type
  _atom_site_B_iso_or_equiv
  _atom_site_type_symbol
  Zr1      1.0000 0.12412  0.11275  0.11029  Biso   1.000  Zr
  Zr2      1.0000 0.13904  0.45409  0.38533  Biso   1.000  Zr
  Zr3      1.0000 0.37582  0.53900  0.12456  Biso   1.000  Zr
  Zr4      1.0000 0.36623  0.95786  0.37352  Biso   1.000  Zr
  Zr5      1.0000 0.01415  0.37512  0.22646  Biso   1.000  Zr
  Zr6      1.0000 0.03946  0.11282  0.44928  Biso   1.000  Zr
  Zr7      1.0000 0.47379  0.85546  0.20473  Biso   1.000  Zr
  Zr8      1.0000 0.47155  0.62571  0.45250  Biso   1.000  Zr
  Zr9      1.0000 0.27125  0.21771  0.24827  Biso   1.000  Zr
  Zr10     1.0000 0.27495  0.24920  0.50255  Biso   1.000  Zr
  Zr11     1.0000 0.23533  0.75152  0.50226  Biso   1.000  Zr
  Zr12     1.0000 0.23717  0.70388  0.25399  Biso   1.000  Zr
  Zr13     1.0000 0.13712  0.00866  0.62608  Biso   1.000  Zr
  Zr14     1.0000 0.11232  0.47357  0.84521  Biso   1.000  Zr
  Zr15     1.0000 0.37072  0.51448  0.62576  Biso   1.000  Zr
  Zr16     1.0000 0.37740  0.96535  0.86630  Biso   1.000  Zr
  Zr17     1.0000 0.02798  0.33130  0.67626  Biso   1.000  Zr
  Zr18     1.0000 0.02421  0.14199  0.92948  Biso   1.000  Zr
  Zr19     1.0000 0.47448  0.84139  0.69588  Biso   1.000  Zr
  Zr20     1.0000 0.47205  0.64217  0.94477  Biso   1.000  Zr
  Zr21     1.0000 0.26276  0.21870  0.75101  Biso   1.000  Zr
  Zr22     1.0000 0.23889  0.38347  0.99765  Biso   1.000  Zr
  Zr23     1.0000 0.24842  0.85408  0.01075  Biso   1.000  Zr
  Zr24     1.0000 0.24164  0.72097  0.74954  Biso   1.000  Zr
  Zr25     1.0000 0.63438  0.02971  0.12806  Biso   1.000  Zr
  Zr26     1.0000 0.63301  0.46051  0.37271  Biso   1.000  Zr
  Zr27     1.0000 0.85527  0.52986  0.12344  Biso   1.000  Zr
  Zr28     1.0000 0.87583  0.96373  0.36900  Biso   1.000  Zr
  Zr29     1.0000 0.53615  0.35561  0.20222  Biso   1.000  Zr
  Zr30     1.0000 0.53291  0.12612  0.44885  Biso   1.000  Zr
  Zr31     1.0000 0.97553  0.86169  0.19195  Biso   1.000  Zr
  Zr32     1.0000 0.97151  0.63409  0.45049  Biso   1.000  Zr
  Zr33     1.0000 0.76677  0.22033  0.24696  Biso   1.000  Zr
  Zr34     1.0000 0.76919  0.26399  0.49376  Biso   1.000  Zr
  Zr35     1.0000 0.73777  0.76644  0.49634  Biso   1.000  Zr
  Zr36     1.0000 0.73317  0.73135  0.25033  Biso   1.000  Zr
  Zr37     1.0000 0.63672  0.01963  0.61874  Biso   1.000  Zr
  Zr38     1.0000 0.63184  0.46044  0.87326  Biso   1.000  Zr
  Zr39     1.0000 0.86319  0.52266  0.61739  Biso   1.000  Zr
  Zr40     1.0000 0.86080  0.95903  0.87209  Biso   1.000  Zr
  Zr41     1.0000 0.53007  0.33699  0.70470  Biso   1.000  Zr
  Zr42     1.0000 0.52262  0.14977  0.95961  Biso   1.000  Zr
  Zr43     1.0000 0.98038  0.81495  0.71201  Biso   1.000  Zr
  Zr44     1.0000 0.97145  0.65052  0.96008  Biso   1.000  Zr
  Zr45     1.0000 0.76822  0.21792  0.74315  Biso   1.000  Zr
  Zr46     1.0000 0.76614  0.26363  0.99386  Biso   1.000  Zr
  Zr47     1.0000 0.72473  0.76577  0.99639  Biso   1.000  Zr
  Zr48     1.0000 0.73399  0.72045  0.74585  Biso   1.000  Zr
  V1       1.0000 0.11151  0.62176  0.10411  Biso   1.000  V 
