data_image0
_cell_length_a       10.0657
_cell_length_b       10.4659
_cell_length_c       10.1173
_cell_angle_alpha    89.9217
_cell_angle_beta     89.9451
_cell_angle_gamma    89.8037

_symmetry_space_group_name_H-M    "P 1"
_symmetry_int_tables_number       1

loop_
  _symmetry_equiv_pos_as_xyz
  'x, y, z'

loop_
  _atom_site_label
  _atom_site_occupancy
  _atom_site_fract_x
  _atom_site_fract_y
  _atom_site_fract_z
  _atom_site_thermal_displace_type
  _atom_site_B_iso_or_equiv
  _atom_site_type_symbol
  Zr1      1.0000 0.13047  0.01507  0.12328  Biso   1.000  Zr
  Zr2      1.0000 0.13450  0.23016  0.37945  Biso   1.000  Zr
  Zr3      1.0000 0.37674  0.26726  0.12148  Biso   1.000  Zr
  Zr4      1.0000 0.36725  0.48397  0.37197  Biso   1.000  Zr
  Zr5      1.0000 0.01437  0.16753  0.21743  Biso   1.000  Zr
  Zr6      1.0000 0.03583  0.06279  0.45054  Biso   1.000  Zr
  Zr7      1.0000 0.46793  0.43462  0.19649  Biso   1.000  Zr
  Zr8      1.0000 0.46838  0.31806  0.44715  Biso   1.000  Zr
  Zr9      1.0000 0.26522  0.11382  0.24977  Biso   1.000  Zr
  Zr10     1.0000 0.27135  0.13156  0.50049  Biso   1.000  Zr
  Zr11     1.0000 0.23301  0.38378  0.49484  Biso   1.000  Zr
  Zr12     1.0000 0.23043  0.36381  0.24135  Biso   1.000  Zr
  Zr13     1.0000 0.13378  0.01084  0.62490  Biso   1.000  Zr
  Zr14     1.0000 0.13311  0.23692  0.85691  Biso   1.000  Zr
  Zr15     1.0000 0.37063  0.26553  0.62167  Biso   1.000  Zr
  Zr16     1.0000 0.36775  0.48725  0.87208  Biso   1.000  Zr
  Zr17     1.0000 0.03046  0.17491  0.68934  Biso   1.000  Zr
  Zr18     1.0000 0.02934  0.06690  0.94509  Biso   1.000  Zr
  Zr19     1.0000 0.47043  0.43119  0.69596  Biso   1.000  Zr
  Zr20     1.0000 0.46795  0.32070  0.94387  Biso   1.000  Zr
  Zr21     1.0000 0.26881  0.11392  0.74917  Biso   1.000  Zr
  Zr22     1.0000 0.24620  0.15583  0.00819  Biso   1.000  Zr
  Zr23     1.0000 0.23195  0.39392  0.99322  Biso   1.000  Zr
  Zr24     1.0000 0.23725  0.36763  0.74147  Biso   1.000  Zr
  Zr25     1.0000 0.13715  0.53067  0.12011  Biso   1.000  Zr
  Zr26     1.0000 0.13472  0.73501  0.37530  Biso   1.000  Zr
  Zr27     1.0000 0.36775  0.76840  0.12384  Biso   1.000  Zr
  Zr28     1.0000 0.36578  0.98505  0.37453  Biso   1.000  Zr
  Zr29     1.0000 0.02911  0.68291  0.20335  Biso   1.000  Zr
  Zr30     1.0000 0.03431  0.56718  0.44690  Biso   1.000  Zr
  Zr31     1.0000 0.46484  0.93262  0.19714  Biso   1.000  Zr
  Zr32     1.0000 0.46798  0.81718  0.44594  Biso   1.000  Zr
  Zr33     1.0000 0.27426  0.62125  0.24772  Biso   1.000  Zr
  Zr34     1.0000 0.26938  0.63260  0.49683  Biso   1.000  Zr
  Zr35     1.0000 0.23335  0.88217  0.49699  Biso   1.000  Zr
  Zr36     1.0000 0.22975  0.86623  0.24649  Biso   1.000  Zr
  Zr37     1.0000 0.13442  0.51420  0.62275  Biso   1.000  Zr
  Zr38     1.0000 0.13181  0.73775  0.87014  Biso   1.000  Zr
  Zr39     1.0000 0.36865  0.76241  0.62201  Biso   1.000  Zr
  Zr40     1.0000 0.36952  0.98261  0.87043  Biso   1.000  Zr
  Zr41     1.0000 0.03462  0.67995  0.69394  Biso   1.000  Zr
  Zr42     1.0000 0.03224  0.57251  0.94526  Biso   1.000  Zr
  Zr43     1.0000 0.46843  0.92993  0.69739  Biso   1.000  Zr
  Zr44     1.0000 0.46956  0.81987  0.94572  Biso   1.000  Zr
  Zr45     1.0000 0.26895  0.61511  0.74486  Biso   1.000  Zr
  Zr46     1.0000 0.27011  0.64372  0.99260  Biso   1.000  Zr
  Zr47     1.0000 0.23414  0.89093  0.99514  Biso   1.000  Zr
  Zr48     1.0000 0.23451  0.86344  0.74526  Biso   1.000  Zr
  Zr49     1.0000 0.63184  0.01257  0.12549  Biso   1.000  Zr
  Zr50     1.0000 0.63394  0.23201  0.37670  Biso   1.000  Zr
  Zr51     1.0000 0.85238  0.26112  0.12624  Biso   1.000  Zr
  Zr52     1.0000 0.87051  0.48097  0.37239  Biso   1.000  Zr
  Zr53     1.0000 0.53394  0.17911  0.20274  Biso   1.000  Zr
  Zr54     1.0000 0.53325  0.06691  0.44926  Biso   1.000  Zr
  Zr55     1.0000 0.97630  0.41893  0.19616  Biso   1.000  Zr
  Zr56     1.0000 0.96889  0.31886  0.45186  Biso   1.000  Zr
  Zr57     1.0000 0.76212  0.11131  0.24980  Biso   1.000  Zr
  Zr58     1.0000 0.77010  0.13286  0.49805  Biso   1.000  Zr
  Zr59     1.0000 0.73412  0.38357  0.49860  Biso   1.000  Zr
  Zr60     1.0000 0.72881  0.36789  0.25076  Biso   1.000  Zr
  Zr61     1.0000 0.63579  0.01287  0.62346  Biso   1.000  Zr
  Zr62     1.0000 0.63265  0.23380  0.87268  Biso   1.000  Zr
  Zr63     1.0000 0.86533  0.26484  0.62421  Biso   1.000  Zr
  Zr64     1.0000 0.86742  0.48290  0.87698  Biso   1.000  Zr
  Zr65     1.0000 0.53443  0.17962  0.69728  Biso   1.000  Zr
  Zr66     1.0000 0.52324  0.07427  0.95348  Biso   1.000  Zr
  Zr67     1.0000 0.97301  0.42560  0.70574  Biso   1.000  Zr
  Zr68     1.0000 0.97165  0.31757  0.95869  Biso   1.000  Zr
  Zr69     1.0000 0.76849  0.11397  0.74732  Biso   1.000  Zr
  Zr70     1.0000 0.76333  0.13068  0.99637  Biso   1.000  Zr
  Zr71     1.0000 0.72849  0.38271  0.99779  Biso   1.000  Zr
  Zr72     1.0000 0.73355  0.36514  0.74901  Biso   1.000  Zr
  Zr73     1.0000 0.63408  0.51728  0.12473  Biso   1.000  Zr
  Zr74     1.0000 0.63453  0.73317  0.37435  Biso   1.000  Zr
  Zr75     1.0000 0.86489  0.76469  0.12533  Biso   1.000  Zr
  Zr76     1.0000 0.86955  0.98433  0.37308  Biso   1.000  Zr
  Zr77     1.0000 0.53625  0.68422  0.19476  Biso   1.000  Zr
  Zr78     1.0000 0.53297  0.56695  0.44598  Biso   1.000  Zr
  Zr79     1.0000 0.96340  0.92893  0.19559  Biso   1.000  Zr
  Zr80     1.0000 0.96745  0.81745  0.44760  Biso   1.000  Zr
  Zr81     1.0000 0.77064  0.61371  0.24727  Biso   1.000  Zr
  Zr82     1.0000 0.76931  0.63246  0.49691  Biso   1.000  Zr
  Zr83     1.0000 0.73343  0.88350  0.49667  Biso   1.000  Zr
  Zr84     1.0000 0.73014  0.86407  0.24799  Biso   1.000  Zr
  Zr85     1.0000 0.63578  0.51474  0.62377  Biso   1.000  Zr
  Zr86     1.0000 0.63503  0.73324  0.87406  Biso   1.000  Zr
  Zr87     1.0000 0.86692  0.76353  0.62307  Biso   1.000  Zr
  Zr88     1.0000 0.86684  0.98264  0.87466  Biso   1.000  Zr
  Zr89     1.0000 0.53570  0.68098  0.69595  Biso   1.000  Zr
  Zr90     1.0000 0.53384  0.56925  0.94654  Biso   1.000  Zr
  Zr91     1.0000 0.96878  0.92643  0.69961  Biso   1.000  Zr
  Zr92     1.0000 0.96694  0.81725  0.94909  Biso   1.000  Zr
  Zr93     1.0000 0.77130  0.61327  0.74787  Biso   1.000  Zr
  Zr94     1.0000 0.76941  0.63254  0.99736  Biso   1.000  Zr
  Zr95     1.0000 0.72990  0.88286  0.99720  Biso   1.000  Zr
  Zr96     1.0000 0.73198  0.86350  0.74642  Biso   1.000  Zr
  V1       1.0000 0.10796  0.29069  0.10400  Biso   1.000  V 
