data_image0
_cell_length_a       10.1548
_cell_length_b       10.3403
_cell_length_c       10.5477
_cell_angle_alpha    89.7044
_cell_angle_beta     90.4528
_cell_angle_gamma    89.9452

_symmetry_space_group_name_H-M    "P 1"
_symmetry_int_tables_number       1

loop_
  _symmetry_equiv_pos_as_xyz
  'x, y, z'

loop_
  _atom_site_label
  _atom_site_occupancy
  _atom_site_fract_x
  _atom_site_fract_y
  _atom_site_fract_z
  _atom_site_thermal_displace_type
  _atom_site_B_iso_or_equiv
  _atom_site_type_symbol
  Zr1      1.0000 0.13852  0.01957  0.17124  Biso   1.000  Zr
  Zr2      1.0000 0.13530  0.22958  0.42376  Biso   1.000  Zr
  Zr3      1.0000 0.34840  0.26875  0.17775  Biso   1.000  Zr
  Zr4      1.0000 0.36096  0.48020  0.42346  Biso   1.000  Zr
  Zr5      1.0000 0.63874  0.01337  0.06805  Biso   1.000  Zr
  Zr6      1.0000 0.63486  0.23148  0.34602  Biso   1.000  Zr
  Zr7      1.0000 0.87476  0.27107  0.07421  Biso   1.000  Zr
  Zr8      1.0000 0.86416  0.48094  0.32961  Biso   1.000  Zr
  O1       1.0000 0.03830  0.16169  0.07830  Biso   1.000  O
  O2       1.0000 0.02485  0.09230  0.32720  Biso   1.000  O
  O3       1.0000 0.46710  0.41776  0.08454  Biso   1.000  O
  O4       1.0000 0.46093  0.33353  0.33680  Biso   1.000  O
  O5       1.0000 0.26676  0.12466  0.29881  Biso   1.000  O
  O6       1.0000 0.27506  0.12292  0.04324  Biso   1.000  O
  O7       1.0000 0.21950  0.37651  0.29856  Biso   1.000  O
  O8       1.0000 0.22385  0.37588  0.04374  Biso   1.000  O
  O9       1.0000 0.50179  0.13433  0.17549  Biso   1.000  O
  O10      1.0000 0.52941  0.08700  0.42677  Biso   1.000  O
  O11      1.0000 0.97155  0.41438  0.17035  Biso   1.000  O
  O12      1.0000 0.96703  0.33897  0.42159  Biso   1.000  O
  O13      1.0000 0.77867  0.12171  0.45704  Biso   1.000  O
  O14      1.0000 0.75090  0.14181  0.19660  Biso   1.000  O
  O15      1.0000 0.72589  0.37466  0.46129  Biso   1.000  O
  O16      1.0000 0.72627  0.38751  0.20835  Biso   1.000  O
  Zr9      1.0000 0.14081  0.02035  0.67054  Biso   1.000  Zr
  Zr10     1.0000 0.14394  0.22643  0.91777  Biso   1.000  Zr
  Zr11     1.0000 0.36546  0.26980  0.67260  Biso   1.000  Zr
  Zr12     1.0000 0.36079  0.47893  0.91872  Biso   1.000  Zr
  Zr13     1.0000 0.63930  0.02078  0.58224  Biso   1.000  Zr
  Zr14     1.0000 0.64338  0.22353  0.83513  Biso   1.000  Zr
  Zr15     1.0000 0.86198  0.27048  0.58328  Biso   1.000  Zr
  Zr16     1.0000 0.86325  0.47976  0.82977  Biso   1.000  Zr
  O17      1.0000 0.03240  0.16378  0.58274  Biso   1.000  O
  O18      1.0000 0.03792  0.08431  0.82979  Biso   1.000  O
  O19      1.0000 0.46939  0.41520  0.58503  Biso   1.000  O
  O20      1.0000 0.46876  0.33269  0.83869  Biso   1.000  O
  O21      1.0000 0.27873  0.12299  0.79382  Biso   1.000  O
  O22      1.0000 0.27504  0.12568  0.54597  Biso   1.000  O
  O23      1.0000 0.22729  0.37360  0.79407  Biso   1.000  O
  O24      1.0000 0.22603  0.37555  0.54649  Biso   1.000  O
  O25      1.0000 0.53507  0.16523  0.66913  Biso   1.000  O
  O26      1.0000 0.53467  0.06947  0.90411  Biso   1.000  O
  O27      1.0000 0.96820  0.41481  0.66837  Biso   1.000  O
  O28      1.0000 0.97258  0.33634  0.91406  Biso   1.000  O
  O29      1.0000 0.79506  0.11614  0.94700  Biso   1.000  O
  O30      1.0000 0.77781  0.12388  0.70350  Biso   1.000  O
  O31      1.0000 0.72527  0.37652  0.96546  Biso   1.000  O
  O32      1.0000 0.72691  0.37526  0.71156  Biso   1.000  O
  Zr17     1.0000 0.14001  0.52210  0.17150  Biso   1.000  Zr
  Zr18     1.0000 0.13786  0.72996  0.42099  Biso   1.000  Zr
  Zr19     1.0000 0.36000  0.77210  0.17256  Biso   1.000  Zr
  Zr20     1.0000 0.36156  0.97883  0.42359  Biso   1.000  Zr
  Zr21     1.0000 0.64162  0.53720  0.07733  Biso   1.000  Zr
  Zr22     1.0000 0.63911  0.73149  0.32993  Biso   1.000  Zr
  Zr23     1.0000 0.86509  0.77369  0.07874  Biso   1.000  Zr
  Zr24     1.0000 0.85923  0.98080  0.32784  Biso   1.000  Zr
  O33      1.0000 0.03350  0.66388  0.08182  Biso   1.000  O
  O34      1.0000 0.03169  0.58886  0.33110  Biso   1.000  O
  O35      1.0000 0.46719  0.90466  0.07566  Biso   1.000  O
  O36      1.0000 0.46821  0.83892  0.33215  Biso   1.000  O
  O37      1.0000 0.27413  0.62523  0.29624  Biso   1.000  O
  O38      1.0000 0.27715  0.62431  0.04503  Biso   1.000  O
  O39      1.0000 0.22437  0.87490  0.29608  Biso   1.000  O
  O40      1.0000 0.22243  0.87395  0.04621  Biso   1.000  O
  O41      1.0000 0.53079  0.66635  0.17161  Biso   1.000  O
  O42      1.0000 0.53283  0.58591  0.41834  Biso   1.000  O
  O43      1.0000 0.96682  0.91768  0.16674  Biso   1.000  O
  O44      1.0000 0.96633  0.83921  0.41522  Biso   1.000  O
  O45      1.0000 0.77572  0.62459  0.45435  Biso   1.000  O
  O46      1.0000 0.77788  0.63335  0.20509  Biso   1.000  O
  O47      1.0000 0.72396  0.87493  0.45523  Biso   1.000  O
  O48      1.0000 0.72722  0.87831  0.20527  Biso   1.000  O
  Zr25     1.0000 0.13861  0.52032  0.67025  Biso   1.000  Zr
  Zr26     1.0000 0.13989  0.72768  0.92109  Biso   1.000  Zr
  Zr27     1.0000 0.36230  0.76955  0.67081  Biso   1.000  Zr
  Zr28     1.0000 0.36093  0.97435  0.91982  Biso   1.000  Zr
  Zr29     1.0000 0.64013  0.52110  0.57994  Biso   1.000  Zr
  Zr30     1.0000 0.64005  0.72915  0.82534  Biso   1.000  Zr
  Zr31     1.0000 0.86212  0.77189  0.57738  Biso   1.000  Zr
  Zr32     1.0000 0.86611  0.97693  0.82673  Biso   1.000  Zr
  O49      1.0000 0.03198  0.66395  0.57990  Biso   1.000  O
  O50      1.0000 0.03308  0.58616  0.83062  Biso   1.000  O
  O51      1.0000 0.46821  0.91269  0.58377  Biso   1.000  O
  O52      1.0000 0.46745  0.83058  0.83022  Biso   1.000  O
  O53      1.0000 0.27553  0.62236  0.79428  Biso   1.000  O
  O54      1.0000 0.27404  0.62553  0.54495  Biso   1.000  O
  O55      1.0000 0.22578  0.87211  0.79452  Biso   1.000  O
  O56      1.0000 0.22570  0.87522  0.54448  Biso   1.000  O
  O57      1.0000 0.53309  0.66354  0.66587  Biso   1.000  O
  O58      1.0000 0.53303  0.58674  0.91616  Biso   1.000  O
  O59      1.0000 0.97126  0.91272  0.66437  Biso   1.000  O
  O60      1.0000 0.97235  0.83564  0.91813  Biso   1.000  O
  O61      1.0000 0.77883  0.62664  0.95241  Biso   1.000  O
  O62      1.0000 0.77689  0.62530  0.70366  Biso   1.000  O
  O63      1.0000 0.72864  0.86984  0.95219  Biso   1.000  O
  O64      1.0000 0.72718  0.87420  0.70375  Biso   1.000  O
  W1       1.0000 0.60726  0.27269  0.10346  Biso   1.000  W
