data_image0
_cell_length_a       10.1607
_cell_length_b       5.1549
_cell_length_c       10.5073
_cell_angle_alpha    89.96
_cell_angle_beta     80.0088
_cell_angle_gamma    89.674

_symmetry_space_group_name_H-M    "P 1"
_symmetry_int_tables_number       1

loop_
  _symmetry_equiv_pos_as_xyz
  'x, y, z'

loop_
  _atom_site_label
  _atom_site_occupancy
  _atom_site_fract_x
  _atom_site_fract_y
  _atom_site_fract_z
  _atom_site_thermal_displace_type
  _atom_site_B_iso_or_equiv
  _atom_site_type_symbol
  W1       1.0000 0.14040  0.04290  0.14707  Biso   1.000  W
  Zr1      1.0000 0.13940  0.45852  0.39472  Biso   1.000  Zr
  Zr2      1.0000 0.35646  0.55605  0.10475  Biso   1.000  Zr
  Zr3      1.0000 0.36206  0.95872  0.35385  Biso   1.000  Zr
  O1       1.0000 0.03953  0.32085  0.08155  Biso   1.000  O
  O2       1.0000 0.04074  0.15697  0.32069  Biso   1.000  O
  O3       1.0000 0.46736  0.83669  0.17305  Biso   1.000  O
  O4       1.0000 0.46627  0.66571  0.42113  Biso   1.000  O
  O5       1.0000 0.27365  0.25439  0.23714  Biso   1.000  O
  O6       1.0000 0.27741  0.24459  0.49035  Biso   1.000  O
  O7       1.0000 0.21008  0.76147  0.01036  Biso   1.000  O
  O8       1.0000 0.22081  0.74931  0.25913  Biso   1.000  O
  Zr4      1.0000 0.13823  0.04209  0.64527  Biso   1.000  Zr
  Zr5      1.0000 0.13965  0.45377  0.89602  Biso   1.000  Zr
  Zr6      1.0000 0.36140  0.54423  0.60474  Biso   1.000  Zr
  Zr7      1.0000 0.35828  0.95946  0.85581  Biso   1.000  Zr
  O9       1.0000 0.03288  0.32827  0.57432  Biso   1.000  O
  O10      1.0000 0.03248  0.16594  0.82665  Biso   1.000  O
  O11      1.0000 0.46431  0.83843  0.67137  Biso   1.000  O
  O12      1.0000 0.45950  0.66373  0.92170  Biso   1.000  O
  O13      1.0000 0.27587  0.25669  0.74107  Biso   1.000  O
  O14      1.0000 0.27443  0.23988  0.99655  Biso   1.000  O
  O15      1.0000 0.22364  0.75612  0.50839  Biso   1.000  O
  O16      1.0000 0.22351  0.74198  0.75918  Biso   1.000  O
  Zr8      1.0000 0.63861  0.04788  0.14523  Biso   1.000  Zr
  Zr9      1.0000 0.64074  0.45852  0.39493  Biso   1.000  Zr
  Zr10     1.0000 0.86490  0.54364  0.10384  Biso   1.000  Zr
  Zr11     1.0000 0.86212  0.95787  0.35359  Biso   1.000  Zr
  O17      1.0000 0.53307  0.34242  0.08103  Biso   1.000  O
  O18      1.0000 0.53605  0.16655  0.33044  Biso   1.000  O
  O19      1.0000 0.97969  0.82731  0.16820  Biso   1.000  O
  O20      1.0000 0.96473  0.66214  0.41949  Biso   1.000  O
  O21      1.0000 0.77866  0.25656  0.23997  Biso   1.000  O
  O22      1.0000 0.77800  0.24106  0.48976  Biso   1.000  O
  O23      1.0000 0.72251  0.75958  0.00998  Biso   1.000  O
  O24      1.0000 0.73051  0.74438  0.25882  Biso   1.000  O
  Zr12     1.0000 0.63803  0.04311  0.64653  Biso   1.000  Zr
  Zr13     1.0000 0.63713  0.45802  0.89747  Biso   1.000  Zr
  Zr14     1.0000 0.85982  0.54203  0.60504  Biso   1.000  Zr
  Zr15     1.0000 0.86040  0.95568  0.85525  Biso   1.000  Zr
  O25      1.0000 0.53665  0.33966  0.57987  Biso   1.000  O
  O26      1.0000 0.53270  0.16457  0.83112  Biso   1.000  O
  O27      1.0000 0.96565  0.83028  0.67102  Biso   1.000  O
  O28      1.0000 0.96434  0.65899  0.92171  Biso   1.000  O
  O29      1.0000 0.77459  0.25703  0.74106  Biso   1.000  O
  O30      1.0000 0.77584  0.24490  0.99057  Biso   1.000  O
  O31      1.0000 0.72425  0.75815  0.50971  Biso   1.000  O
  O32      1.0000 0.72265  0.74292  0.76047  Biso   1.000  O
