data_image0
_cell_length_a       10.0656
_cell_length_b       10.2698
_cell_length_c       5.25072
_cell_angle_alpha    90.015
_cell_angle_beta     89.8227
_cell_angle_gamma    89.9202

_symmetry_space_group_name_H-M    "P 1"
_symmetry_int_tables_number       1

loop_
  _symmetry_equiv_pos_as_xyz
  'x, y, z'

loop_
  _atom_site_label
  _atom_site_occupancy
  _atom_site_fract_x
  _atom_site_fract_y
  _atom_site_fract_z
  _atom_site_thermal_displace_type
  _atom_site_B_iso_or_equiv
  _atom_site_type_symbol
  W1       1.0000 0.13897  0.02466  0.34834  Biso   1.000  W
  Zr1      1.0000 0.13984  0.22779  0.84089  Biso   1.000  Zr
  Zr2      1.0000 0.36014  0.27106  0.34456  Biso   1.000  Zr
  Zr3      1.0000 0.36111  0.47980  0.84372  Biso   1.000  Zr
  Zr4      1.0000 0.63863  0.02170  0.15525  Biso   1.000  Zr
  Zr5      1.0000 0.63869  0.22946  0.65744  Biso   1.000  Zr
  Zr6      1.0000 0.86254  0.27008  0.15723  Biso   1.000  Zr
  Zr7      1.0000 0.86110  0.47872  0.65803  Biso   1.000  Zr
  O1       1.0000 0.03362  0.15817  0.16357  Biso   1.000  O
  O2       1.0000 0.03973  0.07888  0.65243  Biso   1.000  O
  O3       1.0000 0.46669  0.41560  0.16914  Biso   1.000  O
  O4       1.0000 0.46677  0.33475  0.66884  Biso   1.000  O
  O5       1.0000 0.27840  0.12053  0.59466  Biso   1.000  O
  O6       1.0000 0.27231  0.12240  0.10286  Biso   1.000  O
  O7       1.0000 0.22486  0.37477  0.59110  Biso   1.000  O
  O8       1.0000 0.22416  0.37446  0.08957  Biso   1.000  O
  O9       1.0000 0.53287  0.16533  0.33435  Biso   1.000  O
  O10      1.0000 0.53095  0.08642  0.83568  Biso   1.000  O
  O11      1.0000 0.96887  0.41281  0.33459  Biso   1.000  O
  O12      1.0000 0.96761  0.33130  0.83148  Biso   1.000  O
  O13      1.0000 0.77628  0.12335  0.90552  Biso   1.000  O
  O14      1.0000 0.77705  0.12581  0.40829  Biso   1.000  O
  O15      1.0000 0.72465  0.37399  0.91100  Biso   1.000  O
  O16      1.0000 0.72452  0.37588  0.41000  Biso   1.000  O
  Zr8      1.0000 0.13912  0.52138  0.34323  Biso   1.000  Zr
  Zr9      1.0000 0.13843  0.72977  0.84325  Biso   1.000  Zr
  Zr10     1.0000 0.35839  0.77511  0.34355  Biso   1.000  Zr
  Zr11     1.0000 0.35990  0.97827  0.84551  Biso   1.000  Zr
  Zr12     1.0000 0.63857  0.52209  0.15962  Biso   1.000  Zr
  Zr13     1.0000 0.63816  0.72867  0.65728  Biso   1.000  Zr
  Zr14     1.0000 0.86290  0.77280  0.15564  Biso   1.000  Zr
  Zr15     1.0000 0.86016  0.97838  0.65401  Biso   1.000  Zr
  O17      1.0000 0.03170  0.66312  0.16456  Biso   1.000  O
  O18      1.0000 0.03241  0.58471  0.66676  Biso   1.000  O
  O19      1.0000 0.46786  0.91470  0.16544  Biso   1.000  O
  O20      1.0000 0.46570  0.83578  0.66685  Biso   1.000  O
  O21      1.0000 0.27569  0.62572  0.59129  Biso   1.000  O
  O22      1.0000 0.27595  0.62783  0.09161  Biso   1.000  O
  O23      1.0000 0.21838  0.87720  0.58822  Biso   1.000  O
  O24      1.0000 0.21665  0.88038  0.09663  Biso   1.000  O
  O25      1.0000 0.53175  0.66691  0.33288  Biso   1.000  O
  O26      1.0000 0.53311  0.58459  0.83304  Biso   1.000  O
  O27      1.0000 0.97555  0.91776  0.32525  Biso   1.000  O
  O28      1.0000 0.96667  0.83518  0.82944  Biso   1.000  O
  O29      1.0000 0.77620  0.62481  0.91127  Biso   1.000  O
  O30      1.0000 0.77582  0.62588  0.41113  Biso   1.000  O
  O31      1.0000 0.72315  0.87456  0.90659  Biso   1.000  O
  O32      1.0000 0.72736  0.87665  0.40842  Biso   1.000  O
