data_image0
_cell_length_a       5.07334
_cell_length_b       10.3236
_cell_length_c       10.4901
_cell_angle_alpha    89.9322
_cell_angle_beta     80.0944
_cell_angle_gamma    89.741

_symmetry_space_group_name_H-M    "P 1"
_symmetry_int_tables_number       1

loop_
  _symmetry_equiv_pos_as_xyz
  'x, y, z'

loop_
  _atom_site_label
  _atom_site_occupancy
  _atom_site_fract_x
  _atom_site_fract_y
  _atom_site_fract_z
  _atom_site_thermal_displace_type
  _atom_site_B_iso_or_equiv
  _atom_site_type_symbol
  W1       1.0000 0.28534  0.02081  0.14814  Biso   1.000  W
  Zr1      1.0000 0.28078  0.22974  0.39397  Biso   1.000  Zr
  Zr2      1.0000 0.72640  0.27022  0.10588  Biso   1.000  Zr
  Zr3      1.0000 0.72308  0.47975  0.35379  Biso   1.000  Zr
  O1       1.0000 0.08071  0.16614  0.08505  Biso   1.000  O
  O2       1.0000 0.08781  0.07672  0.32159  Biso   1.000  O
  O3       1.0000 0.92940  0.42025  0.16852  Biso   1.000  O
  O4       1.0000 0.92717  0.32867  0.41747  Biso   1.000  O
  O5       1.0000 0.55468  0.12625  0.23970  Biso   1.000  O
  O6       1.0000 0.55785  0.12074  0.48947  Biso   1.000  O
  O7       1.0000 0.44796  0.37836  0.01032  Biso   1.000  O
  O8       1.0000 0.45045  0.37082  0.25909  Biso   1.000  O
  Zr4      1.0000 0.27664  0.02083  0.64513  Biso   1.000  Zr
  Zr5      1.0000 0.27726  0.22694  0.89643  Biso   1.000  Zr
  Zr6      1.0000 0.72172  0.27131  0.60434  Biso   1.000  Zr
  Zr7      1.0000 0.71964  0.47822  0.85598  Biso   1.000  Zr
  O9       1.0000 0.07070  0.16724  0.57641  Biso   1.000  O
  O10      1.0000 0.06594  0.08159  0.82929  Biso   1.000  O
  O11      1.0000 0.92927  0.41791  0.67007  Biso   1.000  O
  O12      1.0000 0.92736  0.32754  0.92134  Biso   1.000  O
  O13      1.0000 0.55069  0.12859  0.74101  Biso   1.000  O
  O14      1.0000 0.54496  0.11852  0.99491  Biso   1.000  O
  O15      1.0000 0.44692  0.37849  0.50927  Biso   1.000  O
  O16      1.0000 0.44671  0.37052  0.76024  Biso   1.000  O
  Zr8      1.0000 0.27779  0.52340  0.14494  Biso   1.000  Zr
  Zr9      1.0000 0.28016  0.72888  0.39550  Biso   1.000  Zr
  Zr10     1.0000 0.71781  0.77899  0.10425  Biso   1.000  Zr
  Zr11     1.0000 0.72551  0.97890  0.35339  Biso   1.000  Zr
  O17      1.0000 0.06577  0.67010  0.08128  Biso   1.000  O
  O18      1.0000 0.07252  0.57983  0.33158  Biso   1.000  O
  O19      1.0000 0.95198  0.92183  0.16505  Biso   1.000  O
  O20      1.0000 0.93167  0.83154  0.41928  Biso   1.000  O
  O21      1.0000 0.55095  0.63241  0.24087  Biso   1.000  O
  O22      1.0000 0.55470  0.62102  0.49138  Biso   1.000  O
  O23      1.0000 0.42177  0.88114  0.01062  Biso   1.000  O
  O24      1.0000 0.44445  0.87710  0.25929  Biso   1.000  O
  Zr12     1.0000 0.27757  0.52107  0.64640  Biso   1.000  Zr
  Zr13     1.0000 0.27389  0.72865  0.89704  Biso   1.000  Zr
  Zr14     1.0000 0.72148  0.77104  0.60525  Biso   1.000  Zr
  Zr15     1.0000 0.71769  0.97887  0.85500  Biso   1.000  Zr
  O25      1.0000 0.07217  0.66935  0.58042  Biso   1.000  O
  O26      1.0000 0.06854  0.57964  0.83134  Biso   1.000  O
  O27      1.0000 0.92771  0.91933  0.66945  Biso   1.000  O
  O28      1.0000 0.91909  0.83044  0.91909  Biso   1.000  O
  O29      1.0000 0.55143  0.62837  0.74155  Biso   1.000  O
  O30      1.0000 0.55105  0.62231  0.99144  Biso   1.000  O
  O31      1.0000 0.44967  0.87867  0.50877  Biso   1.000  O
  O32      1.0000 0.44519  0.87097  0.75945  Biso   1.000  O
