data_image0
_cell_length_a       10.2384
_cell_length_b       5.1771
_cell_length_c       10.5177
_cell_angle_alpha    90.0127
_cell_angle_beta     80.2558
_cell_angle_gamma    89.9997

_symmetry_space_group_name_H-M    "P 1"
_symmetry_int_tables_number       1

loop_
  _symmetry_equiv_pos_as_xyz
  'x, y, z'

loop_
  _atom_site_label
  _atom_site_occupancy
  _atom_site_fract_x
  _atom_site_fract_y
  _atom_site_fract_z
  _atom_site_thermal_displace_type
  _atom_site_B_iso_or_equiv
  _atom_site_type_symbol
  Yb1      1.0000 0.13780  0.03525  0.14818  Biso   1.000  Yb
  Zr1      1.0000 0.13984  0.04203  0.64595  Biso   1.000  Zr
  Zr2      1.0000 0.63773  0.03988  0.14497  Biso   1.000  Zr
  Zr3      1.0000 0.63853  0.04279  0.64568  Biso   1.000  Zr
  Zr4      1.0000 0.14008  0.45613  0.39598  Biso   1.000  Zr
  Zr5      1.0000 0.14047  0.45916  0.89584  Biso   1.000  Zr
  Zr6      1.0000 0.63727  0.45632  0.39557  Biso   1.000  Zr
  Zr7      1.0000 0.63908  0.45771  0.89459  Biso   1.000  Zr
  Zr8      1.0000 0.36108  0.53891  0.10350  Biso   1.000  Zr
  Zr9      1.0000 0.36093  0.54300  0.60488  Biso   1.000  Zr
  Zr10     1.0000 0.85814  0.53880  0.10344  Biso   1.000  Zr
  Zr11     1.0000 0.86094  0.54312  0.60391  Biso   1.000  Zr
  Zr12     1.0000 0.36087  0.95706  0.35432  Biso   1.000  Zr
  Zr13     1.0000 0.36163  0.95813  0.85513  Biso   1.000  Zr
  Zr14     1.0000 0.85853  0.95729  0.35528  Biso   1.000  Zr
  Zr15     1.0000 0.86114  0.95772  0.85403  Biso   1.000  Zr
  O1       1.0000 0.03457  0.35211  0.07878  Biso   1.000  O
  O2       1.0000 0.03469  0.33766  0.58090  Biso   1.000  O
  O3       1.0000 0.53605  0.33570  0.07908  Biso   1.000  O
  O4       1.0000 0.53441  0.33598  0.57997  Biso   1.000  O
  O5       1.0000 0.03023  0.16810  0.33647  Biso   1.000  O
  O6       1.0000 0.03476  0.16389  0.82991  Biso   1.000  O
  O7       1.0000 0.53486  0.16154  0.32994  Biso   1.000  O
  O8       1.0000 0.53622  0.16371  0.82885  Biso   1.000  O
  O9       1.0000 0.46521  0.83560  0.17026  Biso   1.000  O
  O10      1.0000 0.46568  0.83586  0.67043  Biso   1.000  O
  O11      1.0000 0.95592  0.83546  0.17043  Biso   1.000  O
  O12      1.0000 0.96581  0.83645  0.66970  Biso   1.000  O
  O13      1.0000 0.46479  0.66257  0.42117  Biso   1.000  O
  O14      1.0000 0.46936  0.66785  0.92015  Biso   1.000  O
  O15      1.0000 0.96573  0.66665  0.42011  Biso   1.000  O
  O16      1.0000 0.96498  0.66541  0.91890  Biso   1.000  O
  O17      1.0000 0.27985  0.26106  0.24520  Biso   1.000  O
  O18      1.0000 0.27544  0.25786  0.74010  Biso   1.000  O
  O19      1.0000 0.77423  0.25559  0.24065  Biso   1.000  O
  O20      1.0000 0.77629  0.25779  0.73945  Biso   1.000  O
  O21      1.0000 0.27527  0.24129  0.49232  Biso   1.000  O
  O22      1.0000 0.28065  0.24873  0.98630  Biso   1.000  O
  O23      1.0000 0.77435  0.24344  0.49078  Biso   1.000  O
  O24      1.0000 0.77525  0.24081  0.98959  Biso   1.000  O
  O25      1.0000 0.23003  0.75118  0.00426  Biso   1.000  O
  O26      1.0000 0.22442  0.75719  0.50982  Biso   1.000  O
  O27      1.0000 0.72412  0.75714  0.00838  Biso   1.000  O
  O28      1.0000 0.72422  0.75745  0.50925  Biso   1.000  O
  O29      1.0000 0.22776  0.73533  0.26057  Biso   1.000  O
  O30      1.0000 0.22481  0.74408  0.75833  Biso   1.000  O
  O31      1.0000 0.72035  0.74061  0.26040  Biso   1.000  O
  O32      1.0000 0.72561  0.74264  0.75829  Biso   1.000  O
