data_image0
_cell_length_a       10.1194
_cell_length_b       10.2848
_cell_length_c       10.1201
_cell_angle_alpha    89.6085
_cell_angle_beta     90.0003
_cell_angle_gamma    90.0026

_symmetry_space_group_name_H-M    "P 1"
_symmetry_int_tables_number       1

loop_
  _symmetry_equiv_pos_as_xyz
  'x, y, z'

loop_
  _atom_site_label
  _atom_site_occupancy
  _atom_site_fract_x
  _atom_site_fract_y
  _atom_site_fract_z
  _atom_site_thermal_displace_type
  _atom_site_B_iso_or_equiv
  _atom_site_type_symbol
  Zr1      1.0000 0.13444  0.97115  0.09866  Biso   1.000  Zr
  Zr2      1.0000 0.12600  0.24885  0.37648  Biso   1.000  Zr
  Zr3      1.0000 0.38273  0.25008  0.10645  Biso   1.000  Zr
  Zr4      1.0000 0.37680  0.49547  0.35910  Biso   1.000  Zr
  Zr5      1.0000 0.97309  0.16855  0.25682  Biso   1.000  Zr
  Zr6      1.0000 0.00242  0.10493  0.49224  Biso   1.000  Zr
  Zr7      1.0000 0.49905  0.39726  0.22718  Biso   1.000  Zr
  Zr8      1.0000 0.49837  0.35368  0.47807  Biso   1.000  Zr
  Zr9      1.0000 0.23357  0.10235  0.22713  Biso   1.000  Zr
  Zr10     1.0000 0.26012  0.14226  0.47957  Biso   1.000  Zr
  Zr11     1.0000 0.25041  0.39544  0.48786  Biso   1.000  Zr
  Zr12     1.0000 0.25182  0.35624  0.24101  Biso   1.000  Zr
  Zr13     1.0000 0.12470  0.99398  0.60936  Biso   1.000  Zr
  Zr14     1.0000 0.12599  0.25131  0.83643  Biso   1.000  Zr
  Zr15     1.0000 0.37869  0.25009  0.60645  Biso   1.000  Zr
  Zr16     1.0000 0.37151  0.49621  0.86114  Biso   1.000  Zr
  Zr17     1.0000 0.99378  0.14001  0.73678  Biso   1.000  Zr
  Zr18     1.0000 0.99620  0.08954  0.00249  Biso   1.000  Zr
  Zr19     1.0000 0.50314  0.39745  0.72818  Biso   1.000  Zr
  Zr20     1.0000 0.48883  0.35404  0.97036  Biso   1.000  Zr
  Zr21     1.0000 0.25040  0.10472  0.72505  Biso   1.000  Zr
  Zr22     1.0000 0.25180  0.14390  0.97190  Biso   1.000  Zr
  Zr23     1.0000 0.23358  0.39780  0.98579  Biso   1.000  Zr
  Zr24     1.0000 0.26013  0.35789  0.73334  Biso   1.000  Zr
  Zr25     1.0000 0.13445  0.52900  0.11422  Biso   1.000  Zr
  Zr26     1.0000 0.12631  0.75665  0.36392  Biso   1.000  Zr
  Zr27     1.0000 0.38740  0.75007  0.10646  Biso   1.000  Zr
  Zr28     1.0000 0.37148  0.00395  0.35175  Biso   1.000  Zr
  Zr29     1.0000 0.01042  0.65862  0.22727  Biso   1.000  Zr
  Zr30     1.0000 0.00353  0.60770  0.47502  Biso   1.000  Zr
  Zr31     1.0000 0.50094  0.89695  0.22831  Biso   1.000  Zr
  Zr32     1.0000 0.49707  0.85381  0.47794  Biso   1.000  Zr
  Zr33     1.0000 0.26345  0.61282  0.23683  Biso   1.000  Zr
  Zr34     1.0000 0.25125  0.64674  0.48470  Biso   1.000  Zr
  Zr35     1.0000 0.24631  0.89649  0.47869  Biso   1.000  Zr
  Zr36     1.0000 0.25528  0.85239  0.22992  Biso   1.000  Zr
  Zr37     1.0000 0.12470  0.50617  0.60353  Biso   1.000  Zr
  Zr38     1.0000 0.12630  0.74349  0.84899  Biso   1.000  Zr
  Zr39     1.0000 0.37806  0.75007  0.60646  Biso   1.000  Zr
  Zr40     1.0000 0.37678  0.00467  0.85378  Biso   1.000  Zr
  Zr41     1.0000 0.99848  0.64373  0.72662  Biso   1.000  Zr
  Zr42     1.0000 0.00415  0.59604  0.97513  Biso   1.000  Zr
  Zr43     1.0000 0.50108  0.89651  0.72950  Biso   1.000  Zr
  Zr44     1.0000 0.51083  0.85296  0.98005  Biso   1.000  Zr
  Zr45     1.0000 0.24632  0.60366  0.73421  Biso   1.000  Zr
  Zr46     1.0000 0.25530  0.64777  0.98298  Biso   1.000  Zr
  Zr47     1.0000 0.26345  0.88733  0.97607  Biso   1.000  Zr
  Zr48     1.0000 0.25126  0.85343  0.72821  Biso   1.000  Zr
  Zr49     1.0000 0.62732  0.99418  0.10073  Biso   1.000  Zr
  Zr50     1.0000 0.62183  0.24803  0.35803  Biso   1.000  Zr
  Zr51     1.0000 0.84807  0.25008  0.10645  Biso   1.000  Zr
  Zr52     1.0000 0.87845  0.49727  0.35322  Biso   1.000  Zr
  Zr53     1.0000 0.48883  0.14610  0.24251  Biso   1.000  Zr
  Zr54     1.0000 0.50313  0.10270  0.48470  Biso   1.000  Zr
  Zr55     1.0000 0.99621  0.41061  0.21042  Biso   1.000  Zr
  Zr56     1.0000 0.99380  0.36014  0.47612  Biso   1.000  Zr
  Zr57     1.0000 0.73636  0.10477  0.23036  Biso   1.000  Zr
  Zr58     1.0000 0.75309  0.14918  0.47808  Biso   1.000  Zr
  Zr59     1.0000 0.75054  0.39820  0.48479  Biso   1.000  Zr
  Zr60     1.0000 0.74437  0.36184  0.23964  Biso   1.000  Zr
  Zr61     1.0000 0.62678  0.99956  0.60655  Biso   1.000  Zr
  Zr62     1.0000 0.62182  0.25212  0.85486  Biso   1.000  Zr
  Zr63     1.0000 0.87366  0.25008  0.60645  Biso   1.000  Zr
  Zr64     1.0000 0.87647  0.49043  0.85824  Biso   1.000  Zr
  Zr65     1.0000 0.49836  0.14648  0.73482  Biso   1.000  Zr
  Zr66     1.0000 0.49903  0.10288  0.98570  Biso   1.000  Zr
  Zr67     1.0000 0.00243  0.39522  0.72067  Biso   1.000  Zr
  Zr68     1.0000 0.97310  0.33160  0.95609  Biso   1.000  Zr
  Zr69     1.0000 0.75052  0.10196  0.72811  Biso   1.000  Zr
  Zr70     1.0000 0.74436  0.13831  0.97326  Biso   1.000  Zr
  Zr71     1.0000 0.73637  0.39539  0.98254  Biso   1.000  Zr
  Zr72     1.0000 0.75310  0.35098  0.73482  Biso   1.000  Zr
  Zr73     1.0000 0.62734  0.50599  0.11218  Biso   1.000  Zr
  Zr74     1.0000 0.62770  0.75486  0.35924  Biso   1.000  Zr
  Zr75     1.0000 0.87166  0.75011  0.10648  Biso   1.000  Zr
  Zr76     1.0000 0.87646  0.00972  0.35466  Biso   1.000  Zr
  Zr77     1.0000 0.51082  0.64717  0.23288  Biso   1.000  Zr
  Zr78     1.0000 0.50107  0.60364  0.48343  Biso   1.000  Zr
  Zr79     1.0000 0.00412  0.90410  0.23774  Biso   1.000  Zr
  Zr80     1.0000 0.99848  0.85642  0.48626  Biso   1.000  Zr
  Zr81     1.0000 0.75890  0.60810  0.22742  Biso   1.000  Zr
  Zr82     1.0000 0.75244  0.64788  0.47927  Biso   1.000  Zr
  Zr83     1.0000 0.74897  0.89877  0.48222  Biso   1.000  Zr
  Zr84     1.0000 0.75379  0.85657  0.23357  Biso   1.000  Zr
  Zr85     1.0000 0.62680  0.50060  0.60633  Biso   1.000  Zr
  Zr86     1.0000 0.62772  0.74529  0.85369  Biso   1.000  Zr
  Zr87     1.0000 0.87226  0.75009  0.60646  Biso   1.000  Zr
  Zr88     1.0000 0.87843  0.00288  0.85966  Biso   1.000  Zr
  Zr89     1.0000 0.49706  0.64635  0.73500  Biso   1.000  Zr
  Zr90     1.0000 0.50095  0.60319  0.98462  Biso   1.000  Zr
  Zr91     1.0000 0.00354  0.89245  0.73787  Biso   1.000  Zr
  Zr92     1.0000 0.01042  0.84153  0.98562  Biso   1.000  Zr
  Zr93     1.0000 0.74897  0.60139  0.73071  Biso   1.000  Zr
  Zr94     1.0000 0.75380  0.64360  0.97937  Biso   1.000  Zr
  Zr95     1.0000 0.75891  0.89208  0.98553  Biso   1.000  Zr
  Zr96     1.0000 0.75246  0.85229  0.73367  Biso   1.000  Zr
  Yb1      1.0000 0.11252  0.25007  0.10645  Biso   1.000  Yb
