data_image0
_cell_length_a       10.2155
_cell_length_b       10.309
_cell_length_c       5.24944
_cell_angle_alpha    90.4407
_cell_angle_beta     80.3522
_cell_angle_gamma    89.7065

_symmetry_space_group_name_H-M    "P 1"
_symmetry_int_tables_number       1

loop_
  _symmetry_equiv_pos_as_xyz
  'x, y, z'

loop_
  _atom_site_label
  _atom_site_occupancy
  _atom_site_fract_x
  _atom_site_fract_y
  _atom_site_fract_z
  _atom_site_thermal_displace_type
  _atom_site_B_iso_or_equiv
  _atom_site_type_symbol
  Zn1      1.0000 0.12584  0.00929  0.31488  Biso   1.000  Zn
  Zr1      1.0000 0.14067  0.52247  0.29135  Biso   1.000  Zr
  Zr2      1.0000 0.63836  0.02293  0.29175  Biso   1.000  Zr
  Zr3      1.0000 0.63797  0.52000  0.29081  Biso   1.000  Zr
  Zr4      1.0000 0.14198  0.22648  0.78109  Biso   1.000  Zr
  Zr5      1.0000 0.13960  0.73132  0.79538  Biso   1.000  Zr
  Zr6      1.0000 0.64010  0.23043  0.79041  Biso   1.000  Zr
  Zr7      1.0000 0.63631  0.72903  0.79402  Biso   1.000  Zr
  Zr8      1.0000 0.35731  0.26784  0.20351  Biso   1.000  Zr
  Zr9      1.0000 0.35774  0.77579  0.21513  Biso   1.000  Zr
  Zr10     1.0000 0.86599  0.26786  0.20643  Biso   1.000  Zr
  Zr11     1.0000 0.85980  0.77008  0.21158  Biso   1.000  Zr
  Zr12     1.0000 0.36054  0.47943  0.70781  Biso   1.000  Zr
  Zr13     1.0000 0.35781  0.98187  0.70801  Biso   1.000  Zr
  Zr14     1.0000 0.86246  0.47823  0.71014  Biso   1.000  Zr
  Zr15     1.0000 0.85806  0.97705  0.71209  Biso   1.000  Zr
  O1       1.0000 0.03854  0.15843  0.13823  Biso   1.000  O
  O2       1.0000 0.03331  0.66659  0.16182  Biso   1.000  O
  O3       1.0000 0.53398  0.16727  0.15532  Biso   1.000  O
  O4       1.0000 0.53268  0.66666  0.15814  Biso   1.000  O
  O5       1.0000 0.03283  0.07965  0.66211  Biso   1.000  O
  O6       1.0000 0.03458  0.58426  0.65951  Biso   1.000  O
  O7       1.0000 0.53556  0.08515  0.65486  Biso   1.000  O
  O8       1.0000 0.53305  0.58426  0.65640  Biso   1.000  O
  O9       1.0000 0.46666  0.41454  0.34345  Biso   1.000  O
  O10      1.0000 0.46810  0.91661  0.34527  Biso   1.000  O
  O11      1.0000 0.97004  0.41284  0.34502  Biso   1.000  O
  O12      1.0000 0.96051  0.91581  0.34897  Biso   1.000  O
  O13      1.0000 0.47017  0.33921  0.84563  Biso   1.000  O
  O14      1.0000 0.46315  0.83500  0.84596  Biso   1.000  O
  O15      1.0000 0.96759  0.33387  0.84349  Biso   1.000  O
  O16      1.0000 0.96400  0.83238  0.84742  Biso   1.000  O
  O17      1.0000 0.26833  0.12170  0.45989  Biso   1.000  O
  O18      1.0000 0.27590  0.62699  0.48142  Biso   1.000  O
  O19      1.0000 0.77691  0.12853  0.48068  Biso   1.000  O
  O20      1.0000 0.77478  0.62792  0.48241  Biso   1.000  O
  O21      1.0000 0.29193  0.13840  0.93838  Biso   1.000  O
  O22      1.0000 0.27560  0.62505  0.98283  Biso   1.000  O
  O23      1.0000 0.77520  0.12156  0.98135  Biso   1.000  O
  O24      1.0000 0.77427  0.62107  0.98197  Biso   1.000  O
  O25      1.0000 0.22423  0.38207  0.01456  Biso   1.000  O
  O26      1.0000 0.22389  0.88902  0.03175  Biso   1.000  O
  O27      1.0000 0.72743  0.37789  0.02016  Biso   1.000  O
  O28      1.0000 0.72285  0.87800  0.02135  Biso   1.000  O
  O29      1.0000 0.22659  0.37022  0.51466  Biso   1.000  O
  O30      1.0000 0.22741  0.86609  0.53156  Biso   1.000  O
  O31      1.0000 0.72703  0.37155  0.51852  Biso   1.000  O
  O32      1.0000 0.72240  0.87132  0.52254  Biso   1.000  O
