data_image0
_cell_length_a       10.1108
_cell_length_b       10.2229
_cell_length_c       10.1108
_cell_angle_alpha    89.9999
_cell_angle_beta     90
_cell_angle_gamma    90.0004

_symmetry_space_group_name_H-M    "P 1"
_symmetry_int_tables_number       1

loop_
  _symmetry_equiv_pos_as_xyz
  'x, y, z'

loop_
  _atom_site_label
  _atom_site_occupancy
  _atom_site_fract_x
  _atom_site_fract_y
  _atom_site_fract_z
  _atom_site_thermal_displace_type
  _atom_site_B_iso_or_equiv
  _atom_site_type_symbol
  Zr1      1.0000 0.12519  0.98282  0.10624  Biso   1.000  Zr
  Zr2      1.0000 0.12519  0.25030  0.37345  Biso   1.000  Zr
  Zr3      1.0000 0.39240  0.25030  0.10624  Biso   1.000  Zr
  Zr4      1.0000 0.37352  0.49786  0.35458  Biso   1.000  Zr
  Zr5      1.0000 0.99310  0.14192  0.23833  Biso   1.000  Zr
  Zr6      1.0000 0.00269  0.10564  0.48491  Biso   1.000  Zr
  Zr7      1.0000 0.50386  0.39497  0.22874  Biso   1.000  Zr
  Zr8      1.0000 0.49664  0.35447  0.47770  Biso   1.000  Zr
  Zr9      1.0000 0.24654  0.10964  0.22760  Biso   1.000  Zr
  Zr10     1.0000 0.25696  0.14159  0.48176  Biso   1.000  Zr
  Zr11     1.0000 0.24768  0.39496  0.48490  Biso   1.000  Zr
  Zr12     1.0000 0.25729  0.35868  0.23834  Biso   1.000  Zr
  Zr13     1.0000 0.12519  0.99611  0.60624  Biso   1.000  Zr
  Zr14     1.0000 0.12519  0.25030  0.83904  Biso   1.000  Zr
  Zr15     1.0000 0.37831  0.25030  0.60624  Biso   1.000  Zr
  Zr16     1.0000 0.37275  0.49728  0.85868  Biso   1.000  Zr
  Zr17     1.0000 0.99342  0.14159  0.73072  Biso   1.000  Zr
  Zr18     1.0000 0.00384  0.10964  0.98489  Biso   1.000  Zr
  Zr19     1.0000 0.50272  0.39629  0.72872  Biso   1.000  Zr
  Zr20     1.0000 0.50071  0.35901  0.97447  Biso   1.000  Zr
  Zr21     1.0000 0.24768  0.10563  0.72758  Biso   1.000  Zr
  Zr22     1.0000 0.25729  0.14192  0.97415  Biso   1.000  Zr
  Zr23     1.0000 0.24654  0.39096  0.98489  Biso   1.000  Zr
  Zr24     1.0000 0.25696  0.35901  0.73072  Biso   1.000  Zr
  Zr25     1.0000 0.12519  0.51778  0.10624  Biso   1.000  Zr
  Zr26     1.0000 0.12519  0.75029  0.35915  Biso   1.000  Zr
  Zr27     1.0000 0.37809  0.75030  0.10624  Biso   1.000  Zr
  Zr28     1.0000 0.37276  0.00332  0.35380  Biso   1.000  Zr
  Zr29     1.0000 0.99940  0.64403  0.23202  Biso   1.000  Zr
  Zr30     1.0000 0.00254  0.60638  0.47938  Biso   1.000  Zr
  Zr31     1.0000 0.49834  0.89422  0.22891  Biso   1.000  Zr
  Zr32     1.0000 0.49794  0.85457  0.47899  Biso   1.000  Zr
  Zr33     1.0000 0.25248  0.61211  0.23355  Biso   1.000  Zr
  Zr34     1.0000 0.25176  0.64467  0.48233  Biso   1.000  Zr
  Zr35     1.0000 0.24785  0.89422  0.47938  Biso   1.000  Zr
  Zr36     1.0000 0.25098  0.85657  0.23202  Biso   1.000  Zr
  Zr37     1.0000 0.12519  0.50448  0.60624  Biso   1.000  Zr
  Zr38     1.0000 0.12519  0.75030  0.85334  Biso   1.000  Zr
  Zr39     1.0000 0.37669  0.75030  0.60624  Biso   1.000  Zr
  Zr40     1.0000 0.37353  0.00274  0.85791  Biso   1.000  Zr
  Zr41     1.0000 0.99863  0.64467  0.73015  Biso   1.000  Zr
  Zr42     1.0000 0.99790  0.61212  0.97894  Biso   1.000  Zr
  Zr43     1.0000 0.50115  0.89621  0.73030  Biso   1.000  Zr
  Zr44     1.0000 0.50128  0.85593  0.97968  Biso   1.000  Zr
  Zr45     1.0000 0.24784  0.60637  0.73310  Biso   1.000  Zr
  Zr46     1.0000 0.25098  0.64403  0.98046  Biso   1.000  Zr
  Zr47     1.0000 0.25248  0.88848  0.97893  Biso   1.000  Zr
  Zr48     1.0000 0.25176  0.85593  0.73015  Biso   1.000  Zr
  Zr49     1.0000 0.62519  0.99612  0.10624  Biso   1.000  Zr
  Zr50     1.0000 0.62519  0.25030  0.35937  Biso   1.000  Zr
  Zr51     1.0000 0.85799  0.25030  0.10624  Biso   1.000  Zr
  Zr52     1.0000 0.87762  0.49728  0.35381  Biso   1.000  Zr
  Zr53     1.0000 0.50071  0.14159  0.23801  Biso   1.000  Zr
  Zr54     1.0000 0.50272  0.10431  0.48377  Biso   1.000  Zr
  Zr55     1.0000 0.00385  0.39096  0.22760  Biso   1.000  Zr
  Zr56     1.0000 0.99341  0.35901  0.48176  Biso   1.000  Zr
  Zr57     1.0000 0.74653  0.10564  0.22874  Biso   1.000  Zr
  Zr58     1.0000 0.75374  0.14612  0.47770  Biso   1.000  Zr
  Zr59     1.0000 0.74766  0.39629  0.48377  Biso   1.000  Zr
  Zr60     1.0000 0.74968  0.35901  0.23801  Biso   1.000  Zr
  Zr61     1.0000 0.62519  0.99838  0.60624  Biso   1.000  Zr
  Zr62     1.0000 0.62519  0.25030  0.85312  Biso   1.000  Zr
  Zr63     1.0000 0.87206  0.25030  0.60624  Biso   1.000  Zr
  Zr64     1.0000 0.87685  0.49786  0.85791  Biso   1.000  Zr
  Zr65     1.0000 0.49664  0.14613  0.73479  Biso   1.000  Zr
  Zr66     1.0000 0.50386  0.10563  0.98374  Biso   1.000  Zr
  Zr67     1.0000 0.00270  0.39497  0.72758  Biso   1.000  Zr
  Zr68     1.0000 0.99310  0.35869  0.97416  Biso   1.000  Zr
  Zr69     1.0000 0.74766  0.10431  0.72872  Biso   1.000  Zr
  Zr70     1.0000 0.74967  0.14159  0.97448  Biso   1.000  Zr
  Zr71     1.0000 0.74653  0.39497  0.98375  Biso   1.000  Zr
  Zr72     1.0000 0.75374  0.35448  0.73479  Biso   1.000  Zr
  Zr73     1.0000 0.62519  0.50448  0.10624  Biso   1.000  Zr
  Zr74     1.0000 0.62519  0.75030  0.35773  Biso   1.000  Zr
  Zr75     1.0000 0.87228  0.75030  0.10624  Biso   1.000  Zr
  Zr76     1.0000 0.87686  0.00274  0.35458  Biso   1.000  Zr
  Zr77     1.0000 0.50127  0.64467  0.23280  Biso   1.000  Zr
  Zr78     1.0000 0.50115  0.60439  0.48218  Biso   1.000  Zr
  Zr79     1.0000 0.99790  0.88848  0.23355  Biso   1.000  Zr
  Zr80     1.0000 0.99863  0.85593  0.48234  Biso   1.000  Zr
  Zr81     1.0000 0.75203  0.60638  0.22891  Biso   1.000  Zr
  Zr82     1.0000 0.75245  0.64602  0.47899  Biso   1.000  Zr
  Zr83     1.0000 0.74924  0.89621  0.48219  Biso   1.000  Zr
  Zr84     1.0000 0.74910  0.85593  0.23280  Biso   1.000  Zr
  Zr85     1.0000 0.62519  0.50222  0.60624  Biso   1.000  Zr
  Zr86     1.0000 0.62519  0.75030  0.85474  Biso   1.000  Zr
  Zr87     1.0000 0.87370  0.75030  0.60624  Biso   1.000  Zr
  Zr88     1.0000 0.87763  0.00332  0.85868  Biso   1.000  Zr
  Zr89     1.0000 0.49793  0.64603  0.73349  Biso   1.000  Zr
  Zr90     1.0000 0.49834  0.60638  0.98358  Biso   1.000  Zr
  Zr91     1.0000 0.00254  0.89423  0.73310  Biso   1.000  Zr
  Zr92     1.0000 0.99940  0.85657  0.98046  Biso   1.000  Zr
  Zr93     1.0000 0.74923  0.60439  0.73030  Biso   1.000  Zr
  Zr94     1.0000 0.74911  0.64467  0.97968  Biso   1.000  Zr
  Zr95     1.0000 0.75204  0.89423  0.98357  Biso   1.000  Zr
  Zr96     1.0000 0.75245  0.85457  0.73349  Biso   1.000  Zr
  Zr97     1.0000 0.12519  0.25030  0.10624  Biso   1.000  Zr
