data_image0
_cell_length_a       10.1706
_cell_length_b       10.3622
_cell_length_c       5.25804
_cell_angle_alpha    90.5464
_cell_angle_beta     89.9898
_cell_angle_gamma    89.9893

_symmetry_space_group_name_H-M    "P 1"
_symmetry_int_tables_number       1

loop_
  _symmetry_equiv_pos_as_xyz
  'x, y, z'

loop_
  _atom_site_label
  _atom_site_occupancy
  _atom_site_fract_x
  _atom_site_fract_y
  _atom_site_fract_z
  _atom_site_thermal_displace_type
  _atom_site_B_iso_or_equiv
  _atom_site_type_symbol
  La1      1.0000 0.11599  0.00360  0.30691  Biso   1.000  La
  Hf1      1.0000 0.13934  0.52323  0.33453  Biso   1.000  Hf
  Hf2      1.0000 0.13933  0.23230  0.82348  Biso   1.000  Hf
  Hf3      1.0000 0.13578  0.73356  0.84082  Biso   1.000  Hf
  Hf4      1.0000 0.35187  0.26813  0.31276  Biso   1.000  Hf
  Hf5      1.0000 0.36509  0.76622  0.33824  Biso   1.000  Hf
  Hf6      1.0000 0.35705  0.48290  0.82135  Biso   1.000  Hf
  Hf7      1.0000 0.36214  0.97697  0.83312  Biso   1.000  Hf
  Hf8      1.0000 0.63928  0.01767  0.17653  Biso   1.000  Hf
  Hf9      1.0000 0.63569  0.51638  0.15915  Biso   1.000  Hf
  La2      1.0000 0.61599  0.24644  0.69312  Biso   1.000  La
  Hf10     1.0000 0.63934  0.72675  0.66547  Biso   1.000  Hf
  Hf11     1.0000 0.86213  0.27305  0.16685  Biso   1.000  Hf
  Hf12     1.0000 0.85700  0.76710  0.17864  Biso   1.000  Hf
  Hf13     1.0000 0.86511  0.48383  0.66175  Biso   1.000  Hf
  Hf14     1.0000 0.85186  0.98189  0.68729  Biso   1.000  Hf
  Hf15     1.0000 0.04240  0.19682  0.17385  Biso   1.000  Hf
  Hf16     1.0000 0.02705  0.65619  0.14693  Biso   1.000  Hf
  Hf17     1.0000 0.02349  0.08878  0.69470  Biso   1.000  Hf
  Hf18     1.0000 0.02886  0.59712  0.65144  Biso   1.000  Hf
  Hf19     1.0000 0.48315  0.38167  0.06270  Biso   1.000  Hf
  Hf20     1.0000 0.47064  0.90967  0.17161  Biso   1.000  Hf
  Hf21     1.0000 0.45818  0.38721  0.54800  Biso   1.000  Hf
  Hf22     1.0000 0.47009  0.83019  0.66278  Biso   1.000  Hf
  Hf23     1.0000 0.28491  0.13043  0.57599  Biso   1.000  Hf
  Hf24     1.0000 0.27135  0.62405  0.58000  Biso   1.000  Hf
  Hf25     1.0000 0.27987  0.12900  0.04950  Biso   1.000  Hf
  Hf26     1.0000 0.27100  0.62366  0.07970  Biso   1.000  Hf
  Hf27     1.0000 0.21513  0.37354  0.57625  Biso   1.000  Hf
  Hf28     1.0000 0.23321  0.86675  0.58831  Biso   1.000  Hf
  Hf29     1.0000 0.22900  0.38170  0.07500  Biso   1.000  Hf
  Hf30     1.0000 0.24512  0.86082  0.06876  Biso   1.000  Hf
  Hf31     1.0000 0.52351  0.16121  0.30551  Biso   1.000  Hf
  Hf32     1.0000 0.52888  0.65289  0.34857  Biso   1.000  Hf
  Hf33     1.0000 0.54238  0.05319  0.82615  Biso   1.000  Hf
  Hf34     1.0000 0.52706  0.59378  0.85308  Biso   1.000  Hf
  Hf35     1.0000 0.97013  0.41978  0.33720  Biso   1.000  Hf
  Hf36     1.0000 0.95820  0.86288  0.45179  Biso   1.000  Hf
  Hf37     1.0000 0.97068  0.34037  0.82844  Biso   1.000  Hf
  Hf38     1.0000 0.98310  0.86827  0.93708  Biso   1.000  Hf
  Hf39     1.0000 0.77984  0.12102  0.95059  Biso   1.000  Hf
  Hf40     1.0000 0.77096  0.62634  0.92039  Biso   1.000  Hf
  Hf41     1.0000 0.78495  0.11955  0.42406  Biso   1.000  Hf
  Hf42     1.0000 0.77137  0.62595  0.41998  Biso   1.000  Hf
  Hf43     1.0000 0.74515  0.38917  0.93117  Biso   1.000  Hf
  Hf44     1.0000 0.72896  0.86828  0.92498  Biso   1.000  Hf
  Hf45     1.0000 0.73326  0.38326  0.41171  Biso   1.000  Hf
  Hf46     1.0000 0.71510  0.87644  0.42377  Biso   1.000  Hf
