data_image0
_cell_length_a       10.0927
_cell_length_b       10.3518
_cell_length_c       5.22338
_cell_angle_alpha    89.9993
_cell_angle_beta     89.9984
_cell_angle_gamma    89.4653

_symmetry_space_group_name_H-M    "P 1"
_symmetry_int_tables_number       1

loop_
  _symmetry_equiv_pos_as_xyz
  'x, y, z'

loop_
  _atom_site_label
  _atom_site_occupancy
  _atom_site_fract_x
  _atom_site_fract_y
  _atom_site_fract_z
  _atom_site_thermal_displace_type
  _atom_site_B_iso_or_equiv
  _atom_site_type_symbol
  La1      1.0000 0.12135  0.00064  0.28882  Biso   1.000  La
  Hf1      1.0000 0.13355  0.51986  0.30403  Biso   1.000  Hf
  Hf2      1.0000 0.14342  0.23504  0.81287  Biso   1.000  Hf
  Hf3      1.0000 0.12102  0.74455  0.78923  Biso   1.000  Hf
  Hf4      1.0000 0.35660  0.26496  0.31288  Biso   1.000  Hf
  Hf5      1.0000 0.37894  0.75543  0.28913  Biso   1.000  Hf
  La2      1.0000 0.37869  0.49937  0.78876  Biso   1.000  La
  Hf6      1.0000 0.36647  0.98016  0.80409  Biso   1.000  Hf
  Hf7      1.0000 0.63984  0.01915  0.16538  Biso   1.000  Hf
  Hf8      1.0000 0.63692  0.52131  0.19127  Biso   1.000  Hf
  Hf9      1.0000 0.64242  0.22649  0.65666  Biso   1.000  Hf
  Hf10     1.0000 0.63887  0.73482  0.69114  Biso   1.000  Hf
  Hf11     1.0000 0.85760  0.27351  0.15665  Biso   1.000  Hf
  Hf12     1.0000 0.86111  0.76517  0.19116  Biso   1.000  Hf
  Hf13     1.0000 0.86014  0.48083  0.66538  Biso   1.000  Hf
  Hf14     1.0000 0.86307  0.97868  0.69124  Biso   1.000  Hf
  Hf15     1.0000 0.03742  0.19325  0.16227  Biso   1.000  Hf
  Hf16     1.0000 0.02079  0.65669  0.11588  Biso   1.000  Hf
  Hf17     1.0000 0.02777  0.08662  0.68122  Biso   1.000  Hf
  Hf18     1.0000 0.02542  0.58656  0.64288  Biso   1.000  Hf
  Hf19     1.0000 0.47225  0.41339  0.18115  Biso   1.000  Hf
  Hf20     1.0000 0.47454  0.91347  0.14291  Biso   1.000  Hf
  Hf21     1.0000 0.46261  0.30676  0.66230  Biso   1.000  Hf
  Hf22     1.0000 0.47921  0.84329  0.61586  Biso   1.000  Hf
  Hf23     1.0000 0.28060  0.12573  0.56636  Biso   1.000  Hf
  Hf24     1.0000 0.25166  0.64163  0.52879  Biso   1.000  Hf
  Hf25     1.0000 0.28488  0.12954  0.04521  Biso   1.000  Hf
  Hf26     1.0000 0.25589  0.62851  0.05317  Biso   1.000  Hf
  Hf27     1.0000 0.21517  0.37048  0.54519  Biso   1.000  Hf
  Hf28     1.0000 0.24410  0.87152  0.55328  Biso   1.000  Hf
  Hf29     1.0000 0.21944  0.37432  0.06627  Biso   1.000  Hf
  Hf30     1.0000 0.24830  0.85840  0.02889  Biso   1.000  Hf
  Hf31     1.0000 0.54025  0.16661  0.31501  Biso   1.000  Hf
  Hf32     1.0000 0.51858  0.61550  0.47185  Biso   1.000  Hf
  Hf33     1.0000 0.54566  0.07381  0.81371  Biso   1.000  Hf
  Hf34     1.0000 0.52518  0.66167  0.99544  Biso   1.000  Hf
  Hf35     1.0000 0.95435  0.42615  0.31380  Biso   1.000  Hf
  Hf36     1.0000 0.97474  0.83832  0.49544  Biso   1.000  Hf
  Hf37     1.0000 0.95979  0.33341  0.81500  Biso   1.000  Hf
  Hf38     1.0000 0.98142  0.88451  0.97195  Biso   1.000  Hf
  Hf39     1.0000 0.77530  0.12529  0.92590  Biso   1.000  Hf
  Hf40     1.0000 0.77329  0.61907  0.93074  Biso   1.000  Hf
  Hf41     1.0000 0.78607  0.12232  0.41956  Biso   1.000  Hf
  Hf42     1.0000 0.76517  0.63009  0.43262  Biso   1.000  Hf
  Hf43     1.0000 0.71396  0.37766  0.91951  Biso   1.000  Hf
  Hf44     1.0000 0.73480  0.86989  0.93262  Biso   1.000  Hf
  Hf45     1.0000 0.72473  0.37469  0.42590  Biso   1.000  Hf
  Hf46     1.0000 0.72664  0.88090  0.43063  Biso   1.000  Hf
