data_image0
_cell_length_a       10.1807
_cell_length_b       5.23025
_cell_length_c       10.0981
_cell_angle_alpha    90.3898
_cell_angle_beta     90.6694
_cell_angle_gamma    90.3286

_symmetry_space_group_name_H-M    "P 1"
_symmetry_int_tables_number       1

loop_
  _symmetry_equiv_pos_as_xyz
  'x, y, z'

loop_
  _atom_site_label
  _atom_site_occupancy
  _atom_site_fract_x
  _atom_site_fract_y
  _atom_site_fract_z
  _atom_site_thermal_displace_type
  _atom_site_B_iso_or_equiv
  _atom_site_type_symbol
  La1      1.0000 0.12090  0.00957  0.12190  Biso   1.000  La
  La2      1.0000 0.12091  0.00968  0.62214  Biso   1.000  La
  Hf1      1.0000 0.63415  0.02852  0.12765  Biso   1.000  Hf
  Hf2      1.0000 0.63414  0.02865  0.62764  Biso   1.000  Hf
  Hf3      1.0000 0.13864  0.47193  0.37409  Biso   1.000  Hf
  Hf4      1.0000 0.13866  0.47200  0.87402  Biso   1.000  Hf
  Hf5      1.0000 0.63411  0.46057  0.37850  Biso   1.000  Hf
  Hf6      1.0000 0.63414  0.46062  0.87853  Biso   1.000  Hf
  Hf7      1.0000 0.37130  0.52333  0.12542  Biso   1.000  Hf
  Hf8      1.0000 0.37130  0.52335  0.62536  Biso   1.000  Hf
  Hf9      1.0000 0.85779  0.53340  0.12918  Biso   1.000  Hf
  Hf10     1.0000 0.85779  0.53344  0.62913  Biso   1.000  Hf
  Hf11     1.0000 0.37080  0.96193  0.37380  Biso   1.000  Hf
  Hf12     1.0000 0.37091  0.96188  0.87384  Biso   1.000  Hf
  Hf13     1.0000 0.85878  0.96452  0.37894  Biso   1.000  Hf
  Hf14     1.0000 0.85876  0.96459  0.87880  Biso   1.000  Hf
  Hf15     1.0000 0.03580  0.42589  0.19304  Biso   1.000  Hf
  Hf16     1.0000 0.03587  0.42624  0.69296  Biso   1.000  Hf
  Hf17     1.0000 0.53937  0.36126  0.19524  Biso   1.000  Hf
  Hf18     1.0000 0.53938  0.36131  0.69528  Biso   1.000  Hf
  Hf19     1.0000 0.03286  0.14385  0.40943  Biso   1.000  Hf
  Hf20     1.0000 0.03298  0.14369  0.90907  Biso   1.000  Hf
  Hf21     1.0000 0.53914  0.12708  0.44670  Biso   1.000  Hf
  Hf22     1.0000 0.53924  0.12707  0.94666  Biso   1.000  Hf
  Hf23     1.0000 0.46798  0.86471  0.19467  Biso   1.000  Hf
  Hf24     1.0000 0.46800  0.86473  0.69466  Biso   1.000  Hf
  Hf25     1.0000 0.92610  0.88271  0.19401  Biso   1.000  Hf
  Hf26     1.0000 0.92586  0.88308  0.69366  Biso   1.000  Hf
  Hf27     1.0000 0.47401  0.63235  0.44775  Biso   1.000  Hf
  Hf28     1.0000 0.47406  0.63239  0.94782  Biso   1.000  Hf
  Hf29     1.0000 0.97224  0.65401  0.45368  Biso   1.000  Hf
  Hf30     1.0000 0.97231  0.65408  0.95369  Biso   1.000  Hf
  Hf31     1.0000 0.28254  0.24396  0.25453  Biso   1.000  Hf
  Hf32     1.0000 0.28262  0.24397  0.75456  Biso   1.000  Hf
  Hf33     1.0000 0.76768  0.24022  0.25257  Biso   1.000  Hf
  Hf34     1.0000 0.76767  0.24047  0.75260  Biso   1.000  Hf
  Hf35     1.0000 0.27694  0.26101  0.49535  Biso   1.000  Hf
  Hf36     1.0000 0.27699  0.26100  0.99534  Biso   1.000  Hf
  Hf37     1.0000 0.77138  0.26034  0.50132  Biso   1.000  Hf
  Hf38     1.0000 0.77150  0.26023  0.00128  Biso   1.000  Hf
  Hf39     1.0000 0.24557  0.74431  0.49263  Biso   1.000  Hf
  Hf40     1.0000 0.24562  0.74426  0.99260  Biso   1.000  Hf
  Hf41     1.0000 0.72928  0.75649  0.50344  Biso   1.000  Hf
  Hf42     1.0000 0.72939  0.75658  0.00344  Biso   1.000  Hf
  Hf43     1.0000 0.24515  0.71751  0.25265  Biso   1.000  Hf
  Hf44     1.0000 0.24526  0.71752  0.75269  Biso   1.000  Hf
  Hf45     1.0000 0.71878  0.73400  0.25525  Biso   1.000  Hf
  Hf46     1.0000 0.71876  0.73415  0.75532  Biso   1.000  Hf
