data_image0
_cell_length_a       10.1954
_cell_length_b       10.4874
_cell_length_c       5.03374
_cell_angle_alpha    89.9948
_cell_angle_beta     90.2823
_cell_angle_gamma    90.0034

_symmetry_space_group_name_H-M    "P 1"
_symmetry_int_tables_number       1

loop_
  _symmetry_equiv_pos_as_xyz
  'x, y, z'

loop_
  _atom_site_label
  _atom_site_occupancy
  _atom_site_fract_x
  _atom_site_fract_y
  _atom_site_fract_z
  _atom_site_thermal_displace_type
  _atom_site_B_iso_or_equiv
  _atom_site_type_symbol
  La1      1.0000 0.12170  0.00302  0.25110  Biso   1.000  La
  Hf1      1.0000 0.13860  0.51860  0.25905  Biso   1.000  Hf
  Hf2      1.0000 0.63435  0.01606  0.25187  Biso   1.000  Hf
  Hf3      1.0000 0.63207  0.51717  0.25848  Biso   1.000  Hf
  La2      1.0000 0.12163  0.24652  0.75105  Biso   1.000  La
  Hf4      1.0000 0.13855  0.73091  0.75905  Biso   1.000  Hf
  Hf5      1.0000 0.63428  0.23352  0.75181  Biso   1.000  Hf
  Hf6      1.0000 0.63202  0.73235  0.75847  Biso   1.000  Hf
  Hf7      1.0000 0.37312  0.26762  0.25249  Biso   1.000  Hf
  Hf8      1.0000 0.37021  0.76429  0.25386  Biso   1.000  Hf
  Hf9      1.0000 0.85332  0.27064  0.25221  Biso   1.000  Hf
  Hf10     1.0000 0.86225  0.76081  0.25458  Biso   1.000  Hf
  Hf11     1.0000 0.37017  0.48530  0.75392  Biso   1.000  Hf
  Hf12     1.0000 0.37313  0.98193  0.75252  Biso   1.000  Hf
  Hf13     1.0000 0.86222  0.48881  0.75458  Biso   1.000  Hf
  Hf14     1.0000 0.85327  0.97898  0.75225  Biso   1.000  Hf
  Hf15     1.0000 0.03269  0.20230  0.30568  Biso   1.000  Hf
  Hf16     1.0000 0.03686  0.68749  0.39518  Biso   1.000  Hf
  Hf17     1.0000 0.54454  0.18622  0.38088  Biso   1.000  Hf
  Hf18     1.0000 0.53416  0.68090  0.40337  Biso   1.000  Hf
  Hf19     1.0000 0.03268  0.04728  0.80565  Biso   1.000  Hf
  Hf20     1.0000 0.03683  0.56207  0.89510  Biso   1.000  Hf
  Hf21     1.0000 0.54454  0.06338  0.88086  Biso   1.000  Hf
  Hf22     1.0000 0.53413  0.56867  0.90336  Biso   1.000  Hf
  Hf23     1.0000 0.47331  0.43163  0.40238  Biso   1.000  Hf
  Hf24     1.0000 0.46740  0.93374  0.38711  Biso   1.000  Hf
  Hf25     1.0000 0.96928  0.43538  0.40561  Biso   1.000  Hf
  Hf26     1.0000 0.92858  0.92931  0.38903  Biso   1.000  Hf
  Hf27     1.0000 0.46737  0.31581  0.88710  Biso   1.000  Hf
  Hf28     1.0000 0.47332  0.81798  0.90242  Biso   1.000  Hf
  Hf29     1.0000 0.92853  0.32026  0.88893  Biso   1.000  Hf
  Hf30     1.0000 0.96923  0.81421  0.90566  Biso   1.000  Hf
  Hf31     1.0000 0.29239  0.12380  0.50595  Biso   1.000  Hf
  Hf32     1.0000 0.27057  0.61657  0.50554  Biso   1.000  Hf
  Hf33     1.0000 0.76880  0.11927  0.50489  Biso   1.000  Hf
  Hf34     1.0000 0.76883  0.61907  0.49754  Biso   1.000  Hf
  Hf35     1.0000 0.29242  0.12576  0.00599  Biso   1.000  Hf
  Hf36     1.0000 0.27060  0.63295  0.00547  Biso   1.000  Hf
  Hf37     1.0000 0.76879  0.13034  0.00494  Biso   1.000  Hf
  Hf38     1.0000 0.76880  0.63052  0.99748  Biso   1.000  Hf
  Hf39     1.0000 0.24564  0.39425  0.01445  Biso   1.000  Hf
  Hf40     1.0000 0.24331  0.87125  0.98941  Biso   1.000  Hf
  Hf41     1.0000 0.71716  0.38419  0.00666  Biso   1.000  Hf
  Hf42     1.0000 0.72956  0.87614  0.00835  Biso   1.000  Hf
  Hf43     1.0000 0.24331  0.37828  0.48940  Biso   1.000  Hf
  Hf44     1.0000 0.24569  0.85529  0.51446  Biso   1.000  Hf
  Hf45     1.0000 0.72956  0.37348  0.50828  Biso   1.000  Hf
  Hf46     1.0000 0.71715  0.86542  0.50672  Biso   1.000  Hf
