data_image0
_cell_length_a       10.2053
_cell_length_b       5.22557
_cell_length_c       10.5431
_cell_angle_alpha    89.3176
_cell_angle_beta     81.3576
_cell_angle_gamma    89.9985

_symmetry_space_group_name_H-M    "P 1"
_symmetry_int_tables_number       1

loop_
  _symmetry_equiv_pos_as_xyz
  'x, y, z'

loop_
  _atom_site_label
  _atom_site_occupancy
  _atom_site_fract_x
  _atom_site_fract_y
  _atom_site_fract_z
  _atom_site_thermal_displace_type
  _atom_site_B_iso_or_equiv
  _atom_site_type_symbol
  La1      1.0000 0.12784  0.01816  0.13865  Biso   1.000  La
  Hf1      1.0000 0.13633  0.04686  0.64713  Biso   1.000  Hf
  Hf2      1.0000 0.63389  0.03352  0.14066  Biso   1.000  Hf
  Hf3      1.0000 0.63557  0.05573  0.64939  Biso   1.000  Hf
  Hf4      1.0000 0.14120  0.46677  0.40138  Biso   1.000  Hf
  Hf5      1.0000 0.14488  0.46036  0.88911  Biso   1.000  Hf
  La2      1.0000 0.62932  0.48666  0.38668  Biso   1.000  La
  Hf6      1.0000 0.63843  0.46016  0.89164  Biso   1.000  Hf
  Hf7      1.0000 0.36284  0.52671  0.10241  Biso   1.000  Hf
  Hf8      1.0000 0.35538  0.54476  0.60758  Biso   1.000  Hf
  Hf9      1.0000 0.86156  0.49802  0.08404  Biso   1.000  Hf
  Hf10     1.0000 0.86284  0.55257  0.60727  Biso   1.000  Hf
  Hf11     1.0000 0.35601  0.95985  0.35441  Biso   1.000  Hf
  Hf12     1.0000 0.36533  0.95352  0.85161  Biso   1.000  Hf
  Hf13     1.0000 0.86239  0.99634  0.37853  Biso   1.000  Hf
  Hf14     1.0000 0.86198  0.95486  0.85023  Biso   1.000  Hf
  Hf15     1.0000 0.04612  0.40076  0.08018  Biso   1.000  Hf
  Hf16     1.0000 0.03775  0.35931  0.59024  Biso   1.000  Hf
  Hf17     1.0000 0.54174  0.33796  0.08269  Biso   1.000  Hf
  Hf18     1.0000 0.52642  0.34053  0.59100  Biso   1.000  Hf
  Hf19     1.0000 0.03317  0.17462  0.34612  Biso   1.000  Hf
  Hf20     1.0000 0.03762  0.14944  0.84078  Biso   1.000  Hf
  Hf21     1.0000 0.54869  0.08282  0.33143  Biso   1.000  Hf
  Hf22     1.0000 0.53938  0.15333  0.83435  Biso   1.000  Hf
  Hf23     1.0000 0.46740  0.82070  0.16659  Biso   1.000  Hf
  Hf24     1.0000 0.46368  0.84012  0.66814  Biso   1.000  Hf
  Hf25     1.0000 0.90720  0.83760  0.17936  Biso   1.000  Hf
  Hf26     1.0000 0.95919  0.86142  0.66792  Biso   1.000  Hf
  Hf27     1.0000 0.42678  0.63438  0.42139  Biso   1.000  Hf
  Hf28     1.0000 0.47113  0.65846  0.91708  Biso   1.000  Hf
  Hf29     1.0000 0.96412  0.67480  0.42119  Biso   1.000  Hf
  Hf30     1.0000 0.96358  0.65119  0.90863  Biso   1.000  Hf
  Hf31     1.0000 0.28347  0.25491  0.24256  Biso   1.000  Hf
  Hf32     1.0000 0.27284  0.25873  0.74010  Biso   1.000  Hf
  Hf33     1.0000 0.78273  0.25226  0.23112  Biso   1.000  Hf
  Hf34     1.0000 0.77535  0.26518  0.74271  Biso   1.000  Hf
  Hf35     1.0000 0.27086  0.23639  0.49387  Biso   1.000  Hf
  Hf36     1.0000 0.28502  0.23997  0.98093  Biso   1.000  Hf
  Hf37     1.0000 0.77895  0.26047  0.50258  Biso   1.000  Hf
  Hf38     1.0000 0.77507  0.22745  0.98496  Biso   1.000  Hf
  Hf39     1.0000 0.23974  0.73456  0.99493  Biso   1.000  Hf
  Hf40     1.0000 0.21011  0.76905  0.51461  Biso   1.000  Hf
  Hf41     1.0000 0.72491  0.74800  0.00833  Biso   1.000  Hf
  Hf42     1.0000 0.72991  0.78922  0.51685  Biso   1.000  Hf
  Hf43     1.0000 0.23177  0.72282  0.26103  Biso   1.000  Hf
  Hf44     1.0000 0.22360  0.74490  0.75708  Biso   1.000  Hf
  Hf45     1.0000 0.77308  0.77491  0.23958  Biso   1.000  Hf
  Hf46     1.0000 0.72466  0.74156  0.76000  Biso   1.000  Hf
