data_image0
_cell_length_a       10.0961
_cell_length_b       10.4643
_cell_length_c       5.09343
_cell_angle_alpha    89.998
_cell_angle_beta     90.6794
_cell_angle_gamma    89.994

_symmetry_space_group_name_H-M    "P 1"
_symmetry_int_tables_number       1

loop_
  _symmetry_equiv_pos_as_xyz
  'x, y, z'

loop_
  _atom_site_label
  _atom_site_occupancy
  _atom_site_fract_x
  _atom_site_fract_y
  _atom_site_fract_z
  _atom_site_thermal_displace_type
  _atom_site_B_iso_or_equiv
  _atom_site_type_symbol
  La1      1.0000 0.11418  0.00879  0.24990  Biso   1.000  La
  Hf1      1.0000 0.14114  0.51211  0.24348  Biso   1.000  Hf
  Hf2      1.0000 0.63067  0.01881  0.25160  Biso   1.000  Hf
  Hf3      1.0000 0.63032  0.51538  0.24680  Biso   1.000  Hf
  Hf4      1.0000 0.14112  0.23815  0.74350  Biso   1.000  Hf
  La2      1.0000 0.11420  0.74147  0.74994  Biso   1.000  La
  Hf5      1.0000 0.63033  0.23488  0.74678  Biso   1.000  Hf
  Hf6      1.0000 0.63069  0.73142  0.75164  Biso   1.000  Hf
  Hf7      1.0000 0.36618  0.26500  0.24858  Biso   1.000  Hf
  Hf8      1.0000 0.36976  0.76483  0.24515  Biso   1.000  Hf
  Hf9      1.0000 0.85935  0.26955  0.24798  Biso   1.000  Hf
  Hf10     1.0000 0.85215  0.76770  0.26498  Biso   1.000  Hf
  Hf11     1.0000 0.36619  0.48522  0.74854  Biso   1.000  Hf
  Hf12     1.0000 0.36975  0.98543  0.74515  Biso   1.000  Hf
  Hf13     1.0000 0.85943  0.48064  0.74803  Biso   1.000  Hf
  Hf14     1.0000 0.85220  0.98249  0.76496  Biso   1.000  Hf
  Hf15     1.0000 0.03511  0.20972  0.37932  Biso   1.000  Hf
  Hf16     1.0000 0.02640  0.66733  0.32405  Biso   1.000  Hf
  Hf17     1.0000 0.53890  0.18506  0.38743  Biso   1.000  Hf
  Hf18     1.0000 0.54013  0.68263  0.38610  Biso   1.000  Hf
  Hf19     1.0000 0.02649  0.08281  0.82396  Biso   1.000  Hf
  Hf20     1.0000 0.03513  0.54058  0.87928  Biso   1.000  Hf
  Hf21     1.0000 0.54012  0.06760  0.88609  Biso   1.000  Hf
  Hf22     1.0000 0.53887  0.56517  0.88746  Biso   1.000  Hf
  Hf23     1.0000 0.46944  0.43169  0.39124  Biso   1.000  Hf
  Hf24     1.0000 0.47118  0.93416  0.39071  Biso   1.000  Hf
  Hf25     1.0000 0.96428  0.43455  0.38466  Biso   1.000  Hf
  Hf26     1.0000 0.96508  0.88621  0.50508  Biso   1.000  Hf
  Hf27     1.0000 0.46944  0.31852  0.89124  Biso   1.000  Hf
  Hf28     1.0000 0.47117  0.81603  0.89070  Biso   1.000  Hf
  Hf29     1.0000 0.96427  0.31565  0.88470  Biso   1.000  Hf
  Hf30     1.0000 0.96509  0.86397  0.00513  Biso   1.000  Hf
  Hf31     1.0000 0.28137  0.12904  0.50722  Biso   1.000  Hf
  Hf32     1.0000 0.27497  0.61281  0.48926  Biso   1.000  Hf
  Hf33     1.0000 0.77508  0.11624  0.48949  Biso   1.000  Hf
  Hf34     1.0000 0.76856  0.61380  0.49768  Biso   1.000  Hf
  Hf35     1.0000 0.27493  0.13744  0.98936  Biso   1.000  Hf
  Hf36     1.0000 0.28135  0.62122  0.00715  Biso   1.000  Hf
  Hf37     1.0000 0.76856  0.13641  0.99758  Biso   1.000  Hf
  Hf38     1.0000 0.77506  0.63395  0.98956  Biso   1.000  Hf
  Hf39     1.0000 0.23419  0.37994  0.99273  Biso   1.000  Hf
  Hf40     1.0000 0.25154  0.88552  0.99872  Biso   1.000  Hf
  Hf41     1.0000 0.72979  0.38401  0.99769  Biso   1.000  Hf
  Hf42     1.0000 0.72125  0.87868  0.01188  Biso   1.000  Hf
  Hf43     1.0000 0.23419  0.37031  0.49274  Biso   1.000  Hf
  Hf44     1.0000 0.25154  0.86476  0.49872  Biso   1.000  Hf
  Hf45     1.0000 0.72981  0.36621  0.49770  Biso   1.000  Hf
  Hf46     1.0000 0.72123  0.87152  0.51189  Biso   1.000  Hf
