data_image0
_cell_length_a       10.0719
_cell_length_b       10.4343
_cell_length_c       5.24752
_cell_angle_alpha    89.1292
_cell_angle_beta     88.1774
_cell_angle_gamma    89.9929

_symmetry_space_group_name_H-M    "P 1"
_symmetry_int_tables_number       1

loop_
  _symmetry_equiv_pos_as_xyz
  'x, y, z'

loop_
  _atom_site_label
  _atom_site_occupancy
  _atom_site_fract_x
  _atom_site_fract_y
  _atom_site_fract_z
  _atom_site_thermal_displace_type
  _atom_site_B_iso_or_equiv
  _atom_site_type_symbol
  La1      1.0000 0.11615  0.00739  0.31536  Biso   1.000  La
  Hf1      1.0000 0.14326  0.51560  0.34258  Biso   1.000  Hf
  Hf2      1.0000 0.13798  0.23544  0.84669  Biso   1.000  Hf
  Hf3      1.0000 0.14517  0.72362  0.82458  Biso   1.000  Hf
  Hf4      1.0000 0.36316  0.26244  0.33604  Biso   1.000  Hf
  Hf5      1.0000 0.36059  0.76594  0.29039  Biso   1.000  Hf
  Hf6      1.0000 0.36367  0.47139  0.83274  Biso   1.000  Hf
  Hf7      1.0000 0.35571  0.98578  0.79058  Biso   1.000  Hf
  Hf8      1.0000 0.60016  0.99950  0.17186  Biso   1.000  Hf
  Hf9      1.0000 0.63379  0.51517  0.17055  Biso   1.000  Hf
  Hf10     1.0000 0.63943  0.23117  0.68682  Biso   1.000  Hf
  La2      1.0000 0.61862  0.74602  0.68898  Biso   1.000  La
  Hf11     1.0000 0.85789  0.27544  0.18364  Biso   1.000  Hf
  Hf12     1.0000 0.86699  0.74371  0.14637  Biso   1.000  Hf
  Hf13     1.0000 0.85955  0.47874  0.66180  Biso   1.000  Hf
  Hf14     1.0000 0.85958  0.00176  0.74909  Biso   1.000  Hf
  Hf15     1.0000 0.03702  0.19536  0.19747  Biso   1.000  Hf
  Hf16     1.0000 0.04958  0.68130  0.19186  Biso   1.000  Hf
  Hf17     1.0000 0.03983  0.06981  0.76053  Biso   1.000  Hf
  Hf18     1.0000 0.03784  0.57787  0.67914  Biso   1.000  Hf
  Hf19     1.0000 0.46322  0.41175  0.17421  Biso   1.000  Hf
  Hf20     1.0000 0.47793  0.86389  0.00342  Biso   1.000  Hf
  Hf21     1.0000 0.46090  0.32249  0.66981  Biso   1.000  Hf
  Hf22     1.0000 0.47980  0.90939  0.47380  Biso   1.000  Hf
  Hf23     1.0000 0.26712  0.12728  0.57430  Biso   1.000  Hf
  Hf24     1.0000 0.28492  0.61953  0.56824  Biso   1.000  Hf
  Hf25     1.0000 0.28754  0.12536  0.06253  Biso   1.000  Hf
  Hf26     1.0000 0.27541  0.61827  0.06699  Biso   1.000  Hf
  Hf27     1.0000 0.22471  0.37355  0.58137  Biso   1.000  Hf
  Hf28     1.0000 0.23859  0.85679  0.56904  Biso   1.000  Hf
  Hf29     1.0000 0.22490  0.37314  0.08565  Biso   1.000  Hf
  Hf30     1.0000 0.23669  0.86917  0.04561  Biso   1.000  Hf
  Hf31     1.0000 0.54131  0.16257  0.34587  Biso   1.000  Hf
  Hf32     1.0000 0.52915  0.66451  0.30715  Biso   1.000  Hf
  Hf33     1.0000 0.53210  0.08180  0.84553  Biso   1.000  Hf
  Hf34     1.0000 0.53700  0.56087  0.82875  Biso   1.000  Hf
  Hf35     1.0000 0.96298  0.43080  0.32444  Biso   1.000  Hf
  Hf36     1.0000 0.89172  0.91953  0.35846  Biso   1.000  Hf
  Hf37     1.0000 0.96305  0.33122  0.82776  Biso   1.000  Hf
  Hf38     1.0000 0.97281  0.82991  0.83406  Biso   1.000  Hf
  Hf39     1.0000 0.76223  0.12406  0.99234  Biso   1.000  Hf
  Hf40     1.0000 0.78254  0.61292  0.92743  Biso   1.000  Hf
  Hf41     1.0000 0.80165  0.15031  0.50108  Biso   1.000  Hf
  Hf42     1.0000 0.77767  0.62628  0.41653  Biso   1.000  Hf
  Hf43     1.0000 0.72282  0.37130  0.92359  Biso   1.000  Hf
  Hf44     1.0000 0.73814  0.87943  0.97371  Biso   1.000  Hf
  Hf45     1.0000 0.71879  0.38023  0.42596  Biso   1.000  Hf
  Hf46     1.0000 0.75303  0.90994  0.44038  Biso   1.000  Hf
