data_image0
_cell_length_a       10.2111
_cell_length_b       5.18861
_cell_length_c       10.4411
_cell_angle_alpha    90.0978
_cell_angle_beta     91.3628
_cell_angle_gamma    90.5631

_symmetry_space_group_name_H-M    "P 1"
_symmetry_int_tables_number       1

loop_
  _symmetry_equiv_pos_as_xyz
  'x, y, z'

loop_
  _atom_site_label
  _atom_site_occupancy
  _atom_site_fract_x
  _atom_site_fract_y
  _atom_site_fract_z
  _atom_site_thermal_displace_type
  _atom_site_B_iso_or_equiv
  _atom_site_type_symbol
  La1      1.0000 0.12650  0.01666  0.15608  Biso   1.000  La
  La2      1.0000 0.12652  0.01663  0.65608  Biso   1.000  La
  Hf1      1.0000 0.14230  0.45957  0.41507  Biso   1.000  Hf
  Hf2      1.0000 0.14227  0.45953  0.91508  Biso   1.000  Hf
  Hf3      1.0000 0.36441  0.52713  0.16725  Biso   1.000  Hf
  Hf4      1.0000 0.36442  0.52710  0.66726  Biso   1.000  Hf
  Hf5      1.0000 0.36532  0.95481  0.41588  Biso   1.000  Hf
  Hf6      1.0000 0.36532  0.95476  0.91588  Biso   1.000  Hf
  Hf7      1.0000 0.64078  0.03631  0.08300  Biso   1.000  Hf
  Hf8      1.0000 0.64080  0.03627  0.58302  Biso   1.000  Hf
  Hf9      1.0000 0.63908  0.45713  0.33175  Biso   1.000  Hf
  Hf10     1.0000 0.63910  0.45711  0.83173  Biso   1.000  Hf
  Hf11     1.0000 0.86050  0.53557  0.08069  Biso   1.000  Hf
  Hf12     1.0000 0.86049  0.53556  0.58073  Biso   1.000  Hf
  Hf13     1.0000 0.85546  0.96286  0.33874  Biso   1.000  Hf
  Hf14     1.0000 0.85550  0.96285  0.83877  Biso   1.000  Hf
  Hf15     1.0000 0.04414  0.42289  0.09825  Biso   1.000  Hf
  Hf16     1.0000 0.04411  0.42285  0.59827  Biso   1.000  Hf
  Hf17     1.0000 0.03002  0.14810  0.36218  Biso   1.000  Hf
  Hf18     1.0000 0.03008  0.14790  0.86225  Biso   1.000  Hf
  Hf19     1.0000 0.47325  0.82367  0.08241  Biso   1.000  Hf
  Hf20     1.0000 0.47328  0.82365  0.58242  Biso   1.000  Hf
  Hf21     1.0000 0.47429  0.67106  0.32977  Biso   1.000  Hf
  Hf22     1.0000 0.47429  0.67105  0.82977  Biso   1.000  Hf
  Hf23     1.0000 0.28075  0.24544  0.29451  Biso   1.000  Hf
  Hf24     1.0000 0.28075  0.24538  0.79451  Biso   1.000  Hf
  Hf25     1.0000 0.28279  0.24893  0.03431  Biso   1.000  Hf
  Hf26     1.0000 0.28281  0.24892  0.53432  Biso   1.000  Hf
  Hf27     1.0000 0.23489  0.72450  0.29144  Biso   1.000  Hf
  Hf28     1.0000 0.23488  0.72445  0.79145  Biso   1.000  Hf
  Hf29     1.0000 0.24512  0.72747  0.03061  Biso   1.000  Hf
  Hf30     1.0000 0.24514  0.72744  0.53062  Biso   1.000  Hf
  Hf31     1.0000 0.53459  0.32046  0.16769  Biso   1.000  Hf
  Hf32     1.0000 0.53462  0.32045  0.66770  Biso   1.000  Hf
  Hf33     1.0000 0.53663  0.16486  0.41731  Biso   1.000  Hf
  Hf34     1.0000 0.53662  0.16490  0.91734  Biso   1.000  Hf
  Hf35     1.0000 0.91874  0.88226  0.15311  Biso   1.000  Hf
  Hf36     1.0000 0.91873  0.88224  0.65314  Biso   1.000  Hf
  Hf37     1.0000 0.96339  0.65656  0.40339  Biso   1.000  Hf
  Hf38     1.0000 0.96326  0.65639  0.90341  Biso   1.000  Hf
  Hf39     1.0000 0.77397  0.24803  0.96117  Biso   1.000  Hf
  Hf40     1.0000 0.77401  0.24806  0.46116  Biso   1.000  Hf
  Hf41     1.0000 0.77534  0.26520  0.21256  Biso   1.000  Hf
  Hf42     1.0000 0.77538  0.26522  0.71256  Biso   1.000  Hf
  Hf43     1.0000 0.72515  0.74675  0.95966  Biso   1.000  Hf
  Hf44     1.0000 0.72518  0.74676  0.45965  Biso   1.000  Hf
  Hf45     1.0000 0.71253  0.75416  0.21303  Biso   1.000  Hf
  Hf46     1.0000 0.71252  0.75418  0.71302  Biso   1.000  Hf
