data_image0
_cell_length_a       10.1515
_cell_length_b       10.3702
_cell_length_c       5.2226
_cell_angle_alpha    90.336
_cell_angle_beta     92.4534
_cell_angle_gamma    89.2482

_symmetry_space_group_name_H-M    "P 1"
_symmetry_int_tables_number       1

loop_
  _symmetry_equiv_pos_as_xyz
  'x, y, z'

loop_
  _atom_site_label
  _atom_site_occupancy
  _atom_site_fract_x
  _atom_site_fract_y
  _atom_site_fract_z
  _atom_site_thermal_displace_type
  _atom_site_B_iso_or_equiv
  _atom_site_type_symbol
  La1      1.0000 0.11283  0.00869  0.28677  Biso   1.000  La
  Hf1      1.0000 0.14474  0.52687  0.30273  Biso   1.000  Hf
  Hf2      1.0000 0.14913  0.23318  0.81700  Biso   1.000  Hf
  Hf3      1.0000 0.14012  0.73863  0.81338  Biso   1.000  Hf
  Hf4      1.0000 0.35921  0.26798  0.33123  Biso   1.000  Hf
  Hf5      1.0000 0.36588  0.77269  0.33134  Biso   1.000  Hf
  Hf6      1.0000 0.36264  0.48008  0.82585  Biso   1.000  Hf
  Hf7      1.0000 0.36620  0.98438  0.82610  Biso   1.000  Hf
  Hf8      1.0000 0.63751  0.01968  0.17467  Biso   1.000  Hf
  Hf9      1.0000 0.63384  0.51569  0.17390  Biso   1.000  Hf
  Hf10     1.0000 0.64088  0.23196  0.66889  Biso   1.000  Hf
  Hf11     1.0000 0.63409  0.72738  0.66873  Biso   1.000  Hf
  Hf12     1.0000 0.85085  0.26691  0.18310  Biso   1.000  Hf
  Hf13     1.0000 0.86062  0.76077  0.18630  Biso   1.000  Hf
  La2      1.0000 0.88727  0.49150  0.71275  Biso   1.000  La
  Hf14     1.0000 0.85524  0.97318  0.69772  Biso   1.000  Hf
  Hf15     1.0000 0.04447  0.20930  0.21213  Biso   1.000  Hf
  Hf16     1.0000 0.01664  0.63714  0.06051  Biso   1.000  Hf
  Hf17     1.0000 0.03029  0.07806  0.73539  Biso   1.000  Hf
  Hf18     1.0000 0.03861  0.62931  0.55590  Biso   1.000  Hf
  Hf19     1.0000 0.46005  0.41844  0.17229  Biso   1.000  Hf
  Hf20     1.0000 0.47138  0.91785  0.16558  Biso   1.000  Hf
  Hf21     1.0000 0.46475  0.33154  0.66797  Biso   1.000  Hf
  Hf22     1.0000 0.47008  0.83718  0.66249  Biso   1.000  Hf
  Hf23     1.0000 0.27635  0.12917  0.57672  Biso   1.000  Hf
  Hf24     1.0000 0.28315  0.62244  0.56679  Biso   1.000  Hf
  Hf25     1.0000 0.28426  0.13307  0.06116  Biso   1.000  Hf
  Hf26     1.0000 0.26846  0.62896  0.06506  Biso   1.000  Hf
  Hf27     1.0000 0.21822  0.37913  0.56367  Biso   1.000  Hf
  Hf28     1.0000 0.23251  0.87161  0.56990  Biso   1.000  Hf
  Hf29     1.0000 0.22429  0.37939  0.05746  Biso   1.000  Hf
  Hf30     1.0000 0.24469  0.86880  0.05238  Biso   1.000  Hf
  Hf31     1.0000 0.53527  0.16839  0.33218  Biso   1.000  Hf
  Hf32     1.0000 0.52968  0.66262  0.33797  Biso   1.000  Hf
  Hf33     1.0000 0.54007  0.08141  0.82794  Biso   1.000  Hf
  Hf34     1.0000 0.52848  0.58219  0.83487  Biso   1.000  Hf
  Hf35     1.0000 0.96982  0.42183  0.26574  Biso   1.000  Hf
  Hf36     1.0000 0.96045  0.87230  0.44117  Biso   1.000  Hf
  Hf37     1.0000 0.95565  0.29091  0.78834  Biso   1.000  Hf
  Hf38     1.0000 0.98352  0.86189  0.93708  Biso   1.000  Hf
  Hf39     1.0000 0.77571  0.12063  0.94283  Biso   1.000  Hf
  Hf40     1.0000 0.75528  0.63112  0.94719  Biso   1.000  Hf
  Hf41     1.0000 0.78174  0.12099  0.43651  Biso   1.000  Hf
  Hf42     1.0000 0.76733  0.62844  0.42975  Biso   1.000  Hf
  Hf43     1.0000 0.71585  0.36700  0.93876  Biso   1.000  Hf
  Hf44     1.0000 0.73184  0.87093  0.93603  Biso   1.000  Hf
  Hf45     1.0000 0.72361  0.37085  0.42329  Biso   1.000  Hf
  Hf46     1.0000 0.71642  0.87755  0.43448  Biso   1.000  Hf
