data_image0
_cell_length_a       5.05307
_cell_length_b       10.4876
_cell_length_c       10.1648
_cell_angle_alpha    90.4163
_cell_angle_beta     90.6995
_cell_angle_gamma    89.9581

_symmetry_space_group_name_H-M    "P 1"
_symmetry_int_tables_number       1

loop_
  _symmetry_equiv_pos_as_xyz
  'x, y, z'

loop_
  _atom_site_label
  _atom_site_occupancy
  _atom_site_fract_x
  _atom_site_fract_y
  _atom_site_fract_z
  _atom_site_thermal_displace_type
  _atom_site_B_iso_or_equiv
  _atom_site_type_symbol
  La1      1.0000 0.24631  0.00102  0.11136  Biso   1.000  La
  Hf1      1.0000 0.25881  0.01723  0.62861  Biso   1.000  Hf
  Hf2      1.0000 0.27606  0.51624  0.12519  Biso   1.000  Hf
  Hf3      1.0000 0.25957  0.51913  0.63081  Biso   1.000  Hf
  La2      1.0000 0.24760  0.24064  0.36735  Biso   1.000  La
  Hf4      1.0000 0.26682  0.23766  0.87225  Biso   1.000  Hf
  Hf5      1.0000 0.25894  0.73262  0.38085  Biso   1.000  Hf
  Hf6      1.0000 0.27303  0.73204  0.87782  Biso   1.000  Hf
  Hf7      1.0000 0.72762  0.26851  0.11646  Biso   1.000  Hf
  Hf8      1.0000 0.72022  0.26910  0.62705  Biso   1.000  Hf
  Hf9      1.0000 0.73183  0.76088  0.13230  Biso   1.000  Hf
  Hf10     1.0000 0.72305  0.76509  0.62753  Biso   1.000  Hf
  Hf11     1.0000 0.72306  0.48826  0.37938  Biso   1.000  Hf
  Hf12     1.0000 0.73383  0.48527  0.87454  Biso   1.000  Hf
  Hf13     1.0000 0.71390  0.97837  0.38464  Biso   1.000  Hf
  Hf14     1.0000 0.73422  0.98428  0.86568  Biso   1.000  Hf
  Hf15     1.0000 0.09155  0.20055  0.14693  Biso   1.000  Hf
  Hf16     1.0000 0.07331  0.19181  0.68104  Biso   1.000  Hf
  Hf17     1.0000 0.06726  0.67658  0.20133  Biso   1.000  Hf
  Hf18     1.0000 0.06128  0.68500  0.70277  Biso   1.000  Hf
  Hf19     1.0000 0.05939  0.04923  0.45054  Biso   1.000  Hf
  Hf20     1.0000 0.08160  0.06864  0.90044  Biso   1.000  Hf
  Hf21     1.0000 0.06353  0.56583  0.45171  Biso   1.000  Hf
  Hf22     1.0000 0.06774  0.57097  0.94845  Biso   1.000  Hf
  Hf23     1.0000 0.95829  0.42805  0.20595  Biso   1.000  Hf
  Hf24     1.0000 0.92546  0.43695  0.69749  Biso   1.000  Hf
  Hf25     1.0000 0.90090  0.91959  0.21562  Biso   1.000  Hf
  Hf26     1.0000 0.91841  0.93056  0.69112  Biso   1.000  Hf
  Hf27     1.0000 0.87549  0.31920  0.45058  Biso   1.000  Hf
  Hf28     1.0000 0.92809  0.32260  0.93569  Biso   1.000  Hf
  Hf29     1.0000 0.91977  0.80946  0.45282  Biso   1.000  Hf
  Hf30     1.0000 0.97503  0.83016  0.96470  Biso   1.000  Hf
  Hf31     1.0000 0.59991  0.12306  0.25037  Biso   1.000  Hf
  Hf32     1.0000 0.53876  0.12047  0.74841  Biso   1.000  Hf
  Hf33     1.0000 0.53840  0.61748  0.25076  Biso   1.000  Hf
  Hf34     1.0000 0.53630  0.61867  0.75075  Biso   1.000  Hf
  Hf35     1.0000 0.54530  0.12269  0.51006  Biso   1.000  Hf
  Hf36     1.0000 0.56340  0.13457  0.98758  Biso   1.000  Hf
  Hf37     1.0000 0.52993  0.63585  0.50111  Biso   1.000  Hf
  Hf38     1.0000 0.54334  0.62886  0.00066  Biso   1.000  Hf
  Hf39     1.0000 0.45774  0.39761  0.50696  Biso   1.000  Hf
  Hf40     1.0000 0.46237  0.38405  0.99580  Biso   1.000  Hf
  Hf41     1.0000 0.44436  0.87886  0.50515  Biso   1.000  Hf
  Hf42     1.0000 0.50780  0.86814  0.99029  Biso   1.000  Hf
  Hf43     1.0000 0.48889  0.38093  0.23994  Biso   1.000  Hf
  Hf44     1.0000 0.45425  0.37043  0.75039  Biso   1.000  Hf
  Hf45     1.0000 0.46061  0.85321  0.25826  Biso   1.000  Hf
  Hf46     1.0000 0.45487  0.86759  0.74965  Biso   1.000  Hf
