data_image0
_cell_length_a       5.13598
_cell_length_b       10.2818
_cell_length_c       10.1501
_cell_angle_alpha    90.0317
_cell_angle_beta     91.9705
_cell_angle_gamma    89.9823

_symmetry_space_group_name_H-M    "P 1"
_symmetry_int_tables_number       1

loop_
  _symmetry_equiv_pos_as_xyz
  'x, y, z'

loop_
  _atom_site_label
  _atom_site_occupancy
  _atom_site_fract_x
  _atom_site_fract_y
  _atom_site_fract_z
  _atom_site_thermal_displace_type
  _atom_site_B_iso_or_equiv
  _atom_site_type_symbol
  La1      1.0000 0.25109  0.00258  0.12477  Biso   1.000  La
  Hf1      1.0000 0.25043  0.98949  0.62485  Biso   1.000  Hf
  Hf2      1.0000 0.25120  0.49743  0.12468  Biso   1.000  Hf
  Hf3      1.0000 0.25070  0.50612  0.62477  Biso   1.000  Hf
  Hf4      1.0000 0.24550  0.24506  0.37765  Biso   1.000  Hf
  Hf5      1.0000 0.25592  0.24529  0.87187  Biso   1.000  Hf
  Hf6      1.0000 0.24930  0.74211  0.36946  Biso   1.000  Hf
  Hf7      1.0000 0.25214  0.74227  0.87995  Biso   1.000  Hf
  Hf8      1.0000 0.75128  0.26078  0.12457  Biso   1.000  Hf
  La2      1.0000 0.75059  0.24768  0.62468  Biso   1.000  La
  Hf9      1.0000 0.75096  0.74406  0.12470  Biso   1.000  Hf
  Hf10     1.0000 0.75047  0.75281  0.62477  Biso   1.000  Hf
  Hf11     1.0000 0.75639  0.00522  0.37169  Biso   1.000  Hf
  Hf12     1.0000 0.74557  0.00504  0.87761  Biso   1.000  Hf
  Hf13     1.0000 0.75242  0.50798  0.38000  Biso   1.000  Hf
  Hf14     1.0000 0.74939  0.50790  0.86952  Biso   1.000  Hf
  Hf15     1.0000 0.01196  0.15552  0.99454  Biso   1.000  Hf
  Hf16     1.0000 0.04342  0.12648  0.49635  Biso   1.000  Hf
  Hf17     1.0000 0.03301  0.63902  0.00449  Biso   1.000  Hf
  Hf18     1.0000 0.03022  0.64216  0.50184  Biso   1.000  Hf
  Hf19     1.0000 0.95857  0.12380  0.25301  Biso   1.000  Hf
  Hf20     1.0000 0.98961  0.09481  0.75496  Biso   1.000  Hf
  Hf21     1.0000 0.97144  0.60819  0.24761  Biso   1.000  Hf
  Hf22     1.0000 0.96867  0.61123  0.74505  Biso   1.000  Hf
  Hf23     1.0000 0.06833  0.35937  0.24074  Biso   1.000  Hf
  Hf24     1.0000 0.03720  0.37306  0.76033  Biso   1.000  Hf
  Hf25     1.0000 0.01035  0.85557  0.25624  Biso   1.000  Hf
  Hf26     1.0000 0.06773  0.84860  0.73894  Biso   1.000  Hf
  Hf27     1.0000 0.93409  0.40174  0.01062  Biso   1.000  Hf
  Hf28     1.0000 0.99140  0.39478  0.49346  Biso   1.000  Hf
  Hf29     1.0000 0.96394  0.87722  0.98929  Biso   1.000  Hf
  Hf30     1.0000 0.93287  0.89109  0.50893  Biso   1.000  Hf
  Hf31     1.0000 0.49052  0.15565  0.25504  Biso   1.000  Hf
  Hf32     1.0000 0.45789  0.12665  0.75304  Biso   1.000  Hf
  Hf33     1.0000 0.46903  0.63903  0.24503  Biso   1.000  Hf
  Hf34     1.0000 0.47104  0.64215  0.74762  Biso   1.000  Hf
  Hf35     1.0000 0.54359  0.12366  0.99647  Biso   1.000  Hf
  Hf36     1.0000 0.51138  0.09454  0.49448  Biso   1.000  Hf
  Hf37     1.0000 0.53070  0.60819  0.00191  Biso   1.000  Hf
  Hf38     1.0000 0.53268  0.61119  0.50443  Biso   1.000  Hf
  Hf39     1.0000 0.43462  0.35947  0.00832  Biso   1.000  Hf
  Hf40     1.0000 0.46457  0.37307  0.48875  Biso   1.000  Hf
  Hf41     1.0000 0.49115  0.85535  0.99353  Biso   1.000  Hf
  Hf42     1.0000 0.43253  0.84826  0.51102  Biso   1.000  Hf
  Hf43     1.0000 0.56882  0.40196  0.23838  Biso   1.000  Hf
  Hf44     1.0000 0.51017  0.39503  0.75572  Biso   1.000  Hf
  Hf45     1.0000 0.53738  0.87715  0.26060  Biso   1.000  Hf
  Hf46     1.0000 0.56725  0.89093  0.74096  Biso   1.000  Hf
