data_image0
_cell_length_a       10.1808
_cell_length_b       10.3656
_cell_length_c       5.28375
_cell_angle_alpha    90.1821
_cell_angle_beta     90.461
_cell_angle_gamma    89.772

_symmetry_space_group_name_H-M    "P 1"
_symmetry_int_tables_number       1

loop_
  _symmetry_equiv_pos_as_xyz
  'x, y, z'

loop_
  _atom_site_label
  _atom_site_occupancy
  _atom_site_fract_x
  _atom_site_fract_y
  _atom_site_fract_z
  _atom_site_thermal_displace_type
  _atom_site_B_iso_or_equiv
  _atom_site_type_symbol
  La1      1.0000 0.11294  0.99938  0.30042  Biso   1.000  La
  Hf1      1.0000 0.14021  0.51997  0.33310  Biso   1.000  Hf
  Hf2      1.0000 0.13415  0.23333  0.82369  Biso   1.000  Hf
  Hf3      1.0000 0.13914  0.72831  0.83511  Biso   1.000  Hf
  La2      1.0000 0.36540  0.25686  0.32151  Biso   1.000  La
  Hf4      1.0000 0.36469  0.76830  0.33582  Biso   1.000  Hf
  Hf5      1.0000 0.36054  0.48108  0.83469  Biso   1.000  Hf
  Hf6      1.0000 0.35959  0.97659  0.82692  Biso   1.000  Hf
  Hf7      1.0000 0.63830  0.01494  0.15678  Biso   1.000  Hf
  Hf8      1.0000 0.63888  0.52336  0.14984  Biso   1.000  Hf
  Hf9      1.0000 0.64525  0.23266  0.67647  Biso   1.000  Hf
  Hf10     1.0000 0.63873  0.72908  0.65138  Biso   1.000  Hf
  Hf11     1.0000 0.85821  0.27602  0.16258  Biso   1.000  Hf
  Hf12     1.0000 0.86068  0.76484  0.16826  Biso   1.000  Hf
  Hf13     1.0000 0.86203  0.48372  0.65484  Biso   1.000  Hf
  Hf14     1.0000 0.85595  0.97482  0.68096  Biso   1.000  Hf
  Hf15     1.0000 0.03272  0.19119  0.16041  Biso   1.000  Hf
  Hf16     1.0000 0.02935  0.65587  0.14114  Biso   1.000  Hf
  Hf17     1.0000 0.01197  0.09472  0.67628  Biso   1.000  Hf
  Hf18     1.0000 0.02900  0.59457  0.64603  Biso   1.000  Hf
  Hf19     1.0000 0.46609  0.43816  0.16663  Biso   1.000  Hf
  Hf20     1.0000 0.46545  0.92458  0.17107  Biso   1.000  Hf
  Hf21     1.0000 0.47547  0.33399  0.70095  Biso   1.000  Hf
  Hf22     1.0000 0.47312  0.83545  0.65842  Biso   1.000  Hf
  Hf23     1.0000 0.26305  0.11268  0.58775  Biso   1.000  Hf
  Hf24     1.0000 0.27714  0.62131  0.57759  Biso   1.000  Hf
  Hf25     1.0000 0.26100  0.11637  0.03877  Biso   1.000  Hf
  Hf26     1.0000 0.27225  0.62316  0.07929  Biso   1.000  Hf
  Hf27     1.0000 0.21878  0.37897  0.58962  Biso   1.000  Hf
  Hf28     1.0000 0.23195  0.86118  0.58376  Biso   1.000  Hf
  Hf29     1.0000 0.21596  0.38346  0.06490  Biso   1.000  Hf
  Hf30     1.0000 0.24628  0.85734  0.06237  Biso   1.000  Hf
  Hf31     1.0000 0.57050  0.16915  0.33738  Biso   1.000  Hf
  Hf32     1.0000 0.53805  0.67261  0.31981  Biso   1.000  Hf
  Hf33     1.0000 0.53277  0.08448  0.82930  Biso   1.000  Hf
  Hf34     1.0000 0.53429  0.58805  0.82023  Biso   1.000  Hf
  Hf35     1.0000 0.96482  0.42058  0.33182  Biso   1.000  Hf
  Hf36     1.0000 0.95718  0.85756  0.44789  Biso   1.000  Hf
  Hf37     1.0000 0.96077  0.34045  0.82666  Biso   1.000  Hf
  Hf38     1.0000 0.98387  0.86982  0.93165  Biso   1.000  Hf
  Hf39     1.0000 0.77169  0.12526  0.93065  Biso   1.000  Hf
  Hf40     1.0000 0.77695  0.62568  0.90600  Biso   1.000  Hf
  Hf41     1.0000 0.79539  0.12628  0.42982  Biso   1.000  Hf
  Hf42     1.0000 0.77244  0.62602  0.40785  Biso   1.000  Hf
  Hf43     1.0000 0.72537  0.37860  0.91750  Biso   1.000  Hf
  Hf44     1.0000 0.72828  0.86848  0.91470  Biso   1.000  Hf
  Hf45     1.0000 0.72529  0.37921  0.41955  Biso   1.000  Hf
  Hf46     1.0000 0.71806  0.88152  0.41183  Biso   1.000  Hf
