data_image0
_cell_length_a       10.2047
_cell_length_b       5.1671
_cell_length_c       10.1982
_cell_angle_alpha    90.0059
_cell_angle_beta     90.005
_cell_angle_gamma    91.7711

_symmetry_space_group_name_H-M    "P 1"
_symmetry_int_tables_number       1

loop_
  _symmetry_equiv_pos_as_xyz
  'x, y, z'

loop_
  _atom_site_label
  _atom_site_occupancy
  _atom_site_fract_x
  _atom_site_fract_y
  _atom_site_fract_z
  _atom_site_thermal_displace_type
  _atom_site_B_iso_or_equiv
  _atom_site_type_symbol
  La1      1.0000 0.12501  0.99877  0.12568  Biso   1.000  La
  Hf1      1.0000 0.12507  0.99873  0.63297  Biso   1.000  Hf
  Hf2      1.0000 0.62501  0.99852  0.11820  Biso   1.000  Hf
  Hf3      1.0000 0.62513  0.99834  0.62877  Biso   1.000  Hf
  La2      1.0000 0.12502  0.49875  0.37586  Biso   1.000  La
  Hf4      1.0000 0.12507  0.49865  0.86854  Biso   1.000  Hf
  Hf5      1.0000 0.62497  0.49843  0.38342  Biso   1.000  Hf
  Hf6      1.0000 0.62511  0.49831  0.87283  Biso   1.000  Hf
  Hf7      1.0000 0.37312  0.50594  0.11116  Biso   1.000  Hf
  Hf8      1.0000 0.37488  0.50207  0.62462  Biso   1.000  Hf
  Hf9      1.0000 0.87684  0.49159  0.11127  Biso   1.000  Hf
  Hf10     1.0000 0.87519  0.49555  0.62464  Biso   1.000  Hf
  Hf11     1.0000 0.37318  0.00589  0.39037  Biso   1.000  Hf
  Hf12     1.0000 0.37492  0.00196  0.87695  Biso   1.000  Hf
  Hf13     1.0000 0.87685  0.99153  0.39032  Biso   1.000  Hf
  Hf14     1.0000 0.87521  0.99559  0.87690  Biso   1.000  Hf
  Hf15     1.0000 0.00139  0.28827  0.99712  Biso   1.000  Hf
  Hf16     1.0000 0.98715  0.26123  0.51827  Biso   1.000  Hf
  Hf17     1.0000 0.51161  0.29198  0.01131  Biso   1.000  Hf
  Hf18     1.0000 0.49558  0.29414  0.50935  Biso   1.000  Hf
  Hf19     1.0000 0.96755  0.22538  0.25350  Biso   1.000  Hf
  Hf20     1.0000 0.00396  0.19326  0.76056  Biso   1.000  Hf
  Hf21     1.0000 0.51927  0.14136  0.27069  Biso   1.000  Hf
  Hf22     1.0000 0.50327  0.19901  0.75751  Biso   1.000  Hf
  Hf23     1.0000 0.96747  0.72543  0.24808  Biso   1.000  Hf
  Hf24     1.0000 0.00392  0.69334  0.74097  Biso   1.000  Hf
  Hf25     1.0000 0.51910  0.64127  0.23109  Biso   1.000  Hf
  Hf26     1.0000 0.50316  0.69903  0.74427  Biso   1.000  Hf
  Hf27     1.0000 0.98702  0.76118  0.98331  Biso   1.000  Hf
  Hf28     1.0000 0.00141  0.78821  0.50443  Biso   1.000  Hf
  Hf29     1.0000 0.49551  0.79427  0.99242  Biso   1.000  Hf
  Hf30     1.0000 0.51161  0.79186  0.49045  Biso   1.000  Hf
  Hf31     1.0000 0.28260  0.27198  0.24808  Biso   1.000  Hf
  Hf32     1.0000 0.24626  0.30418  0.74100  Biso   1.000  Hf
  Hf33     1.0000 0.73100  0.35558  0.23111  Biso   1.000  Hf
  Hf34     1.0000 0.74709  0.29779  0.74422  Biso   1.000  Hf
  Hf35     1.0000 0.26288  0.23634  0.98327  Biso   1.000  Hf
  Hf36     1.0000 0.24860  0.20929  0.50442  Biso   1.000  Hf
  Hf37     1.0000 0.75434  0.20301  0.99226  Biso   1.000  Hf
  Hf38     1.0000 0.73836  0.20525  0.49042  Biso   1.000  Hf
  Hf39     1.0000 0.24850  0.70936  0.99710  Biso   1.000  Hf
  Hf40     1.0000 0.26288  0.73633  0.51821  Biso   1.000  Hf
  Hf41     1.0000 0.73827  0.70514  0.01134  Biso   1.000  Hf
  Hf42     1.0000 0.75439  0.70311  0.50933  Biso   1.000  Hf
  Hf43     1.0000 0.28254  0.77203  0.25350  Biso   1.000  Hf
  Hf44     1.0000 0.24625  0.80410  0.76054  Biso   1.000  Hf
  Hf45     1.0000 0.73088  0.85558  0.27058  Biso   1.000  Hf
  Hf46     1.0000 0.74697  0.79779  0.75746  Biso   1.000  Hf
