data_image0
_cell_length_a       10.2126
_cell_length_b       10.3829
_cell_length_c       5.21737
_cell_angle_alpha    90.0349
_cell_angle_beta     91.1546
_cell_angle_gamma    89.8055

_symmetry_space_group_name_H-M    "P 1"
_symmetry_int_tables_number       1

loop_
  _symmetry_equiv_pos_as_xyz
  'x, y, z'

loop_
  _atom_site_label
  _atom_site_occupancy
  _atom_site_fract_x
  _atom_site_fract_y
  _atom_site_fract_z
  _atom_site_thermal_displace_type
  _atom_site_B_iso_or_equiv
  _atom_site_type_symbol
  La1      1.0000 0.12927  0.00348  0.31613  Biso   1.000  La
  Hf1      1.0000 0.13824  0.52386  0.33888  Biso   1.000  Hf
  Hf2      1.0000 0.14608  0.23399  0.81848  Biso   1.000  Hf
  Hf3      1.0000 0.14134  0.72756  0.83917  Biso   1.000  Hf
  Hf4      1.0000 0.35593  0.26852  0.33114  Biso   1.000  Hf
  Hf5      1.0000 0.36660  0.76348  0.33934  Biso   1.000  Hf
  Hf6      1.0000 0.36229  0.47973  0.83677  Biso   1.000  Hf
  Hf7      1.0000 0.36521  0.97526  0.83194  Biso   1.000  Hf
  Hf8      1.0000 0.63480  0.01646  0.17214  Biso   1.000  Hf
  Hf9      1.0000 0.64075  0.51460  0.15847  Biso   1.000  Hf
  Hf10     1.0000 0.63281  0.23138  0.66680  Biso   1.000  Hf
  Hf11     1.0000 0.64023  0.72482  0.66176  Biso   1.000  Hf
  La2      1.0000 0.87388  0.25970  0.18049  Biso   1.000  La
  Hf12     1.0000 0.85889  0.76706  0.16338  Biso   1.000  Hf
  Hf13     1.0000 0.86247  0.48247  0.65952  Biso   1.000  Hf
  Hf14     1.0000 0.85025  0.97773  0.67885  Biso   1.000  Hf
  Hf15     1.0000 0.08244  0.21088  0.19483  Biso   1.000  Hf
  Hf16     1.0000 0.04471  0.69318  0.19950  Biso   1.000  Hf
  Hf17     1.0000 0.02354  0.08017  0.72315  Biso   1.000  Hf
  Hf18     1.0000 0.03961  0.57644  0.69248  Biso   1.000  Hf
  Hf19     1.0000 0.46963  0.41032  0.16171  Biso   1.000  Hf
  Hf20     1.0000 0.46948  0.91087  0.16725  Biso   1.000  Hf
  Hf21     1.0000 0.46277  0.33489  0.66156  Biso   1.000  Hf
  Hf22     1.0000 0.47513  0.83529  0.66022  Biso   1.000  Hf
  Hf23     1.0000 0.27846  0.12578  0.58646  Biso   1.000  Hf
  Hf24     1.0000 0.27738  0.62214  0.58807  Biso   1.000  Hf
  Hf25     1.0000 0.28916  0.12983  0.05993  Biso   1.000  Hf
  Hf26     1.0000 0.27412  0.62064  0.08955  Biso   1.000  Hf
  Hf27     1.0000 0.22549  0.37718  0.57232  Biso   1.000  Hf
  Hf28     1.0000 0.23484  0.86074  0.58964  Biso   1.000  Hf
  Hf29     1.0000 0.22837  0.38277  0.06960  Biso   1.000  Hf
  Hf30     1.0000 0.24527  0.86166  0.06475  Biso   1.000  Hf
  Hf31     1.0000 0.52688  0.16413  0.33539  Biso   1.000  Hf
  Hf32     1.0000 0.53317  0.65623  0.33877  Biso   1.000  Hf
  Hf33     1.0000 0.52750  0.08731  0.84279  Biso   1.000  Hf
  Hf34     1.0000 0.53151  0.58549  0.83938  Biso   1.000  Hf
  Hf35     1.0000 0.95854  0.45400  0.30685  Biso   1.000  Hf
  Hf36     1.0000 0.92206  0.94122  0.30480  Biso   1.000  Hf
  Hf37     1.0000 0.97021  0.32766  0.77075  Biso   1.000  Hf
  Hf38     1.0000 0.96587  0.82770  0.82035  Biso   1.000  Hf
  Hf39     1.0000 0.76070  0.11331  0.91962  Biso   1.000  Hf
  Hf40     1.0000 0.77689  0.62259  0.91571  Biso   1.000  Hf
  Hf41     1.0000 0.75396  0.11528  0.44522  Biso   1.000  Hf
  Hf42     1.0000 0.77578  0.62790  0.41438  Biso   1.000  Hf
  Hf43     1.0000 0.72239  0.37780  0.90328  Biso   1.000  Hf
  Hf44     1.0000 0.72224  0.86842  0.92022  Biso   1.000  Hf
  Hf45     1.0000 0.71706  0.38093  0.42722  Biso   1.000  Hf
  Hf46     1.0000 0.71581  0.86718  0.42099  Biso   1.000  Hf
