data_image0
_cell_length_a       10.145
_cell_length_b       5.14818
_cell_length_c       10.4596
_cell_angle_alpha    90.1629
_cell_angle_beta     90.0451
_cell_angle_gamma    89.8783

_symmetry_space_group_name_H-M    "P 1"
_symmetry_int_tables_number       1

loop_
  _symmetry_equiv_pos_as_xyz
  'x, y, z'

loop_
  _atom_site_label
  _atom_site_occupancy
  _atom_site_fract_x
  _atom_site_fract_y
  _atom_site_fract_z
  _atom_site_thermal_displace_type
  _atom_site_B_iso_or_equiv
  _atom_site_type_symbol
  La1      1.0000 0.12839  0.01832  0.16118  Biso   1.000  La
  Hf1      1.0000 0.13936  0.04391  0.67289  Biso   1.000  Hf
  Hf2      1.0000 0.14660  0.47240  0.42655  Biso   1.000  Hf
  Hf3      1.0000 0.14269  0.46671  0.91906  Biso   1.000  Hf
  Hf4      1.0000 0.36474  0.53333  0.17023  Biso   1.000  Hf
  Hf5      1.0000 0.36480  0.54073  0.67306  Biso   1.000  Hf
  Hf6      1.0000 0.36224  0.95822  0.42165  Biso   1.000  Hf
  Hf7      1.0000 0.36733  0.96044  0.91977  Biso   1.000  Hf
  Hf8      1.0000 0.63956  0.03725  0.07890  Biso   1.000  Hf
  Hf9      1.0000 0.63779  0.03885  0.58201  Biso   1.000  Hf
  Hf10     1.0000 0.63332  0.45189  0.33139  Biso   1.000  Hf
  Hf11     1.0000 0.64151  0.45763  0.82866  Biso   1.000  Hf
  Hf12     1.0000 0.85810  0.53975  0.07774  Biso   1.000  Hf
  Hf13     1.0000 0.86336  0.53949  0.57757  Biso   1.000  Hf
  Hf14     1.0000 0.83997  0.94675  0.32993  Biso   1.000  Hf
  Hf15     1.0000 0.86322  0.95773  0.82837  Biso   1.000  Hf
  Hf16     1.0000 0.03950  0.39970  0.09098  Biso   1.000  Hf
  Hf17     1.0000 0.03249  0.32493  0.57701  Biso   1.000  Hf
  Hf18     1.0000 0.03563  0.16632  0.83656  Biso   1.000  Hf
  Hf19     1.0000 0.47071  0.82871  0.08451  Biso   1.000  Hf
  Hf20     1.0000 0.46628  0.83335  0.58635  Biso   1.000  Hf
  Hf21     1.0000 0.46711  0.66305  0.33727  Biso   1.000  Hf
  Hf22     1.0000 0.47084  0.66561  0.83270  Biso   1.000  Hf
  Hf23     1.0000 0.27044  0.25148  0.30600  Biso   1.000  Hf
  Hf24     1.0000 0.27640  0.24958  0.79305  Biso   1.000  Hf
  Hf25     1.0000 0.28555  0.25602  0.03675  Biso   1.000  Hf
  Hf26     1.0000 0.27662  0.25262  0.54883  Biso   1.000  Hf
  Hf27     1.0000 0.23372  0.73471  0.30027  Biso   1.000  Hf
  Hf28     1.0000 0.22691  0.75090  0.79142  Biso   1.000  Hf
  Hf29     1.0000 0.24378  0.73159  0.03275  Biso   1.000  Hf
  Hf30     1.0000 0.22522  0.75266  0.54585  Biso   1.000  Hf
  Hf31     1.0000 0.53169  0.32058  0.16874  Biso   1.000  Hf
  Hf32     1.0000 0.53583  0.33125  0.66611  Biso   1.000  Hf
  Hf33     1.0000 0.53446  0.15709  0.41757  Biso   1.000  Hf
  Hf34     1.0000 0.53918  0.16558  0.91499  Biso   1.000  Hf
  Hf35     1.0000 0.92498  0.86614  0.15963  Biso   1.000  Hf
  Hf36     1.0000 0.96854  0.83000  0.66369  Biso   1.000  Hf
  Hf37     1.0000 0.96836  0.67297  0.40767  Biso   1.000  Hf
  Hf38     1.0000 0.96786  0.67234  0.91270  Biso   1.000  Hf
  Hf39     1.0000 0.77838  0.24609  0.95505  Biso   1.000  Hf
  Hf40     1.0000 0.77462  0.24077  0.45720  Biso   1.000  Hf
  Hf41     1.0000 0.77274  0.25854  0.20901  Biso   1.000  Hf
  Hf42     1.0000 0.77828  0.25383  0.70467  Biso   1.000  Hf
  Hf43     1.0000 0.72487  0.74694  0.95401  Biso   1.000  Hf
  Hf44     1.0000 0.72201  0.73565  0.45906  Biso   1.000  Hf
  Hf45     1.0000 0.70533  0.74939  0.21114  Biso   1.000  Hf
  Hf46     1.0000 0.72719  0.75184  0.70519  Biso   1.000  Hf
