data_image0
_cell_length_a       5.0113
_cell_length_b       10.4332
_cell_length_c       10.1153
_cell_angle_alpha    90.7874
_cell_angle_beta     90.6807
_cell_angle_gamma    90.095

_symmetry_space_group_name_H-M    "P 1"
_symmetry_int_tables_number       1

loop_
  _symmetry_equiv_pos_as_xyz
  'x, y, z'

loop_
  _atom_site_label
  _atom_site_occupancy
  _atom_site_fract_x
  _atom_site_fract_y
  _atom_site_fract_z
  _atom_site_thermal_displace_type
  _atom_site_B_iso_or_equiv
  _atom_site_type_symbol
  La1      1.0000 0.25938  0.00592  0.12048  Biso   1.000  La
  Hf1      1.0000 0.26252  0.01824  0.62110  Biso   1.000  Hf
  Hf2      1.0000 0.25939  0.51369  0.12633  Biso   1.000  Hf
  Hf3      1.0000 0.26557  0.51532  0.62640  Biso   1.000  Hf
  Hf4      1.0000 0.26467  0.23399  0.37418  Biso   1.000  Hf
  Hf5      1.0000 0.26957  0.23680  0.87017  Biso   1.000  Hf
  Hf6      1.0000 0.26128  0.73017  0.38436  Biso   1.000  Hf
  Hf7      1.0000 0.30675  0.72650  0.87099  Biso   1.000  Hf
  Hf8      1.0000 0.72422  0.26773  0.12958  Biso   1.000  Hf
  Hf9      1.0000 0.73267  0.26881  0.62142  Biso   1.000  Hf
  Hf10     1.0000 0.71882  0.75535  0.14136  Biso   1.000  Hf
  Hf11     1.0000 0.73864  0.76792  0.62431  Biso   1.000  Hf
  Hf12     1.0000 0.72684  0.48219  0.37769  Biso   1.000  Hf
  Hf13     1.0000 0.73954  0.47955  0.88010  Biso   1.000  Hf
  Hf14     1.0000 0.72259  0.98316  0.37661  Biso   1.000  Hf
  Hf15     1.0000 0.72496  0.99330  0.86254  Biso   1.000  Hf
  Hf16     1.0000 0.06171  0.19556  0.19936  Biso   1.000  Hf
  Hf17     1.0000 0.07416  0.18908  0.68513  Biso   1.000  Hf
  Hf18     1.0000 0.06806  0.68212  0.20084  Biso   1.000  Hf
  Hf19     1.0000 0.07856  0.68556  0.69648  Biso   1.000  Hf
  Hf20     1.0000 0.07002  0.06452  0.43947  Biso   1.000  Hf
  Hf21     1.0000 0.07695  0.06577  0.91275  Biso   1.000  Hf
  Hf22     1.0000 0.06421  0.56450  0.45107  Biso   1.000  Hf
  Hf23     1.0000 0.06644  0.58177  0.94712  Biso   1.000  Hf
  Hf24     1.0000 0.91760  0.43898  0.19562  Biso   1.000  Hf
  Hf25     1.0000 0.93473  0.43471  0.70019  Biso   1.000  Hf
  Hf26     1.0000 0.87734  0.92814  0.19738  Biso   1.000  Hf
  Hf27     1.0000 0.92304  0.93635  0.68864  Biso   1.000  Hf
  Hf28     1.0000 0.92459  0.31818  0.44581  Biso   1.000  Hf
  Hf29     1.0000 0.94151  0.32176  0.94890  Biso   1.000  Hf
  Hf30     1.0000 0.92560  0.81555  0.44804  Biso   1.000  Hf
  Hf31     1.0000 0.55557  0.12839  0.25765  Biso   1.000  Hf
  Hf32     1.0000 0.53897  0.12055  0.74295  Biso   1.000  Hf
  Hf33     1.0000 0.52741  0.61169  0.25424  Biso   1.000  Hf
  Hf34     1.0000 0.54997  0.61670  0.75205  Biso   1.000  Hf
  Hf35     1.0000 0.53354  0.13302  0.50085  Biso   1.000  Hf
  Hf36     1.0000 0.55725  0.13942  0.98868  Biso   1.000  Hf
  Hf37     1.0000 0.53860  0.63137  0.50353  Biso   1.000  Hf
  Hf38     1.0000 0.54840  0.62408  0.00383  Biso   1.000  Hf
  Hf39     1.0000 0.45722  0.38385  0.50003  Biso   1.000  Hf
  Hf40     1.0000 0.45824  0.38353  0.99884  Biso   1.000  Hf
  Hf41     1.0000 0.45734  0.88247  0.50210  Biso   1.000  Hf
  Hf42     1.0000 0.53099  0.86213  0.98651  Biso   1.000  Hf
  Hf43     1.0000 0.44997  0.36993  0.25027  Biso   1.000  Hf
  Hf44     1.0000 0.46615  0.36910  0.74929  Biso   1.000  Hf
  Hf45     1.0000 0.45512  0.85129  0.26186  Biso   1.000  Hf
  Hf46     1.0000 0.45789  0.86935  0.74566  Biso   1.000  Hf
