data_image0
_cell_length_a       10.0712
_cell_length_b       10.2546
_cell_length_c       5.25022
_cell_angle_alpha    90.4088
_cell_angle_beta     90.8321
_cell_angle_gamma    90.1327

_symmetry_space_group_name_H-M    "P 1"
_symmetry_int_tables_number       1

loop_
  _symmetry_equiv_pos_as_xyz
  'x, y, z'

loop_
  _atom_site_label
  _atom_site_occupancy
  _atom_site_fract_x
  _atom_site_fract_y
  _atom_site_fract_z
  _atom_site_thermal_displace_type
  _atom_site_B_iso_or_equiv
  _atom_site_type_symbol
  La1      1.0000 0.12258  0.99917  0.30555  Biso   1.000  La
  Hf1      1.0000 0.13821  0.52160  0.32867  Biso   1.000  Hf
  Hf2      1.0000 0.13741  0.23008  0.82417  Biso   1.000  Hf
  Hf3      1.0000 0.12983  0.73031  0.83100  Biso   1.000  Hf
  Hf4      1.0000 0.35680  0.26864  0.33237  Biso   1.000  Hf
  Hf5      1.0000 0.37009  0.76478  0.35112  Biso   1.000  Hf
  Hf6      1.0000 0.36084  0.47856  0.83348  Biso   1.000  Hf
  Hf7      1.0000 0.36871  0.98785  0.81867  Biso   1.000  Hf
  Hf8      1.0000 0.63585  0.02138  0.16344  Biso   1.000  Hf
  Hf9      1.0000 0.63819  0.51749  0.15087  Biso   1.000  Hf
  Hf10     1.0000 0.63965  0.23091  0.65257  Biso   1.000  Hf
  Hf11     1.0000 0.64212  0.72740  0.65977  Biso   1.000  Hf
  Hf12     1.0000 0.86301  0.27357  0.15219  Biso   1.000  Hf
  Hf13     1.0000 0.86017  0.76760  0.17706  Biso   1.000  Hf
  Hf14     1.0000 0.86086  0.47940  0.65375  Biso   1.000  Hf
  Hf15     1.0000 0.85895  0.97864  0.68101  Biso   1.000  Hf
  Hf16     1.0000 0.03358  0.18045  0.15137  Biso   1.000  Hf
  Hf17     1.0000 0.02876  0.65667  0.14214  Biso   1.000  Hf
  Hf18     1.0000 0.02171  0.09176  0.66406  Biso   1.000  Hf
  Hf19     1.0000 0.02945  0.59292  0.64808  Biso   1.000  Hf
  Hf20     1.0000 0.46600  0.41523  0.15878  Biso   1.000  Hf
  Hf21     1.0000 0.45279  0.91836  0.16085  Biso   1.000  Hf
  Hf22     1.0000 0.46732  0.33584  0.65763  Biso   1.000  Hf
  Hf23     1.0000 0.47803  0.83799  0.65916  Biso   1.000  Hf
  Hf24     1.0000 0.27902  0.12669  0.57637  Biso   1.000  Hf
  Hf25     1.0000 0.27556  0.61982  0.57589  Biso   1.000  Hf
  Hf26     1.0000 0.28190  0.13085  0.05716  Biso   1.000  Hf
  Hf27     1.0000 0.27305  0.63712  0.07233  Biso   1.000  Hf
  Hf28     1.0000 0.22237  0.37433  0.57768  Biso   1.000  Hf
  Hf29     1.0000 0.23498  0.86515  0.61475  Biso   1.000  Hf
  Hf30     1.0000 0.22326  0.38145  0.07811  Biso   1.000  Hf
  Hf31     1.0000 0.53252  0.16581  0.32731  Biso   1.000  Hf
  Hf32     1.0000 0.53545  0.66270  0.33104  Biso   1.000  Hf
  Hf33     1.0000 0.54072  0.08268  0.82296  Biso   1.000  Hf
  Hf34     1.0000 0.53278  0.58604  0.83035  Biso   1.000  Hf
  Hf35     1.0000 0.96536  0.41892  0.33346  Biso   1.000  Hf
  Hf36     1.0000 0.96463  0.85271  0.46564  Biso   1.000  Hf
  Hf37     1.0000 0.96616  0.34176  0.82927  Biso   1.000  Hf
  Hf38     1.0000 0.98853  0.87550  0.95029  Biso   1.000  Hf
  Hf39     1.0000 0.77227  0.12527  0.92442  Biso   1.000  Hf
  Hf40     1.0000 0.77834  0.62366  0.91292  Biso   1.000  Hf
  Hf41     1.0000 0.77790  0.12266  0.41816  Biso   1.000  Hf
  Hf42     1.0000 0.77244  0.62388  0.41192  Biso   1.000  Hf
  Hf43     1.0000 0.72299  0.37521  0.90388  Biso   1.000  Hf
  Hf44     1.0000 0.72927  0.86973  0.91908  Biso   1.000  Hf
  Hf45     1.0000 0.72394  0.37485  0.40593  Biso   1.000  Hf
  Hf46     1.0000 0.71907  0.87973  0.41198  Biso   1.000  Hf
