data_image0
_cell_length_a       10.0788
_cell_length_b       10.3089
_cell_length_c       5.23438
_cell_angle_alpha    90.2405
_cell_angle_beta     90.4441
_cell_angle_gamma    89.6541

_symmetry_space_group_name_H-M    "P 1"
_symmetry_int_tables_number       1

loop_
  _symmetry_equiv_pos_as_xyz
  'x, y, z'

loop_
  _atom_site_label
  _atom_site_occupancy
  _atom_site_fract_x
  _atom_site_fract_y
  _atom_site_fract_z
  _atom_site_thermal_displace_type
  _atom_site_B_iso_or_equiv
  _atom_site_type_symbol
  La1      1.0000 0.11604  0.00255  0.30056  Biso   1.000  La
  Hf1      1.0000 0.13732  0.52568  0.33476  Biso   1.000  Hf
  Hf2      1.0000 0.14767  0.24112  0.84121  Biso   1.000  Hf
  Hf3      1.0000 0.13793  0.73338  0.83425  Biso   1.000  Hf
  Hf4      1.0000 0.35925  0.26879  0.34086  Biso   1.000  Hf
  Hf5      1.0000 0.36565  0.77051  0.33901  Biso   1.000  Hf
  Hf6      1.0000 0.36186  0.48081  0.83813  Biso   1.000  Hf
  Hf7      1.0000 0.36348  0.98176  0.83154  Biso   1.000  Hf
  Hf8      1.0000 0.63592  0.02259  0.16305  Biso   1.000  Hf
  Hf9      1.0000 0.63777  0.51760  0.15536  Biso   1.000  Hf
  Hf10     1.0000 0.63972  0.23011  0.65814  Biso   1.000  Hf
  Hf11     1.0000 0.63621  0.72471  0.65764  Biso   1.000  Hf
  Hf12     1.0000 0.86106  0.27422  0.15144  Biso   1.000  Hf
  Hf13     1.0000 0.85882  0.76739  0.17211  Biso   1.000  Hf
  Hf14     1.0000 0.86274  0.47981  0.65157  Biso   1.000  Hf
  Hf15     1.0000 0.84451  0.97067  0.67918  Biso   1.000  Hf
  Hf16     1.0000 0.03487  0.18625  0.15214  Biso   1.000  Hf
  Hf17     1.0000 0.03115  0.66391  0.14687  Biso   1.000  Hf
  Hf18     1.0000 0.02943  0.59162  0.65503  Biso   1.000  Hf
  Hf19     1.0000 0.46555  0.41570  0.16691  Biso   1.000  Hf
  Hf20     1.0000 0.46877  0.92009  0.16785  Biso   1.000  Hf
  Hf21     1.0000 0.46682  0.33206  0.66977  Biso   1.000  Hf
  Hf22     1.0000 0.47218  0.83504  0.66298  Biso   1.000  Hf
  Hf23     1.0000 0.26591  0.12931  0.58932  Biso   1.000  Hf
  Hf24     1.0000 0.27560  0.62474  0.58307  Biso   1.000  Hf
  Hf25     1.0000 0.28849  0.13500  0.06998  Biso   1.000  Hf
  Hf26     1.0000 0.27235  0.62373  0.08101  Biso   1.000  Hf
  Hf27     1.0000 0.22486  0.37980  0.58263  Biso   1.000  Hf
  Hf28     1.0000 0.23276  0.86851  0.58851  Biso   1.000  Hf
  Hf29     1.0000 0.22364  0.37934  0.08444  Biso   1.000  Hf
  Hf30     1.0000 0.24463  0.86282  0.06471  Biso   1.000  Hf
  Hf31     1.0000 0.53655  0.16921  0.33071  Biso   1.000  Hf
  Hf32     1.0000 0.53360  0.66308  0.32923  Biso   1.000  Hf
  Hf33     1.0000 0.53958  0.08061  0.82209  Biso   1.000  Hf
  Hf34     1.0000 0.53300  0.58228  0.83026  Biso   1.000  Hf
  Hf35     1.0000 0.96339  0.42420  0.31626  Biso   1.000  Hf
  Hf36     1.0000 0.95943  0.86186  0.45288  Biso   1.000  Hf
  Hf37     1.0000 0.96470  0.32871  0.80368  Biso   1.000  Hf
  Hf38     1.0000 0.97915  0.87654  0.93138  Biso   1.000  Hf
  Hf39     1.0000 0.77593  0.12434  0.92128  Biso   1.000  Hf
  Hf40     1.0000 0.77696  0.62277  0.91216  Biso   1.000  Hf
  Hf41     1.0000 0.78469  0.12209  0.41982  Biso   1.000  Hf
  Hf42     1.0000 0.77192  0.62320  0.41176  Biso   1.000  Hf
  Hf43     1.0000 0.72469  0.37510  0.90586  Biso   1.000  Hf
  Hf44     1.0000 0.72260  0.86715  0.91817  Biso   1.000  Hf
  Hf45     1.0000 0.72413  0.37422  0.40831  Biso   1.000  Hf
  Hf46     1.0000 0.71527  0.87806  0.41493  Biso   1.000  Hf
