data_image0
_cell_length_a       5.00268
_cell_length_b       10.3949
_cell_length_c       10.0673
_cell_angle_alpha    90.2099
_cell_angle_beta     89.9949
_cell_angle_gamma    89.9496

_symmetry_space_group_name_H-M    "P 1"
_symmetry_int_tables_number       1

loop_
  _symmetry_equiv_pos_as_xyz
  'x, y, z'

loop_
  _atom_site_label
  _atom_site_occupancy
  _atom_site_fract_x
  _atom_site_fract_y
  _atom_site_fract_z
  _atom_site_thermal_displace_type
  _atom_site_B_iso_or_equiv
  _atom_site_type_symbol
  La1      1.0000 0.23748  0.99882  0.12404  Biso   1.000  La
  Hf1      1.0000 0.26223  0.01774  0.62709  Biso   1.000  Hf
  Hf2      1.0000 0.26109  0.51323  0.12594  Biso   1.000  Hf
  Hf3      1.0000 0.26635  0.51687  0.62532  Biso   1.000  Hf
  Hf4      1.0000 0.26616  0.23276  0.37501  Biso   1.000  Hf
  Hf5      1.0000 0.26809  0.23541  0.87275  Biso   1.000  Hf
  Hf6      1.0000 0.26970  0.73327  0.37859  Biso   1.000  Hf
  Hf7      1.0000 0.26897  0.73304  0.87528  Biso   1.000  Hf
  Hf8      1.0000 0.72319  0.26543  0.12690  Biso   1.000  Hf
  Hf9      1.0000 0.73119  0.26830  0.62434  Biso   1.000  Hf
  Hf10     1.0000 0.72837  0.75105  0.12058  Biso   1.000  Hf
  Hf11     1.0000 0.73097  0.76577  0.62430  Biso   1.000  Hf
  Hf12     1.0000 0.72990  0.48243  0.37636  Biso   1.000  Hf
  Hf13     1.0000 0.73132  0.48106  0.87563  Biso   1.000  Hf
  Hf14     1.0000 0.72005  0.98581  0.38537  Biso   1.000  Hf
  Hf15     1.0000 0.72729  0.98497  0.87089  Biso   1.000  Hf
  Hf16     1.0000 0.06135  0.19275  0.19908  Biso   1.000  Hf
  Hf17     1.0000 0.07614  0.18864  0.68421  Biso   1.000  Hf
  Hf18     1.0000 0.08006  0.69587  0.19641  Biso   1.000  Hf
  Hf19     1.0000 0.06724  0.68435  0.69740  Biso   1.000  Hf
  Hf20     1.0000 0.07685  0.06193  0.43763  Biso   1.000  Hf
  Hf21     1.0000 0.06748  0.07237  0.91851  Biso   1.000  Hf
  Hf22     1.0000 0.06927  0.56713  0.44556  Biso   1.000  Hf
  Hf23     1.0000 0.05629  0.57396  0.95060  Biso   1.000  Hf
  Hf24     1.0000 0.91907  0.43973  0.19447  Biso   1.000  Hf
  Hf25     1.0000 0.92972  0.43504  0.69623  Biso   1.000  Hf
  Hf26     1.0000 0.92129  0.93360  0.69156  Biso   1.000  Hf
  Hf27     1.0000 0.92584  0.31696  0.44461  Biso   1.000  Hf
  Hf28     1.0000 0.93056  0.31992  0.94590  Biso   1.000  Hf
  Hf29     1.0000 0.93017  0.81703  0.44654  Biso   1.000  Hf
  Hf30     1.0000 0.96622  0.83169  0.96498  Biso   1.000  Hf
  Hf31     1.0000 0.55743  0.12065  0.25597  Biso   1.000  Hf
  Hf32     1.0000 0.54075  0.11953  0.74728  Biso   1.000  Hf
  Hf33     1.0000 0.53130  0.61090  0.24916  Biso   1.000  Hf
  Hf34     1.0000 0.53928  0.61798  0.74927  Biso   1.000  Hf
  Hf35     1.0000 0.53700  0.13180  0.50300  Biso   1.000  Hf
  Hf36     1.0000 0.54602  0.13417  0.99481  Biso   1.000  Hf
  Hf37     1.0000 0.54078  0.63190  0.49943  Biso   1.000  Hf
  Hf38     1.0000 0.53351  0.62593  0.99791  Biso   1.000  Hf
  Hf39     1.0000 0.45732  0.38289  0.49953  Biso   1.000  Hf
  Hf40     1.0000 0.45383  0.38310  0.99937  Biso   1.000  Hf
  Hf41     1.0000 0.45167  0.88181  0.50203  Biso   1.000  Hf
  Hf42     1.0000 0.49249  0.86693  0.99069  Biso   1.000  Hf
  Hf43     1.0000 0.45301  0.36700  0.24971  Biso   1.000  Hf
  Hf44     1.0000 0.45969  0.36967  0.74848  Biso   1.000  Hf
  Hf45     1.0000 0.51248  0.85616  0.25702  Biso   1.000  Hf
  Hf46     1.0000 0.45454  0.86862  0.74713  Biso   1.000  Hf
