data_image0
_cell_length_a       10.0992
_cell_length_b       5.15175
_cell_length_c       10.3689
_cell_angle_alpha    90.221
_cell_angle_beta     90.5995
_cell_angle_gamma    90.4004

_symmetry_space_group_name_H-M    "P 1"
_symmetry_int_tables_number       1

loop_
  _symmetry_equiv_pos_as_xyz
  'x, y, z'

loop_
  _atom_site_label
  _atom_site_occupancy
  _atom_site_fract_x
  _atom_site_fract_y
  _atom_site_fract_z
  _atom_site_thermal_displace_type
  _atom_site_B_iso_or_equiv
  _atom_site_type_symbol
  La1      1.0000 0.13068  0.01179  0.15213  Biso   1.000  La
  Hf1      1.0000 0.14011  0.03822  0.66807  Biso   1.000  Hf
  Hf2      1.0000 0.13848  0.44812  0.41762  Biso   1.000  Hf
  Hf3      1.0000 0.13722  0.46075  0.91259  Biso   1.000  Hf
  Hf4      1.0000 0.36801  0.51821  0.17466  Biso   1.000  Hf
  Hf5      1.0000 0.36310  0.53793  0.66869  Biso   1.000  Hf
  Hf6      1.0000 0.36107  0.95189  0.41890  Biso   1.000  Hf
  Hf7      1.0000 0.37198  0.96800  0.91212  Biso   1.000  Hf
  Hf8      1.0000 0.64089  0.03286  0.08296  Biso   1.000  Hf
  Hf9      1.0000 0.63831  0.03910  0.58051  Biso   1.000  Hf
  Hf10     1.0000 0.63912  0.45697  0.33449  Biso   1.000  Hf
  Hf11     1.0000 0.64206  0.45990  0.82823  Biso   1.000  Hf
  Hf12     1.0000 0.86004  0.54025  0.08117  Biso   1.000  Hf
  Hf13     1.0000 0.86529  0.54216  0.58021  Biso   1.000  Hf
  Hf14     1.0000 0.85575  0.96214  0.33294  Biso   1.000  Hf
  Hf15     1.0000 0.86067  0.95893  0.83150  Biso   1.000  Hf
  Hf16     1.0000 0.05202  0.43389  0.09626  Biso   1.000  Hf
  Hf17     1.0000 0.03897  0.34750  0.59478  Biso   1.000  Hf
  Hf18     1.0000 0.02888  0.15314  0.34666  Biso   1.000  Hf
  Hf19     1.0000 0.04119  0.14403  0.84938  Biso   1.000  Hf
  Hf20     1.0000 0.45338  0.83863  0.08504  Biso   1.000  Hf
  Hf21     1.0000 0.46490  0.83887  0.58897  Biso   1.000  Hf
  Hf22     1.0000 0.46829  0.65531  0.34046  Biso   1.000  Hf
  Hf23     1.0000 0.46854  0.65935  0.83449  Biso   1.000  Hf
  Hf24     1.0000 0.28190  0.23857  0.29657  Biso   1.000  Hf
  Hf25     1.0000 0.27649  0.24859  0.78727  Biso   1.000  Hf
  Hf26     1.0000 0.28466  0.27423  0.02865  Biso   1.000  Hf
  Hf27     1.0000 0.27562  0.24727  0.54181  Biso   1.000  Hf
  Hf28     1.0000 0.23033  0.72191  0.29428  Biso   1.000  Hf
  Hf29     1.0000 0.22582  0.75064  0.79909  Biso   1.000  Hf
  Hf30     1.0000 0.22310  0.74938  0.54534  Biso   1.000  Hf
  Hf31     1.0000 0.53657  0.32618  0.16480  Biso   1.000  Hf
  Hf32     1.0000 0.53591  0.33842  0.66182  Biso   1.000  Hf
  Hf33     1.0000 0.53596  0.15275  0.41366  Biso   1.000  Hf
  Hf34     1.0000 0.54250  0.15849  0.91124  Biso   1.000  Hf
  Hf35     1.0000 0.92181  0.88509  0.14811  Biso   1.000  Hf
  Hf36     1.0000 0.96393  0.84982  0.66181  Biso   1.000  Hf
  Hf37     1.0000 0.96332  0.65495  0.40801  Biso   1.000  Hf
  Hf38     1.0000 0.96093  0.65168  0.90517  Biso   1.000  Hf
  Hf39     1.0000 0.77815  0.24469  0.95885  Biso   1.000  Hf
  Hf40     1.0000 0.77520  0.24796  0.46005  Biso   1.000  Hf
  Hf41     1.0000 0.77405  0.26247  0.21017  Biso   1.000  Hf
  Hf42     1.0000 0.77826  0.25315  0.70804  Biso   1.000  Hf
  Hf43     1.0000 0.72273  0.74560  0.95679  Biso   1.000  Hf
  Hf44     1.0000 0.72522  0.74696  0.46015  Biso   1.000  Hf
  Hf45     1.0000 0.70713  0.75008  0.21128  Biso   1.000  Hf
  Hf46     1.0000 0.72605  0.75108  0.70710  Biso   1.000  Hf
