data_image0
_cell_length_a       10.0617
_cell_length_b       5.199
_cell_length_c       10.0813
_cell_angle_alpha    90.3954
_cell_angle_beta     90.7033
_cell_angle_gamma    89.8128

_symmetry_space_group_name_H-M    "P 1"
_symmetry_int_tables_number       1

loop_
  _symmetry_equiv_pos_as_xyz
  'x, y, z'

loop_
  _atom_site_label
  _atom_site_occupancy
  _atom_site_fract_x
  _atom_site_fract_y
  _atom_site_fract_z
  _atom_site_thermal_displace_type
  _atom_site_B_iso_or_equiv
  _atom_site_type_symbol
  La1      1.0000 0.12078  0.01370  0.11928  Biso   1.000  La
  Hf1      1.0000 0.13307  0.03455  0.62365  Biso   1.000  Hf
  Hf2      1.0000 0.63255  0.02641  0.12744  Biso   1.000  Hf
  Hf3      1.0000 0.63138  0.03307  0.62215  Biso   1.000  Hf
  Hf4      1.0000 0.13520  0.47045  0.37584  Biso   1.000  Hf
  Hf5      1.0000 0.14305  0.49226  0.86587  Biso   1.000  Hf
  Hf6      1.0000 0.63035  0.46599  0.37606  Biso   1.000  Hf
  Hf7      1.0000 0.63590  0.46012  0.87559  Biso   1.000  Hf
  Hf8      1.0000 0.36812  0.52524  0.12248  Biso   1.000  Hf
  Hf9      1.0000 0.36926  0.53135  0.61996  Biso   1.000  Hf
  Hf10     1.0000 0.85783  0.53181  0.13313  Biso   1.000  Hf
  Hf11     1.0000 0.86778  0.52995  0.62381  Biso   1.000  Hf
  Hf12     1.0000 0.36374  0.96859  0.37124  Biso   1.000  Hf
  Hf13     1.0000 0.37308  0.97066  0.87083  Biso   1.000  Hf
  Hf14     1.0000 0.86171  0.96732  0.38117  Biso   1.000  Hf
  Hf15     1.0000 0.85696  0.95461  0.87132  Biso   1.000  Hf
  Hf16     1.0000 0.02736  0.39616  0.20490  Biso   1.000  Hf
  Hf17     1.0000 0.03270  0.36231  0.70062  Biso   1.000  Hf
  Hf18     1.0000 0.53684  0.36209  0.19207  Biso   1.000  Hf
  Hf19     1.0000 0.53609  0.36634  0.69549  Biso   1.000  Hf
  Hf20     1.0000 0.03178  0.13817  0.44734  Biso   1.000  Hf
  Hf21     1.0000 0.53318  0.13205  0.44524  Biso   1.000  Hf
  Hf22     1.0000 0.54042  0.13181  0.94516  Biso   1.000  Hf
  Hf23     1.0000 0.46337  0.86662  0.19134  Biso   1.000  Hf
  Hf24     1.0000 0.46790  0.86591  0.69375  Biso   1.000  Hf
  Hf25     1.0000 0.93495  0.86908  0.20485  Biso   1.000  Hf
  Hf26     1.0000 0.96905  0.86064  0.70229  Biso   1.000  Hf
  Hf27     1.0000 0.46464  0.63348  0.44561  Biso   1.000  Hf
  Hf28     1.0000 0.47446  0.63447  0.94248  Biso   1.000  Hf
  Hf29     1.0000 0.96645  0.63994  0.45279  Biso   1.000  Hf
  Hf30     1.0000 0.98069  0.65890  0.95751  Biso   1.000  Hf
  Hf31     1.0000 0.27788  0.24497  0.25190  Biso   1.000  Hf
  Hf32     1.0000 0.27159  0.23651  0.74359  Biso   1.000  Hf
  Hf33     1.0000 0.76485  0.23709  0.25250  Biso   1.000  Hf
  Hf34     1.0000 0.76966  0.22604  0.74719  Biso   1.000  Hf
  Hf35     1.0000 0.26743  0.26547  0.49911  Biso   1.000  Hf
  Hf36     1.0000 0.26815  0.27447  0.98639  Biso   1.000  Hf
  Hf37     1.0000 0.76649  0.26846  0.50050  Biso   1.000  Hf
  Hf38     1.0000 0.78032  0.25440  0.99744  Biso   1.000  Hf
  Hf39     1.0000 0.23032  0.77082  0.49693  Biso   1.000  Hf
  Hf40     1.0000 0.24784  0.75781  0.98566  Biso   1.000  Hf
  Hf41     1.0000 0.72939  0.76407  0.50257  Biso   1.000  Hf
  Hf42     1.0000 0.73176  0.75573  0.99923  Biso   1.000  Hf
  Hf43     1.0000 0.23996  0.71752  0.25249  Biso   1.000  Hf
  Hf44     1.0000 0.23506  0.73740  0.74073  Biso   1.000  Hf
  Hf45     1.0000 0.71550  0.73335  0.25333  Biso   1.000  Hf
  Hf46     1.0000 0.73368  0.72722  0.75064  Biso   1.000  Hf
