data_image0
_cell_length_a       5.10427
_cell_length_b       10.348
_cell_length_c       10.4845
_cell_angle_alpha    90.2953
_cell_angle_beta     80.5901
_cell_angle_gamma    89.6958

_symmetry_space_group_name_H-M    "P 1"
_symmetry_int_tables_number       1

loop_
  _symmetry_equiv_pos_as_xyz
  'x, y, z'

loop_
  _atom_site_label
  _atom_site_occupancy
  _atom_site_fract_x
  _atom_site_fract_y
  _atom_site_fract_z
  _atom_site_thermal_displace_type
  _atom_site_B_iso_or_equiv
  _atom_site_type_symbol
  La1      1.0000 0.26017  0.00907  0.13753  Biso   1.000  La
  Hf1      1.0000 0.28059  0.02146  0.64881  Biso   1.000  Hf
  Hf2      1.0000 0.27729  0.51921  0.14406  Biso   1.000  Hf
  Hf3      1.0000 0.27872  0.52228  0.64728  Biso   1.000  Hf
  Hf4      1.0000 0.29108  0.23871  0.40172  Biso   1.000  Hf
  Hf5      1.0000 0.28100  0.23408  0.89456  Biso   1.000  Hf
  Hf6      1.0000 0.26511  0.72145  0.40013  Biso   1.000  Hf
  Hf7      1.0000 0.28865  0.72924  0.89370  Biso   1.000  Hf
  Hf8      1.0000 0.71854  0.27163  0.10222  Biso   1.000  Hf
  Hf9      1.0000 0.72918  0.26874  0.60431  Biso   1.000  Hf
  Hf10     1.0000 0.72642  0.76383  0.10482  Biso   1.000  Hf
  Hf11     1.0000 0.72243  0.77324  0.60476  Biso   1.000  Hf
  Hf12     1.0000 0.72481  0.47823  0.35099  Biso   1.000  Hf
  Hf13     1.0000 0.72797  0.47914  0.85181  Biso   1.000  Hf
  Hf14     1.0000 0.67272  0.97186  0.36087  Biso   1.000  Hf
  Hf15     1.0000 0.73637  0.97888  0.85385  Biso   1.000  Hf
  Hf16     1.0000 0.07176  0.18934  0.07747  Biso   1.000  Hf
  Hf17     1.0000 0.07543  0.16718  0.57663  Biso   1.000  Hf
  Hf18     1.0000 0.08528  0.67463  0.08243  Biso   1.000  Hf
  Hf19     1.0000 0.06358  0.66639  0.58202  Biso   1.000  Hf
  Hf20     1.0000 0.08137  0.08303  0.83042  Biso   1.000  Hf
  Hf21     1.0000 0.06775  0.57738  0.33041  Biso   1.000  Hf
  Hf22     1.0000 0.07360  0.58256  0.82862  Biso   1.000  Hf
  Hf23     1.0000 0.92175  0.42505  0.16642  Biso   1.000  Hf
  Hf24     1.0000 0.93641  0.41731  0.66605  Biso   1.000  Hf
  Hf25     1.0000 0.85565  0.92621  0.17805  Biso   1.000  Hf
  Hf26     1.0000 0.93514  0.91719  0.67307  Biso   1.000  Hf
  Hf27     1.0000 0.92669  0.32090  0.41250  Biso   1.000  Hf
  Hf28     1.0000 0.92981  0.33492  0.91569  Biso   1.000  Hf
  Hf29     1.0000 0.92163  0.83629  0.42269  Biso   1.000  Hf
  Hf30     1.0000 0.96112  0.84076  0.92737  Biso   1.000  Hf
  Hf31     1.0000 0.54069  0.13590  0.25557  Biso   1.000  Hf
  Hf32     1.0000 0.55813  0.13056  0.73873  Biso   1.000  Hf
  Hf33     1.0000 0.55036  0.62321  0.24048  Biso   1.000  Hf
  Hf34     1.0000 0.55434  0.63030  0.73869  Biso   1.000  Hf
  Hf35     1.0000 0.55436  0.11842  0.49572  Biso   1.000  Hf
  Hf36     1.0000 0.57094  0.12802  0.98119  Biso   1.000  Hf
  Hf37     1.0000 0.54799  0.61840  0.49098  Biso   1.000  Hf
  Hf38     1.0000 0.55759  0.61707  0.98944  Biso   1.000  Hf
  Hf39     1.0000 0.44932  0.38139  0.00700  Biso   1.000  Hf
  Hf40     1.0000 0.45463  0.37727  0.50855  Biso   1.000  Hf
  Hf41     1.0000 0.48799  0.86475  0.99492  Biso   1.000  Hf
  Hf42     1.0000 0.43363  0.87419  0.51490  Biso   1.000  Hf
  Hf43     1.0000 0.44446  0.37403  0.25914  Biso   1.000  Hf
  Hf44     1.0000 0.45408  0.37293  0.75681  Biso   1.000  Hf
  Hf45     1.0000 0.42966  0.85425  0.27042  Biso   1.000  Hf
  Hf46     1.0000 0.45625  0.87280  0.75775  Biso   1.000  Hf
