data_image0
_cell_length_a       5.08138
_cell_length_b       10.4124
_cell_length_c       10.4095
_cell_angle_alpha    89.7021
_cell_angle_beta     80.879
_cell_angle_gamma    90.3956

_symmetry_space_group_name_H-M    "P 1"
_symmetry_int_tables_number       1

loop_
  _symmetry_equiv_pos_as_xyz
  'x, y, z'

loop_
  _atom_site_label
  _atom_site_occupancy
  _atom_site_fract_x
  _atom_site_fract_y
  _atom_site_fract_z
  _atom_site_thermal_displace_type
  _atom_site_B_iso_or_equiv
  _atom_site_type_symbol
  La1      1.0000 0.27313  0.01241  0.13784  Biso   1.000  La
  Hf1      1.0000 0.28539  0.02226  0.64654  Biso   1.000  Hf
  Hf2      1.0000 0.28187  0.52083  0.14670  Biso   1.000  Hf
  Hf3      1.0000 0.27427  0.52031  0.64531  Biso   1.000  Hf
  Hf4      1.0000 0.27380  0.22862  0.39810  Biso   1.000  Hf
  Hf5      1.0000 0.25861  0.23665  0.89106  Biso   1.000  Hf
  Hf6      1.0000 0.27112  0.72577  0.39697  Biso   1.000  Hf
  Hf7      1.0000 0.28769  0.72552  0.89284  Biso   1.000  Hf
  Hf8      1.0000 0.72793  0.28106  0.10910  Biso   1.000  Hf
  Hf9      1.0000 0.72466  0.27084  0.60571  Biso   1.000  Hf
  Hf10     1.0000 0.72770  0.76533  0.10470  Biso   1.000  Hf
  Hf11     1.0000 0.72154  0.76960  0.59950  Biso   1.000  Hf
  Hf12     1.0000 0.71870  0.47956  0.35733  Biso   1.000  Hf
  Hf13     1.0000 0.71915  0.48035  0.85185  Biso   1.000  Hf
  Hf14     1.0000 0.71369  0.97999  0.35687  Biso   1.000  Hf
  Hf15     1.0000 0.74238  0.96745  0.84364  Biso   1.000  Hf
  Hf16     1.0000 0.08167  0.19504  0.07759  Biso   1.000  Hf
  Hf17     1.0000 0.07692  0.17576  0.59075  Biso   1.000  Hf
  Hf18     1.0000 0.08911  0.67785  0.08567  Biso   1.000  Hf
  Hf19     1.0000 0.07147  0.67222  0.58546  Biso   1.000  Hf
  Hf20     1.0000 0.06144  0.07820  0.34926  Biso   1.000  Hf
  Hf21     1.0000 0.07784  0.07473  0.83643  Biso   1.000  Hf
  Hf22     1.0000 0.07304  0.57656  0.33298  Biso   1.000  Hf
  Hf23     1.0000 0.07818  0.57248  0.83465  Biso   1.000  Hf
  Hf24     1.0000 0.91960  0.43010  0.16727  Biso   1.000  Hf
  Hf25     1.0000 0.92202  0.42419  0.66582  Biso   1.000  Hf
  Hf26     1.0000 0.86446  0.93105  0.16552  Biso   1.000  Hf
  Hf27     1.0000 0.93379  0.92032  0.66331  Biso   1.000  Hf
  Hf28     1.0000 0.92382  0.32868  0.41928  Biso   1.000  Hf
  Hf29     1.0000 0.90690  0.32486  0.91084  Biso   1.000  Hf
  Hf30     1.0000 0.92127  0.82608  0.41526  Biso   1.000  Hf
  Hf31     1.0000 0.95107  0.82573  0.91511  Biso   1.000  Hf
  Hf32     1.0000 0.56592  0.14194  0.24646  Biso   1.000  Hf
  Hf33     1.0000 0.55582  0.12917  0.74997  Biso   1.000  Hf
  Hf34     1.0000 0.55465  0.62461  0.24097  Biso   1.000  Hf
  Hf35     1.0000 0.55411  0.62841  0.73929  Biso   1.000  Hf
  Hf36     1.0000 0.54821  0.12175  0.49669  Biso   1.000  Hf
  Hf37     1.0000 0.54929  0.62051  0.49154  Biso   1.000  Hf
  Hf38     1.0000 0.55700  0.61557  0.99103  Biso   1.000  Hf
  Hf39     1.0000 0.44712  0.37775  0.00789  Biso   1.000  Hf
  Hf40     1.0000 0.44741  0.38020  0.51035  Biso   1.000  Hf
  Hf41     1.0000 0.48643  0.86704  0.99085  Biso   1.000  Hf
  Hf42     1.0000 0.44581  0.88159  0.50978  Biso   1.000  Hf
  Hf43     1.0000 0.44169  0.37510  0.26119  Biso   1.000  Hf
  Hf44     1.0000 0.44480  0.37206  0.75680  Biso   1.000  Hf
  Hf45     1.0000 0.44549  0.85582  0.26624  Biso   1.000  Hf
  Hf46     1.0000 0.45393  0.86754  0.75208  Biso   1.000  Hf
