data_image0
_cell_length_a       10.065
_cell_length_b       10.3875
_cell_length_c       5.02784
_cell_angle_alpha    90.0992
_cell_angle_beta     90.1882
_cell_angle_gamma    90.0741

_symmetry_space_group_name_H-M    "P 1"
_symmetry_int_tables_number       1

loop_
  _symmetry_equiv_pos_as_xyz
  'x, y, z'

loop_
  _atom_site_label
  _atom_site_occupancy
  _atom_site_fract_x
  _atom_site_fract_y
  _atom_site_fract_z
  _atom_site_thermal_displace_type
  _atom_site_B_iso_or_equiv
  _atom_site_type_symbol
  La1      1.0000 0.12679  0.00067  0.24019  Biso   1.000  La
  Hf1      1.0000 0.13522  0.51691  0.25422  Biso   1.000  Hf
  Hf2      1.0000 0.63261  0.01743  0.26109  Biso   1.000  Hf
  Hf3      1.0000 0.63472  0.51309  0.25566  Biso   1.000  Hf
  Hf4      1.0000 0.13444  0.23468  0.74679  Biso   1.000  Hf
  Hf5      1.0000 0.13043  0.72726  0.75302  Biso   1.000  Hf
  Hf6      1.0000 0.63537  0.23599  0.75528  Biso   1.000  Hf
  Hf7      1.0000 0.63713  0.73039  0.75971  Biso   1.000  Hf
  Hf8      1.0000 0.36370  0.26528  0.25354  Biso   1.000  Hf
  Hf9      1.0000 0.38129  0.75599  0.22472  Biso   1.000  Hf
  Hf10     1.0000 0.86808  0.26911  0.25359  Biso   1.000  Hf
  Hf11     1.0000 0.86014  0.76505  0.26113  Biso   1.000  Hf
  Hf12     1.0000 0.36621  0.48203  0.75268  Biso   1.000  Hf
  Hf13     1.0000 0.37656  0.99256  0.74696  Biso   1.000  Hf
  Hf14     1.0000 0.86669  0.48241  0.75510  Biso   1.000  Hf
  Hf15     1.0000 0.85856  0.98303  0.76103  Biso   1.000  Hf
  Hf16     1.0000 0.03509  0.19842  0.38655  Biso   1.000  Hf
  Hf17     1.0000 0.03959  0.69084  0.38841  Biso   1.000  Hf
  Hf18     1.0000 0.53388  0.18103  0.39675  Biso   1.000  Hf
  Hf19     1.0000 0.53924  0.68023  0.39749  Biso   1.000  Hf
  Hf20     1.0000 0.02929  0.07304  0.84467  Biso   1.000  Hf
  Hf21     1.0000 0.03535  0.56768  0.89233  Biso   1.000  Hf
  Hf22     1.0000 0.54175  0.06641  0.89362  Biso   1.000  Hf
  Hf23     1.0000 0.53090  0.56938  0.90623  Biso   1.000  Hf
  Hf24     1.0000 0.46666  0.43199  0.39760  Biso   1.000  Hf
  Hf25     1.0000 0.44832  0.93292  0.37352  Biso   1.000  Hf
  Hf26     1.0000 0.96240  0.44247  0.39022  Biso   1.000  Hf
  Hf27     1.0000 0.93985  0.92669  0.41584  Biso   1.000  Hf
  Hf28     1.0000 0.46693  0.31802  0.89475  Biso   1.000  Hf
  Hf29     1.0000 0.47441  0.81967  0.88554  Biso   1.000  Hf
  Hf30     1.0000 0.96429  0.32017  0.89345  Biso   1.000  Hf
  Hf31     1.0000 0.97025  0.82171  0.91765  Biso   1.000  Hf
  Hf32     1.0000 0.27731  0.12459  0.50639  Biso   1.000  Hf
  Hf33     1.0000 0.27270  0.62162  0.49717  Biso   1.000  Hf
  Hf34     1.0000 0.76748  0.11914  0.50861  Biso   1.000  Hf
  Hf35     1.0000 0.77078  0.61812  0.50422  Biso   1.000  Hf
  Hf36     1.0000 0.27677  0.13608  0.98861  Biso   1.000  Hf
  Hf37     1.0000 0.26879  0.62828  0.99617  Biso   1.000  Hf
  Hf38     1.0000 0.76769  0.13309  0.01234  Biso   1.000  Hf
  Hf39     1.0000 0.77095  0.62874  0.00270  Biso   1.000  Hf
  Hf40     1.0000 0.23052  0.38335  0.00105  Biso   1.000  Hf
  Hf41     1.0000 0.24050  0.87259  0.92854  Biso   1.000  Hf
  Hf42     1.0000 0.72881  0.38317  0.99921  Biso   1.000  Hf
  Hf43     1.0000 0.72974  0.87882  0.01342  Biso   1.000  Hf
  Hf44     1.0000 0.22975  0.37228  0.49911  Biso   1.000  Hf
  Hf45     1.0000 0.73107  0.36828  0.50178  Biso   1.000  Hf
  Hf46     1.0000 0.71315  0.86915  0.51056  Biso   1.000  Hf
