data_image0
_cell_length_a       10.2225
_cell_length_b       10.3442
_cell_length_c       5.24965
_cell_angle_alpha    90.3471
_cell_angle_beta     80.4366
_cell_angle_gamma    89.6598

_symmetry_space_group_name_H-M    "P 1"
_symmetry_int_tables_number       1

loop_
  _symmetry_equiv_pos_as_xyz
  'x, y, z'

loop_
  _atom_site_label
  _atom_site_occupancy
  _atom_site_fract_x
  _atom_site_fract_y
  _atom_site_fract_z
  _atom_site_thermal_displace_type
  _atom_site_B_iso_or_equiv
  _atom_site_type_symbol
  La1      1.0000 0.13096  0.01351  0.28428  Biso   1.000  La
  Hf1      1.0000 0.13749  0.52402  0.29059  Biso   1.000  Hf
  Hf2      1.0000 0.63657  0.02264  0.29631  Biso   1.000  Hf
  Hf3      1.0000 0.63951  0.51827  0.28858  Biso   1.000  Hf
  Hf4      1.0000 0.14819  0.24225  0.79818  Biso   1.000  Hf
  Hf5      1.0000 0.14135  0.72801  0.79245  Biso   1.000  Hf
  Hf6      1.0000 0.63860  0.23069  0.79130  Biso   1.000  Hf
  Hf7      1.0000 0.63564  0.72358  0.79223  Biso   1.000  Hf
  Hf8      1.0000 0.36221  0.26961  0.21120  Biso   1.000  Hf
  Hf9      1.0000 0.36556  0.76931  0.21010  Biso   1.000  Hf
  Hf10     1.0000 0.85985  0.27221  0.20191  Biso   1.000  Hf
  Hf11     1.0000 0.85758  0.76688  0.21023  Biso   1.000  Hf
  Hf12     1.0000 0.36402  0.47942  0.70414  Biso   1.000  Hf
  Hf13     1.0000 0.36474  0.97840  0.71139  Biso   1.000  Hf
  Hf14     1.0000 0.86330  0.47781  0.69975  Biso   1.000  Hf
  Hf15     1.0000 0.84071  0.96903  0.72411  Biso   1.000  Hf
  Hf16     1.0000 0.03397  0.18532  0.14125  Biso   1.000  Hf
  Hf17     1.0000 0.03551  0.67126  0.15692  Biso   1.000  Hf
  Hf18     1.0000 0.53688  0.16986  0.16008  Biso   1.000  Hf
  Hf19     1.0000 0.53594  0.66345  0.15655  Biso   1.000  Hf
  Hf20     1.0000 0.03326  0.58436  0.65544  Biso   1.000  Hf
  Hf21     1.0000 0.53862  0.08246  0.65978  Biso   1.000  Hf
  Hf22     1.0000 0.53444  0.58172  0.65258  Biso   1.000  Hf
  Hf23     1.0000 0.46751  0.41598  0.34238  Biso   1.000  Hf
  Hf24     1.0000 0.46448  0.92124  0.34132  Biso   1.000  Hf
  Hf25     1.0000 0.96193  0.42448  0.32590  Biso   1.000  Hf
  Hf26     1.0000 0.94116  0.90745  0.38173  Biso   1.000  Hf
  Hf27     1.0000 0.46701  0.33481  0.84398  Biso   1.000  Hf
  Hf28     1.0000 0.47172  0.83434  0.84828  Biso   1.000  Hf
  Hf29     1.0000 0.96373  0.32591  0.81411  Biso   1.000  Hf
  Hf30     1.0000 0.96984  0.84648  0.86085  Biso   1.000  Hf
  Hf31     1.0000 0.27508  0.13831  0.50069  Biso   1.000  Hf
  Hf32     1.0000 0.27586  0.62615  0.47806  Biso   1.000  Hf
  Hf33     1.0000 0.77813  0.12819  0.48219  Biso   1.000  Hf
  Hf34     1.0000 0.77409  0.62720  0.47785  Biso   1.000  Hf
  Hf35     1.0000 0.28830  0.12872  0.97129  Biso   1.000  Hf
  Hf36     1.0000 0.27563  0.61791  0.97996  Biso   1.000  Hf
  Hf37     1.0000 0.77417  0.11943  0.98344  Biso   1.000  Hf
  Hf38     1.0000 0.77651  0.61874  0.97599  Biso   1.000  Hf
  Hf39     1.0000 0.22590  0.38040  0.01759  Biso   1.000  Hf
  Hf40     1.0000 0.23809  0.86597  0.00312  Biso   1.000  Hf
  Hf41     1.0000 0.72574  0.37879  0.01334  Biso   1.000  Hf
  Hf42     1.0000 0.71998  0.87427  0.02814  Biso   1.000  Hf
  Hf43     1.0000 0.22452  0.37746  0.51540  Biso   1.000  Hf
  Hf44     1.0000 0.23589  0.86158  0.52907  Biso   1.000  Hf
  Hf45     1.0000 0.72422  0.37055  0.51632  Biso   1.000  Hf
  Hf46     1.0000 0.70969  0.86784  0.52950  Biso   1.000  Hf
