data_image0
_cell_length_a       10.0488
_cell_length_b       10.3425
_cell_length_c       5.20342
_cell_angle_alpha    90.0684
_cell_angle_beta     90.648
_cell_angle_gamma    90.2779

_symmetry_space_group_name_H-M    "P 1"
_symmetry_int_tables_number       1

loop_
  _symmetry_equiv_pos_as_xyz
  'x, y, z'

loop_
  _atom_site_label
  _atom_site_occupancy
  _atom_site_fract_x
  _atom_site_fract_y
  _atom_site_fract_z
  _atom_site_thermal_displace_type
  _atom_site_B_iso_or_equiv
  _atom_site_type_symbol
  La1      1.0000 0.11890  0.00459  0.31011  Biso   1.000  La
  Hf1      1.0000 0.13861  0.52164  0.33892  Biso   1.000  Hf
  Hf2      1.0000 0.13749  0.23015  0.83262  Biso   1.000  Hf
  Hf3      1.0000 0.14225  0.72803  0.83724  Biso   1.000  Hf
  Hf4      1.0000 0.35559  0.26604  0.33659  Biso   1.000  Hf
  Hf5      1.0000 0.36512  0.76855  0.33651  Biso   1.000  Hf
  Hf6      1.0000 0.35940  0.47663  0.83817  Biso   1.000  Hf
  Hf7      1.0000 0.36444  0.98074  0.83024  Biso   1.000  Hf
  Hf8      1.0000 0.63795  0.02195  0.16817  Biso   1.000  Hf
  Hf9      1.0000 0.63502  0.51671  0.15746  Biso   1.000  Hf
  Hf10     1.0000 0.63610  0.23188  0.65888  Biso   1.000  Hf
  Hf11     1.0000 0.63806  0.72762  0.65759  Biso   1.000  Hf
  Hf12     1.0000 0.86119  0.27611  0.15813  Biso   1.000  Hf
  Hf13     1.0000 0.85468  0.76136  0.15798  Biso   1.000  Hf
  Hf14     1.0000 0.86155  0.47935  0.65614  Biso   1.000  Hf
  Hf15     1.0000 0.85256  0.98528  0.69372  Biso   1.000  Hf
  Hf16     1.0000 0.03659  0.19440  0.18181  Biso   1.000  Hf
  Hf17     1.0000 0.04039  0.68853  0.19922  Biso   1.000  Hf
  Hf18     1.0000 0.02748  0.07525  0.71154  Biso   1.000  Hf
  Hf19     1.0000 0.03579  0.57851  0.68361  Biso   1.000  Hf
  Hf20     1.0000 0.46410  0.41608  0.17068  Biso   1.000  Hf
  Hf21     1.0000 0.46991  0.91917  0.17287  Biso   1.000  Hf
  Hf22     1.0000 0.46371  0.33119  0.66959  Biso   1.000  Hf
  Hf23     1.0000 0.47325  0.83524  0.66137  Biso   1.000  Hf
  Hf24     1.0000 0.27556  0.12513  0.58467  Biso   1.000  Hf
  Hf25     1.0000 0.27874  0.62086  0.58481  Biso   1.000  Hf
  Hf26     1.0000 0.28154  0.12974  0.06716  Biso   1.000  Hf
  Hf27     1.0000 0.27283  0.62044  0.08571  Biso   1.000  Hf
  Hf28     1.0000 0.22047  0.37432  0.58007  Biso   1.000  Hf
  Hf29     1.0000 0.23023  0.86268  0.58535  Biso   1.000  Hf
  Hf30     1.0000 0.22133  0.37722  0.08212  Biso   1.000  Hf
  Hf31     1.0000 0.24377  0.86314  0.06290  Biso   1.000  Hf
  Hf32     1.0000 0.53393  0.16912  0.32747  Biso   1.000  Hf
  Hf33     1.0000 0.53672  0.66724  0.32483  Biso   1.000  Hf
  Hf34     1.0000 0.53985  0.07977  0.82643  Biso   1.000  Hf
  Hf35     1.0000 0.53333  0.58205  0.82791  Biso   1.000  Hf
  Hf36     1.0000 0.95842  0.43482  0.30961  Biso   1.000  Hf
  Hf37     1.0000 0.95971  0.32830  0.80879  Biso   1.000  Hf
  Hf38     1.0000 0.96779  0.83729  0.84274  Biso   1.000  Hf
  Hf39     1.0000 0.77297  0.12872  0.92610  Biso   1.000  Hf
  Hf40     1.0000 0.77747  0.62396  0.91262  Biso   1.000  Hf
  Hf41     1.0000 0.77793  0.12580  0.42375  Biso   1.000  Hf
  Hf42     1.0000 0.77403  0.62406  0.41287  Biso   1.000  Hf
  Hf43     1.0000 0.72201  0.37770  0.90814  Biso   1.000  Hf
  Hf44     1.0000 0.71992  0.87135  0.92261  Biso   1.000  Hf
  Hf45     1.0000 0.72265  0.37502  0.41042  Biso   1.000  Hf
  Hf46     1.0000 0.73943  0.87387  0.41895  Biso   1.000  Hf
