data_image0
_cell_length_a       5.07659
_cell_length_b       10.3215
_cell_length_c       10.4597
_cell_angle_alpha    90.4208
_cell_angle_beta     80.991
_cell_angle_gamma    90.4289

_symmetry_space_group_name_H-M    "P 1"
_symmetry_int_tables_number       1

loop_
  _symmetry_equiv_pos_as_xyz
  'x, y, z'

loop_
  _atom_site_label
  _atom_site_occupancy
  _atom_site_fract_x
  _atom_site_fract_y
  _atom_site_fract_z
  _atom_site_thermal_displace_type
  _atom_site_B_iso_or_equiv
  _atom_site_type_symbol
  La1      1.0000 0.23882  0.00039  0.13287  Biso   1.000  La
  Hf1      1.0000 0.27782  0.02362  0.64766  Biso   1.000  Hf
  Hf2      1.0000 0.26853  0.51491  0.14705  Biso   1.000  Hf
  Hf3      1.0000 0.27609  0.52306  0.64447  Biso   1.000  Hf
  Hf4      1.0000 0.26735  0.22483  0.39436  Biso   1.000  Hf
  Hf5      1.0000 0.27578  0.23491  0.89391  Biso   1.000  Hf
  Hf6      1.0000 0.27246  0.72512  0.39522  Biso   1.000  Hf
  Hf7      1.0000 0.28684  0.73246  0.89496  Biso   1.000  Hf
  Hf8      1.0000 0.71043  0.26782  0.10295  Biso   1.000  Hf
  Hf9      1.0000 0.72128  0.27261  0.60366  Biso   1.000  Hf
  Hf10     1.0000 0.72326  0.75681  0.10505  Biso   1.000  Hf
  Hf11     1.0000 0.72237  0.77142  0.60225  Biso   1.000  Hf
  Hf12     1.0000 0.71411  0.47526  0.35430  Biso   1.000  Hf
  Hf13     1.0000 0.72403  0.47935  0.85228  Biso   1.000  Hf
  Hf14     1.0000 0.70135  0.98243  0.36366  Biso   1.000  Hf
  Hf15     1.0000 0.73491  0.98096  0.85417  Biso   1.000  Hf
  Hf16     1.0000 0.06595  0.18480  0.07513  Biso   1.000  Hf
  Hf17     1.0000 0.06555  0.16907  0.58157  Biso   1.000  Hf
  Hf18     1.0000 0.08932  0.67749  0.08698  Biso   1.000  Hf
  Hf19     1.0000 0.06837  0.66872  0.57756  Biso   1.000  Hf
  Hf20     1.0000 0.05262  0.07622  0.33912  Biso   1.000  Hf
  Hf21     1.0000 0.07700  0.08549  0.82765  Biso   1.000  Hf
  Hf22     1.0000 0.06452  0.57751  0.33129  Biso   1.000  Hf
  Hf23     1.0000 0.06482  0.59029  0.82924  Biso   1.000  Hf
  Hf24     1.0000 0.91232  0.42249  0.16832  Biso   1.000  Hf
  Hf25     1.0000 0.92696  0.42213  0.66841  Biso   1.000  Hf
  Hf26     1.0000 0.93684  0.91229  0.67684  Biso   1.000  Hf
  Hf27     1.0000 0.92078  0.32826  0.41881  Biso   1.000  Hf
  Hf28     1.0000 0.92529  0.33552  0.91545  Biso   1.000  Hf
  Hf29     1.0000 0.92858  0.83208  0.41695  Biso   1.000  Hf
  Hf30     1.0000 0.98181  0.86075  0.95070  Biso   1.000  Hf
  Hf31     1.0000 0.55750  0.12887  0.24508  Biso   1.000  Hf
  Hf32     1.0000 0.55708  0.13084  0.73841  Biso   1.000  Hf
  Hf33     1.0000 0.54476  0.61996  0.24079  Biso   1.000  Hf
  Hf34     1.0000 0.55223  0.63213  0.73890  Biso   1.000  Hf
  Hf35     1.0000 0.53990  0.12225  0.49432  Biso   1.000  Hf
  Hf36     1.0000 0.55865  0.12478  0.98087  Biso   1.000  Hf
  Hf37     1.0000 0.54817  0.62082  0.48955  Biso   1.000  Hf
  Hf38     1.0000 0.55572  0.61852  0.99056  Biso   1.000  Hf
  Hf39     1.0000 0.44503  0.38105  0.00755  Biso   1.000  Hf
  Hf40     1.0000 0.44191  0.37950  0.50903  Biso   1.000  Hf
  Hf41     1.0000 0.50510  0.86291  0.99432  Biso   1.000  Hf
  Hf42     1.0000 0.44249  0.87872  0.51129  Biso   1.000  Hf
  Hf43     1.0000 0.43357  0.36774  0.25881  Biso   1.000  Hf
  Hf44     1.0000 0.44522  0.37483  0.75743  Biso   1.000  Hf
  Hf45     1.0000 0.48698  0.85681  0.25808  Biso   1.000  Hf
  Hf46     1.0000 0.45185  0.87364  0.75785  Biso   1.000  Hf
