data_image0
_cell_length_a       10.1216
_cell_length_b       10.2479
_cell_length_c       10.5664
_cell_angle_alpha    90.0907
_cell_angle_beta     90.4916
_cell_angle_gamma    90.3789

_symmetry_space_group_name_H-M    "P 1"
_symmetry_int_tables_number       1

loop_
  _symmetry_equiv_pos_as_xyz
  'x, y, z'

loop_
  _atom_site_label
  _atom_site_occupancy
  _atom_site_fract_x
  _atom_site_fract_y
  _atom_site_fract_z
  _atom_site_thermal_displace_type
  _atom_site_B_iso_or_equiv
  _atom_site_type_symbol
  La1      1.0000 0.10797  0.99545  0.13606  Biso   1.000  La
  Hf1      1.0000 0.13474  0.01701  0.66791  Biso   1.000  Hf
  Hf2      1.0000 0.13752  0.52104  0.17063  Biso   1.000  Hf
  Hf3      1.0000 0.13618  0.52266  0.66927  Biso   1.000  Hf
  Hf4      1.0000 0.11998  0.23705  0.42871  Biso   1.000  Hf
  Hf5      1.0000 0.13270  0.23711  0.91021  Biso   1.000  Hf
  Hf6      1.0000 0.13674  0.73255  0.42087  Biso   1.000  Hf
  Hf7      1.0000 0.13996  0.72620  0.92225  Biso   1.000  Hf
  La2      1.0000 0.35761  0.25688  0.16391  Biso   1.000  La
  Hf8      1.0000 0.36168  0.27152  0.66780  Biso   1.000  Hf
  Hf9      1.0000 0.36821  0.77012  0.17211  Biso   1.000  Hf
  Hf10     1.0000 0.35955  0.76677  0.67555  Biso   1.000  Hf
  Hf11     1.0000 0.36010  0.47678  0.42174  Biso   1.000  Hf
  Hf12     1.0000 0.35968  0.47982  0.91985  Biso   1.000  Hf
  Hf13     1.0000 0.37187  0.96549  0.43449  Biso   1.000  Hf
  Hf14     1.0000 0.36585  0.97741  0.91569  Biso   1.000  Hf
  Hf15     1.0000 0.64536  0.01899  0.07973  Biso   1.000  Hf
  Hf16     1.0000 0.64169  0.02243  0.58141  Biso   1.000  Hf
  Hf17     1.0000 0.63648  0.51937  0.07554  Biso   1.000  Hf
  Hf18     1.0000 0.63614  0.52347  0.57579  Biso   1.000  Hf
  Hf19     1.0000 0.64111  0.23112  0.33267  Biso   1.000  Hf
  Hf20     1.0000 0.63674  0.22953  0.82986  Biso   1.000  Hf
  Hf21     1.0000 0.64078  0.72843  0.32734  Biso   1.000  Hf
  Hf22     1.0000 0.63824  0.72759  0.82551  Biso   1.000  Hf
  Hf23     1.0000 0.86040  0.27493  0.07871  Biso   1.000  Hf
  Hf24     1.0000 0.85481  0.27524  0.58473  Biso   1.000  Hf
  Hf25     1.0000 0.85710  0.76361  0.08027  Biso   1.000  Hf
  Hf26     1.0000 0.86367  0.77205  0.58108  Biso   1.000  Hf
  Hf27     1.0000 0.85950  0.48351  0.32840  Biso   1.000  Hf
  Hf28     1.0000 0.85882  0.48186  0.82682  Biso   1.000  Hf
  Hf29     1.0000 0.86195  0.97942  0.33696  Biso   1.000  Hf
  Hf30     1.0000 0.86282  0.97965  0.83293  Biso   1.000  Hf
  Hf31     1.0000 0.03347  0.18782  0.07368  Biso   1.000  Hf
  Hf32     1.0000 0.02571  0.16269  0.58608  Biso   1.000  Hf
  Hf33     1.0000 0.02966  0.65528  0.07272  Biso   1.000  Hf
  Hf34     1.0000 0.02974  0.65884  0.57416  Biso   1.000  Hf
  Hf35     1.0000 0.03887  0.09241  0.33075  Biso   1.000  Hf
  Hf36     1.0000 0.03127  0.08914  0.82762  Biso   1.000  Hf
  Hf37     1.0000 0.02828  0.59632  0.32699  Biso   1.000  Hf
  Hf38     1.0000 0.02618  0.59680  0.82275  Biso   1.000  Hf
  Hf39     1.0000 0.46776  0.41904  0.07519  Biso   1.000  Hf
  Hf40     1.0000 0.46636  0.41759  0.58329  Biso   1.000  Hf
  Hf41     1.0000 0.47141  0.91926  0.08215  Biso   1.000  Hf
  Hf42     1.0000 0.47496  0.90572  0.58397  Biso   1.000  Hf
  Hf43     1.0000 0.47348  0.33624  0.34363  Biso   1.000  Hf
  Hf44     1.0000 0.46464  0.33372  0.82960  Biso   1.000  Hf
  Hf45     1.0000 0.47567  0.83442  0.33184  Biso   1.000  Hf
  Hf46     1.0000 0.47214  0.83592  0.82776  Biso   1.000  Hf
  Hf47     1.0000 0.27520  0.11996  0.77169  Biso   1.000  Hf
  Hf48     1.0000 0.27501  0.62321  0.29337  Biso   1.000  Hf
  Hf49     1.0000 0.27344  0.62371  0.79465  Biso   1.000  Hf
  Hf50     1.0000 0.26528  0.11994  0.01074  Biso   1.000  Hf
  Hf51     1.0000 0.27325  0.12722  0.51569  Biso   1.000  Hf
  Hf52     1.0000 0.27522  0.62286  0.04511  Biso   1.000  Hf
  Hf53     1.0000 0.27303  0.62692  0.54300  Biso   1.000  Hf
  Hf54     1.0000 0.21414  0.37067  0.30396  Biso   1.000  Hf
  Hf55     1.0000 0.22543  0.37562  0.78985  Biso   1.000  Hf
  Hf56     1.0000 0.23882  0.87978  0.29992  Biso   1.000  Hf
  Hf57     1.0000 0.22427  0.87301  0.79405  Biso   1.000  Hf
  Hf58     1.0000 0.21333  0.38591  0.03382  Biso   1.000  Hf
  Hf59     1.0000 0.22308  0.37738  0.54874  Biso   1.000  Hf
  Hf60     1.0000 0.24916  0.85789  0.03254  Biso   1.000  Hf
  Hf61     1.0000 0.22961  0.87324  0.55169  Biso   1.000  Hf
  Hf62     1.0000 0.55529  0.15979  0.17338  Biso   1.000  Hf
  Hf63     1.0000 0.53322  0.16383  0.66559  Biso   1.000  Hf
  Hf64     1.0000 0.53486  0.66392  0.16654  Biso   1.000  Hf
  Hf65     1.0000 0.53013  0.66180  0.66853  Biso   1.000  Hf
  Hf66     1.0000 0.53111  0.08413  0.41919  Biso   1.000  Hf
  Hf67     1.0000 0.53529  0.08706  0.91822  Biso   1.000  Hf
  Hf68     1.0000 0.53119  0.58793  0.41754  Biso   1.000  Hf
  Hf69     1.0000 0.53143  0.58879  0.91620  Biso   1.000  Hf
  Hf70     1.0000 0.96440  0.41689  0.17297  Biso   1.000  Hf
  Hf71     1.0000 0.96689  0.41368  0.67046  Biso   1.000  Hf
  Hf72     1.0000 0.95606  0.86362  0.21162  Biso   1.000  Hf
  Hf73     1.0000 0.97311  0.89787  0.69071  Biso   1.000  Hf
  Hf74     1.0000 0.96014  0.34592  0.42834  Biso   1.000  Hf
  Hf75     1.0000 0.96107  0.34305  0.91357  Biso   1.000  Hf
  Hf76     1.0000 0.97996  0.85782  0.44543  Biso   1.000  Hf
  Hf77     1.0000 0.98309  0.86265  0.95230  Biso   1.000  Hf
  Hf78     1.0000 0.77791  0.12409  0.95658  Biso   1.000  Hf
  Hf79     1.0000 0.77349  0.12701  0.46080  Biso   1.000  Hf
  Hf80     1.0000 0.77486  0.62208  0.95270  Biso   1.000  Hf
  Hf81     1.0000 0.77618  0.62768  0.45373  Biso   1.000  Hf
  Hf82     1.0000 0.79499  0.12397  0.20748  Biso   1.000  Hf
  Hf83     1.0000 0.77571  0.12660  0.70956  Biso   1.000  Hf
  Hf84     1.0000 0.77303  0.62431  0.20396  Biso   1.000  Hf
  Hf85     1.0000 0.77315  0.62754  0.70253  Biso   1.000  Hf
  Hf86     1.0000 0.72017  0.37389  0.95484  Biso   1.000  Hf
  Hf87     1.0000 0.72339  0.37737  0.45850  Biso   1.000  Hf
  Hf88     1.0000 0.73043  0.86973  0.95390  Biso   1.000  Hf
  Hf89     1.0000 0.72903  0.87489  0.45686  Biso   1.000  Hf
  Hf90     1.0000 0.72291  0.37671  0.20783  Biso   1.000  Hf
  Hf91     1.0000 0.72166  0.37791  0.70599  Biso   1.000  Hf
  Hf92     1.0000 0.71841  0.87896  0.20610  Biso   1.000  Hf
  Hf93     1.0000 0.72649  0.87880  0.70559  Biso   1.000  Hf
