data_image0
_cell_length_a       10.1426
_cell_length_b       10.3028
_cell_length_c       10.4767
_cell_angle_alpha    90.0595
_cell_angle_beta     90.2129
_cell_angle_gamma    89.9439

_symmetry_space_group_name_H-M    "P 1"
_symmetry_int_tables_number       1

loop_
  _symmetry_equiv_pos_as_xyz
  'x, y, z'

loop_
  _atom_site_label
  _atom_site_occupancy
  _atom_site_fract_x
  _atom_site_fract_y
  _atom_site_fract_z
  _atom_site_thermal_displace_type
  _atom_site_B_iso_or_equiv
  _atom_site_type_symbol
  La1      1.0000 0.13177  0.01266  0.16327  Biso   1.000  La
  Hf1      1.0000 0.14326  0.01607  0.67367  Biso   1.000  Hf
  Hf2      1.0000 0.13873  0.52034  0.17061  Biso   1.000  Hf
  Hf3      1.0000 0.14038  0.52341  0.67289  Biso   1.000  Hf
  Hf4      1.0000 0.14763  0.23006  0.41864  Biso   1.000  Hf
  Hf5      1.0000 0.13775  0.23327  0.91638  Biso   1.000  Hf
  Hf6      1.0000 0.14019  0.72810  0.42234  Biso   1.000  Hf
  Hf7      1.0000 0.14138  0.72840  0.92251  Biso   1.000  Hf
  Hf8      1.0000 0.36003  0.26924  0.16835  Biso   1.000  Hf
  Hf9      1.0000 0.35983  0.27031  0.66976  Biso   1.000  Hf
  Hf10     1.0000 0.36650  0.76628  0.17199  Biso   1.000  Hf
  Hf11     1.0000 0.36149  0.76834  0.67194  Biso   1.000  Hf
  Hf12     1.0000 0.36253  0.47918  0.42013  Biso   1.000  Hf
  Hf13     1.0000 0.36055  0.47848  0.92173  Biso   1.000  Hf
  Hf14     1.0000 0.36094  0.97684  0.42065  Biso   1.000  Hf
  Hf15     1.0000 0.36586  0.97953  0.92054  Biso   1.000  Hf
  Hf16     1.0000 0.64047  0.02032  0.08101  Biso   1.000  Hf
  Hf17     1.0000 0.63241  0.01639  0.58180  Biso   1.000  Hf
  Hf18     1.0000 0.63761  0.51802  0.07750  Biso   1.000  Hf
  Hf19     1.0000 0.64024  0.51837  0.57783  Biso   1.000  Hf
  Hf20     1.0000 0.63618  0.22975  0.32798  Biso   1.000  Hf
  Hf21     1.0000 0.63520  0.22972  0.83083  Biso   1.000  Hf
  Hf22     1.0000 0.64048  0.72695  0.33002  Biso   1.000  Hf
  Hf23     1.0000 0.63812  0.72763  0.82686  Biso   1.000  Hf
  Hf24     1.0000 0.85820  0.27295  0.07514  Biso   1.000  Hf
  La2      1.0000 0.86860  0.25966  0.58588  Biso   1.000  La
  Hf25     1.0000 0.85702  0.76676  0.07810  Biso   1.000  Hf
  Hf26     1.0000 0.86202  0.77061  0.57943  Biso   1.000  Hf
  Hf27     1.0000 0.86074  0.47834  0.32616  Biso   1.000  Hf
  Hf28     1.0000 0.86079  0.48374  0.82780  Biso   1.000  Hf
  Hf29     1.0000 0.85232  0.97841  0.33349  Biso   1.000  Hf
  Hf30     1.0000 0.85994  0.97749  0.83186  Biso   1.000  Hf
  Hf31     1.0000 0.03383  0.19013  0.08019  Biso   1.000  Hf
  Hf32     1.0000 0.07198  0.17935  0.59675  Biso   1.000  Hf
  Hf33     1.0000 0.03634  0.67458  0.09012  Biso   1.000  Hf
  Hf34     1.0000 0.03843  0.67549  0.58947  Biso   1.000  Hf
  Hf35     1.0000 0.01948  0.08891  0.35617  Biso   1.000  Hf
  Hf36     1.0000 0.03391  0.07959  0.83860  Biso   1.000  Hf
  Hf37     1.0000 0.03308  0.58491  0.33517  Biso   1.000  Hf
  Hf38     1.0000 0.03674  0.58225  0.84154  Biso   1.000  Hf
  Hf39     1.0000 0.46743  0.41233  0.08173  Biso   1.000  Hf
  Hf40     1.0000 0.46868  0.41323  0.58192  Biso   1.000  Hf
  Hf41     1.0000 0.47055  0.91496  0.08493  Biso   1.000  Hf
  Hf42     1.0000 0.46600  0.90995  0.58222  Biso   1.000  Hf
  Hf43     1.0000 0.46704  0.33646  0.33113  Biso   1.000  Hf
  Hf44     1.0000 0.46343  0.33322  0.83369  Biso   1.000  Hf
  Hf45     1.0000 0.47255  0.83472  0.33331  Biso   1.000  Hf
  Hf46     1.0000 0.47089  0.83666  0.82989  Biso   1.000  Hf
  Hf47     1.0000 0.28069  0.12791  0.29993  Biso   1.000  Hf
  Hf48     1.0000 0.27591  0.12273  0.79245  Biso   1.000  Hf
  Hf49     1.0000 0.27622  0.62058  0.29530  Biso   1.000  Hf
  Hf50     1.0000 0.27749  0.62490  0.79675  Biso   1.000  Hf
  Hf51     1.0000 0.28468  0.13421  0.03340  Biso   1.000  Hf
  Hf52     1.0000 0.28807  0.12395  0.54312  Biso   1.000  Hf
  Hf53     1.0000 0.27461  0.62006  0.04743  Biso   1.000  Hf
  Hf54     1.0000 0.27674  0.62660  0.54492  Biso   1.000  Hf
  Hf55     1.0000 0.22642  0.37466  0.29059  Biso   1.000  Hf
  Hf56     1.0000 0.22376  0.37571  0.79240  Biso   1.000  Hf
  Hf57     1.0000 0.23393  0.86227  0.30111  Biso   1.000  Hf
  Hf58     1.0000 0.22662  0.87193  0.79425  Biso   1.000  Hf
  Hf59     1.0000 0.22268  0.37778  0.04206  Biso   1.000  Hf
  Hf60     1.0000 0.22748  0.37927  0.54176  Biso   1.000  Hf
  Hf61     1.0000 0.24411  0.86200  0.03534  Biso   1.000  Hf
  Hf62     1.0000 0.22413  0.87641  0.54612  Biso   1.000  Hf
  Hf63     1.0000 0.53199  0.16407  0.16681  Biso   1.000  Hf
  Hf64     1.0000 0.52968  0.16539  0.66649  Biso   1.000  Hf
  Hf65     1.0000 0.53305  0.65955  0.16893  Biso   1.000  Hf
  Hf66     1.0000 0.53185  0.66109  0.66766  Biso   1.000  Hf
  Hf67     1.0000 0.52655  0.08624  0.41826  Biso   1.000  Hf
  Hf68     1.0000 0.53540  0.08400  0.91833  Biso   1.000  Hf
  Hf69     1.0000 0.53186  0.58627  0.41818  Biso   1.000  Hf
  Hf70     1.0000 0.53036  0.58575  0.91824  Biso   1.000  Hf
  Hf71     1.0000 0.96122  0.42715  0.15574  Biso   1.000  Hf
  Hf72     1.0000 0.96566  0.44115  0.66332  Biso   1.000  Hf
  Hf73     1.0000 0.93530  0.91932  0.16510  Biso   1.000  Hf
  Hf74     1.0000 0.96303  0.92516  0.66216  Biso   1.000  Hf
  Hf75     1.0000 0.97993  0.33988  0.40033  Biso   1.000  Hf
  Hf76     1.0000 0.96013  0.33024  0.90130  Biso   1.000  Hf
  Hf77     1.0000 0.96690  0.83330  0.41326  Biso   1.000  Hf
  Hf78     1.0000 0.96886  0.83236  0.91750  Biso   1.000  Hf
  Hf79     1.0000 0.77705  0.12342  0.95871  Biso   1.000  Hf
  Hf80     1.0000 0.75841  0.11380  0.45228  Biso   1.000  Hf
  Hf81     1.0000 0.77278  0.62301  0.95393  Biso   1.000  Hf
  Hf82     1.0000 0.77820  0.62332  0.45531  Biso   1.000  Hf
  Hf83     1.0000 0.77442  0.12847  0.20692  Biso   1.000  Hf
  Hf84     1.0000 0.75702  0.11075  0.71781  Biso   1.000  Hf
  Hf85     1.0000 0.77501  0.62599  0.20432  Biso   1.000  Hf
  Hf86     1.0000 0.77594  0.62812  0.70384  Biso   1.000  Hf
  Hf87     1.0000 0.72246  0.37464  0.95518  Biso   1.000  Hf
  Hf88     1.0000 0.72053  0.37872  0.44571  Biso   1.000  Hf
  Hf89     1.0000 0.72455  0.87282  0.95542  Biso   1.000  Hf
  Hf90     1.0000 0.72329  0.86953  0.45844  Biso   1.000  Hf
  Hf91     1.0000 0.72341  0.37575  0.20288  Biso   1.000  Hf
  Hf92     1.0000 0.71513  0.38312  0.71297  Biso   1.000  Hf
  Hf93     1.0000 0.71082  0.87449  0.20854  Biso   1.000  Hf
  Hf94     1.0000 0.72609  0.86977  0.70526  Biso   1.000  Hf
