data_image0
_cell_length_a       10.1094
_cell_length_b       10.2989
_cell_length_c       10.5147
_cell_angle_alpha    90.0573
_cell_angle_beta     90.5475
_cell_angle_gamma    90.2432

_symmetry_space_group_name_H-M    "P 1"
_symmetry_int_tables_number       1

loop_
  _symmetry_equiv_pos_as_xyz
  'x, y, z'

loop_
  _atom_site_label
  _atom_site_occupancy
  _atom_site_fract_x
  _atom_site_fract_y
  _atom_site_fract_z
  _atom_site_thermal_displace_type
  _atom_site_B_iso_or_equiv
  _atom_site_type_symbol
  La1      1.0000 0.13117  0.00875  0.15574  Biso   1.000  La
  Hf1      1.0000 0.13724  0.02203  0.67281  Biso   1.000  Hf
  Hf2      1.0000 0.13433  0.52043  0.16642  Biso   1.000  Hf
  Hf3      1.0000 0.13703  0.52442  0.66953  Biso   1.000  Hf
  Hf4      1.0000 0.11927  0.23935  0.43659  Biso   1.000  Hf
  Hf5      1.0000 0.13849  0.23457  0.91943  Biso   1.000  Hf
  Hf6      1.0000 0.13846  0.72522  0.42138  Biso   1.000  Hf
  Hf7      1.0000 0.14057  0.72960  0.91727  Biso   1.000  Hf
  Hf8      1.0000 0.37247  0.28201  0.15915  Biso   1.000  Hf
  Hf9      1.0000 0.36044  0.27164  0.67337  Biso   1.000  Hf
  Hf10     1.0000 0.36693  0.75935  0.16648  Biso   1.000  Hf
  Hf11     1.0000 0.36013  0.77479  0.66783  Biso   1.000  Hf
  Hf12     1.0000 0.36373  0.47331  0.42096  Biso   1.000  Hf
  Hf13     1.0000 0.36076  0.48321  0.91560  Biso   1.000  Hf
  La2      1.0000 0.36069  0.98720  0.40922  Biso   1.000  La
  Hf14     1.0000 0.36673  0.97971  0.91902  Biso   1.000  Hf
  Hf15     1.0000 0.64041  0.01873  0.08370  Biso   1.000  Hf
  Hf16     1.0000 0.64068  0.02212  0.58381  Biso   1.000  Hf
  Hf17     1.0000 0.64436  0.52203  0.07380  Biso   1.000  Hf
  Hf18     1.0000 0.63620  0.52250  0.57827  Biso   1.000  Hf
  Hf19     1.0000 0.64429  0.23255  0.32970  Biso   1.000  Hf
  Hf20     1.0000 0.63645  0.22883  0.83127  Biso   1.000  Hf
  Hf21     1.0000 0.63928  0.72698  0.32805  Biso   1.000  Hf
  Hf22     1.0000 0.63731  0.73022  0.82548  Biso   1.000  Hf
  Hf23     1.0000 0.86076  0.27362  0.07531  Biso   1.000  Hf
  Hf24     1.0000 0.85346  0.27390  0.58564  Biso   1.000  Hf
  Hf25     1.0000 0.85838  0.76907  0.07808  Biso   1.000  Hf
  Hf26     1.0000 0.86221  0.77218  0.58005  Biso   1.000  Hf
  Hf27     1.0000 0.85834  0.48305  0.32816  Biso   1.000  Hf
  Hf28     1.0000 0.86129  0.48139  0.82560  Biso   1.000  Hf
  Hf29     1.0000 0.85986  0.97983  0.33731  Biso   1.000  Hf
  Hf30     1.0000 0.86260  0.98011  0.83276  Biso   1.000  Hf
  Hf31     1.0000 0.03300  0.18600  0.07862  Biso   1.000  Hf
  Hf32     1.0000 0.02565  0.17417  0.60008  Biso   1.000  Hf
  Hf33     1.0000 0.03539  0.66873  0.08388  Biso   1.000  Hf
  Hf34     1.0000 0.03144  0.66664  0.58459  Biso   1.000  Hf
  Hf35     1.0000 0.04807  0.07991  0.35101  Biso   1.000  Hf
  Hf36     1.0000 0.03678  0.08057  0.84160  Biso   1.000  Hf
  Hf37     1.0000 0.03560  0.57940  0.33381  Biso   1.000  Hf
  Hf38     1.0000 0.03292  0.58544  0.83245  Biso   1.000  Hf
  Hf39     1.0000 0.47253  0.41621  0.07419  Biso   1.000  Hf
  Hf40     1.0000 0.46803  0.41070  0.58271  Biso   1.000  Hf
  Hf41     1.0000 0.46922  0.91408  0.08650  Biso   1.000  Hf
  Hf42     1.0000 0.47396  0.91207  0.58553  Biso   1.000  Hf
  Hf43     1.0000 0.47066  0.33783  0.32585  Biso   1.000  Hf
  Hf44     1.0000 0.46636  0.33580  0.83408  Biso   1.000  Hf
  Hf45     1.0000 0.46832  0.81635  0.32921  Biso   1.000  Hf
  Hf46     1.0000 0.46944  0.83796  0.83039  Biso   1.000  Hf
  Hf47     1.0000 0.27547  0.12501  0.79498  Biso   1.000  Hf
  Hf48     1.0000 0.28028  0.59821  0.28756  Biso   1.000  Hf
  Hf49     1.0000 0.27563  0.62669  0.79139  Biso   1.000  Hf
  Hf50     1.0000 0.28849  0.13717  0.04010  Biso   1.000  Hf
  Hf51     1.0000 0.26427  0.13839  0.54817  Biso   1.000  Hf
  Hf52     1.0000 0.27335  0.62071  0.04043  Biso   1.000  Hf
  Hf53     1.0000 0.27671  0.62763  0.54121  Biso   1.000  Hf
  Hf54     1.0000 0.22560  0.33253  0.29193  Biso   1.000  Hf
  Hf55     1.0000 0.22409  0.37685  0.79218  Biso   1.000  Hf
  Hf56     1.0000 0.22166  0.84089  0.28420  Biso   1.000  Hf
  Hf57     1.0000 0.22484  0.87580  0.79145  Biso   1.000  Hf
  Hf58     1.0000 0.22568  0.38169  0.04175  Biso   1.000  Hf
  Hf59     1.0000 0.22146  0.38448  0.54450  Biso   1.000  Hf
  Hf60     1.0000 0.24462  0.86189  0.02976  Biso   1.000  Hf
  Hf61     1.0000 0.21606  0.87412  0.54919  Biso   1.000  Hf
  Hf62     1.0000 0.52626  0.15589  0.17701  Biso   1.000  Hf
  Hf63     1.0000 0.52943  0.16199  0.67344  Biso   1.000  Hf
  Hf64     1.0000 0.53817  0.65729  0.16441  Biso   1.000  Hf
  Hf65     1.0000 0.53039  0.66367  0.66707  Biso   1.000  Hf
  Hf66     1.0000 0.54957  0.09808  0.42807  Biso   1.000  Hf
  Hf67     1.0000 0.53654  0.08627  0.92277  Biso   1.000  Hf
  Hf68     1.0000 0.53264  0.58068  0.41812  Biso   1.000  Hf
  Hf69     1.0000 0.53254  0.58775  0.91529  Biso   1.000  Hf
  Hf70     1.0000 0.96264  0.41949  0.16659  Biso   1.000  Hf
  Hf71     1.0000 0.96322  0.42177  0.66389  Biso   1.000  Hf
  Hf72     1.0000 0.93793  0.92002  0.16762  Biso   1.000  Hf
  Hf73     1.0000 0.96478  0.91865  0.66855  Biso   1.000  Hf
  Hf74     1.0000 0.95662  0.33931  0.42196  Biso   1.000  Hf
  Hf75     1.0000 0.96502  0.33766  0.91000  Biso   1.000  Hf
  Hf76     1.0000 0.96613  0.83218  0.41621  Biso   1.000  Hf
  Hf77     1.0000 0.97042  0.83775  0.92185  Biso   1.000  Hf
  Hf78     1.0000 0.77704  0.12365  0.95832  Biso   1.000  Hf
  Hf79     1.0000 0.78680  0.12546  0.46033  Biso   1.000  Hf
  Hf80     1.0000 0.77602  0.62452  0.95189  Biso   1.000  Hf
  Hf81     1.0000 0.77567  0.62422  0.45495  Biso   1.000  Hf
  Hf82     1.0000 0.77628  0.13000  0.20910  Biso   1.000  Hf
  Hf83     1.0000 0.77363  0.12793  0.71100  Biso   1.000  Hf
  Hf84     1.0000 0.77947  0.62753  0.20330  Biso   1.000  Hf
  Hf85     1.0000 0.77434  0.62802  0.70315  Biso   1.000  Hf
  Hf86     1.0000 0.72443  0.37516  0.95271  Biso   1.000  Hf
  Hf87     1.0000 0.72055  0.37567  0.45595  Biso   1.000  Hf
  Hf88     1.0000 0.72481  0.87368  0.95789  Biso   1.000  Hf
  Hf89     1.0000 0.72559  0.87564  0.45900  Biso   1.000  Hf
  Hf90     1.0000 0.72322  0.37954  0.20340  Biso   1.000  Hf
  Hf91     1.0000 0.72078  0.37730  0.70622  Biso   1.000  Hf
  Hf92     1.0000 0.71345  0.87643  0.21226  Biso   1.000  Hf
  Hf93     1.0000 0.72719  0.87607  0.70890  Biso   1.000  Hf
