data_image0
_cell_length_a       10.0608
_cell_length_b       10.413
_cell_length_c       10.0794
_cell_angle_alpha    90.1308
_cell_angle_beta     90.3561
_cell_angle_gamma    90.0041

_symmetry_space_group_name_H-M    "P 1"
_symmetry_int_tables_number       1

loop_
  _symmetry_equiv_pos_as_xyz
  'x, y, z'

loop_
  _atom_site_label
  _atom_site_occupancy
  _atom_site_fract_x
  _atom_site_fract_y
  _atom_site_fract_z
  _atom_site_thermal_displace_type
  _atom_site_B_iso_or_equiv
  _atom_site_type_symbol
  La1      1.0000 0.12272  0.00168  0.11468  Biso   1.000  La
  Hf1      1.0000 0.13251  0.01493  0.62855  Biso   1.000  Hf
  Hf2      1.0000 0.13600  0.51684  0.12510  Biso   1.000  Hf
  Hf3      1.0000 0.13494  0.51807  0.62736  Biso   1.000  Hf
  Hf4      1.0000 0.63556  0.01646  0.12551  Biso   1.000  Hf
  Hf5      1.0000 0.63166  0.01777  0.62482  Biso   1.000  Hf
  Hf6      1.0000 0.63425  0.51673  0.12510  Biso   1.000  Hf
  Hf7      1.0000 0.63109  0.51692  0.62896  Biso   1.000  Hf
  La2      1.0000 0.12523  0.24082  0.37368  Biso   1.000  La
  Hf8      1.0000 0.13310  0.23786  0.87067  Biso   1.000  Hf
  Hf9      1.0000 0.13422  0.73290  0.37685  Biso   1.000  Hf
  Hf10     1.0000 0.13636  0.73246  0.87608  Biso   1.000  Hf
  Hf11     1.0000 0.63323  0.23458  0.37424  Biso   1.000  Hf
  Hf12     1.0000 0.63414  0.23381  0.87544  Biso   1.000  Hf
  Hf13     1.0000 0.63054  0.73331  0.37932  Biso   1.000  Hf
  Hf14     1.0000 0.63548  0.73338  0.87551  Biso   1.000  Hf
  Hf15     1.0000 0.36871  0.26509  0.12340  Biso   1.000  Hf
  Hf16     1.0000 0.36661  0.26654  0.62412  Biso   1.000  Hf
  Hf17     1.0000 0.37094  0.76332  0.12563  Biso   1.000  Hf
  Hf18     1.0000 0.36445  0.76753  0.62530  Biso   1.000  Hf
  Hf19     1.0000 0.85893  0.26985  0.12227  Biso   1.000  Hf
  Hf20     1.0000 0.86140  0.26830  0.62937  Biso   1.000  Hf
  Hf21     1.0000 0.86155  0.76475  0.12928  Biso   1.000  Hf
  Hf22     1.0000 0.86551  0.76405  0.62707  Biso   1.000  Hf
  Hf23     1.0000 0.36845  0.48608  0.37379  Biso   1.000  Hf
  Hf24     1.0000 0.36646  0.48272  0.87595  Biso   1.000  Hf
  Hf25     1.0000 0.36564  0.98356  0.37646  Biso   1.000  Hf
  Hf26     1.0000 0.37081  0.98575  0.87195  Biso   1.000  Hf
  Hf27     1.0000 0.86008  0.48694  0.37850  Biso   1.000  Hf
  Hf28     1.0000 0.86747  0.48503  0.87514  Biso   1.000  Hf
  Hf29     1.0000 0.85583  0.98075  0.38301  Biso   1.000  Hf
  Hf30     1.0000 0.86374  0.98212  0.87088  Biso   1.000  Hf
  Hf31     1.0000 0.02814  0.19127  0.16912  Biso   1.000  Hf
  Hf32     1.0000 0.03962  0.19144  0.67779  Biso   1.000  Hf
  Hf33     1.0000 0.03555  0.68445  0.19534  Biso   1.000  Hf
  Hf34     1.0000 0.03493  0.68389  0.69837  Biso   1.000  Hf
  Hf35     1.0000 0.54301  0.18621  0.18836  Biso   1.000  Hf
  Hf36     1.0000 0.53540  0.18402  0.69588  Biso   1.000  Hf
  Hf37     1.0000 0.53469  0.67996  0.20013  Biso   1.000  Hf
  Hf38     1.0000 0.53369  0.68441  0.69721  Biso   1.000  Hf
  Hf39     1.0000 0.02712  0.04946  0.45168  Biso   1.000  Hf
  Hf40     1.0000 0.03521  0.07104  0.90544  Biso   1.000  Hf
  Hf41     1.0000 0.03547  0.56251  0.44637  Biso   1.000  Hf
  Hf42     1.0000 0.03516  0.56952  0.94583  Biso   1.000  Hf
  Hf43     1.0000 0.53872  0.06498  0.44179  Biso   1.000  Hf
  Hf44     1.0000 0.53933  0.06658  0.94313  Biso   1.000  Hf
  Hf45     1.0000 0.53376  0.56785  0.44942  Biso   1.000  Hf
  Hf46     1.0000 0.53431  0.56857  0.94735  Biso   1.000  Hf
  Hf47     1.0000 0.47195  0.43146  0.19657  Biso   1.000  Hf
  Hf48     1.0000 0.46641  0.43265  0.69872  Biso   1.000  Hf
  Hf49     1.0000 0.46693  0.93366  0.19312  Biso   1.000  Hf
  Hf50     1.0000 0.46437  0.93442  0.69426  Biso   1.000  Hf
  Hf51     1.0000 0.96852  0.43318  0.20207  Biso   1.000  Hf
  Hf52     1.0000 0.96478  0.43601  0.69635  Biso   1.000  Hf
  Hf53     1.0000 0.94103  0.92593  0.21079  Biso   1.000  Hf
  Hf54     1.0000 0.96090  0.93010  0.69309  Biso   1.000  Hf
  Hf55     1.0000 0.46285  0.31363  0.44258  Biso   1.000  Hf
  Hf56     1.0000 0.46768  0.31857  0.94414  Biso   1.000  Hf
  Hf57     1.0000 0.46533  0.81734  0.44923  Biso   1.000  Hf
  Hf58     1.0000 0.47491  0.81987  0.94771  Biso   1.000  Hf
  Hf59     1.0000 0.93601  0.32070  0.45077  Biso   1.000  Hf
  Hf60     1.0000 0.96194  0.31961  0.94083  Biso   1.000  Hf
  Hf61     1.0000 0.96056  0.80893  0.44799  Biso   1.000  Hf
  Hf62     1.0000 0.97646  0.82615  0.95908  Biso   1.000  Hf
  Hf63     1.0000 0.29045  0.12107  0.24820  Biso   1.000  Hf
  Hf64     1.0000 0.27109  0.11993  0.74862  Biso   1.000  Hf
  Hf65     1.0000 0.26967  0.61639  0.24961  Biso   1.000  Hf
  Hf66     1.0000 0.27090  0.61807  0.75020  Biso   1.000  Hf
  Hf67     1.0000 0.77018  0.11815  0.25215  Biso   1.000  Hf
  Hf68     1.0000 0.76870  0.11735  0.74944  Biso   1.000  Hf
  Hf69     1.0000 0.76877  0.61909  0.24923  Biso   1.000  Hf
  Hf70     1.0000 0.76972  0.61741  0.74912  Biso   1.000  Hf
  Hf71     1.0000 0.28005  0.12106  0.50767  Biso   1.000  Hf
  Hf72     1.0000 0.27711  0.13715  0.98894  Biso   1.000  Hf
  Hf73     1.0000 0.26855  0.63676  0.49957  Biso   1.000  Hf
  Hf74     1.0000 0.27164  0.62962  0.00020  Biso   1.000  Hf
  Hf75     1.0000 0.76491  0.13384  0.50307  Biso   1.000  Hf
  Hf76     1.0000 0.77219  0.13198  0.99837  Biso   1.000  Hf
  Hf77     1.0000 0.76791  0.63185  0.50045  Biso   1.000  Hf
  Hf78     1.0000 0.77085  0.63274  0.99810  Biso   1.000  Hf
  Hf79     1.0000 0.24357  0.39555  0.50627  Biso   1.000  Hf
  Hf80     1.0000 0.22988  0.38321  0.99594  Biso   1.000  Hf
  Hf81     1.0000 0.22622  0.88150  0.50011  Biso   1.000  Hf
  Hf82     1.0000 0.24813  0.87041  0.98786  Biso   1.000  Hf
  Hf83     1.0000 0.71715  0.38442  0.50153  Biso   1.000  Hf
  Hf84     1.0000 0.72943  0.38502  0.99860  Biso   1.000  Hf
  Hf85     1.0000 0.72636  0.87930  0.50418  Biso   1.000  Hf
  Hf86     1.0000 0.73421  0.88125  0.00105  Biso   1.000  Hf
  Hf87     1.0000 0.24153  0.37778  0.23951  Biso   1.000  Hf
  Hf88     1.0000 0.23089  0.36885  0.74792  Biso   1.000  Hf
  Hf89     1.0000 0.24400  0.85503  0.25626  Biso   1.000  Hf
  Hf90     1.0000 0.22959  0.86778  0.74729  Biso   1.000  Hf
  Hf91     1.0000 0.72989  0.37139  0.25078  Biso   1.000  Hf
  Hf92     1.0000 0.72922  0.36911  0.75188  Biso   1.000  Hf
  Hf93     1.0000 0.71698  0.86607  0.25183  Biso   1.000  Hf
  Hf94     1.0000 0.72948  0.86674  0.75066  Biso   1.000  Hf
