data_image0
_cell_length_a       10.0967
_cell_length_b       10.2559
_cell_length_c       10.0962
_cell_angle_alpha    89.9353
_cell_angle_beta     90.1568
_cell_angle_gamma    89.9284

_symmetry_space_group_name_H-M    "P 1"
_symmetry_int_tables_number       1

loop_
  _symmetry_equiv_pos_as_xyz
  'x, y, z'

loop_
  _atom_site_label
  _atom_site_occupancy
  _atom_site_fract_x
  _atom_site_fract_y
  _atom_site_fract_z
  _atom_site_thermal_displace_type
  _atom_site_B_iso_or_equiv
  _atom_site_type_symbol
  La1      1.0000 0.12797  0.00193  0.12807  Biso   1.000  La
  Hf1      1.0000 0.12276  0.99932  0.62907  Biso   1.000  Hf
  Hf2      1.0000 0.10551  0.50173  0.10559  Biso   1.000  Hf
  Hf3      1.0000 0.12651  0.50054  0.62413  Biso   1.000  Hf
  Hf4      1.0000 0.62889  0.99928  0.12285  Biso   1.000  Hf
  Hf5      1.0000 0.62520  0.99697  0.62537  Biso   1.000  Hf
  Hf6      1.0000 0.62417  0.50052  0.12653  Biso   1.000  Hf
  Hf7      1.0000 0.62945  0.50200  0.62934  Biso   1.000  Hf
  Hf8      1.0000 0.11316  0.24825  0.38759  Biso   1.000  Hf
  Hf9      1.0000 0.12685  0.24940  0.87510  Biso   1.000  Hf
  Hf10     1.0000 0.11943  0.75129  0.38269  Biso   1.000  Hf
  Hf11     1.0000 0.12770  0.75065  0.87484  Biso   1.000  Hf
  Hf12     1.0000 0.62583  0.24957  0.37391  Biso   1.000  Hf
  Hf13     1.0000 0.62844  0.24828  0.87253  Biso   1.000  Hf
  Hf14     1.0000 0.62679  0.75034  0.37400  Biso   1.000  Hf
  Hf15     1.0000 0.62498  0.74919  0.87644  Biso   1.000  Hf
  Hf16     1.0000 0.38743  0.24820  0.11330  Biso   1.000  Hf
  Hf17     1.0000 0.37372  0.24948  0.62599  Biso   1.000  Hf
  Hf18     1.0000 0.38260  0.75116  0.11952  Biso   1.000  Hf
  Hf19     1.0000 0.37399  0.75034  0.62688  Biso   1.000  Hf
  Hf20     1.0000 0.87495  0.24934  0.12708  Biso   1.000  Hf
  Hf21     1.0000 0.87227  0.24810  0.62869  Biso   1.000  Hf
  Hf22     1.0000 0.87477  0.75065  0.12773  Biso   1.000  Hf
  Hf23     1.0000 0.87640  0.74929  0.62499  Biso   1.000  Hf
  La2      1.0000 0.37325  0.00208  0.37334  Biso   1.000  La
  Hf24     1.0000 0.37803  0.99916  0.87214  Biso   1.000  Hf
  Hf25     1.0000 0.39456  0.50179  0.39465  Biso   1.000  Hf
  Hf26     1.0000 0.37358  0.50079  0.87609  Biso   1.000  Hf
  Hf27     1.0000 0.87196  0.99920  0.37810  Biso   1.000  Hf
  Hf28     1.0000 0.87554  0.99654  0.87574  Biso   1.000  Hf
  Hf29     1.0000 0.87614  0.50081  0.37361  Biso   1.000  Hf
  Hf30     1.0000 0.87106  0.50253  0.87095  Biso   1.000  Hf
  Hf31     1.0000 0.99882  0.15178  0.99893  Biso   1.000  Hf
  Hf32     1.0000 0.99068  0.14281  0.51029  Biso   1.000  Hf
  Hf33     1.0000 0.99850  0.64318  0.99849  Biso   1.000  Hf
  Hf34     1.0000 0.99724  0.64199  0.50271  Biso   1.000  Hf
  Hf35     1.0000 0.51016  0.14271  0.99074  Biso   1.000  Hf
  Hf36     1.0000 0.50209  0.15178  0.50217  Biso   1.000  Hf
  Hf37     1.0000 0.50270  0.64194  0.99724  Biso   1.000  Hf
  Hf38     1.0000 0.50135  0.64318  0.50137  Biso   1.000  Hf
  Hf39     1.0000 0.99239  0.11701  0.26812  Biso   1.000  Hf
  Hf40     1.0000 0.00176  0.09882  0.75792  Biso   1.000  Hf
  Hf41     1.0000 0.99785  0.60595  0.24818  Biso   1.000  Hf
  Hf42     1.0000 0.00044  0.59904  0.75014  Biso   1.000  Hf
  Hf43     1.0000 0.50862  0.11706  0.23297  Biso   1.000  Hf
  Hf44     1.0000 0.49880  0.09881  0.74322  Biso   1.000  Hf
  Hf45     1.0000 0.50187  0.60608  0.25154  Biso   1.000  Hf
  Hf46     1.0000 0.49945  0.59899  0.74954  Biso   1.000  Hf
  Hf47     1.0000 0.01042  0.35894  0.23954  Biso   1.000  Hf
  Hf48     1.0000 0.00386  0.34953  0.74195  Biso   1.000  Hf
  Hf49     1.0000 0.98963  0.85114  0.26039  Biso   1.000  Hf
  Hf50     1.0000 0.00277  0.84861  0.74516  Biso   1.000  Hf
  Hf51     1.0000 0.48991  0.35895  0.26126  Biso   1.000  Hf
  Hf52     1.0000 0.49698  0.34952  0.75863  Biso   1.000  Hf
  Hf53     1.0000 0.51184  0.85131  0.24100  Biso   1.000  Hf
  Hf54     1.0000 0.49780  0.84855  0.75633  Biso   1.000  Hf
  Hf55     1.0000 0.98883  0.39326  0.98919  Biso   1.000  Hf
  Hf56     1.0000 0.00762  0.39649  0.49281  Biso   1.000  Hf
  Hf57     1.0000 0.99189  0.88313  0.99196  Biso   1.000  Hf
  Hf58     1.0000 0.00141  0.89560  0.49995  Biso   1.000  Hf
  Hf59     1.0000 0.49258  0.39647  0.00781  Biso   1.000  Hf
  Hf60     1.0000 0.51120  0.39338  0.51149  Biso   1.000  Hf
  Hf61     1.0000 0.49988  0.89551  0.00152  Biso   1.000  Hf
  Hf62     1.0000 0.50956  0.88296  0.50965  Biso   1.000  Hf
  Hf63     1.0000 0.25040  0.19063  0.25054  Biso   1.000  Hf
  Hf64     1.0000 0.25032  0.14796  0.75062  Biso   1.000  Hf
  Hf65     1.0000 0.24987  0.63238  0.25001  Biso   1.000  Hf
  Hf66     1.0000 0.25010  0.64655  0.75019  Biso   1.000  Hf
  Hf67     1.0000 0.75047  0.14796  0.25069  Biso   1.000  Hf
  Hf68     1.0000 0.75030  0.14521  0.75065  Biso   1.000  Hf
  Hf69     1.0000 0.75004  0.64655  0.25006  Biso   1.000  Hf
  Hf70     1.0000 0.75001  0.64726  0.75001  Biso   1.000  Hf
  Hf71     1.0000 0.26803  0.11699  0.99252  Biso   1.000  Hf
  Hf72     1.0000 0.23292  0.11706  0.50876  Biso   1.000  Hf
  Hf73     1.0000 0.24819  0.60590  0.99801  Biso   1.000  Hf
  Hf74     1.0000 0.25152  0.60613  0.50200  Biso   1.000  Hf
  Hf75     1.0000 0.75791  0.09880  0.00213  Biso   1.000  Hf
  Hf76     1.0000 0.74326  0.09885  0.49919  Biso   1.000  Hf
  Hf77     1.0000 0.75015  0.59899  0.00045  Biso   1.000  Hf
  Hf78     1.0000 0.74955  0.59908  0.49944  Biso   1.000  Hf
  Hf79     1.0000 0.23926  0.35889  0.01058  Biso   1.000  Hf
  Hf80     1.0000 0.26105  0.35898  0.49004  Biso   1.000  Hf
  Hf81     1.0000 0.26032  0.85112  0.98970  Biso   1.000  Hf
  Hf82     1.0000 0.24093  0.85133  0.51192  Biso   1.000  Hf
  Hf83     1.0000 0.74158  0.34945  0.00429  Biso   1.000  Hf
  Hf84     1.0000 0.75833  0.34959  0.49735  Biso   1.000  Hf
  Hf85     1.0000 0.74511  0.84861  0.00269  Biso   1.000  Hf
  Hf86     1.0000 0.75627  0.84858  0.49774  Biso   1.000  Hf
  Hf87     1.0000 0.25003  0.48873  0.25018  Biso   1.000  Hf
  Hf88     1.0000 0.25040  0.39758  0.75017  Biso   1.000  Hf
  Hf89     1.0000 0.25088  0.84737  0.25093  Biso   1.000  Hf
  Hf90     1.0000 0.25026  0.89841  0.75092  Biso   1.000  Hf
  Hf91     1.0000 0.75006  0.39759  0.25066  Biso   1.000  Hf
  Hf92     1.0000 0.75033  0.39513  0.75064  Biso   1.000  Hf
  Hf93     1.0000 0.75087  0.89841  0.25021  Biso   1.000  Hf
  Hf94     1.0000 0.75046  0.89549  0.75038  Biso   1.000  Hf
