data_image0
_cell_length_a       10.0566
_cell_length_b       10.4287
_cell_length_c       10.0848
_cell_angle_alpha    90.8814
_cell_angle_beta     90.491
_cell_angle_gamma    89.9053

_symmetry_space_group_name_H-M    "P 1"
_symmetry_int_tables_number       1

loop_
  _symmetry_equiv_pos_as_xyz
  'x, y, z'

loop_
  _atom_site_label
  _atom_site_occupancy
  _atom_site_fract_x
  _atom_site_fract_y
  _atom_site_fract_z
  _atom_site_thermal_displace_type
  _atom_site_B_iso_or_equiv
  _atom_site_type_symbol
  La1      1.0000 0.12034  0.99593  0.11863  Biso   1.000  La
  Hf1      1.0000 0.13543  0.01605  0.62305  Biso   1.000  Hf
  Hf2      1.0000 0.11221  0.51773  0.10752  Biso   1.000  Hf
  Hf3      1.0000 0.13369  0.51970  0.62636  Biso   1.000  Hf
  Hf4      1.0000 0.63987  0.01829  0.12271  Biso   1.000  Hf
  Hf5      1.0000 0.63595  0.01844  0.62819  Biso   1.000  Hf
  Hf6      1.0000 0.63366  0.51829  0.12617  Biso   1.000  Hf
  Hf7      1.0000 0.62737  0.51624  0.62284  Biso   1.000  Hf
  Hf8      1.0000 0.11870  0.23846  0.38807  Biso   1.000  Hf
  Hf9      1.0000 0.13662  0.23787  0.87618  Biso   1.000  Hf
  Hf10     1.0000 0.13636  0.72304  0.37137  Biso   1.000  Hf
  Hf11     1.0000 0.13526  0.74120  0.87036  Biso   1.000  Hf
  Hf12     1.0000 0.63961  0.23458  0.38262  Biso   1.000  Hf
  Hf13     1.0000 0.64002  0.23588  0.87444  Biso   1.000  Hf
  Hf14     1.0000 0.62984  0.73192  0.37993  Biso   1.000  Hf
  Hf15     1.0000 0.63931  0.73360  0.86692  Biso   1.000  Hf
  Hf16     1.0000 0.38618  0.26908  0.10925  Biso   1.000  Hf
  Hf17     1.0000 0.36606  0.26829  0.62868  Biso   1.000  Hf
  Hf18     1.0000 0.38370  0.76254  0.09974  Biso   1.000  Hf
  Hf19     1.0000 0.36386  0.76896  0.62166  Biso   1.000  Hf
  Hf20     1.0000 0.86782  0.26882  0.13166  Biso   1.000  Hf
  Hf21     1.0000 0.86825  0.27009  0.63050  Biso   1.000  Hf
  Hf22     1.0000 0.85557  0.76733  0.12971  Biso   1.000  Hf
  Hf23     1.0000 0.87017  0.76644  0.61833  Biso   1.000  Hf
  Hf24     1.0000 0.36625  0.47038  0.37442  Biso   1.000  Hf
  Hf25     1.0000 0.36389  0.49012  0.87599  Biso   1.000  Hf
  La2      1.0000 0.37279  0.99150  0.36176  Biso   1.000  La
  Hf26     1.0000 0.37245  0.98890  0.87086  Biso   1.000  Hf
  Hf27     1.0000 0.86146  0.48793  0.38062  Biso   1.000  Hf
  Hf28     1.0000 0.86237  0.48568  0.87402  Biso   1.000  Hf
  Hf29     1.0000 0.85996  0.98246  0.38093  Biso   1.000  Hf
  Hf30     1.0000 0.86648  0.98362  0.87194  Biso   1.000  Hf
  Hf31     1.0000 0.03115  0.19005  0.20852  Biso   1.000  Hf
  Hf32     1.0000 0.03898  0.18907  0.68955  Biso   1.000  Hf
  Hf33     1.0000 0.02711  0.68630  0.18993  Biso   1.000  Hf
  Hf34     1.0000 0.03690  0.68894  0.69358  Biso   1.000  Hf
  Hf35     1.0000 0.52604  0.17250  0.21027  Biso   1.000  Hf
  Hf36     1.0000 0.53556  0.18600  0.69938  Biso   1.000  Hf
  Hf37     1.0000 0.52997  0.67986  0.20305  Biso   1.000  Hf
  Hf38     1.0000 0.53511  0.68355  0.69209  Biso   1.000  Hf
  Hf39     1.0000 0.03687  0.06286  0.43843  Biso   1.000  Hf
  Hf40     1.0000 0.02976  0.08087  0.92457  Biso   1.000  Hf
  Hf41     1.0000 0.02799  0.56963  0.45490  Biso   1.000  Hf
  Hf42     1.0000 0.02726  0.58103  0.93509  Biso   1.000  Hf
  Hf43     1.0000 0.55558  0.06989  0.45354  Biso   1.000  Hf
  Hf44     1.0000 0.53829  0.07750  0.94643  Biso   1.000  Hf
  Hf45     1.0000 0.53310  0.56136  0.44278  Biso   1.000  Hf
  Hf46     1.0000 0.52700  0.57907  0.95565  Biso   1.000  Hf
  Hf47     1.0000 0.46828  0.43287  0.19457  Biso   1.000  Hf
  Hf48     1.0000 0.46200  0.43808  0.69744  Biso   1.000  Hf
  Hf49     1.0000 0.46244  0.93572  0.15407  Biso   1.000  Hf
  Hf50     1.0000 0.46587  0.93863  0.69066  Biso   1.000  Hf
  Hf51     1.0000 0.96662  0.43434  0.20834  Biso   1.000  Hf
  Hf52     1.0000 0.96770  0.43617  0.70212  Biso   1.000  Hf
  Hf53     1.0000 0.93223  0.93330  0.20124  Biso   1.000  Hf
  Hf54     1.0000 0.96490  0.93576  0.69245  Biso   1.000  Hf
  Hf55     1.0000 0.46954  0.31331  0.45671  Biso   1.000  Hf
  Hf56     1.0000 0.47390  0.32924  0.93723  Biso   1.000  Hf
  Hf57     1.0000 0.47040  0.81423  0.45455  Biso   1.000  Hf
  Hf58     1.0000 0.47222  0.81956  0.92296  Biso   1.000  Hf
  Hf59     1.0000 0.95905  0.32552  0.45448  Biso   1.000  Hf
  Hf60     1.0000 0.97543  0.33204  0.95999  Biso   1.000  Hf
  Hf61     1.0000 0.96167  0.81368  0.43890  Biso   1.000  Hf
  Hf62     1.0000 0.97679  0.83252  0.95983  Biso   1.000  Hf
  Hf63     1.0000 0.27155  0.12103  0.75064  Biso   1.000  Hf
  Hf64     1.0000 0.23646  0.56629  0.25644  Biso   1.000  Hf
  Hf65     1.0000 0.27020  0.62203  0.74920  Biso   1.000  Hf
  Hf66     1.0000 0.76734  0.12174  0.25407  Biso   1.000  Hf
  Hf67     1.0000 0.77175  0.12045  0.75281  Biso   1.000  Hf
  Hf68     1.0000 0.76795  0.61838  0.24924  Biso   1.000  Hf
  Hf69     1.0000 0.76947  0.61581  0.74605  Biso   1.000  Hf
  Hf70     1.0000 0.25874  0.14164  0.50375  Biso   1.000  Hf
  Hf71     1.0000 0.27473  0.13735  0.00148  Biso   1.000  Hf
  Hf72     1.0000 0.27364  0.62906  0.49731  Biso   1.000  Hf
  Hf73     1.0000 0.26153  0.63357  0.99826  Biso   1.000  Hf
  Hf74     1.0000 0.77977  0.13592  0.50504  Biso   1.000  Hf
  Hf75     1.0000 0.77404  0.13462  0.00268  Biso   1.000  Hf
  Hf76     1.0000 0.76502  0.63273  0.49988  Biso   1.000  Hf
  Hf77     1.0000 0.76751  0.63306  0.99732  Biso   1.000  Hf
  Hf78     1.0000 0.22657  0.38622  0.50042  Biso   1.000  Hf
  Hf79     1.0000 0.23632  0.38735  0.00602  Biso   1.000  Hf
  Hf80     1.0000 0.21857  0.87364  0.49710  Biso   1.000  Hf
  Hf81     1.0000 0.24622  0.87691  0.98017  Biso   1.000  Hf
  Hf82     1.0000 0.73031  0.38426  0.50241  Biso   1.000  Hf
  Hf83     1.0000 0.73223  0.38475  0.00106  Biso   1.000  Hf
  Hf84     1.0000 0.73133  0.88246  0.50300  Biso   1.000  Hf
  Hf85     1.0000 0.73107  0.88245  0.99669  Biso   1.000  Hf
  Hf86     1.0000 0.26775  0.29194  0.26561  Biso   1.000  Hf
  Hf87     1.0000 0.23043  0.37166  0.75261  Biso   1.000  Hf
  Hf88     1.0000 0.24921  0.82498  0.23892  Biso   1.000  Hf
  Hf89     1.0000 0.23098  0.87345  0.74250  Biso   1.000  Hf
  Hf90     1.0000 0.72921  0.36871  0.25100  Biso   1.000  Hf
  Hf91     1.0000 0.73075  0.36944  0.75089  Biso   1.000  Hf
  Hf92     1.0000 0.70971  0.86790  0.25230  Biso   1.000  Hf
  Hf93     1.0000 0.73583  0.86625  0.74819  Biso   1.000  Hf
