data_image0
_cell_length_a       10.0922
_cell_length_b       10.3299
_cell_length_c       10.4603
_cell_angle_alpha    90.0436
_cell_angle_beta     90.4399
_cell_angle_gamma    90.2008

_symmetry_space_group_name_H-M    "P 1"
_symmetry_int_tables_number       1

loop_
  _symmetry_equiv_pos_as_xyz
  'x, y, z'

loop_
  _atom_site_label
  _atom_site_occupancy
  _atom_site_fract_x
  _atom_site_fract_y
  _atom_site_fract_z
  _atom_site_thermal_displace_type
  _atom_site_B_iso_or_equiv
  _atom_site_type_symbol
  La1      1.0000 0.13555  0.00893  0.15453  Biso   1.000  La
  Hf1      1.0000 0.13849  0.02074  0.66917  Biso   1.000  Hf
  Hf2      1.0000 0.13788  0.52093  0.17071  Biso   1.000  Hf
  Hf3      1.0000 0.13924  0.52018  0.67262  Biso   1.000  Hf
  Hf4      1.0000 0.14296  0.23369  0.42399  Biso   1.000  Hf
  Hf5      1.0000 0.13674  0.23316  0.91788  Biso   1.000  Hf
  Hf6      1.0000 0.14079  0.72466  0.42303  Biso   1.000  Hf
  Hf7      1.0000 0.14045  0.72703  0.91880  Biso   1.000  Hf
  Hf8      1.0000 0.35806  0.27121  0.16784  Biso   1.000  Hf
  Hf9      1.0000 0.36187  0.27038  0.67268  Biso   1.000  Hf
  Hf10     1.0000 0.36748  0.76615  0.16997  Biso   1.000  Hf
  Hf11     1.0000 0.35917  0.77040  0.67051  Biso   1.000  Hf
  Hf12     1.0000 0.36029  0.47994  0.42084  Biso   1.000  Hf
  Hf13     1.0000 0.36145  0.47918  0.92190  Biso   1.000  Hf
  Hf14     1.0000 0.35709  0.97857  0.42002  Biso   1.000  Hf
  Hf15     1.0000 0.36636  0.98052  0.91629  Biso   1.000  Hf
  Hf16     1.0000 0.64293  0.02143  0.07997  Biso   1.000  Hf
  Hf17     1.0000 0.63364  0.01948  0.58373  Biso   1.000  Hf
  Hf18     1.0000 0.63972  0.52005  0.07915  Biso   1.000  Hf
  Hf19     1.0000 0.63855  0.52081  0.57811  Biso   1.000  Hf
  Hf20     1.0000 0.63254  0.23385  0.33003  Biso   1.000  Hf
  Hf21     1.0000 0.64081  0.22960  0.82949  Biso   1.000  Hf
  Hf22     1.0000 0.64195  0.72878  0.33216  Biso   1.000  Hf
  Hf23     1.0000 0.63811  0.72962  0.82732  Biso   1.000  Hf
  Hf24     1.0000 0.85923  0.27536  0.07697  Biso   1.000  Hf
  Hf25     1.0000 0.85955  0.27297  0.58120  Biso   1.000  Hf
  Hf26     1.0000 0.85705  0.76631  0.07599  Biso   1.000  Hf
  Hf27     1.0000 0.86326  0.76682  0.58213  Biso   1.000  Hf
  Hf28     1.0000 0.86214  0.47908  0.32929  Biso   1.000  Hf
  Hf29     1.0000 0.86076  0.47981  0.82738  Biso   1.000  Hf
  La2      1.0000 0.86441  0.99106  0.34544  Biso   1.000  La
  Hf30     1.0000 0.86150  0.97926  0.83084  Biso   1.000  Hf
  Hf31     1.0000 0.03520  0.19191  0.08544  Biso   1.000  Hf
  Hf32     1.0000 0.03388  0.17456  0.59291  Biso   1.000  Hf
  Hf33     1.0000 0.03943  0.68045  0.09268  Biso   1.000  Hf
  Hf34     1.0000 0.03949  0.67099  0.59657  Biso   1.000  Hf
  Hf35     1.0000 0.07185  0.06449  0.36474  Biso   1.000  Hf
  Hf36     1.0000 0.03834  0.07595  0.84145  Biso   1.000  Hf
  Hf37     1.0000 0.04040  0.57109  0.34214  Biso   1.000  Hf
  Hf38     1.0000 0.03663  0.57478  0.84123  Biso   1.000  Hf
  Hf39     1.0000 0.46836  0.41386  0.08239  Biso   1.000  Hf
  Hf40     1.0000 0.46907  0.41271  0.58188  Biso   1.000  Hf
  Hf41     1.0000 0.47081  0.91726  0.08375  Biso   1.000  Hf
  Hf42     1.0000 0.46246  0.91544  0.58391  Biso   1.000  Hf
  Hf43     1.0000 0.46481  0.33881  0.33167  Biso   1.000  Hf
  Hf44     1.0000 0.46866  0.33562  0.83363  Biso   1.000  Hf
  Hf45     1.0000 0.47297  0.83664  0.33287  Biso   1.000  Hf
  Hf46     1.0000 0.46920  0.83639  0.82978  Biso   1.000  Hf
  Hf47     1.0000 0.28717  0.12997  0.29809  Biso   1.000  Hf
  Hf48     1.0000 0.27504  0.12443  0.79112  Biso   1.000  Hf
  Hf49     1.0000 0.27948  0.61904  0.29344  Biso   1.000  Hf
  Hf50     1.0000 0.27648  0.62459  0.79537  Biso   1.000  Hf
  Hf51     1.0000 0.28531  0.13419  0.03196  Biso   1.000  Hf
  Hf52     1.0000 0.27674  0.12634  0.54659  Biso   1.000  Hf
  Hf53     1.0000 0.27505  0.61967  0.04575  Biso   1.000  Hf
  Hf54     1.0000 0.27718  0.62360  0.54600  Biso   1.000  Hf
  Hf55     1.0000 0.22191  0.37319  0.29306  Biso   1.000  Hf
  Hf56     1.0000 0.22544  0.37426  0.79425  Biso   1.000  Hf
  Hf57     1.0000 0.23440  0.85871  0.29738  Biso   1.000  Hf
  Hf58     1.0000 0.22359  0.87374  0.79002  Biso   1.000  Hf
  Hf59     1.0000 0.22259  0.37851  0.04303  Biso   1.000  Hf
  Hf60     1.0000 0.22546  0.37748  0.54621  Biso   1.000  Hf
  Hf61     1.0000 0.24650  0.86004  0.02960  Biso   1.000  Hf
  Hf62     1.0000 0.22211  0.87519  0.54425  Biso   1.000  Hf
  Hf63     1.0000 0.52703  0.16335  0.16712  Biso   1.000  Hf
  Hf64     1.0000 0.53079  0.16361  0.67022  Biso   1.000  Hf
  Hf65     1.0000 0.53520  0.66119  0.16834  Biso   1.000  Hf
  Hf66     1.0000 0.53133  0.66437  0.66637  Biso   1.000  Hf
  Hf67     1.0000 0.52920  0.08274  0.41625  Biso   1.000  Hf
  Hf68     1.0000 0.53755  0.08456  0.91609  Biso   1.000  Hf
  Hf69     1.0000 0.53164  0.58613  0.41761  Biso   1.000  Hf
  Hf70     1.0000 0.53094  0.58729  0.91813  Biso   1.000  Hf
  Hf71     1.0000 0.95963  0.42895  0.15784  Biso   1.000  Hf
  Hf72     1.0000 0.96337  0.42519  0.65880  Biso   1.000  Hf
  Hf73     1.0000 0.92808  0.93559  0.13518  Biso   1.000  Hf
  Hf74     1.0000 0.96166  0.92402  0.65860  Biso   1.000  Hf
  Hf75     1.0000 0.96061  0.31960  0.40733  Biso   1.000  Hf
  Hf76     1.0000 0.96049  0.32899  0.90345  Biso   1.000  Hf
  Hf77     1.0000 0.96483  0.80813  0.41458  Biso   1.000  Hf
  Hf78     1.0000 0.96609  0.82541  0.90710  Biso   1.000  Hf
  Hf79     1.0000 0.77789  0.12482  0.95577  Biso   1.000  Hf
  Hf80     1.0000 0.75352  0.13996  0.47040  Biso   1.000  Hf
  Hf81     1.0000 0.77453  0.62252  0.95379  Biso   1.000  Hf
  Hf82     1.0000 0.77742  0.62148  0.45695  Biso   1.000  Hf
  Hf83     1.0000 0.76560  0.14130  0.20262  Biso   1.000  Hf
  Hf84     1.0000 0.77641  0.12627  0.70998  Biso   1.000  Hf
  Hf85     1.0000 0.77810  0.62681  0.20693  Biso   1.000  Hf
  Hf86     1.0000 0.77456  0.62574  0.70575  Biso   1.000  Hf
  Hf87     1.0000 0.72282  0.37640  0.95400  Biso   1.000  Hf
  Hf88     1.0000 0.72495  0.38033  0.45423  Biso   1.000  Hf
  Hf89     1.0000 0.72325  0.87365  0.95341  Biso   1.000  Hf
  Hf90     1.0000 0.71469  0.86580  0.46804  Biso   1.000  Hf
  Hf91     1.0000 0.72054  0.38097  0.20657  Biso   1.000  Hf
  Hf92     1.0000 0.72351  0.37540  0.70463  Biso   1.000  Hf
  Hf93     1.0000 0.71284  0.87002  0.20191  Biso   1.000  Hf
  Hf94     1.0000 0.72495  0.87557  0.70887  Biso   1.000  Hf
