data_image0
_cell_length_a       10.0678
_cell_length_b       10.4007
_cell_length_c       10.0856
_cell_angle_alpha    90.1783
_cell_angle_beta     90.1279
_cell_angle_gamma    89.8916

_symmetry_space_group_name_H-M    "P 1"
_symmetry_int_tables_number       1

loop_
  _symmetry_equiv_pos_as_xyz
  'x, y, z'

loop_
  _atom_site_label
  _atom_site_occupancy
  _atom_site_fract_x
  _atom_site_fract_y
  _atom_site_fract_z
  _atom_site_thermal_displace_type
  _atom_site_B_iso_or_equiv
  _atom_site_type_symbol
  La1      1.0000 0.12155  0.00520  0.11709  Biso   1.000  La
  Hf1      1.0000 0.13832  0.01348  0.62624  Biso   1.000  Hf
  Hf2      1.0000 0.13304  0.51707  0.12417  Biso   1.000  Hf
  Hf3      1.0000 0.13654  0.51863  0.62605  Biso   1.000  Hf
  Hf4      1.0000 0.63377  0.01541  0.12507  Biso   1.000  Hf
  Hf5      1.0000 0.62807  0.01302  0.62305  Biso   1.000  Hf
  Hf6      1.0000 0.63237  0.51400  0.12504  Biso   1.000  Hf
  Hf7      1.0000 0.63518  0.51411  0.62671  Biso   1.000  Hf
  Hf8      1.0000 0.13690  0.23362  0.37374  Biso   1.000  Hf
  Hf9      1.0000 0.14036  0.23796  0.87369  Biso   1.000  Hf
  Hf10     1.0000 0.13380  0.73239  0.37653  Biso   1.000  Hf
  Hf11     1.0000 0.13701  0.73315  0.87578  Biso   1.000  Hf
  Hf12     1.0000 0.62890  0.23411  0.37165  Biso   1.000  Hf
  Hf13     1.0000 0.63364  0.23402  0.87502  Biso   1.000  Hf
  Hf14     1.0000 0.63083  0.73135  0.37870  Biso   1.000  Hf
  Hf15     1.0000 0.63708  0.73133  0.87391  Biso   1.000  Hf
  Hf16     1.0000 0.36418  0.26543  0.12583  Biso   1.000  Hf
  Hf17     1.0000 0.36459  0.26489  0.62322  Biso   1.000  Hf
  Hf18     1.0000 0.37011  0.76172  0.12407  Biso   1.000  Hf
  Hf19     1.0000 0.36648  0.76507  0.62490  Biso   1.000  Hf
  Hf20     1.0000 0.86243  0.26791  0.12565  Biso   1.000  Hf
  La2      1.0000 0.87629  0.25543  0.62360  Biso   1.000  La
  Hf21     1.0000 0.85986  0.76462  0.12895  Biso   1.000  Hf
  Hf22     1.0000 0.86740  0.76477  0.62414  Biso   1.000  Hf
  Hf23     1.0000 0.36433  0.48291  0.37480  Biso   1.000  Hf
  Hf24     1.0000 0.36837  0.48310  0.87508  Biso   1.000  Hf
  Hf25     1.0000 0.36323  0.98274  0.37186  Biso   1.000  Hf
  Hf26     1.0000 0.37199  0.98274  0.87570  Biso   1.000  Hf
  Hf27     1.0000 0.86427  0.48619  0.37279  Biso   1.000  Hf
  Hf28     1.0000 0.86572  0.48431  0.87766  Biso   1.000  Hf
  Hf29     1.0000 0.85797  0.98189  0.38078  Biso   1.000  Hf
  Hf30     1.0000 0.86184  0.98119  0.87247  Biso   1.000  Hf
  Hf31     1.0000 0.02977  0.19638  0.19974  Biso   1.000  Hf
  Hf32     1.0000 0.07750  0.19421  0.68256  Biso   1.000  Hf
  Hf33     1.0000 0.03402  0.68655  0.19721  Biso   1.000  Hf
  Hf34     1.0000 0.03882  0.69033  0.69559  Biso   1.000  Hf
  Hf35     1.0000 0.53591  0.18368  0.19153  Biso   1.000  Hf
  Hf36     1.0000 0.53370  0.18451  0.69350  Biso   1.000  Hf
  Hf37     1.0000 0.53356  0.67886  0.19889  Biso   1.000  Hf
  Hf38     1.0000 0.53495  0.68154  0.69613  Biso   1.000  Hf
  Hf39     1.0000 0.02504  0.07314  0.44996  Biso   1.000  Hf
  Hf40     1.0000 0.03019  0.07660  0.91131  Biso   1.000  Hf
  Hf41     1.0000 0.03254  0.57019  0.44925  Biso   1.000  Hf
  Hf42     1.0000 0.03418  0.57260  0.94712  Biso   1.000  Hf
  Hf43     1.0000 0.52608  0.06742  0.44551  Biso   1.000  Hf
  Hf44     1.0000 0.53699  0.06680  0.94640  Biso   1.000  Hf
  Hf45     1.0000 0.53180  0.56604  0.44676  Biso   1.000  Hf
  Hf46     1.0000 0.53609  0.56635  0.94648  Biso   1.000  Hf
  Hf47     1.0000 0.46504  0.43164  0.19646  Biso   1.000  Hf
  Hf48     1.0000 0.46472  0.43323  0.69277  Biso   1.000  Hf
  Hf49     1.0000 0.46316  0.93413  0.19172  Biso   1.000  Hf
  Hf50     1.0000 0.46534  0.92939  0.69781  Biso   1.000  Hf
  Hf51     1.0000 0.95860  0.44193  0.18667  Biso   1.000  Hf
  Hf52     1.0000 0.97479  0.44606  0.70744  Biso   1.000  Hf
  Hf53     1.0000 0.93867  0.92803  0.20654  Biso   1.000  Hf
  Hf54     1.0000 0.96019  0.94068  0.68908  Biso   1.000  Hf
  Hf55     1.0000 0.46061  0.31506  0.44272  Biso   1.000  Hf
  Hf56     1.0000 0.46670  0.31818  0.94585  Biso   1.000  Hf
  Hf57     1.0000 0.46592  0.81758  0.44917  Biso   1.000  Hf
  Hf58     1.0000 0.47488  0.81632  0.94770  Biso   1.000  Hf
  Hf59     1.0000 0.97107  0.32905  0.42415  Biso   1.000  Hf
  Hf60     1.0000 0.96698  0.31817  0.94332  Biso   1.000  Hf
  Hf61     1.0000 0.96532  0.81806  0.44718  Biso   1.000  Hf
  Hf62     1.0000 0.97516  0.82618  0.95666  Biso   1.000  Hf
  Hf63     1.0000 0.27783  0.12531  0.25339  Biso   1.000  Hf
  Hf64     1.0000 0.28346  0.11427  0.74748  Biso   1.000  Hf
  Hf65     1.0000 0.26738  0.61255  0.24853  Biso   1.000  Hf
  Hf66     1.0000 0.27165  0.61851  0.74957  Biso   1.000  Hf
  Hf67     1.0000 0.76700  0.11764  0.24850  Biso   1.000  Hf
  Hf68     1.0000 0.75292  0.10507  0.75540  Biso   1.000  Hf
  Hf69     1.0000 0.76682  0.61803  0.24820  Biso   1.000  Hf
  Hf70     1.0000 0.77326  0.61722  0.74790  Biso   1.000  Hf
  Hf71     1.0000 0.26828  0.12850  0.49885  Biso   1.000  Hf
  Hf72     1.0000 0.27610  0.13703  0.99158  Biso   1.000  Hf
  Hf73     1.0000 0.27037  0.63343  0.49841  Biso   1.000  Hf
  Hf74     1.0000 0.27162  0.62908  0.99910  Biso   1.000  Hf
  Hf75     1.0000 0.75197  0.12335  0.49146  Biso   1.000  Hf
  Hf76     1.0000 0.77261  0.13223  0.99926  Biso   1.000  Hf
  Hf77     1.0000 0.76897  0.63264  0.49918  Biso   1.000  Hf
  Hf78     1.0000 0.76959  0.63175  0.99851  Biso   1.000  Hf
  Hf79     1.0000 0.22944  0.38389  0.49909  Biso   1.000  Hf
  Hf80     1.0000 0.23185  0.38471  0.99939  Biso   1.000  Hf
  Hf81     1.0000 0.22912  0.88257  0.49735  Biso   1.000  Hf
  Hf82     1.0000 0.24569  0.87054  0.98858  Biso   1.000  Hf
  Hf83     1.0000 0.72453  0.38679  0.49180  Biso   1.000  Hf
  Hf84     1.0000 0.73028  0.38177  0.00083  Biso   1.000  Hf
  Hf85     1.0000 0.72710  0.87786  0.50217  Biso   1.000  Hf
  Hf86     1.0000 0.73196  0.88015  0.00035  Biso   1.000  Hf
  Hf87     1.0000 0.22775  0.36891  0.24786  Biso   1.000  Hf
  Hf88     1.0000 0.23735  0.37054  0.75011  Biso   1.000  Hf
  Hf89     1.0000 0.24173  0.85369  0.25388  Biso   1.000  Hf
  Hf90     1.0000 0.23031  0.86732  0.74602  Biso   1.000  Hf
  Hf91     1.0000 0.72820  0.36800  0.24808  Biso   1.000  Hf
  Hf92     1.0000 0.72177  0.37567  0.75629  Biso   1.000  Hf
  Hf93     1.0000 0.71589  0.86523  0.25175  Biso   1.000  Hf
  Hf94     1.0000 0.73298  0.86149  0.74918  Biso   1.000  Hf
