data_image0
_cell_length_a       10.2133
_cell_length_b       10.3314
_cell_length_c       10.5181
_cell_angle_alpha    89.9632
_cell_angle_beta     80.5668
_cell_angle_gamma    90.0554

_symmetry_space_group_name_H-M    "P 1"
_symmetry_int_tables_number       1

loop_
  _symmetry_equiv_pos_as_xyz
  'x, y, z'

loop_
  _atom_site_label
  _atom_site_occupancy
  _atom_site_fract_x
  _atom_site_fract_y
  _atom_site_fract_z
  _atom_site_thermal_displace_type
  _atom_site_B_iso_or_equiv
  _atom_site_type_symbol
  La1      1.0000 0.12553  0.00658  0.14077  Biso   1.000  La
  Hf1      1.0000 0.14042  0.02144  0.64649  Biso   1.000  Hf
  Hf2      1.0000 0.14000  0.51831  0.14484  Biso   1.000  Hf
  Hf3      1.0000 0.13954  0.52098  0.64578  Biso   1.000  Hf
  Hf4      1.0000 0.64578  0.01600  0.14615  Biso   1.000  Hf
  Hf5      1.0000 0.63811  0.02272  0.64815  Biso   1.000  Hf
  Hf6      1.0000 0.63927  0.52026  0.14771  Biso   1.000  Hf
  Hf7      1.0000 0.63886  0.52146  0.64507  Biso   1.000  Hf
  Hf8      1.0000 0.13488  0.22830  0.40169  Biso   1.000  Hf
  Hf9      1.0000 0.13653  0.23329  0.89203  Biso   1.000  Hf
  Hf10     1.0000 0.13853  0.72626  0.39605  Biso   1.000  Hf
  Hf11     1.0000 0.14398  0.72608  0.89499  Biso   1.000  Hf
  Hf12     1.0000 0.63581  0.23015  0.39540  Biso   1.000  Hf
  Hf13     1.0000 0.64699  0.22884  0.89152  Biso   1.000  Hf
  Hf14     1.0000 0.63621  0.72692  0.39929  Biso   1.000  Hf
  Hf15     1.0000 0.64242  0.72890  0.89369  Biso   1.000  Hf
  La2      1.0000 0.36353  0.25818  0.10889  Biso   1.000  La
  Hf16     1.0000 0.36041  0.27104  0.60341  Biso   1.000  Hf
  Hf17     1.0000 0.36794  0.76684  0.10419  Biso   1.000  Hf
  Hf18     1.0000 0.36015  0.77129  0.60376  Biso   1.000  Hf
  Hf19     1.0000 0.85880  0.27293  0.10240  Biso   1.000  Hf
  Hf20     1.0000 0.86014  0.27310  0.60389  Biso   1.000  Hf
  Hf21     1.0000 0.85926  0.76219  0.10167  Biso   1.000  Hf
  Hf22     1.0000 0.86277  0.77150  0.60415  Biso   1.000  Hf
  Hf23     1.0000 0.35940  0.48077  0.35463  Biso   1.000  Hf
  Hf24     1.0000 0.36287  0.47709  0.85253  Biso   1.000  Hf
  Hf25     1.0000 0.36041  0.97794  0.35640  Biso   1.000  Hf
  Hf26     1.0000 0.36385  0.97512  0.85051  Biso   1.000  Hf
  Hf27     1.0000 0.86013  0.47965  0.35380  Biso   1.000  Hf
  Hf28     1.0000 0.86216  0.48036  0.85155  Biso   1.000  Hf
  Hf29     1.0000 0.84961  0.97945  0.36301  Biso   1.000  Hf
  Hf30     1.0000 0.86552  0.97650  0.85434  Biso   1.000  Hf
  Hf31     1.0000 0.03637  0.19191  0.07689  Biso   1.000  Hf
  Hf32     1.0000 0.03365  0.17009  0.58481  Biso   1.000  Hf
  Hf33     1.0000 0.03936  0.67216  0.08075  Biso   1.000  Hf
  Hf34     1.0000 0.03494  0.66754  0.57918  Biso   1.000  Hf
  Hf35     1.0000 0.56565  0.16900  0.07357  Biso   1.000  Hf
  Hf36     1.0000 0.53341  0.16779  0.57911  Biso   1.000  Hf
  Hf37     1.0000 0.54310  0.67185  0.07955  Biso   1.000  Hf
  Hf38     1.0000 0.53404  0.66841  0.58224  Biso   1.000  Hf
  Hf39     1.0000 0.01380  0.08922  0.34581  Biso   1.000  Hf
  Hf40     1.0000 0.03755  0.08013  0.82929  Biso   1.000  Hf
  Hf41     1.0000 0.03222  0.58438  0.32852  Biso   1.000  Hf
  Hf42     1.0000 0.03633  0.58135  0.82861  Biso   1.000  Hf
  Hf43     1.0000 0.53337  0.08317  0.32793  Biso   1.000  Hf
  Hf44     1.0000 0.53689  0.08286  0.82885  Biso   1.000  Hf
  Hf45     1.0000 0.53557  0.58237  0.33413  Biso   1.000  Hf
  Hf46     1.0000 0.53634  0.58394  0.82799  Biso   1.000  Hf
  Hf47     1.0000 0.46500  0.43449  0.17462  Biso   1.000  Hf
  Hf48     1.0000 0.46519  0.42043  0.66606  Biso   1.000  Hf
  Hf49     1.0000 0.46417  0.92441  0.16776  Biso   1.000  Hf
  Hf50     1.0000 0.46674  0.91671  0.66943  Biso   1.000  Hf
  Hf51     1.0000 0.95966  0.42481  0.16900  Biso   1.000  Hf
  Hf52     1.0000 0.96589  0.41987  0.66799  Biso   1.000  Hf
  Hf53     1.0000 0.92614  0.92005  0.17766  Biso   1.000  Hf
  Hf54     1.0000 0.96709  0.91628  0.67108  Biso   1.000  Hf
  Hf55     1.0000 0.46135  0.32961  0.41760  Biso   1.000  Hf
  Hf56     1.0000 0.47755  0.33535  0.90542  Biso   1.000  Hf
  Hf57     1.0000 0.46435  0.83060  0.42377  Biso   1.000  Hf
  Hf58     1.0000 0.47624  0.83563  0.92038  Biso   1.000  Hf
  Hf59     1.0000 0.96158  0.33468  0.42312  Biso   1.000  Hf
  Hf60     1.0000 0.95968  0.33140  0.91307  Biso   1.000  Hf
  Hf61     1.0000 0.96531  0.83378  0.41957  Biso   1.000  Hf
  Hf62     1.0000 0.97195  0.83393  0.92448  Biso   1.000  Hf
  Hf63     1.0000 0.26060  0.11897  0.26632  Biso   1.000  Hf
  Hf64     1.0000 0.27710  0.12905  0.73598  Biso   1.000  Hf
  Hf65     1.0000 0.27529  0.62437  0.23966  Biso   1.000  Hf
  Hf66     1.0000 0.27706  0.62868  0.74000  Biso   1.000  Hf
  Hf67     1.0000 0.77288  0.13111  0.24344  Biso   1.000  Hf
  Hf68     1.0000 0.77803  0.12891  0.73980  Biso   1.000  Hf
  Hf69     1.0000 0.77497  0.62948  0.24167  Biso   1.000  Hf
  Hf70     1.0000 0.77704  0.62986  0.73836  Biso   1.000  Hf
  Hf71     1.0000 0.27513  0.12063  0.49670  Biso   1.000  Hf
  Hf72     1.0000 0.26982  0.11383  0.97110  Biso   1.000  Hf
  Hf73     1.0000 0.27492  0.62193  0.49101  Biso   1.000  Hf
  Hf74     1.0000 0.28060  0.61774  0.99071  Biso   1.000  Hf
  Hf75     1.0000 0.76914  0.12328  0.49445  Biso   1.000  Hf
  Hf76     1.0000 0.79037  0.11814  0.98737  Biso   1.000  Hf
  Hf77     1.0000 0.77545  0.62132  0.49096  Biso   1.000  Hf
  Hf78     1.0000 0.77853  0.62031  0.98779  Biso   1.000  Hf
  Hf79     1.0000 0.21815  0.38537  0.99932  Biso   1.000  Hf
  Hf80     1.0000 0.22359  0.37943  0.51159  Biso   1.000  Hf
  Hf81     1.0000 0.24245  0.86184  0.99654  Biso   1.000  Hf
  Hf82     1.0000 0.22350  0.87913  0.51063  Biso   1.000  Hf
  Hf83     1.0000 0.72471  0.38189  0.00725  Biso   1.000  Hf
  Hf84     1.0000 0.72168  0.37980  0.50903  Biso   1.000  Hf
  Hf85     1.0000 0.72829  0.87621  0.00862  Biso   1.000  Hf
  Hf86     1.0000 0.72343  0.87888  0.51457  Biso   1.000  Hf
  Hf87     1.0000 0.21234  0.37700  0.26973  Biso   1.000  Hf
  Hf88     1.0000 0.22592  0.37182  0.75578  Biso   1.000  Hf
  Hf89     1.0000 0.23726  0.85676  0.26384  Biso   1.000  Hf
  Hf90     1.0000 0.22496  0.87016  0.75684  Biso   1.000  Hf
  Hf91     1.0000 0.72248  0.37218  0.26023  Biso   1.000  Hf
  Hf92     1.0000 0.72773  0.37269  0.75586  Biso   1.000  Hf
  Hf93     1.0000 0.70846  0.86920  0.26799  Biso   1.000  Hf
  Hf94     1.0000 0.72778  0.87137  0.75985  Biso   1.000  Hf
