data_image0
_cell_length_a       10.1415
_cell_length_b       10.2989
_cell_length_c       10.4758
_cell_angle_alpha    89.9361
_cell_angle_beta     90.3879
_cell_angle_gamma    90.1759

_symmetry_space_group_name_H-M    "P 1"
_symmetry_int_tables_number       1

loop_
  _symmetry_equiv_pos_as_xyz
  'x, y, z'

loop_
  _atom_site_label
  _atom_site_occupancy
  _atom_site_fract_x
  _atom_site_fract_y
  _atom_site_fract_z
  _atom_site_thermal_displace_type
  _atom_site_B_iso_or_equiv
  _atom_site_type_symbol
  La1      1.0000 0.13293  0.01048  0.16414  Biso   1.000  La
  Hf1      1.0000 0.13921  0.01996  0.67193  Biso   1.000  Hf
  Hf2      1.0000 0.13787  0.52006  0.16888  Biso   1.000  Hf
  Hf3      1.0000 0.14625  0.51887  0.66578  Biso   1.000  Hf
  Hf4      1.0000 0.13839  0.22709  0.42226  Biso   1.000  Hf
  Hf5      1.0000 0.14305  0.23051  0.91897  Biso   1.000  Hf
  Hf6      1.0000 0.13822  0.72732  0.42132  Biso   1.000  Hf
  Hf7      1.0000 0.14431  0.73136  0.92034  Biso   1.000  Hf
  Hf8      1.0000 0.35896  0.26932  0.17113  Biso   1.000  Hf
  Hf9      1.0000 0.36345  0.26879  0.67028  Biso   1.000  Hf
  Hf10     1.0000 0.36672  0.76664  0.17190  Biso   1.000  Hf
  Hf11     1.0000 0.35978  0.77171  0.66932  Biso   1.000  Hf
  Hf12     1.0000 0.36055  0.47793  0.41843  Biso   1.000  Hf
  Hf13     1.0000 0.36003  0.47848  0.91961  Biso   1.000  Hf
  Hf14     1.0000 0.36230  0.97968  0.42265  Biso   1.000  Hf
  Hf15     1.0000 0.36632  0.98170  0.91930  Biso   1.000  Hf
  Hf16     1.0000 0.63998  0.02151  0.08040  Biso   1.000  Hf
  Hf17     1.0000 0.63946  0.02207  0.58157  Biso   1.000  Hf
  Hf18     1.0000 0.63367  0.51831  0.08070  Biso   1.000  Hf
  Hf19     1.0000 0.63770  0.52033  0.57734  Biso   1.000  Hf
  Hf20     1.0000 0.63653  0.23120  0.32971  Biso   1.000  Hf
  Hf21     1.0000 0.64103  0.23068  0.82886  Biso   1.000  Hf
  Hf22     1.0000 0.64023  0.72830  0.33069  Biso   1.000  Hf
  Hf23     1.0000 0.63329  0.73337  0.82811  Biso   1.000  Hf
  Hf24     1.0000 0.85694  0.26948  0.08102  Biso   1.000  Hf
  Hf25     1.0000 0.86160  0.27291  0.57773  Biso   1.000  Hf
  Hf26     1.0000 0.85570  0.76865  0.07967  Biso   1.000  Hf
  Hf27     1.0000 0.86178  0.77269  0.57870  Biso   1.000  Hf
  Hf28     1.0000 0.86079  0.48002  0.32805  Biso   1.000  Hf
  La2      1.0000 0.86706  0.48952  0.83584  Biso   1.000  La
  Hf29     1.0000 0.85377  0.98113  0.33424  Biso   1.000  Hf
  Hf30     1.0000 0.86213  0.97997  0.83113  Biso   1.000  Hf
  Hf31     1.0000 0.03651  0.18864  0.08762  Biso   1.000  Hf
  Hf32     1.0000 0.03482  0.16933  0.59054  Biso   1.000  Hf
  Hf33     1.0000 0.03432  0.67365  0.08663  Biso   1.000  Hf
  Hf34     1.0000 0.03419  0.66809  0.58797  Biso   1.000  Hf
  Hf35     1.0000 0.02332  0.08297  0.35128  Biso   1.000  Hf
  Hf36     1.0000 0.04077  0.07348  0.84302  Biso   1.000  Hf
  Hf37     1.0000 0.03458  0.58154  0.33523  Biso   1.000  Hf
  Hf38     1.0000 0.06747  0.57475  0.83723  Biso   1.000  Hf
  Hf39     1.0000 0.46293  0.41439  0.08362  Biso   1.000  Hf
  Hf40     1.0000 0.46726  0.41405  0.58142  Biso   1.000  Hf
  Hf41     1.0000 0.47193  0.91493  0.08324  Biso   1.000  Hf
  Hf42     1.0000 0.46896  0.91418  0.58255  Biso   1.000  Hf
  Hf43     1.0000 0.46750  0.33759  0.33204  Biso   1.000  Hf
  Hf44     1.0000 0.46827  0.33456  0.83201  Biso   1.000  Hf
  Hf45     1.0000 0.47237  0.83721  0.33327  Biso   1.000  Hf
  Hf46     1.0000 0.46813  0.83968  0.82886  Biso   1.000  Hf
  Hf47     1.0000 0.28067  0.12888  0.30383  Biso   1.000  Hf
  Hf48     1.0000 0.27722  0.12261  0.79180  Biso   1.000  Hf
  Hf49     1.0000 0.27558  0.62023  0.29299  Biso   1.000  Hf
  Hf50     1.0000 0.28949  0.62468  0.79087  Biso   1.000  Hf
  Hf51     1.0000 0.28691  0.13364  0.03522  Biso   1.000  Hf
  Hf52     1.0000 0.27494  0.12359  0.54695  Biso   1.000  Hf
  Hf53     1.0000 0.27429  0.62101  0.04532  Biso   1.000  Hf
  Hf54     1.0000 0.27538  0.62576  0.54133  Biso   1.000  Hf
  Hf55     1.0000 0.22166  0.37313  0.29228  Biso   1.000  Hf
  Hf56     1.0000 0.22729  0.37140  0.79051  Biso   1.000  Hf
  Hf57     1.0000 0.23534  0.86198  0.30167  Biso   1.000  Hf
  Hf58     1.0000 0.22483  0.87286  0.79201  Biso   1.000  Hf
  Hf59     1.0000 0.22157  0.37724  0.04248  Biso   1.000  Hf
  Hf60     1.0000 0.22836  0.37391  0.54131  Biso   1.000  Hf
  Hf61     1.0000 0.24582  0.86299  0.03480  Biso   1.000  Hf
  Hf62     1.0000 0.22358  0.87634  0.54525  Biso   1.000  Hf
  Hf63     1.0000 0.53171  0.16543  0.16798  Biso   1.000  Hf
  Hf64     1.0000 0.53249  0.16241  0.66795  Biso   1.000  Hf
  Hf65     1.0000 0.53186  0.66031  0.17114  Biso   1.000  Hf
  Hf66     1.0000 0.52764  0.66278  0.66674  Biso   1.000  Hf
  Hf67     1.0000 0.53272  0.08594  0.41857  Biso   1.000  Hf
  Hf68     1.0000 0.53706  0.08559  0.91636  Biso   1.000  Hf
  Hf69     1.0000 0.53105  0.58583  0.41746  Biso   1.000  Hf
  Hf70     1.0000 0.52809  0.58508  0.91678  Biso   1.000  Hf
  Hf71     1.0000 0.95923  0.42649  0.15699  Biso   1.000  Hf
  Hf72     1.0000 0.97669  0.41699  0.64874  Biso   1.000  Hf
  Hf73     1.0000 0.93254  0.92526  0.16278  Biso   1.000  Hf
  Hf74     1.0000 0.96542  0.91848  0.66476  Biso   1.000  Hf
  Hf75     1.0000 0.96519  0.33068  0.40946  Biso   1.000  Hf
  Hf76     1.0000 0.96349  0.31136  0.91237  Biso   1.000  Hf
  Hf77     1.0000 0.96580  0.83190  0.41205  Biso   1.000  Hf
  Hf78     1.0000 0.96569  0.82636  0.91339  Biso   1.000  Hf
  Hf79     1.0000 0.77845  0.12276  0.95749  Biso   1.000  Hf
  Hf80     1.0000 0.77165  0.12609  0.45866  Biso   1.000  Hf
  Hf81     1.0000 0.75417  0.63701  0.96521  Biso   1.000  Hf
  Hf82     1.0000 0.77640  0.62368  0.45478  Biso   1.000  Hf
  Hf83     1.0000 0.77272  0.12858  0.20950  Biso   1.000  Hf
  Hf84     1.0000 0.77835  0.12687  0.70773  Biso   1.000  Hf
  Hf85     1.0000 0.77516  0.62713  0.20797  Biso   1.000  Hf
  Hf86     1.0000 0.76464  0.63803  0.69833  Biso   1.000  Hf
  Hf87     1.0000 0.71310  0.36635  0.96475  Biso   1.000  Hf
  Hf88     1.0000 0.72508  0.37640  0.45301  Biso   1.000  Hf
  Hf89     1.0000 0.72570  0.87900  0.95471  Biso   1.000  Hf
  Hf90     1.0000 0.72460  0.87425  0.45869  Biso   1.000  Hf
  Hf91     1.0000 0.72278  0.37737  0.20820  Biso   1.000  Hf
  Hf92     1.0000 0.71934  0.37112  0.69616  Biso   1.000  Hf
  Hf93     1.0000 0.71050  0.87532  0.20913  Biso   1.000  Hf
  Hf94     1.0000 0.72441  0.87979  0.70702  Biso   1.000  Hf
