data_image0
_cell_length_a       10.1973
_cell_length_b       10.3297
_cell_length_c       10.4643
_cell_angle_alpha    89.7965
_cell_angle_beta     80.8697
_cell_angle_gamma    89.7908

_symmetry_space_group_name_H-M    "P 1"
_symmetry_int_tables_number       1

loop_
  _symmetry_equiv_pos_as_xyz
  'x, y, z'

loop_
  _atom_site_label
  _atom_site_occupancy
  _atom_site_fract_x
  _atom_site_fract_y
  _atom_site_fract_z
  _atom_site_thermal_displace_type
  _atom_site_B_iso_or_equiv
  _atom_site_type_symbol
  Hf1      1.0000 0.13022  0.00489  0.13146  Biso   1.000  Hf
  Hf2      1.0000 0.13388  0.02093  0.64899  Biso   1.000  Hf
  Hf3      1.0000 0.13961  0.52133  0.14774  Biso   1.000  Hf
  Hf4      1.0000 0.13464  0.52455  0.64868  Biso   1.000  Hf
  Hf5      1.0000 0.64594  0.01961  0.13852  Biso   1.000  Hf
  Hf6      1.0000 0.63339  0.02115  0.64849  Biso   1.000  Hf
  Hf7      1.0000 0.63755  0.51935  0.14555  Biso   1.000  Hf
  Hf8      1.0000 0.63679  0.52079  0.64839  Biso   1.000  Hf
  Hf9      1.0000 0.13376  0.25127  0.41475  Biso   1.000  Hf
  Hf10     1.0000 0.13702  0.22939  0.89640  Biso   1.000  Hf
  Hf11     1.0000 0.13522  0.73229  0.39553  Biso   1.000  Hf
  Hf12     1.0000 0.13975  0.72640  0.89628  Biso   1.000  Hf
  Hf13     1.0000 0.63862  0.23223  0.39435  Biso   1.000  Hf
  Hf14     1.0000 0.64006  0.22950  0.89527  Biso   1.000  Hf
  Hf15     1.0000 0.63264  0.72243  0.39986  Biso   1.000  Hf
  Hf16     1.0000 0.63769  0.72747  0.89529  Biso   1.000  Hf
  La1      1.0000 0.35716  0.25616  0.11828  Biso   1.000  La
  Hf17     1.0000 0.36077  0.27113  0.61039  Biso   1.000  Hf
  Hf18     1.0000 0.36391  0.77087  0.10309  Biso   1.000  Hf
  Hf19     1.0000 0.35823  0.76810  0.60576  Biso   1.000  Hf
  Hf20     1.0000 0.86311  0.27124  0.10300  Biso   1.000  Hf
  Hf21     1.0000 0.85371  0.26947  0.60542  Biso   1.000  Hf
  Hf22     1.0000 0.86101  0.76630  0.10340  Biso   1.000  Hf
  Hf23     1.0000 0.85866  0.77174  0.60486  Biso   1.000  Hf
  Hf24     1.0000 0.36271  0.48495  0.35640  Biso   1.000  Hf
  Hf25     1.0000 0.36136  0.47588  0.85683  Biso   1.000  Hf
  La2      1.0000 0.36041  0.99038  0.35909  Biso   1.000  La
  Hf26     1.0000 0.36111  0.97512  0.85184  Biso   1.000  Hf
  Hf27     1.0000 0.85874  0.48206  0.35205  Biso   1.000  Hf
  Hf28     1.0000 0.86062  0.47826  0.85371  Biso   1.000  Hf
  Hf29     1.0000 0.83357  0.97134  0.35814  Biso   1.000  Hf
  Hf30     1.0000 0.86171  0.97691  0.85361  Biso   1.000  Hf
  Hf31     1.0000 0.03238  0.16427  0.07730  Biso   1.000  Hf
  Hf32     1.0000 0.01715  0.15223  0.56627  Biso   1.000  Hf
  Hf33     1.0000 0.03569  0.66835  0.07933  Biso   1.000  Hf
  Hf34     1.0000 0.02839  0.66581  0.57649  Biso   1.000  Hf
  Hf35     1.0000 0.56529  0.18078  0.08468  Biso   1.000  Hf
  Hf36     1.0000 0.53552  0.17304  0.58184  Biso   1.000  Hf
  Hf37     1.0000 0.54221  0.67794  0.08532  Biso   1.000  Hf
  Hf38     1.0000 0.53625  0.67179  0.58916  Biso   1.000  Hf
  Hf39     1.0000 0.18610  0.12158  0.26994  Biso   1.000  Hf
  Hf40     1.0000 0.03152  0.08661  0.82401  Biso   1.000  Hf
  Hf41     1.0000 0.02940  0.58791  0.32905  Biso   1.000  Hf
  Hf42     1.0000 0.03148  0.58453  0.82805  Biso   1.000  Hf
  Hf43     1.0000 0.56919  0.06982  0.32824  Biso   1.000  Hf
  Hf44     1.0000 0.53562  0.07624  0.83458  Biso   1.000  Hf
  Hf45     1.0000 0.54403  0.56690  0.34057  Biso   1.000  Hf
  Hf46     1.0000 0.53836  0.57482  0.83545  Biso   1.000  Hf
  Hf47     1.0000 0.45950  0.43992  0.17074  Biso   1.000  Hf
  Hf48     1.0000 0.46140  0.42521  0.66608  Biso   1.000  Hf
  Hf49     1.0000 0.46459  0.93427  0.14516  Biso   1.000  Hf
  Hf50     1.0000 0.45844  0.92427  0.66321  Biso   1.000  Hf
  Hf51     1.0000 0.96478  0.41879  0.17178  Biso   1.000  Hf
  Hf52     1.0000 0.96623  0.41180  0.66927  Biso   1.000  Hf
  Hf53     1.0000 0.95519  0.92120  0.18250  Biso   1.000  Hf
  Hf54     1.0000 0.96313  0.91237  0.67593  Biso   1.000  Hf
  Hf55     1.0000 0.45370  0.31572  0.41030  Biso   1.000  Hf
  Hf56     1.0000 0.46652  0.32586  0.90899  Biso   1.000  Hf
  Hf57     1.0000 0.45726  0.80839  0.41978  Biso   1.000  Hf
  Hf58     1.0000 0.46188  0.82185  0.91191  Biso   1.000  Hf
  Hf59     1.0000 0.95429  0.32728  0.41898  Biso   1.000  Hf
  Hf60     1.0000 0.96430  0.33293  0.92029  Biso   1.000  Hf
  Hf61     1.0000 0.96228  0.84780  0.42408  Biso   1.000  Hf
  Hf62     1.0000 0.97047  0.83830  0.92814  Biso   1.000  Hf
  Hf63     1.0000 0.27532  0.12872  0.74446  Biso   1.000  Hf
  Hf64     1.0000 0.27647  0.63162  0.24454  Biso   1.000  Hf
  Hf65     1.0000 0.27359  0.62754  0.74284  Biso   1.000  Hf
  Hf66     1.0000 0.79364  0.12926  0.24013  Biso   1.000  Hf
  Hf67     1.0000 0.77163  0.12862  0.74039  Biso   1.000  Hf
  Hf68     1.0000 0.77516  0.62690  0.24001  Biso   1.000  Hf
  Hf69     1.0000 0.77517  0.62937  0.74092  Biso   1.000  Hf
  Hf70     1.0000 0.25877  0.13722  0.51015  Biso   1.000  Hf
  Hf71     1.0000 0.26397  0.10624  0.98690  Biso   1.000  Hf
  Hf72     1.0000 0.27009  0.62265  0.49351  Biso   1.000  Hf
  Hf73     1.0000 0.27778  0.62054  0.99308  Biso   1.000  Hf
  Hf74     1.0000 0.77071  0.11783  0.49193  Biso   1.000  Hf
  Hf75     1.0000 0.78578  0.11814  0.98651  Biso   1.000  Hf
  Hf76     1.0000 0.77472  0.62022  0.49197  Biso   1.000  Hf
  Hf77     1.0000 0.77845  0.62150  0.98994  Biso   1.000  Hf
  Hf78     1.0000 0.21567  0.38360  0.00635  Biso   1.000  Hf
  Hf79     1.0000 0.22565  0.38591  0.51561  Biso   1.000  Hf
  Hf80     1.0000 0.22658  0.87153  0.00410  Biso   1.000  Hf
  Hf81     1.0000 0.21200  0.87413  0.51886  Biso   1.000  Hf
  Hf82     1.0000 0.72566  0.38175  0.00713  Biso   1.000  Hf
  Hf83     1.0000 0.72041  0.37924  0.51020  Biso   1.000  Hf
  Hf84     1.0000 0.72826  0.87619  0.00700  Biso   1.000  Hf
  Hf85     1.0000 0.71463  0.87610  0.51123  Biso   1.000  Hf
  Hf86     1.0000 0.21416  0.38449  0.27464  Biso   1.000  Hf
  Hf87     1.0000 0.22374  0.37055  0.76033  Biso   1.000  Hf
  Hf88     1.0000 0.21317  0.86392  0.24798  Biso   1.000  Hf
  Hf89     1.0000 0.22244  0.86961  0.76072  Biso   1.000  Hf
  Hf90     1.0000 0.72399  0.36973  0.25797  Biso   1.000  Hf
  Hf91     1.0000 0.72505  0.37115  0.75914  Biso   1.000  Hf
  Hf92     1.0000 0.71898  0.86235  0.25916  Biso   1.000  Hf
  Hf93     1.0000 0.72189  0.87054  0.75916  Biso   1.000  Hf
