data_image0
_cell_length_a       10.0893
_cell_length_b       10.1898
_cell_length_c       10.1073
_cell_angle_alpha    90.717
_cell_angle_beta     89.574
_cell_angle_gamma    90.0212

_symmetry_space_group_name_H-M    "P 1"
_symmetry_int_tables_number       1

loop_
  _symmetry_equiv_pos_as_xyz
  'x, y, z'

loop_
  _atom_site_label
  _atom_site_occupancy
  _atom_site_fract_x
  _atom_site_fract_y
  _atom_site_fract_z
  _atom_site_thermal_displace_type
  _atom_site_B_iso_or_equiv
  _atom_site_type_symbol
  Hf1      1.0000 0.12312  0.98646  0.13811  Biso   1.000  Hf
  Hf2      1.0000 0.12725  0.00737  0.62410  Biso   1.000  Hf
  Hf3      1.0000 0.12536  0.49972  0.12023  Biso   1.000  Hf
  Hf4      1.0000 0.12149  0.49782  0.62350  Biso   1.000  Hf
  Hf5      1.0000 0.62900  0.98267  0.14464  Biso   1.000  Hf
  Hf6      1.0000 0.63461  0.00559  0.62561  Biso   1.000  Hf
  Hf7      1.0000 0.63074  0.50227  0.11934  Biso   1.000  Hf
  Hf8      1.0000 0.62564  0.49794  0.62194  Biso   1.000  Hf
  Hf9      1.0000 0.12579  0.24926  0.36891  Biso   1.000  Hf
  Hf10     1.0000 0.12977  0.26257  0.86282  Biso   1.000  Hf
  Hf11     1.0000 0.12814  0.74708  0.38204  Biso   1.000  Hf
  Hf12     1.0000 0.12421  0.75336  0.87678  Biso   1.000  Hf
  Hf13     1.0000 0.62396  0.24953  0.37157  Biso   1.000  Hf
  Hf14     1.0000 0.59904  0.23938  0.88535  Biso   1.000  Hf
  Hf15     1.0000 0.63703  0.74573  0.38327  Biso   1.000  Hf
  Hf16     1.0000 0.62877  0.75248  0.87742  Biso   1.000  Hf
  Hf17     1.0000 0.37616  0.26265  0.13602  Biso   1.000  Hf
  Hf18     1.0000 0.37731  0.25117  0.62253  Biso   1.000  Hf
  Hf19     1.0000 0.38073  0.74837  0.12835  Biso   1.000  Hf
  Hf20     1.0000 0.37526  0.74669  0.62650  Biso   1.000  Hf
  La1      1.0000 0.87474  0.24524  0.11740  Biso   1.000  La
  Hf21     1.0000 0.87445  0.25530  0.62310  Biso   1.000  Hf
  Hf22     1.0000 0.88091  0.74335  0.12710  Biso   1.000  Hf
  Hf23     1.0000 0.87903  0.74946  0.62975  Biso   1.000  Hf
  Hf24     1.0000 0.38744  0.99193  0.38226  Biso   1.000  Hf
  Hf25     1.0000 0.38072  0.98617  0.86481  Biso   1.000  Hf
  Hf26     1.0000 0.37737  0.50388  0.37501  Biso   1.000  Hf
  Hf27     1.0000 0.37891  0.50320  0.87472  Biso   1.000  Hf
  Hf28     1.0000 0.88114  0.99788  0.38237  Biso   1.000  Hf
  La2      1.0000 0.87512  0.00740  0.88042  Biso   1.000  La
  Hf29     1.0000 0.87571  0.49764  0.37238  Biso   1.000  Hf
  Hf30     1.0000 0.87432  0.50033  0.86931  Biso   1.000  Hf
  Hf31     1.0000 0.00694  0.14538  0.49012  Biso   1.000  Hf
  Hf32     1.0000 0.00866  0.63677  0.99049  Biso   1.000  Hf
  Hf33     1.0000 0.99947  0.64202  0.49186  Biso   1.000  Hf
  Hf34     1.0000 0.43115  0.14992  0.97733  Biso   1.000  Hf
  Hf35     1.0000 0.50725  0.14265  0.49470  Biso   1.000  Hf
  Hf36     1.0000 0.50679  0.64142  0.99077  Biso   1.000  Hf
  Hf37     1.0000 0.50057  0.64367  0.48965  Biso   1.000  Hf
  Hf38     1.0000 0.99691  0.09819  0.25042  Biso   1.000  Hf
  Hf39     1.0000 0.00651  0.12531  0.73312  Biso   1.000  Hf
  Hf40     1.0000 0.99638  0.60656  0.23961  Biso   1.000  Hf
  Hf41     1.0000 0.00308  0.61242  0.74016  Biso   1.000  Hf
  Hf42     1.0000 0.48876  0.10657  0.23868  Biso   1.000  Hf
  Hf43     1.0000 0.50168  0.10193  0.74291  Biso   1.000  Hf
  Hf44     1.0000 0.49426  0.60450  0.23548  Biso   1.000  Hf
  Hf45     1.0000 0.50190  0.60451  0.74049  Biso   1.000  Hf
  Hf46     1.0000 0.00981  0.36624  0.25969  Biso   1.000  Hf
  Hf47     1.0000 0.00390  0.36553  0.75127  Biso   1.000  Hf
  Hf48     1.0000 0.01442  0.85497  0.26147  Biso   1.000  Hf
  Hf49     1.0000 0.00758  0.85799  0.75352  Biso   1.000  Hf
  Hf50     1.0000 0.50037  0.35876  0.26193  Biso   1.000  Hf
  Hf51     1.0000 0.50038  0.35681  0.75535  Biso   1.000  Hf
  Hf52     1.0000 0.51259  0.85154  0.26438  Biso   1.000  Hf
  Hf53     1.0000 0.49496  0.85038  0.76452  Biso   1.000  Hf
  Hf54     1.0000 0.00468  0.39434  0.99424  Biso   1.000  Hf
  Hf55     1.0000 0.99675  0.39517  0.50561  Biso   1.000  Hf
  Hf56     1.0000 0.99927  0.87596  0.02036  Biso   1.000  Hf
  Hf57     1.0000 0.00543  0.89352  0.51060  Biso   1.000  Hf
  Hf58     1.0000 0.49677  0.39169  0.01132  Biso   1.000  Hf
  Hf59     1.0000 0.49600  0.39377  0.50831  Biso   1.000  Hf
  Hf60     1.0000 0.49386  0.89551  0.01382  Biso   1.000  Hf
  Hf61     1.0000 0.50527  0.89400  0.51412  Biso   1.000  Hf
  Hf62     1.0000 0.23674  0.14903  0.22777  Biso   1.000  Hf
  Hf63     1.0000 0.25818  0.14164  0.76123  Biso   1.000  Hf
  Hf64     1.0000 0.25313  0.64792  0.26200  Biso   1.000  Hf
  Hf65     1.0000 0.25863  0.64627  0.76639  Biso   1.000  Hf
  Hf66     1.0000 0.73940  0.12182  0.27095  Biso   1.000  Hf
  Hf67     1.0000 0.74123  0.16228  0.75418  Biso   1.000  Hf
  Hf68     1.0000 0.75011  0.63653  0.26008  Biso   1.000  Hf
  Hf69     1.0000 0.75812  0.64779  0.76498  Biso   1.000  Hf
  Hf70     1.0000 0.07061  0.12689  0.99573  Biso   1.000  Hf
  Hf71     1.0000 0.25954  0.10302  0.50061  Biso   1.000  Hf
  Hf72     1.0000 0.26125  0.61206  0.01401  Biso   1.000  Hf
  Hf73     1.0000 0.25439  0.60343  0.51348  Biso   1.000  Hf
  Hf74     1.0000 0.69750  0.11227  0.01073  Biso   1.000  Hf
  Hf75     1.0000 0.76645  0.10372  0.51646  Biso   1.000  Hf
  Hf76     1.0000 0.76394  0.60767  0.01335  Biso   1.000  Hf
  Hf77     1.0000 0.75391  0.60667  0.50987  Biso   1.000  Hf
  Hf78     1.0000 0.25203  0.35624  0.99446  Biso   1.000  Hf
  Hf79     1.0000 0.25150  0.35087  0.49202  Biso   1.000  Hf
  Hf80     1.0000 0.24748  0.87671  0.98817  Biso   1.000  Hf
  Hf81     1.0000 0.26243  0.85099  0.48665  Biso   1.000  Hf
  Hf82     1.0000 0.73902  0.36821  0.96711  Biso   1.000  Hf
  Hf83     1.0000 0.75216  0.35282  0.48258  Biso   1.000  Hf
  Hf84     1.0000 0.74157  0.85149  0.00971  Biso   1.000  Hf
  Hf85     1.0000 0.75910  0.85529  0.49583  Biso   1.000  Hf
  Hf86     1.0000 0.25684  0.40186  0.24296  Biso   1.000  Hf
  Hf87     1.0000 0.25509  0.39618  0.74101  Biso   1.000  Hf
  Hf88     1.0000 0.27143  0.89767  0.23907  Biso   1.000  Hf
  Hf89     1.0000 0.25467  0.89333  0.73122  Biso   1.000  Hf
  Hf90     1.0000 0.74716  0.39310  0.24126  Biso   1.000  Hf
  Hf91     1.0000 0.77004  0.40947  0.71912  Biso   1.000  Hf
  Hf92     1.0000 0.76790  0.88237  0.24983  Biso   1.000  Hf
  Hf93     1.0000 0.74347  0.88695  0.74028  Biso   1.000  Hf
