data_image0
_cell_length_a       10.035
_cell_length_b       10.3879
_cell_length_c       10.0932
_cell_angle_alpha    89.6681
_cell_angle_beta     89.9366
_cell_angle_gamma    89.8142

_symmetry_space_group_name_H-M    "P 1"
_symmetry_int_tables_number       1

loop_
  _symmetry_equiv_pos_as_xyz
  'x, y, z'

loop_
  _atom_site_label
  _atom_site_occupancy
  _atom_site_fract_x
  _atom_site_fract_y
  _atom_site_fract_z
  _atom_site_thermal_displace_type
  _atom_site_B_iso_or_equiv
  _atom_site_type_symbol
  Hf1      1.0000 0.10320  0.98615  0.08952  Biso   1.000  Hf
  Hf2      1.0000 0.13209  0.01745  0.62143  Biso   1.000  Hf
  Hf3      1.0000 0.13659  0.51510  0.12672  Biso   1.000  Hf
  Hf4      1.0000 0.13366  0.51778  0.62390  Biso   1.000  Hf
  Hf5      1.0000 0.64156  0.01531  0.12609  Biso   1.000  Hf
  Hf6      1.0000 0.63513  0.01830  0.63103  Biso   1.000  Hf
  Hf7      1.0000 0.63415  0.51622  0.12717  Biso   1.000  Hf
  Hf8      1.0000 0.63131  0.51815  0.62599  Biso   1.000  Hf
  Hf9      1.0000 0.11788  0.24646  0.37790  Biso   1.000  Hf
  Hf10     1.0000 0.13317  0.23497  0.87037  Biso   1.000  Hf
  Hf11     1.0000 0.13484  0.73618  0.37294  Biso   1.000  Hf
  Hf12     1.0000 0.13573  0.73034  0.87253  Biso   1.000  Hf
  Hf13     1.0000 0.64305  0.23408  0.38453  Biso   1.000  Hf
  Hf14     1.0000 0.63640  0.23454  0.87600  Biso   1.000  Hf
  Hf15     1.0000 0.63192  0.73269  0.37782  Biso   1.000  Hf
  Hf16     1.0000 0.63276  0.72936  0.87404  Biso   1.000  Hf
  La1      1.0000 0.37197  0.25275  0.11951  Biso   1.000  La
  Hf17     1.0000 0.36721  0.26743  0.62269  Biso   1.000  Hf
  Hf18     1.0000 0.36771  0.76311  0.11828  Biso   1.000  Hf
  Hf19     1.0000 0.36393  0.76872  0.62343  Biso   1.000  Hf
  Hf20     1.0000 0.87304  0.26453  0.12735  Biso   1.000  Hf
  Hf21     1.0000 0.86522  0.26961  0.63313  Biso   1.000  Hf
  Hf22     1.0000 0.86117  0.76311  0.13115  Biso   1.000  Hf
  Hf23     1.0000 0.86595  0.76510  0.62352  Biso   1.000  Hf
  Hf24     1.0000 0.36704  0.48434  0.37590  Biso   1.000  Hf
  Hf25     1.0000 0.36569  0.48487  0.87066  Biso   1.000  Hf
  La2      1.0000 0.37373  0.99525  0.36252  Biso   1.000  La
  Hf26     1.0000 0.36811  0.98176  0.87225  Biso   1.000  Hf
  Hf27     1.0000 0.86471  0.48723  0.37735  Biso   1.000  Hf
  Hf28     1.0000 0.86668  0.48479  0.87765  Biso   1.000  Hf
  Hf29     1.0000 0.86561  0.98358  0.38226  Biso   1.000  Hf
  Hf30     1.0000 0.85837  0.97969  0.87140  Biso   1.000  Hf
  Hf31     1.0000 0.06653  0.16701  0.19268  Biso   1.000  Hf
  Hf32     1.0000 0.03519  0.18561  0.69292  Biso   1.000  Hf
  Hf33     1.0000 0.02952  0.67641  0.19811  Biso   1.000  Hf
  Hf34     1.0000 0.03238  0.68401  0.69925  Biso   1.000  Hf
  Hf35     1.0000 0.54330  0.15816  0.22596  Biso   1.000  Hf
  Hf36     1.0000 0.53641  0.18585  0.70066  Biso   1.000  Hf
  Hf37     1.0000 0.53750  0.68593  0.19532  Biso   1.000  Hf
  Hf38     1.0000 0.53381  0.68290  0.69573  Biso   1.000  Hf
  Hf39     1.0000 0.03264  0.06940  0.44458  Biso   1.000  Hf
  Hf40     1.0000 0.01945  0.07449  0.93149  Biso   1.000  Hf
  Hf41     1.0000 0.03337  0.56894  0.44782  Biso   1.000  Hf
  Hf42     1.0000 0.03110  0.57220  0.94903  Biso   1.000  Hf
  Hf43     1.0000 0.55014  0.07509  0.46437  Biso   1.000  Hf
  Hf44     1.0000 0.53012  0.07501  0.95323  Biso   1.000  Hf
  Hf45     1.0000 0.53670  0.56635  0.44635  Biso   1.000  Hf
  Hf46     1.0000 0.53583  0.56557  0.94785  Biso   1.000  Hf
  Hf47     1.0000 0.47343  0.43871  0.20380  Biso   1.000  Hf
  Hf48     1.0000 0.46102  0.43681  0.68803  Biso   1.000  Hf
  Hf49     1.0000 0.46345  0.93021  0.16130  Biso   1.000  Hf
  Hf50     1.0000 0.46539  0.93442  0.69383  Biso   1.000  Hf
  Hf51     1.0000 0.97303  0.42132  0.20450  Biso   1.000  Hf
  Hf52     1.0000 0.96691  0.43463  0.70055  Biso   1.000  Hf
  Hf53     1.0000 0.95312  0.92893  0.20236  Biso   1.000  Hf
  Hf54     1.0000 0.96389  0.93268  0.69630  Biso   1.000  Hf
  Hf55     1.0000 0.46641  0.31590  0.44462  Biso   1.000  Hf
  Hf56     1.0000 0.46970  0.32488  0.92890  Biso   1.000  Hf
  Hf57     1.0000 0.46893  0.81365  0.45039  Biso   1.000  Hf
  Hf58     1.0000 0.46355  0.81224  0.93277  Biso   1.000  Hf
  Hf59     1.0000 0.96042  0.32228  0.45447  Biso   1.000  Hf
  Hf60     1.0000 0.96639  0.31778  0.94783  Biso   1.000  Hf
  Hf61     1.0000 0.96341  0.81547  0.44519  Biso   1.000  Hf
  Hf62     1.0000 0.98287  0.83437  0.96865  Biso   1.000  Hf
  Hf63     1.0000 0.27155  0.11729  0.74259  Biso   1.000  Hf
  Hf64     1.0000 0.27061  0.61865  0.24706  Biso   1.000  Hf
  Hf65     1.0000 0.26783  0.61889  0.74649  Biso   1.000  Hf
  Hf66     1.0000 0.78558  0.12161  0.25336  Biso   1.000  Hf
  Hf67     1.0000 0.77019  0.11936  0.75454  Biso   1.000  Hf
  Hf68     1.0000 0.76954  0.61625  0.25013  Biso   1.000  Hf
  Hf69     1.0000 0.76953  0.61639  0.74900  Biso   1.000  Hf
  Hf70     1.0000 0.25587  0.14936  0.49201  Biso   1.000  Hf
  Hf71     1.0000 0.25164  0.11249  0.99194  Biso   1.000  Hf
  Hf72     1.0000 0.26981  0.63495  0.49710  Biso   1.000  Hf
  Hf73     1.0000 0.27000  0.62888  0.99610  Biso   1.000  Hf
  Hf74     1.0000 0.77984  0.13483  0.50716  Biso   1.000  Hf
  Hf75     1.0000 0.76899  0.12979  0.00346  Biso   1.000  Hf
  Hf76     1.0000 0.76970  0.63335  0.49948  Biso   1.000  Hf
  Hf77     1.0000 0.77258  0.63278  0.99898  Biso   1.000  Hf
  Hf78     1.0000 0.23023  0.38919  0.50013  Biso   1.000  Hf
  Hf79     1.0000 0.22402  0.38627  0.99025  Biso   1.000  Hf
  Hf80     1.0000 0.22082  0.87844  0.49970  Biso   1.000  Hf
  Hf81     1.0000 0.23480  0.87237  0.98760  Biso   1.000  Hf
  Hf82     1.0000 0.73209  0.38599  0.50345  Biso   1.000  Hf
  Hf83     1.0000 0.73467  0.37968  0.00505  Biso   1.000  Hf
  Hf84     1.0000 0.73015  0.88312  0.50330  Biso   1.000  Hf
  Hf85     1.0000 0.73097  0.87717  0.99847  Biso   1.000  Hf
  Hf86     1.0000 0.22618  0.37242  0.25608  Biso   1.000  Hf
  Hf87     1.0000 0.23108  0.36717  0.74586  Biso   1.000  Hf
  Hf88     1.0000 0.22000  0.86559  0.23250  Biso   1.000  Hf
  Hf89     1.0000 0.22897  0.86917  0.74620  Biso   1.000  Hf
  Hf90     1.0000 0.73602  0.36596  0.25112  Biso   1.000  Hf
  Hf91     1.0000 0.72940  0.37022  0.75324  Biso   1.000  Hf
  Hf92     1.0000 0.72339  0.86912  0.25255  Biso   1.000  Hf
  Hf93     1.0000 0.73189  0.86412  0.75072  Biso   1.000  Hf
