data_image0
_cell_length_a       10.0891
_cell_length_b       10.2067
_cell_length_c       10.0891
_cell_angle_alpha    89.8908
_cell_angle_beta     91.0435
_cell_angle_gamma    90.1219

_symmetry_space_group_name_H-M    "P 1"
_symmetry_int_tables_number       1

loop_
  _symmetry_equiv_pos_as_xyz
  'x, y, z'

loop_
  _atom_site_label
  _atom_site_occupancy
  _atom_site_fract_x
  _atom_site_fract_y
  _atom_site_fract_z
  _atom_site_thermal_displace_type
  _atom_site_B_iso_or_equiv
  _atom_site_type_symbol
  La1      1.0000 0.11856  0.00126  0.11622  Biso   1.000  La
  Hf1      1.0000 0.12963  0.00380  0.62460  Biso   1.000  Hf
  Hf2      1.0000 0.13714  0.50458  0.14021  Biso   1.000  Hf
  Hf3      1.0000 0.12651  0.50639  0.62230  Biso   1.000  Hf
  Hf4      1.0000 0.61739  0.00833  0.12857  Biso   1.000  Hf
  Hf5      1.0000 0.62678  0.00037  0.63029  Biso   1.000  Hf
  Hf6      1.0000 0.62254  0.50824  0.12841  Biso   1.000  Hf
  Hf7      1.0000 0.62354  0.50692  0.62251  Biso   1.000  Hf
  Hf8      1.0000 0.12446  0.25202  0.37277  Biso   1.000  Hf
  Hf9      1.0000 0.13639  0.25566  0.86438  Biso   1.000  Hf
  Hf10     1.0000 0.12445  0.75219  0.36989  Biso   1.000  Hf
  Hf11     1.0000 0.11393  0.71872  0.88676  Biso   1.000  Hf
  Hf12     1.0000 0.61886  0.25192  0.38177  Biso   1.000  Hf
  Hf13     1.0000 0.62795  0.25198  0.87629  Biso   1.000  Hf
  Hf14     1.0000 0.61947  0.76016  0.38129  Biso   1.000  Hf
  Hf15     1.0000 0.63085  0.75219  0.87621  Biso   1.000  Hf
  Hf16     1.0000 0.37357  0.25369  0.12491  Biso   1.000  Hf
  Hf17     1.0000 0.37772  0.25331  0.62308  Biso   1.000  Hf
  Hf18     1.0000 0.37528  0.75890  0.11694  Biso   1.000  Hf
  Hf19     1.0000 0.37297  0.75703  0.62777  Biso   1.000  Hf
  Hf20     1.0000 0.86218  0.25031  0.13854  Biso   1.000  Hf
  Hf21     1.0000 0.87586  0.25370  0.62711  Biso   1.000  Hf
  Hf22     1.0000 0.85489  0.75866  0.14583  Biso   1.000  Hf
  Hf23     1.0000 0.88382  0.75879  0.62538  Biso   1.000  Hf
  Hf24     1.0000 0.37050  0.00032  0.37403  Biso   1.000  Hf
  Hf25     1.0000 0.37609  0.00378  0.87111  Biso   1.000  Hf
  Hf26     1.0000 0.37829  0.50693  0.37717  Biso   1.000  Hf
  Hf27     1.0000 0.37850  0.50648  0.87436  Biso   1.000  Hf
  Hf28     1.0000 0.87223  0.00832  0.38337  Biso   1.000  Hf
  La2      1.0000 0.88452  0.00126  0.88215  Biso   1.000  La
  Hf29     1.0000 0.87236  0.50810  0.37812  Biso   1.000  Hf
  Hf30     1.0000 0.86056  0.50450  0.86354  Biso   1.000  Hf
  Hf31     1.0000 0.99787  0.15365  0.49558  Biso   1.000  Hf
  Hf32     1.0000 0.02565  0.55012  0.97507  Biso   1.000  Hf
  Hf33     1.0000 0.00399  0.65094  0.49129  Biso   1.000  Hf
  Hf34     1.0000 0.50518  0.15372  0.00300  Biso   1.000  Hf
  Hf35     1.0000 0.49878  0.14793  0.50200  Biso   1.000  Hf
  Hf36     1.0000 0.50932  0.65101  0.99667  Biso   1.000  Hf
  Hf37     1.0000 0.50328  0.64948  0.49743  Biso   1.000  Hf
  Hf38     1.0000 0.98105  0.12019  0.25444  Biso   1.000  Hf
  Hf39     1.0000 0.01416  0.12126  0.73939  Biso   1.000  Hf
  Hf40     1.0000 0.98755  0.61369  0.23629  Biso   1.000  Hf
  Hf41     1.0000 0.99052  0.61151  0.73688  Biso   1.000  Hf
  Hf42     1.0000 0.48856  0.10899  0.25041  Biso   1.000  Hf
  Hf43     1.0000 0.50689  0.10626  0.75262  Biso   1.000  Hf
  Hf44     1.0000 0.48703  0.60838  0.24104  Biso   1.000  Hf
  Hf45     1.0000 0.49538  0.60575  0.74399  Biso   1.000  Hf
  Hf46     1.0000 0.01421  0.36486  0.23480  Biso   1.000  Hf
  Hf47     1.0000 0.99114  0.36484  0.76566  Biso   1.000  Hf
  Hf48     1.0000 0.99008  0.86268  0.27081  Biso   1.000  Hf
  Hf49     1.0000 0.02741  0.85271  0.75242  Biso   1.000  Hf
  Hf50     1.0000 0.51219  0.36016  0.24880  Biso   1.000  Hf
  Hf51     1.0000 0.49412  0.35656  0.75650  Biso   1.000  Hf
  Hf52     1.0000 0.50434  0.85970  0.25360  Biso   1.000  Hf
  Hf53     1.0000 0.50858  0.85484  0.75660  Biso   1.000  Hf
  Hf54     1.0000 0.00095  0.19401  0.99984  Biso   1.000  Hf
  Hf55     1.0000 0.99771  0.40177  0.50197  Biso   1.000  Hf
  Hf56     1.0000 0.98961  0.81846  0.01110  Biso   1.000  Hf
  Hf57     1.0000 0.98884  0.90422  0.51611  Biso   1.000  Hf
  Hf58     1.0000 0.49889  0.40181  0.00301  Biso   1.000  Hf
  Hf59     1.0000 0.49771  0.39793  0.50301  Biso   1.000  Hf
  Hf60     1.0000 0.48455  0.90433  0.01204  Biso   1.000  Hf
  Hf61     1.0000 0.49436  0.90008  0.50647  Biso   1.000  Hf
  Hf62     1.0000 0.24701  0.14975  0.25022  Biso   1.000  Hf
  Hf63     1.0000 0.25704  0.15183  0.74378  Biso   1.000  Hf
  Hf64     1.0000 0.24142  0.64098  0.25355  Biso   1.000  Hf
  Hf65     1.0000 0.24851  0.65112  0.75224  Biso   1.000  Hf
  Hf66     1.0000 0.73760  0.14800  0.26315  Biso   1.000  Hf
  Hf67     1.0000 0.75056  0.14973  0.75376  Biso   1.000  Hf
  Hf68     1.0000 0.73494  0.64476  0.26588  Biso   1.000  Hf
  Hf69     1.0000 0.74719  0.64093  0.75933  Biso   1.000  Hf
  Hf70     1.0000 0.26135  0.12127  0.98662  Biso   1.000  Hf
  Hf71     1.0000 0.24821  0.10623  0.49388  Biso   1.000  Hf
  Hf72     1.0000 0.26380  0.61157  0.01027  Biso   1.000  Hf
  Hf73     1.0000 0.25674  0.60571  0.50534  Biso   1.000  Hf
  Hf74     1.0000 0.74629  0.12011  0.01968  Biso   1.000  Hf
  Hf75     1.0000 0.75041  0.10893  0.51222  Biso   1.000  Hf
  Hf76     1.0000 0.76432  0.61360  0.01320  Biso   1.000  Hf
  Hf77     1.0000 0.75970  0.60827  0.51373  Biso   1.000  Hf
  Hf78     1.0000 0.23509  0.36485  0.00969  Biso   1.000  Hf
  Hf79     1.0000 0.24424  0.35647  0.50677  Biso   1.000  Hf
  Hf80     1.0000 0.24827  0.85271  0.97329  Biso   1.000  Hf
  Hf81     1.0000 0.24429  0.85476  0.49208  Biso   1.000  Hf
  Hf82     1.0000 0.76617  0.36469  0.98630  Biso   1.000  Hf
  Hf83     1.0000 0.75207  0.36005  0.48827  Biso   1.000  Hf
  Hf84     1.0000 0.72989  0.86263  0.01066  Biso   1.000  Hf
  Hf85     1.0000 0.74726  0.85964  0.49637  Biso   1.000  Hf
  Hf86     1.0000 0.26473  0.39241  0.25726  Biso   1.000  Hf
  Hf87     1.0000 0.24549  0.40315  0.75534  Biso   1.000  Hf
  Hf88     1.0000 0.26106  0.88413  0.24552  Biso   1.000  Hf
  Hf89     1.0000 0.27746  0.91154  0.72324  Biso   1.000  Hf
  Hf90     1.0000 0.76271  0.40242  0.23780  Biso   1.000  Hf
  Hf91     1.0000 0.74362  0.39240  0.73574  Biso   1.000  Hf
  Hf92     1.0000 0.75060  0.90172  0.25015  Biso   1.000  Hf
  Hf93     1.0000 0.75519  0.88405  0.73965  Biso   1.000  Hf
