data_image0
_cell_length_a       10.1168
_cell_length_b       10.3114
_cell_length_c       10.4986
_cell_angle_alpha    90.0557
_cell_angle_beta     90.4453
_cell_angle_gamma    90.3132

_symmetry_space_group_name_H-M    "P 1"
_symmetry_int_tables_number       1

loop_
  _symmetry_equiv_pos_as_xyz
  'x, y, z'

loop_
  _atom_site_label
  _atom_site_occupancy
  _atom_site_fract_x
  _atom_site_fract_y
  _atom_site_fract_z
  _atom_site_thermal_displace_type
  _atom_site_B_iso_or_equiv
  _atom_site_type_symbol
  La1      1.0000 0.13048  0.01107  0.16180  Biso   1.000  La
  Hf1      1.0000 0.13968  0.01999  0.67435  Biso   1.000  Hf
  Hf2      1.0000 0.14703  0.51860  0.16327  Biso   1.000  Hf
  Hf3      1.0000 0.13802  0.52081  0.66866  Biso   1.000  Hf
  Hf4      1.0000 0.14039  0.22398  0.42512  Biso   1.000  Hf
  Hf5      1.0000 0.13764  0.23282  0.91756  Biso   1.000  Hf
  Hf6      1.0000 0.14099  0.73443  0.42550  Biso   1.000  Hf
  Hf7      1.0000 0.14086  0.72757  0.91781  Biso   1.000  Hf
  Hf8      1.0000 0.36100  0.26803  0.17019  Biso   1.000  Hf
  Hf9      1.0000 0.36038  0.27012  0.67131  Biso   1.000  Hf
  Hf10     1.0000 0.36561  0.76881  0.16866  Biso   1.000  Hf
  Hf11     1.0000 0.36144  0.77104  0.67182  Biso   1.000  Hf
  Hf12     1.0000 0.35791  0.47700  0.41874  Biso   1.000  Hf
  Hf13     1.0000 0.36227  0.47813  0.91880  Biso   1.000  Hf
  Hf14     1.0000 0.36194  0.98130  0.42223  Biso   1.000  Hf
  Hf15     1.0000 0.36579  0.98041  0.91953  Biso   1.000  Hf
  Hf16     1.0000 0.64210  0.02298  0.08128  Biso   1.000  Hf
  Hf17     1.0000 0.63772  0.02186  0.58120  Biso   1.000  Hf
  Hf18     1.0000 0.63807  0.51871  0.07778  Biso   1.000  Hf
  Hf19     1.0000 0.63420  0.51961  0.58045  Biso   1.000  Hf
  Hf20     1.0000 0.63901  0.23196  0.32982  Biso   1.000  Hf
  Hf21     1.0000 0.63961  0.22987  0.82870  Biso   1.000  Hf
  Hf22     1.0000 0.63439  0.73120  0.33132  Biso   1.000  Hf
  Hf23     1.0000 0.63855  0.72896  0.82817  Biso   1.000  Hf
  Hf24     1.0000 0.85963  0.27603  0.07487  Biso   1.000  Hf
  Hf25     1.0000 0.86235  0.26716  0.58244  Biso   1.000  Hf
  Hf26     1.0000 0.85903  0.76557  0.07448  Biso   1.000  Hf
  Hf27     1.0000 0.85914  0.77244  0.58217  Biso   1.000  Hf
  La2      1.0000 0.86952  0.48891  0.33821  Biso   1.000  La
  Hf28     1.0000 0.86032  0.47999  0.82565  Biso   1.000  Hf
  Hf29     1.0000 0.85299  0.98142  0.33673  Biso   1.000  Hf
  Hf30     1.0000 0.86196  0.97920  0.83134  Biso   1.000  Hf
  Hf31     1.0000 0.03413  0.18906  0.08117  Biso   1.000  Hf
  Hf32     1.0000 0.03840  0.17076  0.59928  Biso   1.000  Hf
  Hf33     1.0000 0.03809  0.67400  0.08716  Biso   1.000  Hf
  Hf34     1.0000 0.03103  0.66765  0.58484  Biso   1.000  Hf
  Hf35     1.0000 0.02897  0.07405  0.35558  Biso   1.000  Hf
  Hf36     1.0000 0.03765  0.07614  0.84345  Biso   1.000  Hf
  Hf37     1.0000 0.06946  0.58025  0.33444  Biso   1.000  Hf
  Hf38     1.0000 0.03491  0.58039  0.83361  Biso   1.000  Hf
  Hf39     1.0000 0.46701  0.41305  0.08093  Biso   1.000  Hf
  Hf40     1.0000 0.46306  0.41474  0.58337  Biso   1.000  Hf
  Hf41     1.0000 0.47177  0.91606  0.08257  Biso   1.000  Hf
  Hf42     1.0000 0.46881  0.91297  0.58223  Biso   1.000  Hf
  Hf43     1.0000 0.46770  0.33688  0.33182  Biso   1.000  Hf
  Hf44     1.0000 0.46821  0.33507  0.83186  Biso   1.000  Hf
  Hf45     1.0000 0.47044  0.83994  0.33140  Biso   1.000  Hf
  Hf46     1.0000 0.47015  0.83720  0.83037  Biso   1.000  Hf
  Hf47     1.0000 0.28196  0.12655  0.30218  Biso   1.000  Hf
  Hf48     1.0000 0.27581  0.12448  0.79348  Biso   1.000  Hf
  Hf49     1.0000 0.29257  0.61858  0.28796  Biso   1.000  Hf
  Hf50     1.0000 0.27584  0.62407  0.79255  Biso   1.000  Hf
  Hf51     1.0000 0.28524  0.13249  0.03496  Biso   1.000  Hf
  Hf52     1.0000 0.27699  0.12392  0.54802  Biso   1.000  Hf
  Hf53     1.0000 0.27626  0.62125  0.04054  Biso   1.000  Hf
  Hf54     1.0000 0.27432  0.62657  0.54386  Biso   1.000  Hf
  Hf55     1.0000 0.22290  0.36966  0.29054  Biso   1.000  Hf
  Hf56     1.0000 0.22449  0.37501  0.79135  Biso   1.000  Hf
  Hf57     1.0000 0.23435  0.86202  0.30085  Biso   1.000  Hf
  Hf58     1.0000 0.22566  0.87268  0.79272  Biso   1.000  Hf
  Hf59     1.0000 0.22709  0.37575  0.03992  Biso   1.000  Hf
  Hf60     1.0000 0.22210  0.37553  0.54332  Biso   1.000  Hf
  Hf61     1.0000 0.24281  0.86202  0.03274  Biso   1.000  Hf
  Hf62     1.0000 0.22530  0.87867  0.54754  Biso   1.000  Hf
  Hf63     1.0000 0.53230  0.16311  0.16819  Biso   1.000  Hf
  Hf64     1.0000 0.53179  0.16489  0.66815  Biso   1.000  Hf
  Hf65     1.0000 0.52957  0.66009  0.16858  Biso   1.000  Hf
  Hf66     1.0000 0.52985  0.66282  0.66960  Biso   1.000  Hf
  Hf67     1.0000 0.53300  0.08698  0.41908  Biso   1.000  Hf
  Hf68     1.0000 0.53694  0.08525  0.91664  Biso   1.000  Hf
  Hf69     1.0000 0.52823  0.58395  0.41744  Biso   1.000  Hf
  Hf70     1.0000 0.53118  0.58700  0.91774  Biso   1.000  Hf
  Hf71     1.0000 0.97105  0.42597  0.14443  Biso   1.000  Hf
  Hf72     1.0000 0.96234  0.42385  0.65656  Biso   1.000  Hf
  Hf73     1.0000 0.93052  0.91978  0.16554  Biso   1.000  Hf
  Hf74     1.0000 0.96508  0.91961  0.66639  Biso   1.000  Hf
  Hf75     1.0000 0.96587  0.31093  0.41889  Biso   1.000  Hf
  Hf76     1.0000 0.96160  0.32920  0.90075  Biso   1.000  Hf
  Hf77     1.0000 0.96189  0.82605  0.41283  Biso   1.000  Hf
  Hf78     1.0000 0.96898  0.83234  0.91512  Biso   1.000  Hf
  Hf79     1.0000 0.77787  0.12448  0.95671  Biso   1.000  Hf
  Hf80     1.0000 0.77291  0.12424  0.46012  Biso   1.000  Hf
  Hf81     1.0000 0.77470  0.62134  0.95243  Biso   1.000  Hf
  Hf82     1.0000 0.75721  0.63799  0.46725  Biso   1.000  Hf
  Hf83     1.0000 0.77707  0.13034  0.20947  Biso   1.000  Hf
  Hf84     1.0000 0.77550  0.12496  0.70866  Biso   1.000  Hf
  Hf85     1.0000 0.76568  0.63800  0.19915  Biso   1.000  Hf
  Hf86     1.0000 0.77435  0.62733  0.70729  Biso   1.000  Hf
  Hf87     1.0000 0.72299  0.37607  0.95198  Biso   1.000  Hf
  Hf88     1.0000 0.71477  0.36750  0.46507  Biso   1.000  Hf
  Hf89     1.0000 0.72568  0.87343  0.95611  Biso   1.000  Hf
  Hf90     1.0000 0.72374  0.87875  0.45946  Biso   1.000  Hf
  Hf91     1.0000 0.71803  0.37343  0.19781  Biso   1.000  Hf
  Hf92     1.0000 0.72419  0.37550  0.70651  Biso   1.000  Hf
  Hf93     1.0000 0.70744  0.88144  0.21206  Biso   1.000  Hf
  Hf94     1.0000 0.72416  0.87593  0.70745  Biso   1.000  Hf
