data_image0
_cell_length_a       10.2172
_cell_length_b       10.3326
_cell_length_c       10.5061
_cell_angle_alpha    90.064
_cell_angle_beta     80.6553
_cell_angle_gamma    90.3629

_symmetry_space_group_name_H-M    "P 1"
_symmetry_int_tables_number       1

loop_
  _symmetry_equiv_pos_as_xyz
  'x, y, z'

loop_
  _atom_site_label
  _atom_site_occupancy
  _atom_site_fract_x
  _atom_site_fract_y
  _atom_site_fract_z
  _atom_site_thermal_displace_type
  _atom_site_B_iso_or_equiv
  _atom_site_type_symbol
  La1      1.0000 0.13117  0.01062  0.14016  Biso   1.000  La
  Hf1      1.0000 0.13945  0.02086  0.64819  Biso   1.000  Hf
  Hf2      1.0000 0.14796  0.52032  0.13726  Biso   1.000  Hf
  Hf3      1.0000 0.13753  0.52109  0.64415  Biso   1.000  Hf
  Hf4      1.0000 0.64240  0.02196  0.14792  Biso   1.000  Hf
  Hf5      1.0000 0.63791  0.02333  0.64750  Biso   1.000  Hf
  Hf6      1.0000 0.63704  0.51816  0.14602  Biso   1.000  Hf
  Hf7      1.0000 0.63599  0.52107  0.64776  Biso   1.000  Hf
  Hf8      1.0000 0.14073  0.22509  0.39886  Biso   1.000  Hf
  Hf9      1.0000 0.13744  0.23198  0.89300  Biso   1.000  Hf
  Hf10     1.0000 0.14140  0.73376  0.39950  Biso   1.000  Hf
  Hf11     1.0000 0.14074  0.72751  0.89325  Biso   1.000  Hf
  Hf12     1.0000 0.63823  0.23292  0.39655  Biso   1.000  Hf
  Hf13     1.0000 0.64010  0.22949  0.89696  Biso   1.000  Hf
  Hf14     1.0000 0.62949  0.73040  0.39822  Biso   1.000  Hf
  Hf15     1.0000 0.64221  0.72825  0.89441  Biso   1.000  Hf
  Hf16     1.0000 0.36166  0.26702  0.10341  Biso   1.000  Hf
  Hf17     1.0000 0.35978  0.27046  0.60302  Biso   1.000  Hf
  Hf18     1.0000 0.37043  0.76953  0.10168  Biso   1.000  Hf
  Hf19     1.0000 0.35769  0.77172  0.60553  Biso   1.000  Hf
  Hf20     1.0000 0.85918  0.27485  0.10111  Biso   1.000  Hf
  Hf21     1.0000 0.86243  0.26796  0.60700  Biso   1.000  Hf
  Hf22     1.0000 0.85856  0.76620  0.10043  Biso   1.000  Hf
  Hf23     1.0000 0.85917  0.77246  0.60671  Biso   1.000  Hf
  Hf24     1.0000 0.35749  0.47796  0.35202  Biso   1.000  Hf
  Hf25     1.0000 0.36198  0.47661  0.85244  Biso   1.000  Hf
  Hf26     1.0000 0.36289  0.98179  0.35392  Biso   1.000  Hf
  Hf27     1.0000 0.36388  0.97892  0.85217  Biso   1.000  Hf
  La2      1.0000 0.86871  0.48931  0.35980  Biso   1.000  La
  Hf28     1.0000 0.86045  0.47909  0.85176  Biso   1.000  Hf
  Hf29     1.0000 0.85192  0.97964  0.36274  Biso   1.000  Hf
  Hf30     1.0000 0.86236  0.97887  0.85581  Biso   1.000  Hf
  Hf31     1.0000 0.03513  0.18907  0.07522  Biso   1.000  Hf
  Hf32     1.0000 0.04019  0.17285  0.59255  Biso   1.000  Hf
  Hf33     1.0000 0.03922  0.67424  0.08113  Biso   1.000  Hf
  Hf34     1.0000 0.03263  0.66892  0.57983  Biso   1.000  Hf
  Hf35     1.0000 0.53666  0.16709  0.07856  Biso   1.000  Hf
  Hf36     1.0000 0.53060  0.16504  0.57875  Biso   1.000  Hf
  Hf37     1.0000 0.53882  0.66544  0.07466  Biso   1.000  Hf
  Hf38     1.0000 0.52303  0.66226  0.58008  Biso   1.000  Hf
  Hf39     1.0000 0.02918  0.07492  0.35052  Biso   1.000  Hf
  Hf40     1.0000 0.03913  0.07521  0.83680  Biso   1.000  Hf
  Hf41     1.0000 0.06972  0.57981  0.32226  Biso   1.000  Hf
  Hf42     1.0000 0.03584  0.57906  0.82882  Biso   1.000  Hf
  Hf43     1.0000 0.53575  0.08500  0.32898  Biso   1.000  Hf
  Hf44     1.0000 0.53621  0.08456  0.82768  Biso   1.000  Hf
  Hf45     1.0000 0.53155  0.58086  0.32938  Biso   1.000  Hf
  Hf46     1.0000 0.53371  0.58411  0.82780  Biso   1.000  Hf
  Hf47     1.0000 0.46413  0.41494  0.17099  Biso   1.000  Hf
  Hf48     1.0000 0.46371  0.41539  0.67225  Biso   1.000  Hf
  Hf49     1.0000 0.46833  0.91907  0.17058  Biso   1.000  Hf
  Hf50     1.0000 0.46621  0.91582  0.67216  Biso   1.000  Hf
  Hf51     1.0000 0.97069  0.42505  0.14942  Biso   1.000  Hf
  Hf52     1.0000 0.96077  0.42472  0.66320  Biso   1.000  Hf
  Hf53     1.0000 0.93009  0.92022  0.17767  Biso   1.000  Hf
  Hf54     1.0000 0.96409  0.92088  0.67116  Biso   1.000  Hf
  Hf55     1.0000 0.46322  0.33283  0.42139  Biso   1.000  Hf
  Hf56     1.0000 0.46930  0.33491  0.92119  Biso   1.000  Hf
  Hf57     1.0000 0.46107  0.83451  0.42531  Biso   1.000  Hf
  Hf58     1.0000 0.47688  0.83774  0.91987  Biso   1.000  Hf
  Hf59     1.0000 0.96477  0.31086  0.42481  Biso   1.000  Hf
  Hf60     1.0000 0.95968  0.32706  0.90747  Biso   1.000  Hf
  Hf61     1.0000 0.96069  0.82575  0.41882  Biso   1.000  Hf
  Hf62     1.0000 0.96727  0.83103  0.92009  Biso   1.000  Hf
  Hf63     1.0000 0.28323  0.13239  0.24737  Biso   1.000  Hf
  Hf64     1.0000 0.27607  0.12929  0.73919  Biso   1.000  Hf
  Hf65     1.0000 0.29348  0.62289  0.22969  Biso   1.000  Hf
  Hf66     1.0000 0.27379  0.62870  0.73934  Biso   1.000  Hf
  Hf67     1.0000 0.77711  0.13188  0.24402  Biso   1.000  Hf
  Hf68     1.0000 0.77707  0.12757  0.74319  Biso   1.000  Hf
  Hf69     1.0000 0.76177  0.64070  0.23644  Biso   1.000  Hf
  Hf70     1.0000 0.77580  0.62904  0.74198  Biso   1.000  Hf
  Hf71     1.0000 0.27611  0.11947  0.49317  Biso   1.000  Hf
  Hf72     1.0000 0.28438  0.12670  0.97978  Biso   1.000  Hf
  Hf73     1.0000 0.27349  0.62196  0.48990  Biso   1.000  Hf
  Hf74     1.0000 0.27755  0.61782  0.98568  Biso   1.000  Hf
  Hf75     1.0000 0.77056  0.12265  0.49533  Biso   1.000  Hf
  Hf76     1.0000 0.77661  0.12068  0.99170  Biso   1.000  Hf
  Hf77     1.0000 0.75782  0.63523  0.50467  Biso   1.000  Hf
  Hf78     1.0000 0.77675  0.61864  0.98814  Biso   1.000  Hf
  Hf79     1.0000 0.22935  0.37733  0.00465  Biso   1.000  Hf
  Hf80     1.0000 0.22325  0.37925  0.50831  Biso   1.000  Hf
  Hf81     1.0000 0.24209  0.86478  0.99524  Biso   1.000  Hf
  Hf82     1.0000 0.22314  0.88132  0.51180  Biso   1.000  Hf
  Hf83     1.0000 0.72378  0.38047  0.00679  Biso   1.000  Hf
  Hf84     1.0000 0.71549  0.37325  0.52020  Biso   1.000  Hf
  Hf85     1.0000 0.72643  0.87797  0.01002  Biso   1.000  Hf
  Hf86     1.0000 0.72232  0.88209  0.51426  Biso   1.000  Hf
  Hf87     1.0000 0.22274  0.36805  0.25596  Biso   1.000  Hf
  Hf88     1.0000 0.22281  0.37231  0.75679  Biso   1.000  Hf
  Hf89     1.0000 0.23816  0.85925  0.26347  Biso   1.000  Hf
  Hf90     1.0000 0.22411  0.87088  0.75798  Biso   1.000  Hf
  Hf91     1.0000 0.71665  0.36759  0.25258  Biso   1.000  Hf
  Hf92     1.0000 0.72383  0.37065  0.76078  Biso   1.000  Hf
  Hf93     1.0000 0.70640  0.87709  0.27028  Biso   1.000  Hf
  Hf94     1.0000 0.72610  0.87122  0.76062  Biso   1.000  Hf
