data_image0
_cell_length_a       10.1338
_cell_length_b       10.3105
_cell_length_c       10.4659
_cell_angle_alpha    90.0708
_cell_angle_beta     90.4263
_cell_angle_gamma    89.991

_symmetry_space_group_name_H-M    "P 1"
_symmetry_int_tables_number       1

loop_
  _symmetry_equiv_pos_as_xyz
  'x, y, z'

loop_
  _atom_site_label
  _atom_site_occupancy
  _atom_site_fract_x
  _atom_site_fract_y
  _atom_site_fract_z
  _atom_site_thermal_displace_type
  _atom_site_B_iso_or_equiv
  _atom_site_type_symbol
  La1      1.0000 0.12924  0.00656  0.15794  Biso   1.000  La
  Hf1      1.0000 0.13936  0.02203  0.67278  Biso   1.000  Hf
  Hf2      1.0000 0.14146  0.52213  0.16917  Biso   1.000  Hf
  Hf3      1.0000 0.13985  0.52184  0.67106  Biso   1.000  Hf
  La2      1.0000 0.13241  0.23483  0.41151  Biso   1.000  La
  Hf4      1.0000 0.13937  0.23418  0.91958  Biso   1.000  Hf
  Hf5      1.0000 0.14041  0.72858  0.42142  Biso   1.000  Hf
  Hf6      1.0000 0.14197  0.72817  0.91911  Biso   1.000  Hf
  Hf7      1.0000 0.36440  0.26791  0.16740  Biso   1.000  Hf
  Hf8      1.0000 0.36158  0.27026  0.67099  Biso   1.000  Hf
  Hf9      1.0000 0.36700  0.76806  0.17106  Biso   1.000  Hf
  Hf10     1.0000 0.35973  0.77227  0.66974  Biso   1.000  Hf
  Hf11     1.0000 0.36468  0.48166  0.41964  Biso   1.000  Hf
  Hf12     1.0000 0.36137  0.47871  0.92060  Biso   1.000  Hf
  Hf13     1.0000 0.36038  0.98078  0.42035  Biso   1.000  Hf
  Hf14     1.0000 0.36626  0.98083  0.91847  Biso   1.000  Hf
  Hf15     1.0000 0.64232  0.02113  0.08017  Biso   1.000  Hf
  Hf16     1.0000 0.63649  0.01966  0.58175  Biso   1.000  Hf
  Hf17     1.0000 0.63795  0.51910  0.07663  Biso   1.000  Hf
  Hf18     1.0000 0.63887  0.52107  0.57911  Biso   1.000  Hf
  Hf19     1.0000 0.63883  0.23036  0.33107  Biso   1.000  Hf
  Hf20     1.0000 0.63911  0.22949  0.83078  Biso   1.000  Hf
  Hf21     1.0000 0.63911  0.72911  0.32995  Biso   1.000  Hf
  Hf22     1.0000 0.63802  0.72950  0.82628  Biso   1.000  Hf
  Hf23     1.0000 0.86046  0.27403  0.07910  Biso   1.000  Hf
  Hf24     1.0000 0.85483  0.26940  0.58477  Biso   1.000  Hf
  Hf25     1.0000 0.85798  0.76512  0.07532  Biso   1.000  Hf
  Hf26     1.0000 0.86265  0.77015  0.58010  Biso   1.000  Hf
  Hf27     1.0000 0.85843  0.48418  0.32729  Biso   1.000  Hf
  Hf28     1.0000 0.86226  0.47956  0.82735  Biso   1.000  Hf
  Hf29     1.0000 0.84935  0.97807  0.33353  Biso   1.000  Hf
  Hf30     1.0000 0.86252  0.97893  0.83117  Biso   1.000  Hf
  Hf31     1.0000 0.03795  0.19455  0.09010  Biso   1.000  Hf
  Hf32     1.0000 0.02463  0.16873  0.60553  Biso   1.000  Hf
  Hf33     1.0000 0.03881  0.67867  0.09025  Biso   1.000  Hf
  Hf34     1.0000 0.03536  0.66898  0.58814  Biso   1.000  Hf
  Hf35     1.0000 0.02430  0.05341  0.35281  Biso   1.000  Hf
  Hf36     1.0000 0.03769  0.07628  0.84701  Biso   1.000  Hf
  Hf37     1.0000 0.03767  0.57560  0.33971  Biso   1.000  Hf
  Hf38     1.0000 0.03510  0.58010  0.83753  Biso   1.000  Hf
  Hf39     1.0000 0.47000  0.41292  0.07941  Biso   1.000  Hf
  Hf40     1.0000 0.47175  0.41332  0.58282  Biso   1.000  Hf
  Hf41     1.0000 0.47188  0.91712  0.08339  Biso   1.000  Hf
  Hf42     1.0000 0.46773  0.91273  0.58268  Biso   1.000  Hf
  Hf43     1.0000 0.47058  0.33576  0.33340  Biso   1.000  Hf
  Hf44     1.0000 0.46814  0.33499  0.83271  Biso   1.000  Hf
  Hf45     1.0000 0.47242  0.83712  0.33273  Biso   1.000  Hf
  Hf46     1.0000 0.47007  0.83692  0.82965  Biso   1.000  Hf
  Hf47     1.0000 0.29458  0.11945  0.28941  Biso   1.000  Hf
  Hf48     1.0000 0.27485  0.12555  0.79330  Biso   1.000  Hf
  Hf49     1.0000 0.27652  0.62604  0.29500  Biso   1.000  Hf
  Hf50     1.0000 0.27618  0.62479  0.79394  Biso   1.000  Hf
  Hf51     1.0000 0.28555  0.13373  0.03230  Biso   1.000  Hf
  Hf52     1.0000 0.28101  0.12051  0.55239  Biso   1.000  Hf
  Hf53     1.0000 0.27593  0.62057  0.04495  Biso   1.000  Hf
  Hf54     1.0000 0.27670  0.62917  0.54394  Biso   1.000  Hf
  Hf55     1.0000 0.24157  0.38668  0.28176  Biso   1.000  Hf
  Hf56     1.0000 0.22497  0.37468  0.79392  Biso   1.000  Hf
  Hf57     1.0000 0.23379  0.86282  0.30002  Biso   1.000  Hf
  Hf58     1.0000 0.22518  0.87399  0.79192  Biso   1.000  Hf
  Hf59     1.0000 0.22435  0.37875  0.04043  Biso   1.000  Hf
  Hf60     1.0000 0.23386  0.38679  0.54966  Biso   1.000  Hf
  Hf61     1.0000 0.24637  0.86065  0.03162  Biso   1.000  Hf
  Hf62     1.0000 0.22173  0.87707  0.54483  Biso   1.000  Hf
  Hf63     1.0000 0.53852  0.16773  0.16412  Biso   1.000  Hf
  Hf64     1.0000 0.53343  0.16554  0.66747  Biso   1.000  Hf
  Hf65     1.0000 0.53273  0.66003  0.16881  Biso   1.000  Hf
  Hf66     1.0000 0.53119  0.66427  0.66667  Biso   1.000  Hf
  Hf67     1.0000 0.53448  0.08352  0.41719  Biso   1.000  Hf
  Hf68     1.0000 0.53813  0.08354  0.91514  Biso   1.000  Hf
  Hf69     1.0000 0.53270  0.58772  0.41841  Biso   1.000  Hf
  Hf70     1.0000 0.53124  0.58743  0.91694  Biso   1.000  Hf
  Hf71     1.0000 0.96345  0.42719  0.16167  Biso   1.000  Hf
  Hf72     1.0000 0.96562  0.42039  0.66106  Biso   1.000  Hf
  Hf73     1.0000 0.92550  0.92481  0.15716  Biso   1.000  Hf
  Hf74     1.0000 0.96585  0.91656  0.66661  Biso   1.000  Hf
  Hf75     1.0000 0.93426  0.32904  0.41327  Biso   1.000  Hf
  Hf76     1.0000 0.96232  0.33153  0.90849  Biso   1.000  Hf
  Hf77     1.0000 0.95998  0.82220  0.41003  Biso   1.000  Hf
  Hf78     1.0000 0.96921  0.83117  0.91517  Biso   1.000  Hf
  Hf79     1.0000 0.77880  0.12477  0.95847  Biso   1.000  Hf
  Hf80     1.0000 0.77089  0.12323  0.46207  Biso   1.000  Hf
  Hf81     1.0000 0.77411  0.62195  0.95220  Biso   1.000  Hf
  Hf82     1.0000 0.77584  0.62299  0.45536  Biso   1.000  Hf
  Hf83     1.0000 0.77642  0.12940  0.21041  Biso   1.000  Hf
  Hf84     1.0000 0.77279  0.12422  0.71075  Biso   1.000  Hf
  Hf85     1.0000 0.77436  0.62852  0.20343  Biso   1.000  Hf
  Hf86     1.0000 0.77557  0.62657  0.70409  Biso   1.000  Hf
  Hf87     1.0000 0.72407  0.37538  0.95454  Biso   1.000  Hf
  Hf88     1.0000 0.71208  0.37535  0.45804  Biso   1.000  Hf
  Hf89     1.0000 0.72576  0.87331  0.95378  Biso   1.000  Hf
  Hf90     1.0000 0.72245  0.87159  0.45960  Biso   1.000  Hf
  Hf91     1.0000 0.72396  0.37849  0.20550  Biso   1.000  Hf
  Hf92     1.0000 0.72458  0.37600  0.70717  Biso   1.000  Hf
  Hf93     1.0000 0.70823  0.87454  0.20783  Biso   1.000  Hf
  Hf94     1.0000 0.72565  0.87487  0.70608  Biso   1.000  Hf
