data_image0
_cell_length_a       10.0539
_cell_length_b       10.4092
_cell_length_c       10.087
_cell_angle_alpha    90.2851
_cell_angle_beta     89.9144
_cell_angle_gamma    90.0383

_symmetry_space_group_name_H-M    "P 1"
_symmetry_int_tables_number       1

loop_
  _symmetry_equiv_pos_as_xyz
  'x, y, z'

loop_
  _atom_site_label
  _atom_site_occupancy
  _atom_site_fract_x
  _atom_site_fract_y
  _atom_site_fract_z
  _atom_site_thermal_displace_type
  _atom_site_B_iso_or_equiv
  _atom_site_type_symbol
  La1      1.0000 0.12739  0.99735  0.12407  Biso   1.000  La
  Hf1      1.0000 0.13296  0.01499  0.62393  Biso   1.000  Hf
  Hf2      1.0000 0.13572  0.51872  0.12629  Biso   1.000  Hf
  Hf3      1.0000 0.13388  0.51800  0.62442  Biso   1.000  Hf
  Hf4      1.0000 0.63019  0.01160  0.12482  Biso   1.000  Hf
  Hf5      1.0000 0.63323  0.01747  0.62512  Biso   1.000  Hf
  Hf6      1.0000 0.63548  0.51320  0.12701  Biso   1.000  Hf
  Hf7      1.0000 0.63341  0.51456  0.62465  Biso   1.000  Hf
  Hf8      1.0000 0.14026  0.23429  0.38376  Biso   1.000  Hf
  Hf9      1.0000 0.13823  0.23442  0.86885  Biso   1.000  Hf
  Hf10     1.0000 0.13542  0.73228  0.37843  Biso   1.000  Hf
  Hf11     1.0000 0.13611  0.73207  0.87534  Biso   1.000  Hf
  Hf12     1.0000 0.63306  0.23475  0.37410  Biso   1.000  Hf
  Hf13     1.0000 0.62975  0.23551  0.87220  Biso   1.000  Hf
  Hf14     1.0000 0.63360  0.73077  0.37887  Biso   1.000  Hf
  Hf15     1.0000 0.63471  0.73127  0.87444  Biso   1.000  Hf
  Hf16     1.0000 0.36233  0.26510  0.12616  Biso   1.000  Hf
  Hf17     1.0000 0.36692  0.26680  0.62496  Biso   1.000  Hf
  Hf18     1.0000 0.37252  0.75963  0.12520  Biso   1.000  Hf
  Hf19     1.0000 0.36670  0.76573  0.62556  Biso   1.000  Hf
  La2      1.0000 0.87606  0.25685  0.11905  Biso   1.000  La
  Hf20     1.0000 0.86731  0.26772  0.62441  Biso   1.000  Hf
  Hf21     1.0000 0.86131  0.76353  0.12720  Biso   1.000  Hf
  Hf22     1.0000 0.86696  0.76602  0.62431  Biso   1.000  Hf
  Hf23     1.0000 0.36643  0.48276  0.37404  Biso   1.000  Hf
  Hf24     1.0000 0.36580  0.48292  0.87647  Biso   1.000  Hf
  Hf25     1.0000 0.36862  0.98230  0.37765  Biso   1.000  Hf
  Hf26     1.0000 0.36812  0.98302  0.87171  Biso   1.000  Hf
  Hf27     1.0000 0.86578  0.48390  0.37720  Biso   1.000  Hf
  Hf28     1.0000 0.86513  0.48706  0.86990  Biso   1.000  Hf
  Hf29     1.0000 0.86031  0.98423  0.38250  Biso   1.000  Hf
  Hf30     1.0000 0.86045  0.98209  0.87270  Biso   1.000  Hf
  Hf31     1.0000 0.05882  0.18948  0.20921  Biso   1.000  Hf
  Hf32     1.0000 0.04062  0.18730  0.68388  Biso   1.000  Hf
  Hf33     1.0000 0.04038  0.69695  0.19377  Biso   1.000  Hf
  Hf34     1.0000 0.03466  0.68514  0.69719  Biso   1.000  Hf
  Hf35     1.0000 0.53476  0.18468  0.19192  Biso   1.000  Hf
  Hf36     1.0000 0.53355  0.18279  0.69527  Biso   1.000  Hf
  Hf37     1.0000 0.53616  0.67842  0.20010  Biso   1.000  Hf
  Hf38     1.0000 0.53397  0.68171  0.69593  Biso   1.000  Hf
  Hf39     1.0000 0.03546  0.06334  0.44290  Biso   1.000  Hf
  Hf40     1.0000 0.01619  0.08804  0.93595  Biso   1.000  Hf
  Hf41     1.0000 0.03627  0.56824  0.44663  Biso   1.000  Hf
  Hf42     1.0000 0.03200  0.57341  0.94750  Biso   1.000  Hf
  Hf43     1.0000 0.53465  0.06702  0.44896  Biso   1.000  Hf
  Hf44     1.0000 0.53008  0.06829  0.94405  Biso   1.000  Hf
  Hf45     1.0000 0.53549  0.56402  0.44653  Biso   1.000  Hf
  Hf46     1.0000 0.53264  0.56830  0.94720  Biso   1.000  Hf
  Hf47     1.0000 0.46336  0.43278  0.19313  Biso   1.000  Hf
  Hf48     1.0000 0.46641  0.43238  0.69724  Biso   1.000  Hf
  Hf49     1.0000 0.46388  0.93204  0.19569  Biso   1.000  Hf
  Hf50     1.0000 0.46595  0.93211  0.69528  Biso   1.000  Hf
  Hf51     1.0000 0.96909  0.45013  0.20224  Biso   1.000  Hf
  Hf52     1.0000 0.96082  0.44023  0.68377  Biso   1.000  Hf
  Hf53     1.0000 0.92933  0.93968  0.19757  Biso   1.000  Hf
  Hf54     1.0000 0.96296  0.93409  0.69457  Biso   1.000  Hf
  Hf55     1.0000 0.46357  0.31579  0.44616  Biso   1.000  Hf
  Hf56     1.0000 0.46234  0.31739  0.94352  Biso   1.000  Hf
  Hf57     1.0000 0.46790  0.81613  0.44993  Biso   1.000  Hf
  Hf58     1.0000 0.47438  0.81895  0.94850  Biso   1.000  Hf
  Hf59     1.0000 0.96452  0.31594  0.44142  Biso   1.000  Hf
  Hf60     1.0000 0.97205  0.33041  0.91777  Biso   1.000  Hf
  Hf61     1.0000 0.96459  0.81649  0.44558  Biso   1.000  Hf
  Hf62     1.0000 0.97555  0.82905  0.95454  Biso   1.000  Hf
  Hf63     1.0000 0.28762  0.12478  0.25825  Biso   1.000  Hf
  Hf64     1.0000 0.26963  0.11587  0.74751  Biso   1.000  Hf
  Hf65     1.0000 0.26973  0.61342  0.24962  Biso   1.000  Hf
  Hf66     1.0000 0.26970  0.61737  0.74979  Biso   1.000  Hf
  Hf67     1.0000 0.75224  0.10624  0.25867  Biso   1.000  Hf
  Hf68     1.0000 0.77006  0.11848  0.74594  Biso   1.000  Hf
  Hf69     1.0000 0.77217  0.61832  0.24960  Biso   1.000  Hf
  Hf70     1.0000 0.76894  0.61837  0.74611  Biso   1.000  Hf
  Hf71     1.0000 0.27106  0.12985  0.50393  Biso   1.000  Hf
  Hf72     1.0000 0.27296  0.13367  0.99228  Biso   1.000  Hf
  Hf73     1.0000 0.27156  0.63256  0.49971  Biso   1.000  Hf
  Hf74     1.0000 0.27152  0.62939  0.99917  Biso   1.000  Hf
  Hf75     1.0000 0.76883  0.13470  0.50066  Biso   1.000  Hf
  Hf76     1.0000 0.75372  0.12188  0.98952  Biso   1.000  Hf
  Hf77     1.0000 0.76996  0.63226  0.49947  Biso   1.000  Hf
  Hf78     1.0000 0.76944  0.63263  0.99789  Biso   1.000  Hf
  Hf79     1.0000 0.23270  0.38470  0.50128  Biso   1.000  Hf
  Hf80     1.0000 0.22763  0.38296  0.99998  Biso   1.000  Hf
  Hf81     1.0000 0.23040  0.88213  0.49981  Biso   1.000  Hf
  Hf82     1.0000 0.24665  0.86876  0.98869  Biso   1.000  Hf
  Hf83     1.0000 0.73061  0.38150  0.50065  Biso   1.000  Hf
  Hf84     1.0000 0.72484  0.38762  0.99050  Biso   1.000  Hf
  Hf85     1.0000 0.72903  0.88158  0.50204  Biso   1.000  Hf
  Hf86     1.0000 0.73072  0.87754  0.99928  Biso   1.000  Hf
  Hf87     1.0000 0.23144  0.36927  0.25225  Biso   1.000  Hf
  Hf88     1.0000 0.23120  0.36951  0.74735  Biso   1.000  Hf
  Hf89     1.0000 0.24777  0.85257  0.25855  Biso   1.000  Hf
  Hf90     1.0000 0.22864  0.86708  0.74588  Biso   1.000  Hf
  Hf91     1.0000 0.72064  0.37616  0.25555  Biso   1.000  Hf
  Hf92     1.0000 0.72970  0.36757  0.74679  Biso   1.000  Hf
  Hf93     1.0000 0.71875  0.86057  0.25007  Biso   1.000  Hf
  Hf94     1.0000 0.72983  0.86619  0.74903  Biso   1.000  Hf
