data_image0
_cell_length_a       10.1218
_cell_length_b       10.2659
_cell_length_c       10.5165
_cell_angle_alpha    90.0354
_cell_angle_beta     90.6191
_cell_angle_gamma    90.0129

_symmetry_space_group_name_H-M    "P 1"
_symmetry_int_tables_number       1

loop_
  _symmetry_equiv_pos_as_xyz
  'x, y, z'

loop_
  _atom_site_label
  _atom_site_occupancy
  _atom_site_fract_x
  _atom_site_fract_y
  _atom_site_fract_z
  _atom_site_thermal_displace_type
  _atom_site_B_iso_or_equiv
  _atom_site_type_symbol
  La1      1.0000 0.12117  0.00466  0.15241  Biso   1.000  La
  Hf1      1.0000 0.13642  0.01726  0.67096  Biso   1.000  Hf
  Hf2      1.0000 0.13999  0.51469  0.16662  Biso   1.000  Hf
  Hf3      1.0000 0.13823  0.52533  0.66753  Biso   1.000  Hf
  Hf4      1.0000 0.13844  0.22601  0.41822  Biso   1.000  Hf
  Hf5      1.0000 0.14047  0.23403  0.91435  Biso   1.000  Hf
  La2      1.0000 0.11953  0.74649  0.40568  Biso   1.000  La
  Hf6      1.0000 0.14037  0.73002  0.92113  Biso   1.000  Hf
  Hf7      1.0000 0.35795  0.26689  0.17036  Biso   1.000  Hf
  Hf8      1.0000 0.35867  0.27184  0.66708  Biso   1.000  Hf
  Hf9      1.0000 0.37020  0.76701  0.16761  Biso   1.000  Hf
  Hf10     1.0000 0.36041  0.77100  0.66844  Biso   1.000  Hf
  Hf11     1.0000 0.35617  0.48165  0.41872  Biso   1.000  Hf
  Hf12     1.0000 0.36094  0.47863  0.91963  Biso   1.000  Hf
  Hf13     1.0000 0.36535  0.98279  0.41829  Biso   1.000  Hf
  Hf14     1.0000 0.36572  0.98004  0.91690  Biso   1.000  Hf
  Hf15     1.0000 0.63981  0.02178  0.07813  Biso   1.000  Hf
  Hf16     1.0000 0.63764  0.02190  0.58020  Biso   1.000  Hf
  Hf17     1.0000 0.63773  0.51803  0.07667  Biso   1.000  Hf
  Hf18     1.0000 0.63635  0.52039  0.57626  Biso   1.000  Hf
  Hf19     1.0000 0.63577  0.23166  0.32732  Biso   1.000  Hf
  Hf20     1.0000 0.63813  0.22976  0.82519  Biso   1.000  Hf
  Hf21     1.0000 0.64075  0.72711  0.32918  Biso   1.000  Hf
  Hf22     1.0000 0.63677  0.72851  0.82936  Biso   1.000  Hf
  Hf23     1.0000 0.85703  0.27342  0.07362  Biso   1.000  Hf
  Hf24     1.0000 0.86166  0.27017  0.57851  Biso   1.000  Hf
  Hf25     1.0000 0.85973  0.76603  0.08569  Biso   1.000  Hf
  Hf26     1.0000 0.85482  0.77306  0.58915  Biso   1.000  Hf
  Hf27     1.0000 0.85896  0.47517  0.32615  Biso   1.000  Hf
  Hf28     1.0000 0.86020  0.48111  0.82573  Biso   1.000  Hf
  Hf29     1.0000 0.85188  0.98116  0.33870  Biso   1.000  Hf
  Hf30     1.0000 0.86323  0.97965  0.83625  Biso   1.000  Hf
  Hf31     1.0000 0.02955  0.18221  0.07076  Biso   1.000  Hf
  Hf32     1.0000 0.02927  0.15866  0.58139  Biso   1.000  Hf
  Hf33     1.0000 0.03165  0.65697  0.07653  Biso   1.000  Hf
  Hf34     1.0000 0.01598  0.65529  0.58601  Biso   1.000  Hf
  Hf35     1.0000 0.01688  0.09618  0.33217  Biso   1.000  Hf
  Hf36     1.0000 0.03080  0.09214  0.82993  Biso   1.000  Hf
  Hf37     1.0000 0.03094  0.56563  0.32510  Biso   1.000  Hf
  Hf38     1.0000 0.02687  0.59513  0.82755  Biso   1.000  Hf
  Hf39     1.0000 0.46774  0.41124  0.07890  Biso   1.000  Hf
  Hf40     1.0000 0.46790  0.41225  0.57853  Biso   1.000  Hf
  Hf41     1.0000 0.47628  0.91278  0.07722  Biso   1.000  Hf
  Hf42     1.0000 0.47356  0.91088  0.57922  Biso   1.000  Hf
  Hf43     1.0000 0.46734  0.33926  0.32945  Biso   1.000  Hf
  Hf44     1.0000 0.46779  0.33639  0.82809  Biso   1.000  Hf
  Hf45     1.0000 0.47832  0.83778  0.32983  Biso   1.000  Hf
  Hf46     1.0000 0.47163  0.83824  0.82705  Biso   1.000  Hf
  Hf47     1.0000 0.27784  0.12941  0.29803  Biso   1.000  Hf
  Hf48     1.0000 0.27321  0.12317  0.78667  Biso   1.000  Hf
  Hf49     1.0000 0.28455  0.61444  0.28103  Biso   1.000  Hf
  Hf50     1.0000 0.27350  0.62581  0.79394  Biso   1.000  Hf
  Hf51     1.0000 0.28347  0.13234  0.03040  Biso   1.000  Hf
  Hf52     1.0000 0.27494  0.12915  0.54188  Biso   1.000  Hf
  Hf53     1.0000 0.27287  0.62086  0.03908  Biso   1.000  Hf
  Hf54     1.0000 0.27735  0.62378  0.54810  Biso   1.000  Hf
  Hf55     1.0000 0.22140  0.37049  0.29253  Biso   1.000  Hf
  Hf56     1.0000 0.22501  0.37659  0.79147  Biso   1.000  Hf
  Hf57     1.0000 0.25325  0.87946  0.28478  Biso   1.000  Hf
  Hf58     1.0000 0.22720  0.87435  0.79363  Biso   1.000  Hf
  Hf59     1.0000 0.22477  0.37532  0.04206  Biso   1.000  Hf
  Hf60     1.0000 0.22151  0.37741  0.54226  Biso   1.000  Hf
  Hf61     1.0000 0.24873  0.86068  0.03160  Biso   1.000  Hf
  Hf62     1.0000 0.23491  0.88661  0.54916  Biso   1.000  Hf
  Hf63     1.0000 0.53161  0.16261  0.16721  Biso   1.000  Hf
  Hf64     1.0000 0.53108  0.16420  0.66545  Biso   1.000  Hf
  Hf65     1.0000 0.53851  0.66200  0.16519  Biso   1.000  Hf
  Hf66     1.0000 0.53135  0.66287  0.66698  Biso   1.000  Hf
  Hf67     1.0000 0.53363  0.08824  0.41722  Biso   1.000  Hf
  Hf68     1.0000 0.53660  0.08603  0.91391  Biso   1.000  Hf
  Hf69     1.0000 0.53156  0.58647  0.41649  Biso   1.000  Hf
  Hf70     1.0000 0.53086  0.58681  0.91700  Biso   1.000  Hf
  Hf71     1.0000 0.96272  0.41237  0.16274  Biso   1.000  Hf
  Hf72     1.0000 0.96924  0.41085  0.66932  Biso   1.000  Hf
  Hf73     1.0000 0.96571  0.85512  0.23006  Biso   1.000  Hf
  Hf74     1.0000 0.97728  0.88875  0.70537  Biso   1.000  Hf
  Hf75     1.0000 0.96551  0.33473  0.41982  Biso   1.000  Hf
  Hf76     1.0000 0.96753  0.34291  0.91250  Biso   1.000  Hf
  Hf77     1.0000 0.96086  0.89108  0.47441  Biso   1.000  Hf
  Hf78     1.0000 0.98340  0.86759  0.96150  Biso   1.000  Hf
  Hf79     1.0000 0.77520  0.12520  0.95546  Biso   1.000  Hf
  Hf80     1.0000 0.76925  0.12694  0.45885  Biso   1.000  Hf
  Hf81     1.0000 0.77604  0.62365  0.95728  Biso   1.000  Hf
  Hf82     1.0000 0.77786  0.62525  0.45645  Biso   1.000  Hf
  Hf83     1.0000 0.77698  0.12670  0.20531  Biso   1.000  Hf
  Hf84     1.0000 0.77711  0.12467  0.70760  Biso   1.000  Hf
  Hf85     1.0000 0.77538  0.62236  0.20648  Biso   1.000  Hf
  Hf86     1.0000 0.76872  0.62516  0.70823  Biso   1.000  Hf
  Hf87     1.0000 0.72287  0.37535  0.95020  Biso   1.000  Hf
  Hf88     1.0000 0.72324  0.37444  0.45342  Biso   1.000  Hf
  Hf89     1.0000 0.73050  0.87118  0.95629  Biso   1.000  Hf
  Hf90     1.0000 0.71783  0.87022  0.45744  Biso   1.000  Hf
  Hf91     1.0000 0.72101  0.37455  0.20201  Biso   1.000  Hf
  Hf92     1.0000 0.72491  0.37553  0.70173  Biso   1.000  Hf
  Hf93     1.0000 0.72254  0.87895  0.20431  Biso   1.000  Hf
  Hf94     1.0000 0.72558  0.87911  0.70936  Biso   1.000  Hf
