data_image0
_cell_length_a       10.0554
_cell_length_b       10.4077
_cell_length_c       10.0968
_cell_angle_alpha    90.2158
_cell_angle_beta     90.4345
_cell_angle_gamma    89.9784

_symmetry_space_group_name_H-M    "P 1"
_symmetry_int_tables_number       1

loop_
  _symmetry_equiv_pos_as_xyz
  'x, y, z'

loop_
  _atom_site_label
  _atom_site_occupancy
  _atom_site_fract_x
  _atom_site_fract_y
  _atom_site_fract_z
  _atom_site_thermal_displace_type
  _atom_site_B_iso_or_equiv
  _atom_site_type_symbol
  La1      1.0000 0.12301  0.00661  0.12067  Biso   1.000  La
  Hf1      1.0000 0.13423  0.01559  0.62502  Biso   1.000  Hf
  Hf2      1.0000 0.13372  0.51532  0.12575  Biso   1.000  Hf
  Hf3      1.0000 0.13347  0.51517  0.62643  Biso   1.000  Hf
  Hf4      1.0000 0.63422  0.01558  0.12502  Biso   1.000  Hf
  La2      1.0000 0.62301  0.00661  0.62065  Biso   1.000  La
  Hf5      1.0000 0.63346  0.51517  0.12644  Biso   1.000  Hf
  Hf6      1.0000 0.63371  0.51531  0.62575  Biso   1.000  Hf
  Hf7      1.0000 0.13653  0.23454  0.37733  Biso   1.000  Hf
  Hf8      1.0000 0.13355  0.23640  0.86934  Biso   1.000  Hf
  Hf9      1.0000 0.13723  0.73123  0.37592  Biso   1.000  Hf
  Hf10     1.0000 0.13422  0.73183  0.87878  Biso   1.000  Hf
  Hf11     1.0000 0.63355  0.23641  0.36935  Biso   1.000  Hf
  Hf12     1.0000 0.63652  0.23454  0.87734  Biso   1.000  Hf
  Hf13     1.0000 0.63423  0.73183  0.37878  Biso   1.000  Hf
  Hf14     1.0000 0.63722  0.73124  0.87592  Biso   1.000  Hf
  Hf15     1.0000 0.36471  0.26692  0.12563  Biso   1.000  Hf
  Hf16     1.0000 0.36317  0.26759  0.62571  Biso   1.000  Hf
  Hf17     1.0000 0.37114  0.76126  0.12387  Biso   1.000  Hf
  Hf18     1.0000 0.36058  0.76426  0.62792  Biso   1.000  Hf
  Hf19     1.0000 0.86318  0.26760  0.12571  Biso   1.000  Hf
  Hf20     1.0000 0.86471  0.26692  0.62563  Biso   1.000  Hf
  Hf21     1.0000 0.86058  0.76426  0.12792  Biso   1.000  Hf
  Hf22     1.0000 0.87115  0.76127  0.62386  Biso   1.000  Hf
  Hf23     1.0000 0.36600  0.48224  0.37625  Biso   1.000  Hf
  Hf24     1.0000 0.36632  0.48322  0.87730  Biso   1.000  Hf
  Hf25     1.0000 0.36441  0.98368  0.37059  Biso   1.000  Hf
  Hf26     1.0000 0.36566  0.98556  0.88000  Biso   1.000  Hf
  Hf27     1.0000 0.86632  0.48323  0.37730  Biso   1.000  Hf
  Hf28     1.0000 0.86599  0.48224  0.87624  Biso   1.000  Hf
  Hf29     1.0000 0.86566  0.98558  0.37998  Biso   1.000  Hf
  Hf30     1.0000 0.86439  0.98368  0.87059  Biso   1.000  Hf
  Hf31     1.0000 0.02746  0.19605  0.20565  Biso   1.000  Hf
  Hf32     1.0000 0.04125  0.18940  0.68126  Biso   1.000  Hf
  Hf33     1.0000 0.03600  0.68546  0.19615  Biso   1.000  Hf
  Hf34     1.0000 0.03595  0.68023  0.69964  Biso   1.000  Hf
  Hf35     1.0000 0.54125  0.18941  0.18127  Biso   1.000  Hf
  Hf36     1.0000 0.52743  0.19604  0.70568  Biso   1.000  Hf
  Hf37     1.0000 0.53595  0.68024  0.19965  Biso   1.000  Hf
  Hf38     1.0000 0.53598  0.68544  0.69615  Biso   1.000  Hf
  Hf39     1.0000 0.03945  0.06501  0.43950  Biso   1.000  Hf
  Hf40     1.0000 0.03351  0.07327  0.91544  Biso   1.000  Hf
  Hf41     1.0000 0.03389  0.56742  0.44919  Biso   1.000  Hf
  Hf42     1.0000 0.03319  0.56835  0.94709  Biso   1.000  Hf
  Hf43     1.0000 0.53354  0.07326  0.41542  Biso   1.000  Hf
  Hf44     1.0000 0.53942  0.06501  0.93953  Biso   1.000  Hf
  Hf45     1.0000 0.53320  0.56834  0.44708  Biso   1.000  Hf
  Hf46     1.0000 0.53388  0.56741  0.94919  Biso   1.000  Hf
  Hf47     1.0000 0.46686  0.43273  0.19915  Biso   1.000  Hf
  Hf48     1.0000 0.46322  0.43811  0.69586  Biso   1.000  Hf
  Hf49     1.0000 0.46116  0.93558  0.18808  Biso   1.000  Hf
  Hf50     1.0000 0.44038  0.92646  0.70727  Biso   1.000  Hf
  Hf51     1.0000 0.96322  0.43812  0.19586  Biso   1.000  Hf
  Hf52     1.0000 0.96685  0.43273  0.69912  Biso   1.000  Hf
  Hf53     1.0000 0.94032  0.92651  0.20721  Biso   1.000  Hf
  Hf54     1.0000 0.96115  0.93559  0.68806  Biso   1.000  Hf
  Hf55     1.0000 0.46586  0.31798  0.44800  Biso   1.000  Hf
  Hf56     1.0000 0.46741  0.32086  0.94684  Biso   1.000  Hf
  Hf57     1.0000 0.47523  0.82565  0.45869  Biso   1.000  Hf
  Hf58     1.0000 0.47494  0.81735  0.94967  Biso   1.000  Hf
  Hf59     1.0000 0.96741  0.32087  0.44684  Biso   1.000  Hf
  Hf60     1.0000 0.96586  0.31798  0.94798  Biso   1.000  Hf
  Hf61     1.0000 0.97494  0.81737  0.44964  Biso   1.000  Hf
  Hf62     1.0000 0.97522  0.82564  0.95867  Biso   1.000  Hf
  Hf63     1.0000 0.27985  0.12770  0.25467  Biso   1.000  Hf
  Hf64     1.0000 0.26851  0.11707  0.74896  Biso   1.000  Hf
  Hf65     1.0000 0.27032  0.61175  0.24847  Biso   1.000  Hf
  Hf66     1.0000 0.27012  0.61711  0.75025  Biso   1.000  Hf
  Hf67     1.0000 0.76852  0.11710  0.24897  Biso   1.000  Hf
  Hf68     1.0000 0.77985  0.12768  0.75467  Biso   1.000  Hf
  Hf69     1.0000 0.77014  0.61710  0.25025  Biso   1.000  Hf
  Hf70     1.0000 0.77032  0.61173  0.74847  Biso   1.000  Hf
  Hf71     1.0000 0.27261  0.13070  0.50139  Biso   1.000  Hf
  Hf72     1.0000 0.27429  0.14004  0.99225  Biso   1.000  Hf
  Hf73     1.0000 0.27004  0.63073  0.49897  Biso   1.000  Hf
  Hf74     1.0000 0.27061  0.62873  0.99998  Biso   1.000  Hf
  Hf75     1.0000 0.77431  0.14005  0.49225  Biso   1.000  Hf
  Hf76     1.0000 0.77260  0.13071  0.00139  Biso   1.000  Hf
  Hf77     1.0000 0.77063  0.62875  0.49994  Biso   1.000  Hf
  Hf78     1.0000 0.77003  0.63075  0.99897  Biso   1.000  Hf
  Hf79     1.0000 0.23012  0.38368  0.49927  Biso   1.000  Hf
  Hf80     1.0000 0.23024  0.38403  0.99898  Biso   1.000  Hf
  Hf81     1.0000 0.23276  0.88145  0.49987  Biso   1.000  Hf
  Hf82     1.0000 0.24448  0.86984  0.99141  Biso   1.000  Hf
  Hf83     1.0000 0.73023  0.38404  0.49897  Biso   1.000  Hf
  Hf84     1.0000 0.73012  0.38368  0.99929  Biso   1.000  Hf
  Hf85     1.0000 0.74450  0.86985  0.49140  Biso   1.000  Hf
  Hf86     1.0000 0.73275  0.88145  0.99986  Biso   1.000  Hf
  Hf87     1.0000 0.22870  0.36884  0.24943  Biso   1.000  Hf
  Hf88     1.0000 0.23137  0.36961  0.74846  Biso   1.000  Hf
  Hf89     1.0000 0.24469  0.85341  0.25570  Biso   1.000  Hf
  Hf90     1.0000 0.21569  0.86513  0.74766  Biso   1.000  Hf
  Hf91     1.0000 0.73138  0.36962  0.24847  Biso   1.000  Hf
  Hf92     1.0000 0.72869  0.36883  0.74944  Biso   1.000  Hf
  Hf93     1.0000 0.71568  0.86513  0.24766  Biso   1.000  Hf
  Hf94     1.0000 0.74467  0.85341  0.75571  Biso   1.000  Hf
