data_image0
_cell_length_a       10.0909
_cell_length_b       10.2704
_cell_length_c       10.0787
_cell_angle_alpha    89.9531
_cell_angle_beta     89.9849
_cell_angle_gamma    89.9643

_symmetry_space_group_name_H-M    "P 1"
_symmetry_int_tables_number       1

loop_
  _symmetry_equiv_pos_as_xyz
  'x, y, z'

loop_
  _atom_site_label
  _atom_site_occupancy
  _atom_site_fract_x
  _atom_site_fract_y
  _atom_site_fract_z
  _atom_site_thermal_displace_type
  _atom_site_B_iso_or_equiv
  _atom_site_type_symbol
  La1      1.0000 0.12580  0.00028  0.12537  Biso   1.000  La
  La2      1.0000 0.12582  0.00024  0.62538  Biso   1.000  La
  Hf1      1.0000 0.12576  0.50026  0.12534  Biso   1.000  Hf
  Hf2      1.0000 0.12577  0.50027  0.62529  Biso   1.000  Hf
  Hf3      1.0000 0.62582  0.00029  0.12530  Biso   1.000  Hf
  Hf4      1.0000 0.62579  0.00027  0.62529  Biso   1.000  Hf
  Hf5      1.0000 0.62572  0.50019  0.12526  Biso   1.000  Hf
  Hf6      1.0000 0.62574  0.50017  0.62523  Biso   1.000  Hf
  Hf7      1.0000 0.12594  0.25696  0.37545  Biso   1.000  Hf
  Hf8      1.0000 0.12594  0.25694  0.87546  Biso   1.000  Hf
  Hf9      1.0000 0.12601  0.74363  0.37542  Biso   1.000  Hf
  Hf10     1.0000 0.12595  0.74357  0.87545  Biso   1.000  Hf
  Hf11     1.0000 0.62600  0.24908  0.37539  Biso   1.000  Hf
  Hf12     1.0000 0.62598  0.24907  0.87537  Biso   1.000  Hf
  Hf13     1.0000 0.62597  0.75146  0.37545  Biso   1.000  Hf
  Hf14     1.0000 0.62598  0.75140  0.87547  Biso   1.000  Hf
  Hf15     1.0000 0.37806  0.25299  0.12391  Biso   1.000  Hf
  Hf16     1.0000 0.37806  0.25299  0.62393  Biso   1.000  Hf
  Hf17     1.0000 0.37813  0.74756  0.12697  Biso   1.000  Hf
  Hf18     1.0000 0.37814  0.74750  0.62697  Biso   1.000  Hf
  Hf19     1.0000 0.87380  0.25311  0.12696  Biso   1.000  Hf
  Hf20     1.0000 0.87381  0.25310  0.62697  Biso   1.000  Hf
  Hf21     1.0000 0.87377  0.74750  0.12392  Biso   1.000  Hf
  Hf22     1.0000 0.87378  0.74745  0.62394  Biso   1.000  Hf
  Hf23     1.0000 0.37964  0.00027  0.37532  Biso   1.000  Hf
  Hf24     1.0000 0.37964  0.00023  0.87532  Biso   1.000  Hf
  Hf25     1.0000 0.37694  0.50025  0.37525  Biso   1.000  Hf
  Hf26     1.0000 0.37691  0.50026  0.87522  Biso   1.000  Hf
  Hf27     1.0000 0.87193  0.00018  0.37531  Biso   1.000  Hf
  Hf28     1.0000 0.87192  0.00021  0.87527  Biso   1.000  Hf
  Hf29     1.0000 0.87457  0.50032  0.37529  Biso   1.000  Hf
  Hf30     1.0000 0.87455  0.50027  0.87532  Biso   1.000  Hf
  Hf31     1.0000 0.99896  0.15437  0.00154  Biso   1.000  Hf
  Hf32     1.0000 0.99897  0.15436  0.50156  Biso   1.000  Hf
  Hf33     1.0000 0.00604  0.64392  0.00961  Biso   1.000  Hf
  Hf34     1.0000 0.00615  0.64393  0.50966  Biso   1.000  Hf
  Hf35     1.0000 0.51088  0.14983  0.00899  Biso   1.000  Hf
  Hf36     1.0000 0.51086  0.14983  0.50900  Biso   1.000  Hf
  Hf37     1.0000 0.50508  0.64753  0.00137  Biso   1.000  Hf
  Hf38     1.0000 0.50513  0.64753  0.50134  Biso   1.000  Hf
  Hf39     1.0000 0.98656  0.11762  0.26349  Biso   1.000  Hf
  Hf40     1.0000 0.98657  0.11763  0.76346  Biso   1.000  Hf
  Hf41     1.0000 0.00001  0.60159  0.25718  Biso   1.000  Hf
  Hf42     1.0000 0.00000  0.60155  0.75719  Biso   1.000  Hf
  Hf43     1.0000 0.49952  0.10161  0.25445  Biso   1.000  Hf
  Hf44     1.0000 0.49950  0.10159  0.75445  Biso   1.000  Hf
  Hf45     1.0000 0.49733  0.60200  0.24979  Biso   1.000  Hf
  Hf46     1.0000 0.49736  0.60199  0.74979  Biso   1.000  Hf
  Hf47     1.0000 0.00609  0.35665  0.24119  Biso   1.000  Hf
  Hf48     1.0000 0.00611  0.35666  0.74118  Biso   1.000  Hf
  Hf49     1.0000 0.99896  0.84620  0.24923  Biso   1.000  Hf
  Hf50     1.0000 0.99897  0.84620  0.74923  Biso   1.000  Hf
  Hf51     1.0000 0.50506  0.35295  0.24938  Biso   1.000  Hf
  Hf52     1.0000 0.50506  0.35294  0.74938  Biso   1.000  Hf
  Hf53     1.0000 0.51090  0.85070  0.24173  Biso   1.000  Hf
  Hf54     1.0000 0.51092  0.85065  0.74171  Biso   1.000  Hf
  Hf55     1.0000 0.99985  0.39904  0.99372  Biso   1.000  Hf
  Hf56     1.0000 0.99988  0.39905  0.49371  Biso   1.000  Hf
  Hf57     1.0000 0.98662  0.88296  0.98734  Biso   1.000  Hf
  Hf58     1.0000 0.98668  0.88297  0.48735  Biso   1.000  Hf
  Hf59     1.0000 0.49718  0.39854  0.00096  Biso   1.000  Hf
  Hf60     1.0000 0.49724  0.39856  0.50097  Biso   1.000  Hf
  Hf61     1.0000 0.49949  0.89894  0.99633  Biso   1.000  Hf
  Hf62     1.0000 0.49956  0.89896  0.49630  Biso   1.000  Hf
  Hf63     1.0000 0.25261  0.15426  0.24922  Biso   1.000  Hf
  Hf64     1.0000 0.25261  0.15424  0.74922  Biso   1.000  Hf
  Hf65     1.0000 0.24556  0.64389  0.24103  Biso   1.000  Hf
  Hf66     1.0000 0.24557  0.64385  0.74106  Biso   1.000  Hf
  Hf67     1.0000 0.74075  0.14982  0.24156  Biso   1.000  Hf
  Hf68     1.0000 0.74078  0.14979  0.74158  Biso   1.000  Hf
  Hf69     1.0000 0.74668  0.64753  0.24946  Biso   1.000  Hf
  Hf70     1.0000 0.74667  0.64750  0.74945  Biso   1.000  Hf
  Hf71     1.0000 0.26516  0.11759  0.98734  Biso   1.000  Hf
  Hf72     1.0000 0.26515  0.11762  0.48734  Biso   1.000  Hf
  Hf73     1.0000 0.25163  0.60146  0.99350  Biso   1.000  Hf
  Hf74     1.0000 0.25173  0.60154  0.49352  Biso   1.000  Hf
  Hf75     1.0000 0.75212  0.10159  0.99611  Biso   1.000  Hf
  Hf76     1.0000 0.75211  0.10158  0.49610  Biso   1.000  Hf
  Hf77     1.0000 0.75432  0.60200  0.00096  Biso   1.000  Hf
  Hf78     1.0000 0.75441  0.60200  0.50098  Biso   1.000  Hf
  Hf79     1.0000 0.24546  0.35656  0.00972  Biso   1.000  Hf
  Hf80     1.0000 0.24548  0.35658  0.50971  Biso   1.000  Hf
  Hf81     1.0000 0.25266  0.84617  0.00158  Biso   1.000  Hf
  Hf82     1.0000 0.25273  0.84619  0.50157  Biso   1.000  Hf
  Hf83     1.0000 0.74650  0.35296  0.00142  Biso   1.000  Hf
  Hf84     1.0000 0.74652  0.35298  0.50143  Biso   1.000  Hf
  Hf85     1.0000 0.74081  0.85070  0.00904  Biso   1.000  Hf
  Hf86     1.0000 0.74087  0.85068  0.50902  Biso   1.000  Hf
  Hf87     1.0000 0.25171  0.39898  0.25722  Biso   1.000  Hf
  Hf88     1.0000 0.25175  0.39891  0.75722  Biso   1.000  Hf
  Hf89     1.0000 0.26512  0.88292  0.26347  Biso   1.000  Hf
  Hf90     1.0000 0.26516  0.88287  0.76346  Biso   1.000  Hf
  Hf91     1.0000 0.75434  0.39853  0.24990  Biso   1.000  Hf
  Hf92     1.0000 0.75436  0.39850  0.74989  Biso   1.000  Hf
  Hf93     1.0000 0.75212  0.89895  0.25447  Biso   1.000  Hf
  Hf94     1.0000 0.75213  0.89891  0.75448  Biso   1.000  Hf
