data_image0
_cell_length_a       10.1464
_cell_length_b       10.335
_cell_length_c       10.4285
_cell_angle_alpha    89.8331
_cell_angle_beta     80.5737
_cell_angle_gamma    90.203

_symmetry_space_group_name_H-M    "P 1"
_symmetry_int_tables_number       1

loop_
  _symmetry_equiv_pos_as_xyz
  'x, y, z'

loop_
  _atom_site_label
  _atom_site_occupancy
  _atom_site_fract_x
  _atom_site_fract_y
  _atom_site_fract_z
  _atom_site_thermal_displace_type
  _atom_site_B_iso_or_equiv
  _atom_site_type_symbol
  La1      1.0000 0.13447  0.01409  0.13807  Biso   1.000  La
  Hf1      1.0000 0.13903  0.02101  0.64714  Biso   1.000  Hf
  Hf2      1.0000 0.13833  0.52036  0.14516  Biso   1.000  Hf
  Hf3      1.0000 0.13763  0.52138  0.64567  Biso   1.000  Hf
  Hf4      1.0000 0.63982  0.01935  0.14687  Biso   1.000  Hf
  Hf5      1.0000 0.64167  0.02278  0.64567  Biso   1.000  Hf
  Hf6      1.0000 0.64179  0.52110  0.14731  Biso   1.000  Hf
  Hf7      1.0000 0.63837  0.52073  0.64495  Biso   1.000  Hf
  Hf8      1.0000 0.13849  0.22796  0.39783  Biso   1.000  Hf
  Hf9      1.0000 0.12995  0.23675  0.89033  Biso   1.000  Hf
  Hf10     1.0000 0.13836  0.72785  0.39500  Biso   1.000  Hf
  Hf11     1.0000 0.13981  0.72698  0.89445  Biso   1.000  Hf
  Hf12     1.0000 0.63694  0.22948  0.39669  Biso   1.000  Hf
  Hf13     1.0000 0.63892  0.22792  0.89669  Biso   1.000  Hf
  Hf14     1.0000 0.63642  0.72788  0.39693  Biso   1.000  Hf
  Hf15     1.0000 0.64283  0.72717  0.89405  Biso   1.000  Hf
  Hf16     1.0000 0.36599  0.27794  0.10955  Biso   1.000  Hf
  Hf17     1.0000 0.36085  0.27028  0.60499  Biso   1.000  Hf
  Hf18     1.0000 0.36726  0.76725  0.10248  Biso   1.000  Hf
  Hf19     1.0000 0.35916  0.76909  0.60085  Biso   1.000  Hf
  Hf20     1.0000 0.85935  0.27321  0.10374  Biso   1.000  Hf
  Hf21     1.0000 0.86222  0.27235  0.60480  Biso   1.000  Hf
  Hf22     1.0000 0.85830  0.76880  0.10511  Biso   1.000  Hf
  Hf23     1.0000 0.86286  0.77205  0.60293  Biso   1.000  Hf
  Hf24     1.0000 0.35931  0.47954  0.35594  Biso   1.000  Hf
  Hf25     1.0000 0.36281  0.47745  0.85364  Biso   1.000  Hf
  Hf26     1.0000 0.36186  0.97910  0.35378  Biso   1.000  Hf
  Hf27     1.0000 0.36960  0.96920  0.84295  Biso   1.000  Hf
  Hf28     1.0000 0.86144  0.47908  0.35513  Biso   1.000  Hf
  Hf29     1.0000 0.85819  0.48088  0.85185  Biso   1.000  Hf
  Hf30     1.0000 0.85575  0.97975  0.35842  Biso   1.000  Hf
  Hf31     1.0000 0.86179  0.97794  0.85548  Biso   1.000  Hf
  Hf32     1.0000 0.04010  0.19448  0.07596  Biso   1.000  Hf
  Hf33     1.0000 0.03934  0.17684  0.58956  Biso   1.000  Hf
  Hf34     1.0000 0.04068  0.67797  0.08444  Biso   1.000  Hf
  Hf35     1.0000 0.03765  0.67341  0.58305  Biso   1.000  Hf
  Hf36     1.0000 0.53556  0.16934  0.08105  Biso   1.000  Hf
  Hf37     1.0000 0.53448  0.16878  0.58192  Biso   1.000  Hf
  Hf38     1.0000 0.54027  0.66852  0.08068  Biso   1.000  Hf
  Hf39     1.0000 0.53423  0.66853  0.58190  Biso   1.000  Hf
  Hf40     1.0000 0.02821  0.08088  0.34805  Biso   1.000  Hf
  Hf41     1.0000 0.03895  0.07498  0.83658  Biso   1.000  Hf
  Hf42     1.0000 0.03717  0.57837  0.33117  Biso   1.000  Hf
  Hf43     1.0000 0.03654  0.57622  0.83298  Biso   1.000  Hf
  Hf44     1.0000 0.53755  0.07868  0.33192  Biso   1.000  Hf
  Hf45     1.0000 0.53605  0.07972  0.83024  Biso   1.000  Hf
  Hf46     1.0000 0.53554  0.57935  0.33137  Biso   1.000  Hf
  Hf47     1.0000 0.53851  0.57691  0.83155  Biso   1.000  Hf
  Hf48     1.0000 0.46530  0.42143  0.17160  Biso   1.000  Hf
  Hf49     1.0000 0.46421  0.41853  0.66929  Biso   1.000  Hf
  Hf50     1.0000 0.46324  0.92222  0.16565  Biso   1.000  Hf
  Hf51     1.0000 0.46721  0.91682  0.66545  Biso   1.000  Hf
  Hf52     1.0000 0.95865  0.42780  0.16532  Biso   1.000  Hf
  Hf53     1.0000 0.96083  0.42567  0.66565  Biso   1.000  Hf
  Hf54     1.0000 0.93478  0.92560  0.17249  Biso   1.000  Hf
  Hf55     1.0000 0.96329  0.92328  0.66785  Biso   1.000  Hf
  Hf56     1.0000 0.46224  0.32934  0.41968  Biso   1.000  Hf
  Hf57     1.0000 0.46321  0.32748  0.92042  Biso   1.000  Hf
  Hf58     1.0000 0.46225  0.82895  0.41949  Biso   1.000  Hf
  Hf59     1.0000 0.47403  0.82758  0.91557  Biso   1.000  Hf
  Hf60     1.0000 0.96365  0.33031  0.41925  Biso   1.000  Hf
  Hf61     1.0000 0.95451  0.32677  0.90909  Biso   1.000  Hf
  Hf62     1.0000 0.96264  0.82807  0.41618  Biso   1.000  Hf
  Hf63     1.0000 0.96555  0.82890  0.91926  Biso   1.000  Hf
  Hf64     1.0000 0.28444  0.13728  0.24544  Biso   1.000  Hf
  Hf65     1.0000 0.27721  0.12977  0.74860  Biso   1.000  Hf
  Hf66     1.0000 0.27783  0.62468  0.23882  Biso   1.000  Hf
  Hf67     1.0000 0.27660  0.62826  0.74036  Biso   1.000  Hf
  Hf68     1.0000 0.77501  0.13248  0.24247  Biso   1.000  Hf
  Hf69     1.0000 0.77720  0.12917  0.74220  Biso   1.000  Hf
  Hf70     1.0000 0.77586  0.62932  0.24219  Biso   1.000  Hf
  Hf71     1.0000 0.77694  0.62959  0.73913  Biso   1.000  Hf
  Hf72     1.0000 0.27604  0.11991  0.49466  Biso   1.000  Hf
  Hf73     1.0000 0.27519  0.62091  0.49036  Biso   1.000  Hf
  Hf74     1.0000 0.27653  0.61596  0.99006  Biso   1.000  Hf
  Hf75     1.0000 0.77342  0.12298  0.49372  Biso   1.000  Hf
  Hf76     1.0000 0.77605  0.11998  0.99182  Biso   1.000  Hf
  Hf77     1.0000 0.77607  0.62105  0.49100  Biso   1.000  Hf
  Hf78     1.0000 0.77827  0.61924  0.99079  Biso   1.000  Hf
  Hf79     1.0000 0.22638  0.37503  0.00801  Biso   1.000  Hf
  Hf80     1.0000 0.22381  0.38014  0.51012  Biso   1.000  Hf
  Hf81     1.0000 0.24250  0.86897  0.99194  Biso   1.000  Hf
  Hf82     1.0000 0.22244  0.88052  0.50850  Biso   1.000  Hf
  Hf83     1.0000 0.72121  0.37993  0.00937  Biso   1.000  Hf
  Hf84     1.0000 0.72332  0.37958  0.50942  Biso   1.000  Hf
  Hf85     1.0000 0.72475  0.87773  0.00839  Biso   1.000  Hf
  Hf86     1.0000 0.72335  0.87980  0.51085  Biso   1.000  Hf
  Hf87     1.0000 0.22177  0.37350  0.26006  Biso   1.000  Hf
  Hf88     1.0000 0.22326  0.37346  0.75740  Biso   1.000  Hf
  Hf89     1.0000 0.23510  0.85949  0.26204  Biso   1.000  Hf
  Hf90     1.0000 0.22419  0.86840  0.75324  Biso   1.000  Hf
  Hf91     1.0000 0.72279  0.37192  0.26050  Biso   1.000  Hf
  Hf92     1.0000 0.72260  0.36984  0.75857  Biso   1.000  Hf
  Hf93     1.0000 0.71046  0.86851  0.26292  Biso   1.000  Hf
  Hf94     1.0000 0.72623  0.87055  0.75850  Biso   1.000  Hf
