data_image0
_cell_length_a       10.0614
_cell_length_b       10.1572
_cell_length_c       10.0625
_cell_angle_alpha    89.6603
_cell_angle_beta     91.4801
_cell_angle_gamma    90.3404

_symmetry_space_group_name_H-M    "P 1"
_symmetry_int_tables_number       1

loop_
  _symmetry_equiv_pos_as_xyz
  'x, y, z'

loop_
  _atom_site_label
  _atom_site_occupancy
  _atom_site_fract_x
  _atom_site_fract_y
  _atom_site_fract_z
  _atom_site_thermal_displace_type
  _atom_site_B_iso_or_equiv
  _atom_site_type_symbol
  La1      1.0000 0.11305  0.98932  0.13719  Biso   1.000  La
  Hf1      1.0000 0.12639  0.00159  0.62123  Biso   1.000  Hf
  Hf2      1.0000 0.12821  0.50566  0.12182  Biso   1.000  Hf
  Hf3      1.0000 0.11607  0.49860  0.62435  Biso   1.000  Hf
  Hf4      1.0000 0.62910  0.00159  0.12395  Biso   1.000  Hf
  Hf5      1.0000 0.61469  0.00853  0.63548  Biso   1.000  Hf
  Hf6      1.0000 0.62578  0.49851  0.13418  Biso   1.000  Hf
  Hf7      1.0000 0.61860  0.49252  0.63161  Biso   1.000  Hf
  Hf8      1.0000 0.12048  0.25562  0.37388  Biso   1.000  Hf
  Hf9      1.0000 0.11962  0.24635  0.87823  Biso   1.000  Hf
  Hf10     1.0000 0.14368  0.74661  0.37605  Biso   1.000  Hf
  Hf11     1.0000 0.12485  0.75281  0.86642  Biso   1.000  Hf
  Hf12     1.0000 0.62223  0.24707  0.37986  Biso   1.000  Hf
  Hf13     1.0000 0.62075  0.25353  0.88510  Biso   1.000  Hf
  Hf14     1.0000 0.62535  0.73911  0.38551  Biso   1.000  Hf
  Hf15     1.0000 0.61568  0.74299  0.87770  Biso   1.000  Hf
  Hf16     1.0000 0.37187  0.24625  0.13048  Biso   1.000  Hf
  Hf17     1.0000 0.36507  0.25354  0.62941  Biso   1.000  Hf
  Hf18     1.0000 0.38391  0.75297  0.12549  Biso   1.000  Hf
  Hf19     1.0000 0.37256  0.74313  0.63429  Biso   1.000  Hf
  Hf20     1.0000 0.87641  0.25538  0.12948  Biso   1.000  Hf
  Hf21     1.0000 0.87040  0.24682  0.62793  Biso   1.000  Hf
  Hf22     1.0000 0.87389  0.74665  0.10651  Biso   1.000  Hf
  Hf23     1.0000 0.86475  0.73917  0.62480  Biso   1.000  Hf
  Hf24     1.0000 0.37491  0.00858  0.38942  Biso   1.000  Hf
  Hf25     1.0000 0.36605  0.00310  0.88423  Biso   1.000  Hf
  Hf26     1.0000 0.37157  0.49967  0.37450  Biso   1.000  Hf
  Hf27     1.0000 0.36937  0.49434  0.88081  Biso   1.000  Hf
  Hf28     1.0000 0.87218  0.01356  0.37791  Biso   1.000  Hf
  Hf29     1.0000 0.86084  0.00842  0.87518  Biso   1.000  Hf
  Hf30     1.0000 0.88443  0.51982  0.36577  Biso   1.000  Hf
  Hf31     1.0000 0.87562  0.49981  0.87856  Biso   1.000  Hf
  Hf32     1.0000 0.98908  0.14574  0.99908  Biso   1.000  Hf
  Hf33     1.0000 0.99832  0.14315  0.51056  Biso   1.000  Hf
  Hf34     1.0000 0.01032  0.63553  0.99772  Biso   1.000  Hf
  Hf35     1.0000 0.00590  0.64896  0.49931  Biso   1.000  Hf
  Hf36     1.0000 0.50453  0.14238  0.01452  Biso   1.000  Hf
  Hf37     1.0000 0.49687  0.14752  0.51272  Biso   1.000  Hf
  Hf38     1.0000 0.51087  0.63992  0.01347  Biso   1.000  Hf
  Hf39     1.0000 0.50405  0.64525  0.51573  Biso   1.000  Hf
  Hf40     1.0000 0.98856  0.13909  0.26176  Biso   1.000  Hf
  Hf41     1.0000 0.99329  0.09671  0.75250  Biso   1.000  Hf
  Hf42     1.0000 0.00209  0.63367  0.24825  Biso   1.000  Hf
  Hf43     1.0000 0.98564  0.60316  0.74859  Biso   1.000  Hf
  Hf44     1.0000 0.49800  0.09656  0.25720  Biso   1.000  Hf
  Hf45     1.0000 0.49013  0.10515  0.76037  Biso   1.000  Hf
  Hf46     1.0000 0.50172  0.60310  0.26471  Biso   1.000  Hf
  Hf47     1.0000 0.48832  0.60202  0.76192  Biso   1.000  Hf
  Hf48     1.0000 0.00208  0.38257  0.24750  Biso   1.000  Hf
  Hf49     1.0000 0.99820  0.35398  0.74841  Biso   1.000  Hf
  Hf50     1.0000 0.02353  0.84244  0.69446  Biso   1.000  Hf
  Hf51     1.0000 0.50128  0.35390  0.25188  Biso   1.000  Hf
  Hf52     1.0000 0.49696  0.35366  0.75306  Biso   1.000  Hf
  Hf53     1.0000 0.55567  0.84235  0.22664  Biso   1.000  Hf
  Hf54     1.0000 0.51088  0.85379  0.73931  Biso   1.000  Hf
  Hf55     1.0000 0.99117  0.38884  0.00108  Biso   1.000  Hf
  Hf56     1.0000 0.97732  0.39491  0.50065  Biso   1.000  Hf
  Hf57     1.0000 0.98780  0.87662  0.96049  Biso   1.000  Hf
  Hf58     1.0000 0.04477  0.91639  0.41208  Biso   1.000  Hf
  Hf59     1.0000 0.49088  0.39129  0.00530  Biso   1.000  Hf
  Hf60     1.0000 0.48054  0.39478  0.50637  Biso   1.000  Hf
  Hf61     1.0000 0.49318  0.89273  0.99482  Biso   1.000  Hf
  Hf62     1.0000 0.52439  0.89782  0.48314  Biso   1.000  Hf
  Hf63     1.0000 0.25122  0.14581  0.26103  Biso   1.000  Hf
  Hf64     1.0000 0.23589  0.14239  0.74554  Biso   1.000  Hf
  Hf65     1.0000 0.25262  0.63547  0.23935  Biso   1.000  Hf
  Hf66     1.0000 0.23673  0.64002  0.73887  Biso   1.000  Hf
  Hf67     1.0000 0.73975  0.14354  0.25169  Biso   1.000  Hf
  Hf68     1.0000 0.73766  0.14755  0.75315  Biso   1.000  Hf
  Hf69     1.0000 0.75097  0.64908  0.24430  Biso   1.000  Hf
  Hf70     1.0000 0.73459  0.64535  0.74621  Biso   1.000  Hf
  Hf71     1.0000 0.25311  0.11672  0.99685  Biso   1.000  Hf
  Hf72     1.0000 0.25001  0.11381  0.50119  Biso   1.000  Hf
  Hf73     1.0000 0.25650  0.61022  0.99295  Biso   1.000  Hf
  Hf74     1.0000 0.25184  0.60677  0.49475  Biso   1.000  Hf
  Hf75     1.0000 0.74878  0.11361  0.99983  Biso   1.000  Hf
  Hf76     1.0000 0.74566  0.09924  0.50422  Biso   1.000  Hf
  Hf77     1.0000 0.75509  0.60661  0.99840  Biso   1.000  Hf
  Hf78     1.0000 0.74949  0.59359  0.50075  Biso   1.000  Hf
  Hf79     1.0000 0.23799  0.35945  0.01241  Biso   1.000  Hf
  Hf80     1.0000 0.22898  0.36000  0.51472  Biso   1.000  Hf
  Hf81     1.0000 0.24996  0.85195  0.00045  Biso   1.000  Hf
  Hf82     1.0000 0.26352  0.86155  0.51298  Biso   1.000  Hf
  Hf83     1.0000 0.73557  0.35981  0.02156  Biso   1.000  Hf
  Hf84     1.0000 0.72046  0.34183  0.53000  Biso   1.000  Hf
  Hf85     1.0000 0.73741  0.86132  0.98641  Biso   1.000  Hf
  Hf86     1.0000 0.78616  0.84262  0.46398  Biso   1.000  Hf
  Hf87     1.0000 0.24843  0.38896  0.25932  Biso   1.000  Hf
  Hf88     1.0000 0.24463  0.39130  0.75954  Biso   1.000  Hf
  Hf89     1.0000 0.28970  0.87654  0.26266  Biso   1.000  Hf
  Hf90     1.0000 0.25531  0.89270  0.75729  Biso   1.000  Hf
  Hf91     1.0000 0.74880  0.39529  0.27347  Biso   1.000  Hf
  Hf92     1.0000 0.74347  0.39488  0.77007  Biso   1.000  Hf
  Hf93     1.0000 0.83750  0.91667  0.20521  Biso   1.000  Hf
  Hf94     1.0000 0.76714  0.89798  0.72555  Biso   1.000  Hf
