data_image0
_cell_length_a       10.046
_cell_length_b       10.226
_cell_length_c       10.0463
_cell_angle_alpha    90.0114
_cell_angle_beta     90.3645
_cell_angle_gamma    90.0103

_symmetry_space_group_name_H-M    "P 1"
_symmetry_int_tables_number       1

loop_
  _symmetry_equiv_pos_as_xyz
  'x, y, z'

loop_
  _atom_site_label
  _atom_site_occupancy
  _atom_site_fract_x
  _atom_site_fract_y
  _atom_site_fract_z
  _atom_site_thermal_displace_type
  _atom_site_B_iso_or_equiv
  _atom_site_type_symbol
  La1      1.0000 0.12067  0.99582  0.12064  Biso   1.000  La
  Hf1      1.0000 0.12825  0.00425  0.62512  Biso   1.000  Hf
  Hf2      1.0000 0.12467  0.50486  0.12465  Biso   1.000  Hf
  Hf3      1.0000 0.12370  0.49970  0.62475  Biso   1.000  Hf
  Hf4      1.0000 0.62517  0.00425  0.12821  Biso   1.000  Hf
  Hf5      1.0000 0.62022  0.99991  0.62017  Biso   1.000  Hf
  Hf6      1.0000 0.62479  0.49970  0.12364  Biso   1.000  Hf
  Hf7      1.0000 0.62396  0.49939  0.62391  Biso   1.000  Hf
  Hf8      1.0000 0.12159  0.25251  0.37119  Biso   1.000  Hf
  Hf9      1.0000 0.12667  0.25276  0.87231  Biso   1.000  Hf
  Hf10     1.0000 0.12807  0.74292  0.37606  Biso   1.000  Hf
  Hf11     1.0000 0.13694  0.74522  0.86875  Biso   1.000  Hf
  Hf12     1.0000 0.62368  0.24922  0.37396  Biso   1.000  Hf
  Hf13     1.0000 0.62355  0.24691  0.87600  Biso   1.000  Hf
  Hf14     1.0000 0.62075  0.75084  0.37503  Biso   1.000  Hf
  Hf15     1.0000 0.62884  0.75509  0.87430  Biso   1.000  Hf
  Hf16     1.0000 0.37122  0.25251  0.12154  Biso   1.000  Hf
  Hf17     1.0000 0.37400  0.24921  0.62366  Biso   1.000  Hf
  Hf18     1.0000 0.37609  0.74290  0.12805  Biso   1.000  Hf
  Hf19     1.0000 0.37506  0.75082  0.62072  Biso   1.000  Hf
  Hf20     1.0000 0.87234  0.25279  0.12663  Biso   1.000  Hf
  Hf21     1.0000 0.87604  0.24691  0.62353  Biso   1.000  Hf
  Hf22     1.0000 0.86877  0.74521  0.13693  Biso   1.000  Hf
  Hf23     1.0000 0.87433  0.75508  0.62881  Biso   1.000  Hf
  Hf24     1.0000 0.37213  0.00190  0.37209  Biso   1.000  Hf
  Hf25     1.0000 0.37862  0.99831  0.87566  Biso   1.000  Hf
  Hf26     1.0000 0.37383  0.49519  0.37379  Biso   1.000  Hf
  Hf27     1.0000 0.37815  0.49920  0.87061  Biso   1.000  Hf
  Hf28     1.0000 0.87570  0.99833  0.37858  Biso   1.000  Hf
  Hf29     1.0000 0.86767  0.00454  0.86764  Biso   1.000  Hf
  Hf30     1.0000 0.87065  0.49918  0.37811  Biso   1.000  Hf
  Hf31     1.0000 0.86843  0.49788  0.86838  Biso   1.000  Hf
  Hf32     1.0000 0.99225  0.15669  0.99223  Biso   1.000  Hf
  Hf33     1.0000 0.00498  0.14929  0.50307  Biso   1.000  Hf
  Hf34     1.0000 0.02459  0.68561  0.02457  Biso   1.000  Hf
  Hf35     1.0000 0.00464  0.65005  0.51301  Biso   1.000  Hf
  Hf36     1.0000 0.50309  0.14927  0.00494  Biso   1.000  Hf
  Hf37     1.0000 0.50166  0.14766  0.50162  Biso   1.000  Hf
  Hf38     1.0000 0.51303  0.65004  0.00460  Biso   1.000  Hf
  Hf39     1.0000 0.50149  0.64624  0.50145  Biso   1.000  Hf
  Hf40     1.0000 0.98539  0.11597  0.25936  Biso   1.000  Hf
  Hf41     1.0000 0.99754  0.10188  0.74696  Biso   1.000  Hf
  Hf42     1.0000 0.99689  0.60145  0.25888  Biso   1.000  Hf
  Hf43     1.0000 0.01068  0.60002  0.76483  Biso   1.000  Hf
  Hf44     1.0000 0.49779  0.10064  0.25191  Biso   1.000  Hf
  Hf45     1.0000 0.49870  0.10164  0.74972  Biso   1.000  Hf
  Hf46     1.0000 0.49546  0.60015  0.25040  Biso   1.000  Hf
  Hf47     1.0000 0.50754  0.60229  0.75392  Biso   1.000  Hf
  Hf48     1.0000 0.00408  0.35712  0.24241  Biso   1.000  Hf
  Hf49     1.0000 0.99879  0.35332  0.74513  Biso   1.000  Hf
  Hf50     1.0000 0.99461  0.85098  0.26587  Biso   1.000  Hf
  Hf51     1.0000 0.99115  0.84994  0.77401  Biso   1.000  Hf
  Hf52     1.0000 0.50118  0.35171  0.24855  Biso   1.000  Hf
  Hf53     1.0000 0.49852  0.35132  0.74983  Biso   1.000  Hf
  Hf54     1.0000 0.50945  0.85099  0.23867  Biso   1.000  Hf
  Hf55     1.0000 0.50094  0.85051  0.74338  Biso   1.000  Hf
  Hf56     1.0000 0.99690  0.41286  0.99685  Biso   1.000  Hf
  Hf57     1.0000 0.00061  0.39808  0.49603  Biso   1.000  Hf
  Hf58     1.0000 0.98746  0.90194  0.51809  Biso   1.000  Hf
  Hf59     1.0000 0.49608  0.39807  0.00052  Biso   1.000  Hf
  Hf60     1.0000 0.49985  0.39673  0.49974  Biso   1.000  Hf
  Hf61     1.0000 0.51812  0.90194  0.98745  Biso   1.000  Hf
  Hf62     1.0000 0.49421  0.89589  0.49421  Biso   1.000  Hf
  Hf63     1.0000 0.25206  0.14852  0.25200  Biso   1.000  Hf
  Hf64     1.0000 0.24407  0.14921  0.74082  Biso   1.000  Hf
  Hf65     1.0000 0.24592  0.64071  0.24589  Biso   1.000  Hf
  Hf66     1.0000 0.25742  0.64311  0.74360  Biso   1.000  Hf
  Hf67     1.0000 0.74088  0.14922  0.24402  Biso   1.000  Hf
  Hf68     1.0000 0.74874  0.14650  0.74870  Biso   1.000  Hf
  Hf69     1.0000 0.74362  0.64310  0.25740  Biso   1.000  Hf
  Hf70     1.0000 0.75701  0.64685  0.75698  Biso   1.000  Hf
  Hf71     1.0000 0.25940  0.11595  0.98535  Biso   1.000  Hf
  Hf72     1.0000 0.25195  0.10064  0.49775  Biso   1.000  Hf
  Hf73     1.0000 0.25889  0.60144  0.99686  Biso   1.000  Hf
  Hf74     1.0000 0.25042  0.60015  0.49542  Biso   1.000  Hf
  Hf75     1.0000 0.74698  0.10190  0.99749  Biso   1.000  Hf
  Hf76     1.0000 0.74976  0.10164  0.49867  Biso   1.000  Hf
  Hf77     1.0000 0.76484  0.60003  0.01060  Biso   1.000  Hf
  Hf78     1.0000 0.75394  0.60228  0.50749  Biso   1.000  Hf
  Hf79     1.0000 0.24243  0.35711  0.00405  Biso   1.000  Hf
  Hf80     1.0000 0.24864  0.35171  0.50113  Biso   1.000  Hf
  Hf81     1.0000 0.26591  0.85097  0.99459  Biso   1.000  Hf
  Hf82     1.0000 0.23870  0.85098  0.50943  Biso   1.000  Hf
  Hf83     1.0000 0.74515  0.35334  0.99874  Biso   1.000  Hf
  Hf84     1.0000 0.74991  0.35131  0.49846  Biso   1.000  Hf
  Hf85     1.0000 0.77403  0.84995  0.99115  Biso   1.000  Hf
  Hf86     1.0000 0.74341  0.85051  0.50094  Biso   1.000  Hf
  Hf87     1.0000 0.25002  0.39588  0.25000  Biso   1.000  Hf
  Hf88     1.0000 0.24929  0.39655  0.75229  Biso   1.000  Hf
  Hf89     1.0000 0.26179  0.87850  0.26176  Biso   1.000  Hf
  Hf90     1.0000 0.24843  0.89680  0.75264  Biso   1.000  Hf
  Hf91     1.0000 0.75231  0.39656  0.24924  Biso   1.000  Hf
  Hf92     1.0000 0.74771  0.39429  0.74768  Biso   1.000  Hf
  Hf93     1.0000 0.75268  0.89681  0.24841  Biso   1.000  Hf
  Hf94     1.0000 0.74509  0.89855  0.74507  Biso   1.000  Hf
