data_image0
_cell_length_a       10.135
_cell_length_b       10.3152
_cell_length_c       10.4244
_cell_angle_alpha    90.1587
_cell_angle_beta     80.7531
_cell_angle_gamma    90.0227

_symmetry_space_group_name_H-M    "P 1"
_symmetry_int_tables_number       1

loop_
  _symmetry_equiv_pos_as_xyz
  'x, y, z'

loop_
  _atom_site_label
  _atom_site_occupancy
  _atom_site_fract_x
  _atom_site_fract_y
  _atom_site_fract_z
  _atom_site_thermal_displace_type
  _atom_site_B_iso_or_equiv
  _atom_site_type_symbol
  La1      1.0000 0.13514  0.00418  0.13452  Biso   1.000  La
  Hf1      1.0000 0.13805  0.02217  0.64690  Biso   1.000  Hf
  Hf2      1.0000 0.13833  0.52157  0.14536  Biso   1.000  Hf
  Hf3      1.0000 0.13970  0.51918  0.64382  Biso   1.000  Hf
  Hf4      1.0000 0.63988  0.02084  0.14678  Biso   1.000  Hf
  Hf5      1.0000 0.64297  0.02319  0.64352  Biso   1.000  Hf
  Hf6      1.0000 0.63938  0.51689  0.14749  Biso   1.000  Hf
  Hf7      1.0000 0.63867  0.52090  0.64508  Biso   1.000  Hf
  Hf8      1.0000 0.13837  0.22510  0.39346  Biso   1.000  Hf
  Hf9      1.0000 0.13826  0.23268  0.89406  Biso   1.000  Hf
  Hf10     1.0000 0.13929  0.72605  0.39804  Biso   1.000  Hf
  Hf11     1.0000 0.13647  0.72361  0.89283  Biso   1.000  Hf
  Hf12     1.0000 0.63824  0.22967  0.39596  Biso   1.000  Hf
  Hf13     1.0000 0.64105  0.23056  0.89677  Biso   1.000  Hf
  Hf14     1.0000 0.63553  0.72691  0.39666  Biso   1.000  Hf
  Hf15     1.0000 0.63829  0.73033  0.89366  Biso   1.000  Hf
  Hf16     1.0000 0.36043  0.26836  0.10347  Biso   1.000  Hf
  Hf17     1.0000 0.36124  0.27068  0.60256  Biso   1.000  Hf
  Hf18     1.0000 0.37059  0.76359  0.10856  Biso   1.000  Hf
  Hf19     1.0000 0.36119  0.77106  0.60580  Biso   1.000  Hf
  Hf20     1.0000 0.86272  0.27213  0.10356  Biso   1.000  Hf
  Hf21     1.0000 0.86294  0.27199  0.60353  Biso   1.000  Hf
  Hf22     1.0000 0.85465  0.76827  0.10544  Biso   1.000  Hf
  Hf23     1.0000 0.86206  0.77112  0.60336  Biso   1.000  Hf
  Hf24     1.0000 0.35949  0.47600  0.35307  Biso   1.000  Hf
  Hf25     1.0000 0.36299  0.47866  0.85357  Biso   1.000  Hf
  Hf26     1.0000 0.36241  0.97904  0.35520  Biso   1.000  Hf
  Hf27     1.0000 0.37141  0.98459  0.84652  Biso   1.000  Hf
  Hf28     1.0000 0.86190  0.47914  0.35474  Biso   1.000  Hf
  Hf29     1.0000 0.85904  0.47888  0.85298  Biso   1.000  Hf
  Hf30     1.0000 0.85602  0.97857  0.35687  Biso   1.000  Hf
  Hf31     1.0000 0.86198  0.97922  0.85555  Biso   1.000  Hf
  Hf32     1.0000 0.04102  0.19116  0.08013  Biso   1.000  Hf
  Hf33     1.0000 0.03821  0.17306  0.58475  Biso   1.000  Hf
  Hf34     1.0000 0.04247  0.68401  0.08639  Biso   1.000  Hf
  Hf35     1.0000 0.03710  0.67139  0.58411  Biso   1.000  Hf
  Hf36     1.0000 0.53782  0.17018  0.08030  Biso   1.000  Hf
  Hf37     1.0000 0.53638  0.17082  0.58170  Biso   1.000  Hf
  Hf38     1.0000 0.54182  0.66942  0.08144  Biso   1.000  Hf
  Hf39     1.0000 0.53530  0.67008  0.58304  Biso   1.000  Hf
  Hf40     1.0000 0.02946  0.07719  0.34198  Biso   1.000  Hf
  Hf41     1.0000 0.03918  0.07707  0.83589  Biso   1.000  Hf
  Hf42     1.0000 0.03790  0.57764  0.33252  Biso   1.000  Hf
  Hf43     1.0000 0.03656  0.57682  0.83296  Biso   1.000  Hf
  Hf44     1.0000 0.53778  0.07764  0.33287  Biso   1.000  Hf
  Hf45     1.0000 0.54400  0.07983  0.82841  Biso   1.000  Hf
  Hf46     1.0000 0.53473  0.57759  0.33091  Biso   1.000  Hf
  Hf47     1.0000 0.53642  0.58069  0.83130  Biso   1.000  Hf
  Hf48     1.0000 0.46388  0.41801  0.16859  Biso   1.000  Hf
  Hf49     1.0000 0.46352  0.42050  0.66868  Biso   1.000  Hf
  Hf50     1.0000 0.46300  0.92249  0.16682  Biso   1.000  Hf
  Hf51     1.0000 0.46647  0.92184  0.66508  Biso   1.000  Hf
  Hf52     1.0000 0.95913  0.43014  0.16468  Biso   1.000  Hf
  Hf53     1.0000 0.96193  0.42415  0.66645  Biso   1.000  Hf
  Hf54     1.0000 0.92934  0.92894  0.16872  Biso   1.000  Hf
  Hf55     1.0000 0.96317  0.92068  0.67032  Biso   1.000  Hf
  Hf56     1.0000 0.46286  0.32809  0.41818  Biso   1.000  Hf
  Hf57     1.0000 0.46630  0.33069  0.91795  Biso   1.000  Hf
  Hf58     1.0000 0.46073  0.82690  0.42076  Biso   1.000  Hf
  Hf59     1.0000 0.45733  0.82958  0.92145  Biso   1.000  Hf
  Hf60     1.0000 0.96293  0.32858  0.41719  Biso   1.000  Hf
  Hf61     1.0000 0.96035  0.32890  0.91254  Biso   1.000  Hf
  Hf62     1.0000 0.96351  0.82747  0.41652  Biso   1.000  Hf
  Hf63     1.0000 0.96686  0.83203  0.92226  Biso   1.000  Hf
  Hf64     1.0000 0.28275  0.13245  0.24537  Biso   1.000  Hf
  Hf65     1.0000 0.27671  0.13006  0.73720  Biso   1.000  Hf
  Hf66     1.0000 0.27802  0.62227  0.24015  Biso   1.000  Hf
  Hf67     1.0000 0.27553  0.62810  0.73973  Biso   1.000  Hf
  Hf68     1.0000 0.77399  0.13259  0.24274  Biso   1.000  Hf
  Hf69     1.0000 0.78043  0.13041  0.74079  Biso   1.000  Hf
  Hf70     1.0000 0.77506  0.62809  0.24162  Biso   1.000  Hf
  Hf71     1.0000 0.77560  0.63079  0.74027  Biso   1.000  Hf
  Hf72     1.0000 0.27528  0.11935  0.49157  Biso   1.000  Hf
  Hf73     1.0000 0.28593  0.12382  0.97846  Biso   1.000  Hf
  Hf74     1.0000 0.27653  0.61898  0.49130  Biso   1.000  Hf
  Hf75     1.0000 0.27626  0.62502  0.99035  Biso   1.000  Hf
  Hf76     1.0000 0.77480  0.12214  0.49224  Biso   1.000  Hf
  Hf77     1.0000 0.77800  0.12075  0.99176  Biso   1.000  Hf
  Hf78     1.0000 0.77586  0.62044  0.49108  Biso   1.000  Hf
  Hf79     1.0000 0.77582  0.62078  0.98886  Biso   1.000  Hf
  Hf80     1.0000 0.22610  0.38304  0.00673  Biso   1.000  Hf
  Hf81     1.0000 0.22293  0.37827  0.50758  Biso   1.000  Hf
  Hf82     1.0000 0.22253  0.87862  0.51460  Biso   1.000  Hf
  Hf83     1.0000 0.72385  0.37983  0.00860  Biso   1.000  Hf
  Hf84     1.0000 0.72350  0.37963  0.50920  Biso   1.000  Hf
  Hf85     1.0000 0.72214  0.87845  0.00728  Biso   1.000  Hf
  Hf86     1.0000 0.72378  0.87882  0.50999  Biso   1.000  Hf
  Hf87     1.0000 0.22077  0.36996  0.25669  Biso   1.000  Hf
  Hf88     1.0000 0.22407  0.37199  0.75740  Biso   1.000  Hf
  Hf89     1.0000 0.23523  0.85705  0.26391  Biso   1.000  Hf
  Hf90     1.0000 0.22571  0.87123  0.76954  Biso   1.000  Hf
  Hf91     1.0000 0.72375  0.37165  0.25995  Biso   1.000  Hf
  Hf92     1.0000 0.72329  0.37139  0.75844  Biso   1.000  Hf
  Hf93     1.0000 0.70908  0.86660  0.26266  Biso   1.000  Hf
  Hf94     1.0000 0.72378  0.87131  0.75896  Biso   1.000  Hf
