data_image0
_cell_length_a       5.09421
_cell_length_b       10.3564
_cell_length_c       10.4886
_cell_angle_alpha    90.1413
_cell_angle_beta     80.7244
_cell_angle_gamma    90.2999

_symmetry_space_group_name_H-M    "P 1"
_symmetry_int_tables_number       1

loop_
  _symmetry_equiv_pos_as_xyz
  'x, y, z'

loop_
  _atom_site_label
  _atom_site_occupancy
  _atom_site_fract_x
  _atom_site_fract_y
  _atom_site_fract_z
  _atom_site_thermal_displace_type
  _atom_site_B_iso_or_equiv
  _atom_site_type_symbol
  La1      1.0000 0.26704  0.01070  0.14032  Biso   1.000  La
  Hf1      1.0000 0.27428  0.22930  0.39787  Biso   1.000  Hf
  Hf2      1.0000 0.71718  0.27140  0.10295  Biso   1.000  Hf
  Hf3      1.0000 0.71781  0.47702  0.35335  Biso   1.000  Hf
  Hf4      1.0000 0.07236  0.18993  0.07591  Biso   1.000  Hf
  Hf5      1.0000 0.05583  0.07923  0.34891  Biso   1.000  Hf
  Hf6      1.0000 0.91872  0.42366  0.16810  Biso   1.000  Hf
  Hf7      1.0000 0.92511  0.33113  0.42012  Biso   1.000  Hf
  Hf8      1.0000 0.55968  0.13809  0.25086  Biso   1.000  Hf
  Hf9      1.0000 0.54423  0.12171  0.49519  Biso   1.000  Hf
  Hf10     1.0000 0.44892  0.38069  0.00708  Biso   1.000  Hf
  Hf11     1.0000 0.43782  0.37233  0.25935  Biso   1.000  Hf
  Hf12     1.0000 0.28104  0.02217  0.64727  Biso   1.000  Hf
  Hf13     1.0000 0.27867  0.23297  0.89402  Biso   1.000  Hf
  Hf14     1.0000 0.72240  0.27151  0.60409  Biso   1.000  Hf
  Hf15     1.0000 0.72452  0.47894  0.85231  Biso   1.000  Hf
  Hf16     1.0000 0.07117  0.17217  0.58563  Biso   1.000  Hf
  Hf17     1.0000 0.08137  0.07971  0.83186  Biso   1.000  Hf
  Hf18     1.0000 0.92926  0.42080  0.66752  Biso   1.000  Hf
  Hf19     1.0000 0.92849  0.33373  0.91357  Biso   1.000  Hf
  Hf20     1.0000 0.55691  0.12984  0.73892  Biso   1.000  Hf
  Hf21     1.0000 0.56954  0.12703  0.98030  Biso   1.000  Hf
  Hf22     1.0000 0.44613  0.37918  0.50930  Biso   1.000  Hf
  Hf23     1.0000 0.44971  0.37264  0.75710  Biso   1.000  Hf
  Hf24     1.0000 0.27564  0.51779  0.14514  Biso   1.000  Hf
  Hf25     1.0000 0.27209  0.72321  0.39810  Biso   1.000  Hf
  Hf26     1.0000 0.72546  0.76126  0.10312  Biso   1.000  Hf
  Hf27     1.0000 0.70832  0.97955  0.36141  Biso   1.000  Hf
  Hf28     1.0000 0.08459  0.67409  0.08199  Biso   1.000  Hf
  Hf29     1.0000 0.06667  0.57927  0.32957  Biso   1.000  Hf
  Hf30     1.0000 0.85953  0.92686  0.17106  Biso   1.000  Hf
  Hf31     1.0000 0.92755  0.82977  0.42001  Biso   1.000  Hf
  Hf32     1.0000 0.54979  0.62252  0.23943  Biso   1.000  Hf
  Hf33     1.0000 0.54987  0.61987  0.49033  Biso   1.000  Hf
  Hf34     1.0000 0.48634  0.86413  0.99460  Biso   1.000  Hf
  Hf35     1.0000 0.45052  0.85565  0.26866  Biso   1.000  Hf
  Hf36     1.0000 0.27871  0.52074  0.64539  Biso   1.000  Hf
  Hf37     1.0000 0.28840  0.72848  0.89245  Biso   1.000  Hf
  Hf38     1.0000 0.72273  0.77194  0.60336  Biso   1.000  Hf
  Hf39     1.0000 0.73231  0.97835  0.85265  Biso   1.000  Hf
  Hf40     1.0000 0.06900  0.66831  0.58218  Biso   1.000  Hf
  Hf41     1.0000 0.07378  0.58073  0.82940  Biso   1.000  Hf
  Hf42     1.0000 0.93323  0.91830  0.67041  Biso   1.000  Hf
  Hf43     1.0000 0.95642  0.83633  0.92226  Biso   1.000  Hf
  Hf44     1.0000 0.55484  0.62986  0.73840  Biso   1.000  Hf
  Hf45     1.0000 0.55535  0.61647  0.98920  Biso   1.000  Hf
  Hf46     1.0000 0.44656  0.87912  0.51266  Biso   1.000  Hf
  Hf47     1.0000 0.45412  0.87152  0.75635  Biso   1.000  Hf
