data_image0
_cell_length_a       5.01511
_cell_length_b       10.4204
_cell_length_c       10.0994
_cell_angle_alpha    90.3682
_cell_angle_beta     90.5019
_cell_angle_gamma    89.9769

_symmetry_space_group_name_H-M    "P 1"
_symmetry_int_tables_number       1

loop_
  _symmetry_equiv_pos_as_xyz
  'x, y, z'

loop_
  _atom_site_label
  _atom_site_occupancy
  _atom_site_fract_x
  _atom_site_fract_y
  _atom_site_fract_z
  _atom_site_thermal_displace_type
  _atom_site_B_iso_or_equiv
  _atom_site_type_symbol
  La1      1.0000 0.24962  0.00563  0.11824  Biso   1.000  La
  Hf1      1.0000 0.26621  0.23379  0.37657  Biso   1.000  Hf
  Hf2      1.0000 0.72116  0.26729  0.12880  Biso   1.000  Hf
  Hf3      1.0000 0.72714  0.48272  0.37711  Biso   1.000  Hf
  Hf4      1.0000 0.06266  0.19779  0.19969  Biso   1.000  Hf
  Hf5      1.0000 0.06872  0.06468  0.44171  Biso   1.000  Hf
  Hf6      1.0000 0.92198  0.43750  0.19578  Biso   1.000  Hf
  Hf7      1.0000 0.92423  0.31778  0.44520  Biso   1.000  Hf
  Hf8      1.0000 0.55272  0.12765  0.25856  Biso   1.000  Hf
  Hf9      1.0000 0.53377  0.13228  0.50275  Biso   1.000  Hf
  Hf10     1.0000 0.45765  0.38331  0.50010  Biso   1.000  Hf
  Hf11     1.0000 0.45105  0.36995  0.25060  Biso   1.000  Hf
  Hf12     1.0000 0.26570  0.01800  0.62608  Biso   1.000  Hf
  Hf13     1.0000 0.27299  0.23735  0.87009  Biso   1.000  Hf
  Hf14     1.0000 0.73328  0.26757  0.62316  Biso   1.000  Hf
  Hf15     1.0000 0.73518  0.48207  0.87754  Biso   1.000  Hf
  Hf16     1.0000 0.08105  0.19035  0.68291  Biso   1.000  Hf
  Hf17     1.0000 0.07731  0.07271  0.91030  Biso   1.000  Hf
  Hf18     1.0000 0.93392  0.43412  0.69831  Biso   1.000  Hf
  Hf19     1.0000 0.93772  0.31978  0.94731  Biso   1.000  Hf
  Hf20     1.0000 0.54671  0.11941  0.74598  Biso   1.000  Hf
  Hf21     1.0000 0.55963  0.13696  0.99121  Biso   1.000  Hf
  Hf22     1.0000 0.46018  0.38326  0.99916  Biso   1.000  Hf
  Hf23     1.0000 0.46619  0.36945  0.74820  Biso   1.000  Hf
  Hf24     1.0000 0.26524  0.51436  0.12595  Biso   1.000  Hf
  Hf25     1.0000 0.26205  0.73066  0.38168  Biso   1.000  Hf
  Hf26     1.0000 0.72885  0.75911  0.12988  Biso   1.000  Hf
  Hf27     1.0000 0.72058  0.98336  0.38077  Biso   1.000  Hf
  Hf28     1.0000 0.07155  0.68248  0.19914  Biso   1.000  Hf
  Hf29     1.0000 0.06593  0.56462  0.44888  Biso   1.000  Hf
  Hf30     1.0000 0.87583  0.93108  0.20293  Biso   1.000  Hf
  Hf31     1.0000 0.92595  0.81496  0.44869  Biso   1.000  Hf
  Hf32     1.0000 0.53599  0.61227  0.25039  Biso   1.000  Hf
  Hf33     1.0000 0.53784  0.63128  0.50108  Biso   1.000  Hf
  Hf34     1.0000 0.45293  0.88192  0.50260  Biso   1.000  Hf
  Hf35     1.0000 0.46186  0.85100  0.25845  Biso   1.000  Hf
  Hf36     1.0000 0.26759  0.51600  0.62712  Biso   1.000  Hf
  Hf37     1.0000 0.27729  0.73143  0.87530  Biso   1.000  Hf
  Hf38     1.0000 0.73168  0.76566  0.62488  Biso   1.000  Hf
  Hf39     1.0000 0.73574  0.98410  0.86819  Biso   1.000  Hf
  Hf40     1.0000 0.07131  0.68387  0.69659  Biso   1.000  Hf
  Hf41     1.0000 0.06819  0.57060  0.94713  Biso   1.000  Hf
  Hf42     1.0000 0.92515  0.93340  0.68994  Biso   1.000  Hf
  Hf43     1.0000 0.96880  0.82810  0.95818  Biso   1.000  Hf
  Hf44     1.0000 0.54406  0.61692  0.75021  Biso   1.000  Hf
  Hf45     1.0000 0.54195  0.62714  0.00049  Biso   1.000  Hf
  Hf46     1.0000 0.49996  0.86762  0.98966  Biso   1.000  Hf
  Hf47     1.0000 0.45953  0.86773  0.74729  Biso   1.000  Hf
