data_image0
_cell_length_a       10.2295
_cell_length_b       10.4693
_cell_length_c       5.21026
_cell_angle_alpha    89.9492
_cell_angle_beta     80.9872
_cell_angle_gamma    90.2282

_symmetry_space_group_name_H-M    "P 1"
_symmetry_int_tables_number       1

loop_
  _symmetry_equiv_pos_as_xyz
  'x, y, z'

loop_
  _atom_site_label
  _atom_site_occupancy
  _atom_site_fract_x
  _atom_site_fract_y
  _atom_site_fract_z
  _atom_site_thermal_displace_type
  _atom_site_B_iso_or_equiv
  _atom_site_type_symbol
  La1      1.0000 0.13190  0.01307  0.26466  Biso   1.000  La
  Hf1      1.0000 0.13804  0.52055  0.29174  Biso   1.000  Hf
  Hf2      1.0000 0.63898  0.01967  0.30076  Biso   1.000  Hf
  Hf3      1.0000 0.63825  0.51998  0.29434  Biso   1.000  Hf
  Hf4      1.0000 0.14059  0.23970  0.79775  Biso   1.000  Hf
  Hf5      1.0000 0.14426  0.72255  0.78700  Biso   1.000  Hf
  Hf6      1.0000 0.63460  0.23264  0.79481  Biso   1.000  Hf
  Hf7      1.0000 0.63893  0.72836  0.79078  Biso   1.000  Hf
  Hf8      1.0000 0.36106  0.27164  0.20922  Biso   1.000  Hf
  Hf9      1.0000 0.36541  0.76736  0.20520  Biso   1.000  Hf
  Hf10     1.0000 0.85574  0.27745  0.21300  Biso   1.000  Hf
  Hf11     1.0000 0.85941  0.76029  0.20225  Biso   1.000  Hf
  Hf12     1.0000 0.36176  0.48002  0.70566  Biso   1.000  Hf
  Hf13     1.0000 0.36102  0.98033  0.69924  Biso   1.000  Hf
  Hf14     1.0000 0.86197  0.47944  0.70826  Biso   1.000  Hf
  La2      1.0000 0.86810  0.98693  0.73534  Biso   1.000  La
  O1       1.0000 0.03751  0.20406  0.18231  Biso   1.000  O 
  O2       1.0000 0.04476  0.68237  0.18814  Biso   1.000  O 
  O3       1.0000 0.52980  0.16746  0.16601  Biso   1.000  O 
  O4       1.0000 0.53562  0.66591  0.15988  Biso   1.000  O 
  O5       1.0000 0.07739  0.06156  0.73980  Biso   1.000  O 
  O6       1.0000 0.04410  0.56370  0.67826  Biso   1.000  O 
  O7       1.0000 0.53708  0.07827  0.66618  Biso   1.000  O 
  O8       1.0000 0.53390  0.58158  0.65960  Biso   1.000  O 
  O9       1.0000 0.46610  0.41842  0.34040  Biso   1.000  O 
  O10      1.0000 0.46291  0.92173  0.33382  Biso   1.000  O 
  O11      1.0000 0.95590  0.43630  0.32174  Biso   1.000  O 
  O12      1.0000 0.92261  0.93844  0.26019  Biso   1.000  O 
  O13      1.0000 0.46438  0.33409  0.84012  Biso   1.000  O 
  O14      1.0000 0.47020  0.83254  0.83399  Biso   1.000  O 
  O15      1.0000 0.95524  0.31763  0.81185  Biso   1.000  O 
  O16      1.0000 0.96248  0.79594  0.81769  Biso   1.000  O 
  O17      1.0000 0.28636  0.13566  0.48420  Biso   1.000  O 
  O18      1.0000 0.27803  0.62345  0.47721  Biso   1.000  O 
  O19      1.0000 0.76547  0.14361  0.48603  Biso   1.000  O 
  O20      1.0000 0.77559  0.62746  0.48637  Biso   1.000  O 
  O21      1.0000 0.28796  0.13066  0.96762  Biso   1.000  O 
  O22      1.0000 0.27714  0.61681  0.98236  Biso   1.000  O 
  O23      1.0000 0.75991  0.13406  0.00992  Biso   1.000  O 
  O24      1.0000 0.77430  0.61721  0.98422  Biso   1.000  O 
  O25      1.0000 0.22570  0.38279  0.01577  Biso   1.000  O 
  O26      1.0000 0.24009  0.86594  0.99009  Biso   1.000  O 
  O27      1.0000 0.72285  0.38320  0.01763  Biso   1.000  O 
  O28      1.0000 0.71204  0.86934  0.03238  Biso   1.000  O 
  O29      1.0000 0.22441  0.37254  0.51364  Biso   1.000  O 
  O30      1.0000 0.23453  0.85639  0.51396  Biso   1.000  O 
  O31      1.0000 0.72197  0.37655  0.52280  Biso   1.000  O 
  O32      1.0000 0.71364  0.86434  0.51579  Biso   1.000  O 
