data_image0
_cell_length_a       10.1847
_cell_length_b       10.5406
_cell_length_c       5.24009
_cell_angle_alpha    90.0316
_cell_angle_beta     81.5544
_cell_angle_gamma    90.5249

_symmetry_space_group_name_H-M    "P 1"
_symmetry_int_tables_number       1

loop_
  _symmetry_equiv_pos_as_xyz
  'x, y, z'

loop_
  _atom_site_label
  _atom_site_occupancy
  _atom_site_fract_x
  _atom_site_fract_y
  _atom_site_fract_z
  _atom_site_thermal_displace_type
  _atom_site_B_iso_or_equiv
  _atom_site_type_symbol
  La1      1.0000 0.12891  0.01544  0.28234  Biso   1.000  La
  Hf1      1.0000 0.13909  0.52112  0.29085  Biso   1.000  Hf
  Hf2      1.0000 0.64371  0.02181  0.27518  Biso   1.000  Hf
  Hf3      1.0000 0.63792  0.51827  0.29347  Biso   1.000  Hf
  Hf4      1.0000 0.13403  0.23827  0.79059  Biso   1.000  Hf
  Hf5      1.0000 0.14166  0.72530  0.78929  Biso   1.000  Hf
  Hf6      1.0000 0.64026  0.23714  0.79726  Biso   1.000  Hf
  Hf7      1.0000 0.64172  0.72381  0.78918  Biso   1.000  Hf
  Hf8      1.0000 0.35836  0.27469  0.21071  Biso   1.000  Hf
  Hf9      1.0000 0.36596  0.76173  0.20948  Biso   1.000  Hf
  Hf10     1.0000 0.85828  0.27617  0.21076  Biso   1.000  Hf
  Hf11     1.0000 0.85975  0.76289  0.20269  Biso   1.000  Hf
  Hf12     1.0000 0.36092  0.47887  0.70927  Biso   1.000  Hf
  La2      1.0000 0.37111  0.98455  0.71771  Biso   1.000  La
  Hf13     1.0000 0.86209  0.48174  0.70651  Biso   1.000  Hf
  Hf14     1.0000 0.85627  0.97821  0.72475  Biso   1.000  Hf
  O1       1.0000 0.03614  0.20215  0.17416  Biso   1.000  O 
  O2       1.0000 0.03618  0.67085  0.16616  Biso   1.000  O 
  O3       1.0000 0.53345  0.17067  0.15534  Biso   1.000  O 
  O4       1.0000 0.54389  0.66824  0.17061  Biso   1.000  O 
  O5       1.0000 0.02968  0.07737  0.71659  Biso   1.000  O 
  O6       1.0000 0.03674  0.57823  0.66210  Biso   1.000  O 
  O7       1.0000 0.56652  0.08499  0.63821  Biso   1.000  O 
  O8       1.0000 0.54215  0.56942  0.66833  Biso   1.000  O 
  O9       1.0000 0.46330  0.42169  0.33806  Biso   1.000  O 
  O10      1.0000 0.47034  0.92257  0.28351  Biso   1.000  O 
  O11      1.0000 0.95784  0.43061  0.33158  Biso   1.000  O 
  O12      1.0000 0.93339  0.91516  0.36155  Biso   1.000  O 
  O13      1.0000 0.46386  0.32922  0.83398  Biso   1.000  O 
  O14      1.0000 0.46388  0.79787  0.82588  Biso   1.000  O 
  O15      1.0000 0.95609  0.33172  0.82931  Biso   1.000  O 
  O16      1.0000 0.96651  0.82925  0.84445  Biso   1.000  O 
  O17      1.0000 0.26945  0.14985  0.48838  Biso   1.000  O 
  O18      1.0000 0.27962  0.62158  0.48087  Biso   1.000  O 
  O19      1.0000 0.78956  0.12988  0.47535  Biso   1.000  O 
  O20      1.0000 0.77559  0.62928  0.48041  Biso   1.000  O 
  O21      1.0000 0.27044  0.14351  0.98272  Biso   1.000  O 
  O22      1.0000 0.27540  0.61492  0.98341  Biso   1.000  O 
  O23      1.0000 0.77262  0.12320  0.98426  Biso   1.000  O 
  O24      1.0000 0.77787  0.61756  0.97929  Biso   1.000  O 
  O25      1.0000 0.22460  0.38503  0.01670  Biso   1.000  O 
  O26      1.0000 0.22955  0.85645  0.01733  Biso   1.000  O 
  O27      1.0000 0.72215  0.38248  0.02071  Biso   1.000  O 
  O28      1.0000 0.72737  0.87684  0.01569  Biso   1.000  O 
  O29      1.0000 0.22041  0.37844  0.51920  Biso   1.000  O 
  O30      1.0000 0.23055  0.85018  0.51169  Biso   1.000  O 
  O31      1.0000 0.72444  0.37070  0.51950  Biso   1.000  O 
  O32      1.0000 0.71040  0.87009  0.52463  Biso   1.000  O 
