data_image0
_cell_length_a       10.2888
_cell_length_b       5.18803
_cell_length_c       10.4366
_cell_angle_alpha    90.223
_cell_angle_beta     81.8194
_cell_angle_gamma    89.9754

_symmetry_space_group_name_H-M    "P 1"
_symmetry_int_tables_number       1

loop_
  _symmetry_equiv_pos_as_xyz
  'x, y, z'

loop_
  _atom_site_label
  _atom_site_occupancy
  _atom_site_fract_x
  _atom_site_fract_y
  _atom_site_fract_z
  _atom_site_thermal_displace_type
  _atom_site_B_iso_or_equiv
  _atom_site_type_symbol
  La1      1.0000 0.12445  0.01205  0.12956  Biso   1.000  La
  Hf1      1.0000 0.13896  0.04678  0.64277  Biso   1.000  Hf
  Hf2      1.0000 0.64856  0.03797  0.14563  Biso   1.000  Hf
  Hf3      1.0000 0.63450  0.04337  0.65079  Biso   1.000  Hf
  La2      1.0000 0.12589  0.47211  0.38119  Biso   1.000  La
  Hf4      1.0000 0.14392  0.46830  0.88996  Biso   1.000  Hf
  Hf5      1.0000 0.63507  0.46186  0.40104  Biso   1.000  Hf
  Hf6      1.0000 0.64523  0.45977  0.89656  Biso   1.000  Hf
  Hf7      1.0000 0.37192  0.52972  0.09784  Biso   1.000  Hf
  Hf8      1.0000 0.35728  0.54281  0.59924  Biso   1.000  Hf
  Hf9      1.0000 0.85980  0.53663  0.10695  Biso   1.000  Hf
  Hf10     1.0000 0.85517  0.53919  0.61193  Biso   1.000  Hf
  Hf11     1.0000 0.36531  0.96952  0.34907  Biso   1.000  Hf
  Hf12     1.0000 0.36532  0.95859  0.84902  Biso   1.000  Hf
  Hf13     1.0000 0.84676  0.96304  0.36439  Biso   1.000  Hf
  Hf14     1.0000 0.86700  0.95759  0.85558  Biso   1.000  Hf
  O1       1.0000 0.04790  0.43171  0.10047  Biso   1.000  O 
  O2       1.0000 0.02817  0.34829  0.59907  Biso   1.000  O 
  O3       1.0000 0.54589  0.33205  0.07684  Biso   1.000  O 
  O4       1.0000 0.53048  0.33625  0.58262  Biso   1.000  O 
  O5       1.0000 0.03171  0.06710  0.35359  Biso   1.000  O 
  O6       1.0000 0.04315  0.14507  0.84501  Biso   1.000  O 
  O7       1.0000 0.53929  0.16357  0.32900  Biso   1.000  O 
  O8       1.0000 0.53676  0.16707  0.83113  Biso   1.000  O 
  O9       1.0000 0.48172  0.82653  0.16568  Biso   1.000  O 
  O10      1.0000 0.46387  0.83650  0.66977  Biso   1.000  O 
  O11      1.0000 0.91132  0.88705  0.16562  Biso   1.000  O 
  O12      1.0000 0.96244  0.84701  0.66647  Biso   1.000  O 
  O13      1.0000 0.46422  0.66377  0.41986  Biso   1.000  O 
  O14      1.0000 0.47964  0.67264  0.91638  Biso   1.000  O 
  O15      1.0000 0.91568  0.61634  0.41469  Biso   1.000  O 
  O16      1.0000 0.96493  0.65347  0.91739  Biso   1.000  O 
  O17      1.0000 0.29390  0.24804  0.23006  Biso   1.000  O 
  O18      1.0000 0.27368  0.26076  0.73654  Biso   1.000  O 
  O19      1.0000 0.77213  0.27317  0.24888  Biso   1.000  O 
  O20      1.0000 0.77463  0.25753  0.74590  Biso   1.000  O 
  O21      1.0000 0.27895  0.24286  0.49219  Biso   1.000  O 
  O22      1.0000 0.28338  0.24807  0.97658  Biso   1.000  O 
  O23      1.0000 0.76524  0.23597  0.50136  Biso   1.000  O 
  O24      1.0000 0.78330  0.24001  0.99266  Biso   1.000  O 
  O25      1.0000 0.24790  0.73684  0.98783  Biso   1.000  O 
  O26      1.0000 0.23142  0.77993  0.50734  Biso   1.000  O 
  O27      1.0000 0.72901  0.75635  0.00734  Biso   1.000  O 
  O28      1.0000 0.71023  0.75812  0.51993  Biso   1.000  O 
  O29      1.0000 0.25461  0.74142  0.24219  Biso   1.000  O 
  O30      1.0000 0.22346  0.74300  0.75250  Biso   1.000  O 
  O31      1.0000 0.70847  0.74307  0.26657  Biso   1.000  O 
  O32      1.0000 0.72794  0.74350  0.76178  Biso   1.000  O 
