data_image0
_cell_length_a       10.2584
_cell_length_b       5.19039
_cell_length_c       10.4849
_cell_angle_alpha    90.2635
_cell_angle_beta     81.2618
_cell_angle_gamma    90.3902

_symmetry_space_group_name_H-M    "P 1"
_symmetry_int_tables_number       1

loop_
  _symmetry_equiv_pos_as_xyz
  'x, y, z'

loop_
  _atom_site_label
  _atom_site_occupancy
  _atom_site_fract_x
  _atom_site_fract_y
  _atom_site_fract_z
  _atom_site_thermal_displace_type
  _atom_site_B_iso_or_equiv
  _atom_site_type_symbol
  La1      1.0000 0.13231  0.02070  0.13095  Biso   1.000  La
  Hf1      1.0000 0.13719  0.04115  0.64435  Biso   1.000  Hf
  Hf2      1.0000 0.64183  0.03789  0.14761  Biso   1.000  Hf
  Hf3      1.0000 0.63589  0.04114  0.64984  Biso   1.000  Hf
  Hf4      1.0000 0.14488  0.45845  0.39905  Biso   1.000  Hf
  Hf5      1.0000 0.13782  0.46452  0.88982  Biso   1.000  Hf
  Hf6      1.0000 0.63055  0.46804  0.40033  Biso   1.000  Hf
  Hf7      1.0000 0.64306  0.45881  0.89506  Biso   1.000  Hf
  Hf8      1.0000 0.36903  0.53193  0.09943  Biso   1.000  Hf
  Hf9      1.0000 0.35657  0.54116  0.60470  Biso   1.000  Hf
  Hf10     1.0000 0.85468  0.54148  0.10071  Biso   1.000  Hf
  Hf11     1.0000 0.86180  0.53544  0.60994  Biso   1.000  Hf
  Hf12     1.0000 0.35774  0.96211  0.35212  Biso   1.000  Hf
  Hf13     1.0000 0.36375  0.95879  0.84994  Biso   1.000  Hf
  La2      1.0000 0.86724  0.97925  0.36874  Biso   1.000  La
  Hf14     1.0000 0.86244  0.95879  0.85543  Biso   1.000  Hf
  O1       1.0000 0.04154  0.41805  0.08608  Biso   1.000  O 
  O2       1.0000 0.04190  0.36017  0.59671  Biso   1.000  O 
  O3       1.0000 0.53960  0.33290  0.07649  Biso   1.000  O 
  O4       1.0000 0.52272  0.32625  0.58248  Biso   1.000  O 
  O5       1.0000 0.07853  0.10786  0.35777  Biso   1.000  O 
  O6       1.0000 0.04185  0.13739  0.84067  Biso   1.000  O 
  O7       1.0000 0.53330  0.16236  0.33136  Biso   1.000  O 
  O8       1.0000 0.53640  0.16643  0.82883  Biso   1.000  O 
  O9       1.0000 0.46628  0.83756  0.16838  Biso   1.000  O 
  O10      1.0000 0.46320  0.83358  0.67092  Biso   1.000  O 
  O11      1.0000 0.92102  0.89218  0.14187  Biso   1.000  O 
  O12      1.0000 0.95777  0.86258  0.65911  Biso   1.000  O 
  O13      1.0000 0.45999  0.66706  0.42324  Biso   1.000  O 
  O14      1.0000 0.47691  0.67373  0.91727  Biso   1.000  O 
  O15      1.0000 0.95806  0.58197  0.41369  Biso   1.000  O 
  O16      1.0000 0.95774  0.63978  0.90301  Biso   1.000  O 
  O17      1.0000 0.29199  0.25956  0.23926  Biso   1.000  O 
  O18      1.0000 0.27274  0.25903  0.73877  Biso   1.000  O 
  O19      1.0000 0.76357  0.28535  0.24155  Biso   1.000  O 
  O20      1.0000 0.77761  0.25609  0.74525  Biso   1.000  O 
  O21      1.0000 0.27748  0.24159  0.49338  Biso   1.000  O 
  O22      1.0000 0.28414  0.24875  0.97801  Biso   1.000  O 
  O23      1.0000 0.75518  0.26511  0.50965  Biso   1.000  O 
  O24      1.0000 0.77629  0.23911  0.99088  Biso   1.000  O 
  O25      1.0000 0.24442  0.73479  0.99012  Biso   1.000  O 
  O26      1.0000 0.22332  0.76087  0.50890  Biso   1.000  O 
  O27      1.0000 0.72212  0.75843  0.00636  Biso   1.000  O 
  O28      1.0000 0.71545  0.75115  0.52176  Biso   1.000  O 
  O29      1.0000 0.23601  0.71463  0.25820  Biso   1.000  O 
  O30      1.0000 0.22202  0.74389  0.75451  Biso   1.000  O 
  O31      1.0000 0.70763  0.74039  0.26047  Biso   1.000  O 
  O32      1.0000 0.72687  0.74094  0.76099  Biso   1.000  O 
