data_image0
_cell_length_a       10.2146
_cell_length_b       10.4924
_cell_length_c       5.25454
_cell_angle_alpha    90.0016
_cell_angle_beta     81.347
_cell_angle_gamma    89.9761

_symmetry_space_group_name_H-M    "P 1"
_symmetry_int_tables_number       1

loop_
  _symmetry_equiv_pos_as_xyz
  'x, y, z'

loop_
  _atom_site_label
  _atom_site_occupancy
  _atom_site_fract_x
  _atom_site_fract_y
  _atom_site_fract_z
  _atom_site_thermal_displace_type
  _atom_site_B_iso_or_equiv
  _atom_site_type_symbol
  La1      1.0000 0.13003  0.01399  0.27725  Biso   1.000  La
  Hf1      1.0000 0.13927  0.52405  0.28564  Biso   1.000  Hf
  Hf2      1.0000 0.63893  0.01596  0.29252  Biso   1.000  Hf
  Hf3      1.0000 0.64012  0.52074  0.28725  Biso   1.000  Hf
  Hf4      1.0000 0.13908  0.23403  0.79243  Biso   1.000  Hf
  Hf5      1.0000 0.14019  0.72920  0.78727  Biso   1.000  Hf
  La2      1.0000 0.63014  0.23602  0.77716  Biso   1.000  La
  Hf6      1.0000 0.63922  0.72594  0.78566  Biso   1.000  Hf
  Hf7      1.0000 0.35538  0.27074  0.22730  Biso   1.000  Hf
  Hf8      1.0000 0.36571  0.76688  0.20139  Biso   1.000  Hf
  Hf9      1.0000 0.86271  0.27645  0.20040  Biso   1.000  Hf
  Hf10     1.0000 0.85764  0.76539  0.20380  Biso   1.000  Hf
  Hf11     1.0000 0.35779  0.48459  0.70365  Biso   1.000  Hf
  Hf12     1.0000 0.36276  0.97353  0.70042  Biso   1.000  Hf
  Hf13     1.0000 0.86576  0.48314  0.70136  Biso   1.000  Hf
  Hf14     1.0000 0.85540  0.97914  0.72742  Biso   1.000  Hf
  O1       1.0000 0.04354  0.20205  0.16879  Biso   1.000  O 
  O2       1.0000 0.03825  0.67505  0.16212  Biso   1.000  O 
  O3       1.0000 0.52999  0.17039  0.21095  Biso   1.000  O 
  O4       1.0000 0.53907  0.66816  0.15797  Biso   1.000  O 
  O5       1.0000 0.03000  0.07966  0.71109  Biso   1.000  O 
  O6       1.0000 0.03903  0.58193  0.65785  Biso   1.000  O 
  O7       1.0000 0.54342  0.04806  0.66874  Biso   1.000  O 
  O8       1.0000 0.53832  0.57471  0.66239  Biso   1.000  O 
  O9       1.0000 0.46745  0.41643  0.34762  Biso   1.000  O 
  O10      1.0000 0.46202  0.91893  0.32259  Biso   1.000  O 
  O11      1.0000 0.96662  0.42884  0.32784  Biso   1.000  O 
  O12      1.0000 0.93712  0.91500  0.36267  Biso   1.000  O 
  O13      1.0000 0.43694  0.33461  0.86223  Biso   1.000  O 
  O14      1.0000 0.46653  0.82106  0.82789  Biso   1.000  O 
  O15      1.0000 0.96206  0.33115  0.82278  Biso   1.000  O 
  O16      1.0000 0.96747  0.83368  0.84813  Biso   1.000  O 
  O17      1.0000 0.27816  0.13368  0.49920  Biso   1.000  O 
  O18      1.0000 0.27834  0.62606  0.47194  Biso   1.000  O 
  O19      1.0000 0.78602  0.12426  0.47016  Biso   1.000  O 
  O20      1.0000 0.77468  0.63080  0.47573  Biso   1.000  O 
  O21      1.0000 0.28597  0.12567  0.97015  Biso   1.000  O 
  O22      1.0000 0.27478  0.61918  0.97577  Biso   1.000  O 
  O23      1.0000 0.77820  0.11626  0.99931  Biso   1.000  O 
  O24      1.0000 0.77837  0.62391  0.97190  Biso   1.000  O 
  O25      1.0000 0.21680  0.38315  0.02209  Biso   1.000  O 
  O26      1.0000 0.23847  0.86699  0.99314  Biso   1.000  O 
  O27      1.0000 0.73342  0.39217  0.01544  Biso   1.000  O 
  O28      1.0000 0.72315  0.87590  0.01785  Biso   1.000  O 
  O29      1.0000 0.22321  0.37408  0.51785  Biso   1.000  O 
  O30      1.0000 0.23341  0.85782  0.51559  Biso   1.000  O 
  O31      1.0000 0.73858  0.38299  0.49307  Biso   1.000  O 
  O32      1.0000 0.71677  0.86686  0.52220  Biso   1.000  O 
