data_image0
_cell_length_a       5.08065
_cell_length_b       10.3736
_cell_length_c       10.4694
_cell_angle_alpha    90.7986
_cell_angle_beta     81.1023
_cell_angle_gamma    90.2953

_symmetry_space_group_name_H-M    "P 1"
_symmetry_int_tables_number       1

loop_
  _symmetry_equiv_pos_as_xyz
  'x, y, z'

loop_
  _atom_site_label
  _atom_site_occupancy
  _atom_site_fract_x
  _atom_site_fract_y
  _atom_site_fract_z
  _atom_site_thermal_displace_type
  _atom_site_B_iso_or_equiv
  _atom_site_type_symbol
  La1      1.0000 0.26980  0.01278  0.14265  Biso   1.000  La
  Hf1      1.0000 0.27776  0.02179  0.64568  Biso   1.000  Hf
  Hf2      1.0000 0.27586  0.52144  0.14377  Biso   1.000  Hf
  Hf3      1.0000 0.27431  0.52074  0.64638  Biso   1.000  Hf
  Hf4      1.0000 0.26141  0.23195  0.40325  Biso   1.000  Hf
  Hf5      1.0000 0.28062  0.23215  0.89190  Biso   1.000  Hf
  Hf6      1.0000 0.27648  0.72003  0.39965  Biso   1.000  Hf
  Hf7      1.0000 0.28542  0.73134  0.89441  Biso   1.000  Hf
  Hf8      1.0000 0.73213  0.27985  0.09003  Biso   1.000  Hf
  Hf9      1.0000 0.71862  0.27150  0.60489  Biso   1.000  Hf
  Hf10     1.0000 0.72385  0.76693  0.10652  Biso   1.000  Hf
  Hf11     1.0000 0.72211  0.76929  0.60645  Biso   1.000  Hf
  Hf12     1.0000 0.71892  0.47553  0.35262  Biso   1.000  Hf
  Hf13     1.0000 0.72261  0.48332  0.85092  Biso   1.000  Hf
  Hf14     1.0000 0.72157  0.96991  0.36548  Biso   1.000  Hf
  Hf15     1.0000 0.73320  0.97833  0.85410  Biso   1.000  Hf
  O1       1.0000 0.07602  0.19094  0.07359  Biso   1.000  O 
  O2       1.0000 0.07212  0.17602  0.59028  Biso   1.000  O 
  O3       1.0000 0.08584  0.67895  0.08772  Biso   1.000  O 
  O4       1.0000 0.07356  0.67066  0.58551  Biso   1.000  O 
  O5       1.0000 0.06194  0.07723  0.35028  Biso   1.000  O 
  O6       1.0000 0.08358  0.07812  0.83191  Biso   1.000  O 
  O7       1.0000 0.07616  0.57043  0.33382  Biso   1.000  O 
  O8       1.0000 0.07540  0.58010  0.83213  Biso   1.000  O 
  O9       1.0000 0.92114  0.42853  0.16539  Biso   1.000  O 
  O10      1.0000 0.92221  0.42421  0.66540  Biso   1.000  O 
  O11      1.0000 0.84515  0.94151  0.17069  Biso   1.000  O 
  O12      1.0000 0.92976  0.91999  0.66916  Biso   1.000  O 
  O13      1.0000 0.91584  0.32718  0.41967  Biso   1.000  O 
  O14      1.0000 0.92992  0.33544  0.90965  Biso   1.000  O 
  O15      1.0000 0.92503  0.82145  0.41901  Biso   1.000  O 
  O16      1.0000 0.95210  0.83672  0.92504  Biso   1.000  O 
  O17      1.0000 0.55627  0.12969  0.73661  Biso   1.000  O 
  O18      1.0000 0.55250  0.61950  0.24062  Biso   1.000  O 
  O19      1.0000 0.55359  0.63049  0.74028  Biso   1.000  O 
  O20      1.0000 0.54371  0.12001  0.48584  Biso   1.000  O 
  O21      1.0000 0.57180  0.12897  0.98119  Biso   1.000  O 
  O22      1.0000 0.55355  0.61738  0.49175  Biso   1.000  O 
  O23      1.0000 0.55642  0.62072  0.99093  Biso   1.000  O 
  O24      1.0000 0.44885  0.38591  0.00349  Biso   1.000  O 
  O25      1.0000 0.44224  0.37997  0.50880  Biso   1.000  O 
  O26      1.0000 0.48313  0.86660  0.99634  Biso   1.000  O 
  O27      1.0000 0.44788  0.87645  0.51490  Biso   1.000  O 
  O28      1.0000 0.45283  0.35461  0.25526  Biso   1.000  O 
  O29      1.0000 0.44790  0.37204  0.75607  Biso   1.000  O 
  O30      1.0000 0.44656  0.85160  0.27158  Biso   1.000  O 
  O31      1.0000 0.45254  0.87148  0.75791  Biso   1.000  O 
