data_image0
_cell_length_a       10.1666
_cell_length_b       10.3493
_cell_length_c       5.20979
_cell_angle_alpha    90.2602
_cell_angle_beta     81.0675
_cell_angle_gamma    89.9463

_symmetry_space_group_name_H-M    "P 1"
_symmetry_int_tables_number       1

loop_
  _symmetry_equiv_pos_as_xyz
  'x, y, z'

loop_
  _atom_site_label
  _atom_site_occupancy
  _atom_site_fract_x
  _atom_site_fract_y
  _atom_site_fract_z
  _atom_site_thermal_displace_type
  _atom_site_B_iso_or_equiv
  _atom_site_type_symbol
  La1      1.0000 0.13431  0.00522  0.27282  Biso   1.000  La
  Hf1      1.0000 0.13909  0.51896  0.28669  Biso   1.000  Hf
  Hf2      1.0000 0.64443  0.02261  0.28980  Biso   1.000  Hf
  Hf3      1.0000 0.63929  0.51643  0.29312  Biso   1.000  Hf
  Hf4      1.0000 0.13784  0.22930  0.78412  Biso   1.000  Hf
  Hf5      1.0000 0.13689  0.72078  0.78937  Biso   1.000  Hf
  Hf6      1.0000 0.64103  0.23152  0.79392  Biso   1.000  Hf
  Hf7      1.0000 0.63432  0.72897  0.78961  Biso   1.000  Hf
  Hf8      1.0000 0.36102  0.26794  0.20352  Biso   1.000  Hf
  Hf9      1.0000 0.37061  0.76361  0.22191  Biso   1.000  Hf
  Hf10     1.0000 0.86492  0.27272  0.20609  Biso   1.000  Hf
  Hf11     1.0000 0.85566  0.76734  0.20921  Biso   1.000  Hf
  Hf12     1.0000 0.36164  0.47624  0.70506  Biso   1.000  Hf
  Hf13     1.0000 0.37269  0.98605  0.69348  Biso   1.000  Hf
  Hf14     1.0000 0.85990  0.47942  0.70683  Biso   1.000  Hf
  Hf15     1.0000 0.85731  0.97876  0.71767  Biso   1.000  Hf
  O1       1.0000 0.04307  0.19391  0.16604  Biso   1.000  O 
  O2       1.0000 0.04242  0.68331  0.17623  Biso   1.000  O 
  O3       1.0000 0.53813  0.17031  0.16137  Biso   1.000  O 
  O4       1.0000 0.54008  0.66850  0.16546  Biso   1.000  O 
  O5       1.0000 0.03247  0.07407  0.69771  Biso   1.000  O 
  O6       1.0000 0.03775  0.57442  0.66729  Biso   1.000  O 
  O7       1.0000 0.54519  0.07905  0.65979  Biso   1.000  O 
  O8       1.0000 0.53412  0.57978  0.66104  Biso   1.000  O 
  O9       1.0000 0.46396  0.41854  0.33655  Biso   1.000  O 
  O10      1.0000 0.46611  0.92317  0.32829  Biso   1.000  O 
  O11      1.0000 0.95769  0.43336  0.32447  Biso   1.000  O 
  O12      1.0000 0.92955  0.92743  0.34129  Biso   1.000  O 
  O13      1.0000 0.46616  0.32973  0.83467  Biso   1.000  O 
  O14      1.0000 0.45400  0.82839  0.84963  Biso   1.000  O 
  O15      1.0000 0.96006  0.32763  0.82132  Biso   1.000  O 
  O16      1.0000 0.96581  0.82826  0.83872  Biso   1.000  O 
  O17      1.0000 0.28280  0.13389  0.48289  Biso   1.000  O 
  O18      1.0000 0.27610  0.62235  0.47957  Biso   1.000  O 
  O19      1.0000 0.77830  0.13364  0.48619  Biso   1.000  O 
  O20      1.0000 0.77358  0.62953  0.48255  Biso   1.000  O 
  O21      1.0000 0.28520  0.12204  0.96107  Biso   1.000  O 
  O22      1.0000 0.27612  0.62287  0.98292  Biso   1.000  O 
  O23      1.0000 0.77646  0.12189  0.98729  Biso   1.000  O 
  O24      1.0000 0.77427  0.62025  0.97856  Biso   1.000  O 
  O25      1.0000 0.22590  0.38166  0.00976  Biso   1.000  O 
  O26      1.0000 0.72447  0.38006  0.01699  Biso   1.000  O 
  O27      1.0000 0.72263  0.87794  0.01682  Biso   1.000  O 
  O28      1.0000 0.22190  0.37147  0.51014  Biso   1.000  O 
  O29      1.0000 0.23609  0.85926  0.54727  Biso   1.000  O 
  O30      1.0000 0.72384  0.37239  0.51840  Biso   1.000  O 
  O31      1.0000 0.70873  0.86759  0.52548  Biso   1.000  O 
