data_image0
_cell_length_a       10.2172
_cell_length_b       10.3075
_cell_length_c       10.4882
_cell_angle_alpha    89.8063
_cell_angle_beta     80.8737
_cell_angle_gamma    90.0784

_symmetry_space_group_name_H-M    "P 1"
_symmetry_int_tables_number       1

loop_
  _symmetry_equiv_pos_as_xyz
  'x, y, z'

loop_
  _atom_site_label
  _atom_site_occupancy
  _atom_site_fract_x
  _atom_site_fract_y
  _atom_site_fract_z
  _atom_site_thermal_displace_type
  _atom_site_B_iso_or_equiv
  _atom_site_type_symbol
  La1      1.0000 0.13518  0.01586  0.13907  Biso   1.000  La
  Hf1      1.0000 0.14053  0.01533  0.64470  Biso   1.000  Hf
  Hf2      1.0000 0.13880  0.51986  0.14611  Biso   1.000  Hf
  Hf3      1.0000 0.14121  0.52190  0.64390  Biso   1.000  Hf
  Hf4      1.0000 0.63814  0.01764  0.14724  Biso   1.000  Hf
  Hf5      1.0000 0.64100  0.01994  0.64648  Biso   1.000  Hf
  Hf6      1.0000 0.62977  0.52822  0.14913  Biso   1.000  Hf
  Hf7      1.0000 0.64203  0.52112  0.64413  Biso   1.000  Hf
  Hf8      1.0000 0.13922  0.22895  0.39894  Biso   1.000  Hf
  La2      1.0000 0.13446  0.24409  0.88207  Biso   1.000  La
  Hf9      1.0000 0.13836  0.72692  0.39442  Biso   1.000  Hf
  Hf10     1.0000 0.14036  0.72687  0.89263  Biso   1.000  Hf
  Hf11     1.0000 0.63620  0.22789  0.40002  Biso   1.000  Hf
  Hf12     1.0000 0.63812  0.22761  0.89443  Biso   1.000  Hf
  Hf13     1.0000 0.63653  0.72824  0.39692  Biso   1.000  Hf
  Hf14     1.0000 0.64044  0.73223  0.89342  Biso   1.000  Hf
  Hf15     1.0000 0.36522  0.26981  0.10471  Biso   1.000  Hf
  Hf16     1.0000 0.36622  0.27124  0.60095  Biso   1.000  Hf
  Hf17     1.0000 0.36324  0.77035  0.10045  Biso   1.000  Hf
  Hf18     1.0000 0.36355  0.77182  0.60272  Biso   1.000  Hf
  Hf19     1.0000 0.82676  0.28399  0.11197  Biso   1.000  Hf
  Hf20     1.0000 0.86455  0.27059  0.60734  Biso   1.000  Hf
  Hf21     1.0000 0.85866  0.76705  0.10348  Biso   1.000  Hf
  Hf22     1.0000 0.86291  0.77112  0.60157  Biso   1.000  Hf
  Hf23     1.0000 0.35810  0.47788  0.35379  Biso   1.000  Hf
  Hf24     1.0000 0.37049  0.48191  0.85294  Biso   1.000  Hf
  Hf25     1.0000 0.36246  0.97994  0.35382  Biso   1.000  Hf
  Hf26     1.0000 0.36371  0.98030  0.85026  Biso   1.000  Hf
  Hf27     1.0000 0.86258  0.47675  0.35630  Biso   1.000  Hf
  Hf28     1.0000 0.85902  0.48280  0.85489  Biso   1.000  Hf
  Hf29     1.0000 0.85556  0.97989  0.35666  Biso   1.000  Hf
  Hf30     1.0000 0.86265  0.97570  0.85461  Biso   1.000  Hf
  O1       1.0000 0.03845  0.16904  0.58741  Biso   1.000  O 
  O2       1.0000 0.03554  0.66853  0.08092  Biso   1.000  O 
  O3       1.0000 0.03430  0.66618  0.57690  Biso   1.000  O 
  O4       1.0000 0.54183  0.17091  0.08043  Biso   1.000  O 
  O5       1.0000 0.53725  0.16661  0.57867  Biso   1.000  O 
  O6       1.0000 0.53489  0.67165  0.07666  Biso   1.000  O 
  O7       1.0000 0.53607  0.66671  0.57917  Biso   1.000  O 
  O8       1.0000 0.02126  0.09483  0.33473  Biso   1.000  O 
  O9       1.0000 0.04008  0.05749  0.83712  Biso   1.000  O 
  O10      1.0000 0.03293  0.58191  0.32655  Biso   1.000  O 
  O11      1.0000 0.03952  0.57398  0.83095  Biso   1.000  O 
  O12      1.0000 0.53675  0.08031  0.33067  Biso   1.000  O 
  O13      1.0000 0.53884  0.08160  0.82731  Biso   1.000  O 
  O14      1.0000 0.52955  0.58611  0.32921  Biso   1.000  O 
  O15      1.0000 0.54074  0.58369  0.82712  Biso   1.000  O 
  O16      1.0000 0.46164  0.42014  0.17353  Biso   1.000  O 
  O17      1.0000 0.47645  0.41409  0.67056  Biso   1.000  O 
  O18      1.0000 0.46260  0.92182  0.16805  Biso   1.000  O 
  O19      1.0000 0.46891  0.91596  0.67008  Biso   1.000  O 
  O20      1.0000 0.96549  0.39884  0.17597  Biso   1.000  O 
  O21      1.0000 0.97187  0.41020  0.68174  Biso   1.000  O 
  O22      1.0000 0.93442  0.92802  0.16797  Biso   1.000  O 
  O23      1.0000 0.96333  0.91702  0.66801  Biso   1.000  O 
  O24      1.0000 0.46531  0.33256  0.42046  Biso   1.000  O 
  O25      1.0000 0.46830  0.33217  0.91938  Biso   1.000  O 
  O26      1.0000 0.46455  0.83253  0.42201  Biso   1.000  O 
  O27      1.0000 0.47148  0.83528  0.91925  Biso   1.000  O 
  O28      1.0000 0.96771  0.33861  0.43095  Biso   1.000  O 
  O29      1.0000 0.93572  0.33378  0.94118  Biso   1.000  O 
  O30      1.0000 0.96609  0.83392  0.41596  Biso   1.000  O 
  O31      1.0000 0.96148  0.82178  0.91905  Biso   1.000  O 
  O32      1.0000 0.28216  0.13666  0.24806  Biso   1.000  O 
  O33      1.0000 0.28492  0.12265  0.72744  Biso   1.000  O 
  O34      1.0000 0.27372  0.62595  0.23770  Biso   1.000  O 
  O35      1.0000 0.27707  0.63076  0.73826  Biso   1.000  O 
  O36      1.0000 0.77162  0.13448  0.24370  Biso   1.000  O 
  O37      1.0000 0.77855  0.12756  0.74257  Biso   1.000  O 
  O38      1.0000 0.77404  0.62784  0.24061  Biso   1.000  O 
  O39      1.0000 0.77969  0.62957  0.73831  Biso   1.000  O 
  O40      1.0000 0.27462  0.11913  0.48945  Biso   1.000  O 
  O41      1.0000 0.29069  0.12469  0.98560  Biso   1.000  O 
  O42      1.0000 0.27499  0.62110  0.48855  Biso   1.000  O 
  O43      1.0000 0.27678  0.62083  0.98819  Biso   1.000  O 
  O44      1.0000 0.77490  0.12106  0.49358  Biso   1.000  O 
  O45      1.0000 0.77896  0.12208  0.99402  Biso   1.000  O 
  O46      1.0000 0.77665  0.62014  0.48866  Biso   1.000  O 
  O47      1.0000 0.77299  0.62112  0.99070  Biso   1.000  O 
  O48      1.0000 0.23497  0.38650  0.01463  Biso   1.000  O 
  O49      1.0000 0.22517  0.37903  0.50818  Biso   1.000  O 
  O50      1.0000 0.23528  0.86763  0.99520  Biso   1.000  O 
  O51      1.0000 0.22391  0.87738  0.50783  Biso   1.000  O 
  O52      1.0000 0.70368  0.38518  0.01559  Biso   1.000  O 
  O53      1.0000 0.72745  0.37795  0.51071  Biso   1.000  O 
  O54      1.0000 0.72413  0.87868  0.00913  Biso   1.000  O 
  O55      1.0000 0.72499  0.87810  0.50994  Biso   1.000  O 
  O56      1.0000 0.22060  0.37167  0.26139  Biso   1.000  O 
  O57      1.0000 0.24409  0.38412  0.74445  Biso   1.000  O 
  O58      1.0000 0.23135  0.86359  0.26037  Biso   1.000  O 
  O59      1.0000 0.22663  0.86865  0.75491  Biso   1.000  O 
  O60      1.0000 0.71484  0.37802  0.26529  Biso   1.000  O 
  O61      1.0000 0.72828  0.37100  0.76073  Biso   1.000  O 
  O62      1.0000 0.71247  0.86974  0.26388  Biso   1.000  O 
  O63      1.0000 0.72606  0.86991  0.75756  Biso   1.000  O 
