data_image0
_cell_length_a       10.2044
_cell_length_b       10.3446
_cell_length_c       10.4742
_cell_angle_alpha    89.9965
_cell_angle_beta     80.7391
_cell_angle_gamma    90.0525

_symmetry_space_group_name_H-M    "P 1"
_symmetry_int_tables_number       1

loop_
  _symmetry_equiv_pos_as_xyz
  'x, y, z'

loop_
  _atom_site_label
  _atom_site_occupancy
  _atom_site_fract_x
  _atom_site_fract_y
  _atom_site_fract_z
  _atom_site_thermal_displace_type
  _atom_site_B_iso_or_equiv
  _atom_site_type_symbol
  La1      1.0000 0.12930  0.01166  0.13774  Biso   1.000  La
  Hf1      1.0000 0.14054  0.02315  0.64642  Biso   1.000  Hf
  Hf2      1.0000 0.13823  0.51688  0.14241  Biso   1.000  Hf
  Hf3      1.0000 0.13945  0.52217  0.64650  Biso   1.000  Hf
  Hf4      1.0000 0.64571  0.02196  0.14403  Biso   1.000  Hf
  Hf5      1.0000 0.63632  0.02449  0.64848  Biso   1.000  Hf
  Hf6      1.0000 0.63850  0.51790  0.14745  Biso   1.000  Hf
  Hf7      1.0000 0.63788  0.51943  0.64639  Biso   1.000  Hf
  Hf8      1.0000 0.13747  0.22757  0.39558  Biso   1.000  Hf
  Hf9      1.0000 0.13823  0.23328  0.89332  Biso   1.000  Hf
  La2      1.0000 0.13398  0.73664  0.38990  Biso   1.000  La
  Hf10     1.0000 0.14211  0.72830  0.89410  Biso   1.000  Hf
  Hf11     1.0000 0.63670  0.23337  0.39740  Biso   1.000  Hf
  Hf12     1.0000 0.64020  0.22961  0.89618  Biso   1.000  Hf
  Hf13     1.0000 0.63683  0.72656  0.39820  Biso   1.000  Hf
  Hf14     1.0000 0.64302  0.72799  0.89464  Biso   1.000  Hf
  Hf15     1.0000 0.36108  0.26866  0.10389  Biso   1.000  Hf
  Hf16     1.0000 0.35850  0.27231  0.60241  Biso   1.000  Hf
  Hf17     1.0000 0.37030  0.76603  0.09943  Biso   1.000  Hf
  Hf18     1.0000 0.36181  0.77099  0.60426  Biso   1.000  Hf
  Hf19     1.0000 0.85955  0.27384  0.10203  Biso   1.000  Hf
  Hf20     1.0000 0.86150  0.27187  0.60516  Biso   1.000  Hf
  Hf21     1.0000 0.85894  0.76430  0.10381  Biso   1.000  Hf
  Hf22     1.0000 0.85519  0.77174  0.60843  Biso   1.000  Hf
  Hf23     1.0000 0.35787  0.47894  0.35266  Biso   1.000  Hf
  Hf24     1.0000 0.36244  0.47835  0.85352  Biso   1.000  Hf
  Hf25     1.0000 0.36837  0.98430  0.35388  Biso   1.000  Hf
  Hf26     1.0000 0.36357  0.97838  0.85141  Biso   1.000  Hf
  Hf27     1.0000 0.86003  0.47718  0.35371  Biso   1.000  Hf
  Hf28     1.0000 0.86219  0.47890  0.85291  Biso   1.000  Hf
  Hf29     1.0000 0.84688  0.98352  0.36338  Biso   1.000  Hf
  Hf30     1.0000 0.86418  0.97852  0.85445  Biso   1.000  Hf
  O1       1.0000 0.03789  0.19504  0.07876  Biso   1.000  O 
  O2       1.0000 0.03681  0.17361  0.58576  Biso   1.000  O 
  O3       1.0000 0.04300  0.68192  0.08936  Biso   1.000  O 
  O4       1.0000 0.02657  0.66907  0.59762  Biso   1.000  O 
  O5       1.0000 0.53691  0.16646  0.07879  Biso   1.000  O 
  O6       1.0000 0.53106  0.16828  0.57950  Biso   1.000  O 
  O7       1.0000 0.54198  0.66513  0.07622  Biso   1.000  O 
  O8       1.0000 0.53551  0.66783  0.58166  Biso   1.000  O 
  O9       1.0000 0.02824  0.07200  0.35061  Biso   1.000  O 
  O10      1.0000 0.03980  0.07664  0.83589  Biso   1.000  O 
  O11      1.0000 0.03742  0.55739  0.32727  Biso   1.000  O 
  O12      1.0000 0.03830  0.57506  0.83686  Biso   1.000  O 
  O13      1.0000 0.54096  0.08251  0.32930  Biso   1.000  O 
  O14      1.0000 0.53600  0.08395  0.82971  Biso   1.000  O 
  O15      1.0000 0.53355  0.58115  0.32892  Biso   1.000  O 
  O16      1.0000 0.53474  0.58264  0.82952  Biso   1.000  O 
  O17      1.0000 0.46732  0.41326  0.17150  Biso   1.000  O 
  O18      1.0000 0.46467  0.41754  0.67057  Biso   1.000  O 
  O19      1.0000 0.48003  0.91335  0.16846  Biso   1.000  O 
  O20      1.0000 0.46551  0.91765  0.67259  Biso   1.000  O 
  O21      1.0000 0.95495  0.42954  0.15922  Biso   1.000  O 
  O22      1.0000 0.96333  0.42171  0.66737  Biso   1.000  O 
  O23      1.0000 0.92637  0.92699  0.17438  Biso   1.000  O 
  O24      1.0000 0.96486  0.92096  0.66819  Biso   1.000  O 
  O25      1.0000 0.46312  0.33330  0.42091  Biso   1.000  O 
  O26      1.0000 0.46822  0.33394  0.92107  Biso   1.000  O 
  O27      1.0000 0.46608  0.83068  0.42124  Biso   1.000  O 
  O28      1.0000 0.47696  0.83586  0.91910  Biso   1.000  O 
  O29      1.0000 0.95838  0.32361  0.41733  Biso   1.000  O 
  O30      1.0000 0.95926  0.32652  0.91014  Biso   1.000  O 
  O31      1.0000 0.93129  0.82554  0.42181  Biso   1.000  O 
  O32      1.0000 0.96752  0.83047  0.92180  Biso   1.000  O 
  O33      1.0000 0.28215  0.13480  0.24709  Biso   1.000  O 
  O34      1.0000 0.27595  0.13011  0.73801  Biso   1.000  O 
  O35      1.0000 0.28602  0.61801  0.22758  Biso   1.000  O 
  O36      1.0000 0.27600  0.63009  0.74183  Biso   1.000  O 
  O37      1.0000 0.77490  0.13502  0.24279  Biso   1.000  O 
  O38      1.0000 0.77723  0.12941  0.74200  Biso   1.000  O 
  O39      1.0000 0.77398  0.62897  0.24241  Biso   1.000  O 
  O40      1.0000 0.77333  0.62795  0.74189  Biso   1.000  O 
  O41      1.0000 0.27538  0.12558  0.49060  Biso   1.000  O 
  O42      1.0000 0.28371  0.12677  0.97975  Biso   1.000  O 
  O43      1.0000 0.28268  0.61429  0.49813  Biso   1.000  O 
  O44      1.0000 0.27609  0.61727  0.98746  Biso   1.000  O 
  O45      1.0000 0.76975  0.12436  0.49575  Biso   1.000  O 
  O46      1.0000 0.77799  0.12059  0.98990  Biso   1.000  O 
  O47      1.0000 0.77344  0.61800  0.49271  Biso   1.000  O 
  O48      1.0000 0.77930  0.61920  0.99039  Biso   1.000  O 
  O49      1.0000 0.22677  0.37861  0.00603  Biso   1.000  O 
  O50      1.0000 0.21991  0.37846  0.50716  Biso   1.000  O 
  O51      1.0000 0.24281  0.86554  0.99357  Biso   1.000  O 
  O52      1.0000 0.23737  0.89147  0.51313  Biso   1.000  O 
  O53      1.0000 0.72290  0.37991  0.00811  Biso   1.000  O 
  O54      1.0000 0.72247  0.37839  0.51102  Biso   1.000  O 
  O55      1.0000 0.72845  0.87767  0.00812  Biso   1.000  O 
  O56      1.0000 0.70975  0.88205  0.51615  Biso   1.000  O 
  O57      1.0000 0.22224  0.36902  0.25571  Biso   1.000  O 
  O58      1.0000 0.22438  0.37253  0.75723  Biso   1.000  O 
  O59      1.0000 0.25624  0.87303  0.24746  Biso   1.000  O 
  O60      1.0000 0.22359  0.87084  0.75709  Biso   1.000  O 
  O61      1.0000 0.72181  0.37215  0.26026  Biso   1.000  O 
  O62      1.0000 0.72408  0.37073  0.75892  Biso   1.000  O 
  O63      1.0000 0.71206  0.87011  0.26355  Biso   1.000  O 
  O64      1.0000 0.72669  0.87173  0.76083  Biso   1.000  O 
