data_image0
_cell_length_a       5.0553
_cell_length_b       10.4527
_cell_length_c       10.2278
_cell_angle_alpha    90.9411
_cell_angle_beta     91.2047
_cell_angle_gamma    90.0955

_symmetry_space_group_name_H-M    "P 1"
_symmetry_int_tables_number       1

loop_
  _symmetry_equiv_pos_as_xyz
  'x, y, z'

loop_
  _atom_site_label
  _atom_site_occupancy
  _atom_site_fract_x
  _atom_site_fract_y
  _atom_site_fract_z
  _atom_site_thermal_displace_type
  _atom_site_B_iso_or_equiv
  _atom_site_type_symbol
  La1      1.0000 0.24265  0.00169  0.11582  Biso   1.000  La
  Hf1      1.0000 0.26541  0.01760  0.62604  Biso   1.000  Hf
  La2      1.0000 0.24265  0.50174  0.11582  Biso   1.000  La
  Hf2      1.0000 0.26542  0.51766  0.62603  Biso   1.000  Hf
  Hf3      1.0000 0.26031  0.23036  0.38242  Biso   1.000  Hf
  Hf4      1.0000 0.28685  0.23529  0.86887  Biso   1.000  Hf
  Hf5      1.0000 0.26030  0.73035  0.38244  Biso   1.000  Hf
  Hf6      1.0000 0.28687  0.73529  0.86890  Biso   1.000  Hf
  Hf7      1.0000 0.71607  0.25827  0.13554  Biso   1.000  Hf
  Hf8      1.0000 0.73378  0.26733  0.62293  Biso   1.000  Hf
  Hf9      1.0000 0.71608  0.75828  0.13556  Biso   1.000  Hf
  Hf10     1.0000 0.73378  0.76734  0.62294  Biso   1.000  Hf
  Hf11     1.0000 0.71427  0.48162  0.38153  Biso   1.000  Hf
  Hf12     1.0000 0.73900  0.48325  0.86950  Biso   1.000  Hf
  Hf13     1.0000 0.71428  0.98166  0.38154  Biso   1.000  Hf
  Hf14     1.0000 0.73897  0.98331  0.86952  Biso   1.000  Hf
  Hf15     1.0000 0.06087  0.19622  0.20421  Biso   1.000  Hf
  Hf16     1.0000 0.07979  0.18921  0.68446  Biso   1.000  Hf
  Hf17     1.0000 0.06087  0.69623  0.20423  Biso   1.000  Hf
  Hf18     1.0000 0.07975  0.68920  0.68449  Biso   1.000  Hf
  Hf19     1.0000 0.06326  0.06288  0.44508  Biso   1.000  Hf
  Hf20     1.0000 0.06814  0.08146  0.91507  Biso   1.000  Hf
  Hf21     1.0000 0.06322  0.56291  0.44512  Biso   1.000  Hf
  Hf22     1.0000 0.06811  0.58146  0.91511  Biso   1.000  Hf
  Hf23     1.0000 0.86630  0.43346  0.20333  Biso   1.000  Hf
  Hf24     1.0000 0.93097  0.43446  0.69267  Biso   1.000  Hf
  Hf25     1.0000 0.86634  0.93349  0.20332  Biso   1.000  Hf
  Hf26     1.0000 0.93093  0.93449  0.69265  Biso   1.000  Hf
  Hf27     1.0000 0.92256  0.31607  0.44903  Biso   1.000  Hf
  Hf28     1.0000 0.98128  0.33529  0.95504  Biso   1.000  Hf
  Hf29     1.0000 0.92252  0.81605  0.44904  Biso   1.000  Hf
  Hf30     1.0000 0.98129  0.83530  0.95506  Biso   1.000  Hf
  Hf31     1.0000 0.54428  0.12047  0.26014  Biso   1.000  Hf
  Hf32     1.0000 0.54838  0.11987  0.74634  Biso   1.000  Hf
  Hf33     1.0000 0.54427  0.62048  0.26016  Biso   1.000  Hf
  Hf34     1.0000 0.54840  0.61988  0.74636  Biso   1.000  Hf
  Hf35     1.0000 0.53165  0.13106  0.50387  Biso   1.000  Hf
  Hf36     1.0000 0.56016  0.12945  0.99283  Biso   1.000  Hf
  Hf37     1.0000 0.53163  0.63108  0.50390  Biso   1.000  Hf
  Hf38     1.0000 0.56016  0.62946  0.99286  Biso   1.000  Hf
  Hf39     1.0000 0.45227  0.38211  0.50294  Biso   1.000  Hf
  Hf40     1.0000 0.50624  0.36758  0.98941  Biso   1.000  Hf
  Hf41     1.0000 0.45226  0.88213  0.50296  Biso   1.000  Hf
  Hf42     1.0000 0.50623  0.86760  0.98942  Biso   1.000  Hf
  Hf43     1.0000 0.45417  0.35416  0.26065  Biso   1.000  Hf
  Hf44     1.0000 0.46548  0.37095  0.74554  Biso   1.000  Hf
  Hf45     1.0000 0.45421  0.85415  0.26068  Biso   1.000  Hf
  Hf46     1.0000 0.46550  0.87096  0.74557  Biso   1.000  Hf
