data_image0
_cell_length_a       10.1496
_cell_length_b       5.21089
_cell_length_c       10.1331
_cell_angle_alpha    89.9003
_cell_angle_beta     89.7351
_cell_angle_gamma    90.2492

_symmetry_space_group_name_H-M    "P 1"
_symmetry_int_tables_number       1

loop_
  _symmetry_equiv_pos_as_xyz
  'x, y, z'

loop_
  _atom_site_label
  _atom_site_occupancy
  _atom_site_fract_x
  _atom_site_fract_y
  _atom_site_fract_z
  _atom_site_thermal_displace_type
  _atom_site_B_iso_or_equiv
  _atom_site_type_symbol
  La1      1.0000 0.12094  0.01922  0.12752  Biso   1.000  La
  Hf1      1.0000 0.14113  0.02966  0.62848  Biso   1.000  Hf
  Hf2      1.0000 0.63336  0.02964  0.12437  Biso   1.000  Hf
  Hf3      1.0000 0.63744  0.02853  0.62723  Biso   1.000  Hf
  Hf4      1.0000 0.14574  0.46978  0.38517  Biso   1.000  Hf
  Hf5      1.0000 0.13980  0.46616  0.87033  Biso   1.000  Hf
  Hf6      1.0000 0.63103  0.47099  0.38081  Biso   1.000  Hf
  Hf7      1.0000 0.63234  0.46349  0.87232  Biso   1.000  Hf
  Hf8      1.0000 0.36583  0.52751  0.12564  Biso   1.000  Hf
  Hf9      1.0000 0.37197  0.53420  0.62853  Biso   1.000  Hf
  Hf10     1.0000 0.85260  0.52965  0.11910  Biso   1.000  Hf
  Hf11     1.0000 0.86660  0.53191  0.63014  Biso   1.000  Hf
  Hf12     1.0000 0.36876  0.96992  0.37638  Biso   1.000  Hf
  Hf13     1.0000 0.36825  0.96502  0.87710  Biso   1.000  Hf
  La2      1.0000 0.87323  0.98551  0.37565  Biso   1.000  La
  Hf14     1.0000 0.86458  0.96160  0.88035  Biso   1.000  Hf
  Hf15     1.0000 0.02009  0.42642  0.21237  Biso   1.000  Hf
  Hf16     1.0000 0.04218  0.36915  0.68630  Biso   1.000  Hf
  Hf17     1.0000 0.52736  0.35841  0.19942  Biso   1.000  Hf
  Hf18     1.0000 0.53768  0.36358  0.69602  Biso   1.000  Hf
  Hf19     1.0000 0.07491  0.10955  0.43659  Biso   1.000  Hf
  Hf20     1.0000 0.03566  0.14252  0.91794  Biso   1.000  Hf
  Hf21     1.0000 0.53786  0.12855  0.44686  Biso   1.000  Hf
  Hf22     1.0000 0.53311  0.13435  0.94764  Biso   1.000  Hf
  Hf23     1.0000 0.46545  0.86546  0.19441  Biso   1.000  Hf
  Hf24     1.0000 0.47007  0.86498  0.70064  Biso   1.000  Hf
  Hf25     1.0000 0.90695  0.91263  0.13217  Biso   1.000  Hf
  Hf26     1.0000 0.96669  0.87135  0.69067  Biso   1.000  Hf
  Hf27     1.0000 0.46611  0.63687  0.44930  Biso   1.000  Hf
  Hf28     1.0000 0.46846  0.63322  0.94553  Biso   1.000  Hf
  Hf29     1.0000 0.97401  0.59879  0.45872  Biso   1.000  Hf
  Hf30     1.0000 0.96644  0.62606  0.93845  Biso   1.000  Hf
  Hf31     1.0000 0.27693  0.24577  0.25543  Biso   1.000  Hf
  Hf32     1.0000 0.27412  0.23479  0.75045  Biso   1.000  Hf
  Hf33     1.0000 0.75283  0.25818  0.24332  Biso   1.000  Hf
  Hf34     1.0000 0.77293  0.22813  0.75094  Biso   1.000  Hf
  Hf35     1.0000 0.28480  0.26301  0.50594  Biso   1.000  Hf
  Hf36     1.0000 0.27352  0.26457  0.99530  Biso   1.000  Hf
  Hf37     1.0000 0.76030  0.28089  0.50841  Biso   1.000  Hf
  Hf38     1.0000 0.76567  0.26290  0.99410  Biso   1.000  Hf
  Hf39     1.0000 0.23887  0.76169  0.50522  Biso   1.000  Hf
  Hf40     1.0000 0.23808  0.74561  0.99317  Biso   1.000  Hf
  Hf41     1.0000 0.72417  0.75268  0.50752  Biso   1.000  Hf
  Hf42     1.0000 0.71803  0.75411  0.99421  Biso   1.000  Hf
  Hf43     1.0000 0.24351  0.72081  0.25877  Biso   1.000  Hf
  Hf44     1.0000 0.23438  0.73640  0.74790  Biso   1.000  Hf
  Hf45     1.0000 0.71704  0.73058  0.24582  Biso   1.000  Hf
  Hf46     1.0000 0.73477  0.73406  0.75279  Biso   1.000  Hf
