data_image0
_cell_length_a       5.06295
_cell_length_b       10.5104
_cell_length_c       10.1292
_cell_angle_alpha    90.6253
_cell_angle_beta     90.7931
_cell_angle_gamma    89.8172

_symmetry_space_group_name_H-M    "P 1"
_symmetry_int_tables_number       1

loop_
  _symmetry_equiv_pos_as_xyz
  'x, y, z'

loop_
  _atom_site_label
  _atom_site_occupancy
  _atom_site_fract_x
  _atom_site_fract_y
  _atom_site_fract_z
  _atom_site_thermal_displace_type
  _atom_site_B_iso_or_equiv
  _atom_site_type_symbol
  La1      1.0000 0.24661  0.00667  0.11993  Biso   1.000  La
  La2      1.0000 0.24664  0.00669  0.62004  Biso   1.000  La
  Hf1      1.0000 0.26629  0.51522  0.12650  Biso   1.000  Hf
  Hf2      1.0000 0.26631  0.51526  0.62649  Biso   1.000  Hf
  Hf3      1.0000 0.26940  0.23864  0.37059  Biso   1.000  Hf
  Hf4      1.0000 0.26948  0.23869  0.87056  Biso   1.000  Hf
  Hf5      1.0000 0.27236  0.72897  0.38022  Biso   1.000  Hf
  Hf6      1.0000 0.27245  0.72895  0.88023  Biso   1.000  Hf
  Hf7      1.0000 0.72337  0.27039  0.12534  Biso   1.000  Hf
  Hf8      1.0000 0.72339  0.27041  0.62530  Biso   1.000  Hf
  Hf9      1.0000 0.72983  0.75856  0.12747  Biso   1.000  Hf
  Hf10     1.0000 0.72984  0.75857  0.62742  Biso   1.000  Hf
  Hf11     1.0000 0.73188  0.48234  0.37807  Biso   1.000  Hf
  Hf12     1.0000 0.73191  0.48234  0.87809  Biso   1.000  Hf
  Hf13     1.0000 0.72908  0.98223  0.37286  Biso   1.000  Hf
  Hf14     1.0000 0.72916  0.98223  0.87280  Biso   1.000  Hf
  Hf15     1.0000 0.07532  0.20723  0.18824  Biso   1.000  Hf
  Hf16     1.0000 0.07545  0.20732  0.68819  Biso   1.000  Hf
  Hf17     1.0000 0.07236  0.68241  0.19976  Biso   1.000  Hf
  Hf18     1.0000 0.07239  0.68245  0.69978  Biso   1.000  Hf
  Hf19     1.0000 0.07751  0.07041  0.40548  Biso   1.000  Hf
  Hf20     1.0000 0.07769  0.07038  0.90528  Biso   1.000  Hf
  Hf21     1.0000 0.06336  0.56893  0.45010  Biso   1.000  Hf
  Hf22     1.0000 0.06345  0.56892  0.95008  Biso   1.000  Hf
  Hf23     1.0000 0.92765  0.43903  0.19738  Biso   1.000  Hf
  Hf24     1.0000 0.92771  0.43906  0.69738  Biso   1.000  Hf
  Hf25     1.0000 0.87315  0.92933  0.19677  Biso   1.000  Hf
  Hf26     1.0000 0.87292  0.92941  0.69662  Biso   1.000  Hf
  Hf27     1.0000 0.93325  0.32092  0.44557  Biso   1.000  Hf
  Hf28     1.0000 0.93335  0.32092  0.94560  Biso   1.000  Hf
  Hf29     1.0000 0.96437  0.82626  0.45903  Biso   1.000  Hf
  Hf30     1.0000 0.96450  0.82632  0.95902  Biso   1.000  Hf
  Hf31     1.0000 0.56439  0.13079  0.25496  Biso   1.000  Hf
  Hf32     1.0000 0.56451  0.13085  0.75497  Biso   1.000  Hf
  Hf33     1.0000 0.54014  0.61196  0.25007  Biso   1.000  Hf
  Hf34     1.0000 0.54020  0.61196  0.75006  Biso   1.000  Hf
  Hf35     1.0000 0.55511  0.13690  0.49487  Biso   1.000  Hf
  Hf36     1.0000 0.55522  0.13689  0.99486  Biso   1.000  Hf
  Hf37     1.0000 0.53884  0.62637  0.50085  Biso   1.000  Hf
  Hf38     1.0000 0.53894  0.62636  0.00086  Biso   1.000  Hf
  Hf39     1.0000 0.46028  0.38437  0.49925  Biso   1.000  Hf
  Hf40     1.0000 0.46031  0.38436  0.99925  Biso   1.000  Hf
  Hf41     1.0000 0.49260  0.86748  0.49353  Biso   1.000  Hf
  Hf42     1.0000 0.49274  0.86748  0.99354  Biso   1.000  Hf
  Hf43     1.0000 0.45903  0.37217  0.24916  Biso   1.000  Hf
  Hf44     1.0000 0.45911  0.37220  0.74915  Biso   1.000  Hf
  Hf45     1.0000 0.46215  0.85095  0.25523  Biso   1.000  Hf
  Hf46     1.0000 0.46221  0.85094  0.75527  Biso   1.000  Hf
