data_image0
_cell_length_a       5.05804
_cell_length_b       10.4662
_cell_length_c       10.2151
_cell_angle_alpha    90.8196
_cell_angle_beta     91.1336
_cell_angle_gamma    90.0185

_symmetry_space_group_name_H-M    "P 1"
_symmetry_int_tables_number       1

loop_
  _symmetry_equiv_pos_as_xyz
  'x, y, z'

loop_
  _atom_site_label
  _atom_site_occupancy
  _atom_site_fract_x
  _atom_site_fract_y
  _atom_site_fract_z
  _atom_site_thermal_displace_type
  _atom_site_B_iso_or_equiv
  _atom_site_type_symbol
  La1      1.0000 0.24823  0.00471  0.11628  Biso   1.000  La
  Hf1      1.0000 0.26397  0.01576  0.62399  Biso   1.000  Hf
  Hf2      1.0000 0.26391  0.51576  0.12398  Biso   1.000  Hf
  La2      1.0000 0.24817  0.50464  0.61626  Biso   1.000  La
  Hf3      1.0000 0.27641  0.23138  0.37402  Biso   1.000  Hf
  Hf4      1.0000 0.26882  0.23530  0.87406  Biso   1.000  Hf
  Hf5      1.0000 0.26884  0.73529  0.37405  Biso   1.000  Hf
  Hf6      1.0000 0.27642  0.73138  0.87399  Biso   1.000  Hf
  Hf7      1.0000 0.72260  0.26682  0.12669  Biso   1.000  Hf
  Hf8      1.0000 0.73255  0.26046  0.62560  Biso   1.000  Hf
  Hf9      1.0000 0.73251  0.76047  0.12559  Biso   1.000  Hf
  Hf10     1.0000 0.72263  0.76679  0.62667  Biso   1.000  Hf
  Hf11     1.0000 0.73102  0.48364  0.36729  Biso   1.000  Hf
  Hf12     1.0000 0.72479  0.48212  0.88102  Biso   1.000  Hf
  Hf13     1.0000 0.72482  0.98209  0.38101  Biso   1.000  Hf
  Hf14     1.0000 0.73105  0.98359  0.86728  Biso   1.000  Hf
  Hf15     1.0000 0.05670  0.19579  0.20376  Biso   1.000  Hf
  Hf16     1.0000 0.08056  0.18761  0.68820  Biso   1.000  Hf
  Hf17     1.0000 0.08054  0.68764  0.18819  Biso   1.000  Hf
  Hf18     1.0000 0.05676  0.69576  0.70370  Biso   1.000  Hf
  Hf19     1.0000 0.06310  0.07056  0.44511  Biso   1.000  Hf
  Hf20     1.0000 0.06617  0.07434  0.91516  Biso   1.000  Hf
  Hf21     1.0000 0.06627  0.57430  0.41509  Biso   1.000  Hf
  Hf22     1.0000 0.06306  0.57057  0.94509  Biso   1.000  Hf
  Hf23     1.0000 0.92144  0.43664  0.19100  Biso   1.000  Hf
  Hf24     1.0000 0.89021  0.42766  0.70900  Biso   1.000  Hf
  Hf25     1.0000 0.89010  0.92772  0.20892  Biso   1.000  Hf
  Hf26     1.0000 0.92149  0.93660  0.69102  Biso   1.000  Hf
  Hf27     1.0000 0.97155  0.33202  0.45957  Biso   1.000  Hf
  Hf28     1.0000 0.93915  0.31976  0.95302  Biso   1.000  Hf
  Hf29     1.0000 0.93915  0.81977  0.45294  Biso   1.000  Hf
  Hf30     1.0000 0.97157  0.83203  0.95951  Biso   1.000  Hf
  Hf31     1.0000 0.55594  0.12655  0.25779  Biso   1.000  Hf
  Hf32     1.0000 0.54121  0.11408  0.74528  Biso   1.000  Hf
  Hf33     1.0000 0.54117  0.61410  0.24527  Biso   1.000  Hf
  Hf34     1.0000 0.55599  0.62651  0.75779  Biso   1.000  Hf
  Hf35     1.0000 0.53352  0.12720  0.50238  Biso   1.000  Hf
  Hf36     1.0000 0.55433  0.13658  0.99092  Biso   1.000  Hf
  Hf37     1.0000 0.55443  0.63652  0.49090  Biso   1.000  Hf
  Hf38     1.0000 0.53349  0.62721  0.00236  Biso   1.000  Hf
  Hf39     1.0000 0.50321  0.36847  0.48770  Biso   1.000  Hf
  Hf40     1.0000 0.45636  0.38322  0.99978  Biso   1.000  Hf
  Hf41     1.0000 0.45638  0.88320  0.49976  Biso   1.000  Hf
  Hf42     1.0000 0.50314  0.86846  0.98769  Biso   1.000  Hf
  Hf43     1.0000 0.45195  0.36978  0.24567  Biso   1.000  Hf
  Hf44     1.0000 0.47184  0.35364  0.75434  Biso   1.000  Hf
  Hf45     1.0000 0.47181  0.85364  0.25433  Biso   1.000  Hf
  Hf46     1.0000 0.45199  0.86974  0.74565  Biso   1.000  Hf
