data_image0
_cell_length_a       5.04162
_cell_length_b       10.4849
_cell_length_c       10.2013
_cell_angle_alpha    89.0867
_cell_angle_beta     90.2656
_cell_angle_gamma    90.3296

_symmetry_space_group_name_H-M    "P 1"
_symmetry_int_tables_number       1

loop_
  _symmetry_equiv_pos_as_xyz
  'x, y, z'

loop_
  _atom_site_label
  _atom_site_occupancy
  _atom_site_fract_x
  _atom_site_fract_y
  _atom_site_fract_z
  _atom_site_thermal_displace_type
  _atom_site_B_iso_or_equiv
  _atom_site_type_symbol
  La1      1.0000 0.24423  0.00422  0.11966  Biso   1.000  La
  Hf1      1.0000 0.26050  0.02151  0.63509  Biso   1.000  Hf
  Hf2      1.0000 0.26716  0.50928  0.12083  Biso   1.000  Hf
  Hf3      1.0000 0.27046  0.51661  0.62321  Biso   1.000  Hf
  Hf4      1.0000 0.26187  0.23797  0.37681  Biso   1.000  Hf
  Hf5      1.0000 0.26585  0.23616  0.87371  Biso   1.000  Hf
  La2      1.0000 0.26097  0.74061  0.37429  Biso   1.000  La
  Hf6      1.0000 0.26988  0.72877  0.86893  Biso   1.000  Hf
  Hf7      1.0000 0.72465  0.26581  0.12907  Biso   1.000  Hf
  Hf8      1.0000 0.73389  0.27078  0.62671  Biso   1.000  Hf
  Hf9      1.0000 0.74592  0.73719  0.09886  Biso   1.000  Hf
  Hf10     1.0000 0.72887  0.76902  0.62563  Biso   1.000  Hf
  Hf11     1.0000 0.72853  0.48197  0.37667  Biso   1.000  Hf
  Hf12     1.0000 0.73297  0.47699  0.87103  Biso   1.000  Hf
  Hf13     1.0000 0.72344  0.00330  0.39997  Biso   1.000  Hf
  Hf14     1.0000 0.72664  0.98257  0.87060  Biso   1.000  Hf
  Hf15     1.0000 0.04604  0.18553  0.20790  Biso   1.000  Hf
  Hf16     1.0000 0.07139  0.19012  0.69225  Biso   1.000  Hf
  Hf17     1.0000 0.10199  0.68902  0.16494  Biso   1.000  Hf
  Hf18     1.0000 0.07023  0.68538  0.69083  Biso   1.000  Hf
  Hf19     1.0000 0.07296  0.07071  0.45294  Biso   1.000  Hf
  Hf20     1.0000 0.06164  0.07308  0.92397  Biso   1.000  Hf
  Hf21     1.0000 0.06166  0.55801  0.45037  Biso   1.000  Hf
  Hf22     1.0000 0.05430  0.56934  0.94371  Biso   1.000  Hf
  Hf23     1.0000 0.93337  0.43357  0.19650  Biso   1.000  Hf
  Hf24     1.0000 0.93404  0.43339  0.69858  Biso   1.000  Hf
  Hf25     1.0000 0.83766  0.92171  0.20508  Biso   1.000  Hf
  Hf26     1.0000 0.92186  0.93612  0.69734  Biso   1.000  Hf
  Hf27     1.0000 0.92147  0.31579  0.44741  Biso   1.000  Hf
  Hf28     1.0000 0.93408  0.31809  0.95062  Biso   1.000  Hf
  Hf29     1.0000 0.89588  0.82973  0.45637  Biso   1.000  Hf
  Hf30     1.0000 0.95880  0.82507  0.94460  Biso   1.000  Hf
  Hf31     1.0000 0.53668  0.12178  0.26230  Biso   1.000  Hf
  Hf32     1.0000 0.53819  0.11988  0.75209  Biso   1.000  Hf
  Hf33     1.0000 0.55894  0.60631  0.23601  Biso   1.000  Hf
  Hf34     1.0000 0.53511  0.61614  0.74836  Biso   1.000  Hf
  Hf35     1.0000 0.52980  0.14150  0.50853  Biso   1.000  Hf
  Hf36     1.0000 0.54299  0.13390  0.99842  Biso   1.000  Hf
  Hf37     1.0000 0.55836  0.62497  0.50489  Biso   1.000  Hf
  Hf38     1.0000 0.53416  0.61926  0.98720  Biso   1.000  Hf
  Hf39     1.0000 0.45437  0.38370  0.49883  Biso   1.000  Hf
  Hf40     1.0000 0.45738  0.38030  0.99740  Biso   1.000  Hf
  Hf41     1.0000 0.45544  0.90061  0.51032  Biso   1.000  Hf
  Hf42     1.0000 0.48982  0.86355  0.99247  Biso   1.000  Hf
  Hf43     1.0000 0.45740  0.36552  0.24826  Biso   1.000  Hf
  Hf44     1.0000 0.46239  0.36759  0.74759  Biso   1.000  Hf
  Hf45     1.0000 0.58721  0.86642  0.24477  Biso   1.000  Hf
  Hf46     1.0000 0.45497  0.86853  0.74996  Biso   1.000  Hf
