data_image0
_cell_length_a       10.1922
_cell_length_b       5.20825
_cell_length_c       10.1815
_cell_angle_alpha    90.5305
_cell_angle_beta     89.9661
_cell_angle_gamma    90.0009

_symmetry_space_group_name_H-M    "P 1"
_symmetry_int_tables_number       1

loop_
  _symmetry_equiv_pos_as_xyz
  'x, y, z'

loop_
  _atom_site_label
  _atom_site_occupancy
  _atom_site_fract_x
  _atom_site_fract_y
  _atom_site_fract_z
  _atom_site_thermal_displace_type
  _atom_site_B_iso_or_equiv
  _atom_site_type_symbol
  La1      1.0000 0.12163  0.00783  0.11857  Biso   1.000  La
  Hf1      1.0000 0.13059  0.02108  0.62313  Biso   1.000  Hf
  Hf2      1.0000 0.63325  0.02984  0.12441  Biso   1.000  Hf
  Hf3      1.0000 0.64086  0.03231  0.63056  Biso   1.000  Hf
  Hf4      1.0000 0.13048  0.46577  0.37539  Biso   1.000  Hf
  Hf5      1.0000 0.13970  0.46907  0.86943  Biso   1.000  Hf
  Hf6      1.0000 0.63300  0.46200  0.37548  Biso   1.000  Hf
  Hf7      1.0000 0.64291  0.46463  0.88110  Biso   1.000  Hf
  Hf8      1.0000 0.36891  0.52115  0.12315  Biso   1.000  Hf
  La2      1.0000 0.37777  0.50791  0.61847  Biso   1.000  La
  Hf9      1.0000 0.85858  0.53235  0.13050  Biso   1.000  Hf
  Hf10     1.0000 0.86628  0.52994  0.62437  Biso   1.000  Hf
  Hf11     1.0000 0.35976  0.96926  0.36938  Biso   1.000  Hf
  Hf12     1.0000 0.36906  0.96598  0.87546  Biso   1.000  Hf
  Hf13     1.0000 0.85658  0.96484  0.38117  Biso   1.000  Hf
  Hf14     1.0000 0.86647  0.96211  0.87539  Biso   1.000  Hf
  Hf15     1.0000 0.02767  0.40193  0.20202  Biso   1.000  Hf
  Hf16     1.0000 0.03753  0.37486  0.68513  Biso   1.000  Hf
  Hf17     1.0000 0.53780  0.36369  0.19388  Biso   1.000  Hf
  Hf18     1.0000 0.56727  0.37102  0.70327  Biso   1.000  Hf
  Hf19     1.0000 0.02226  0.13536  0.44187  Biso   1.000  Hf
  Hf20     1.0000 0.02588  0.16284  0.92263  Biso   1.000  Hf
  Hf21     1.0000 0.52195  0.15732  0.45787  Biso   1.000  Hf
  Hf22     1.0000 0.53826  0.13602  0.94745  Biso   1.000  Hf
  Hf23     1.0000 0.46193  0.87483  0.18523  Biso   1.000  Hf
  Hf24     1.0000 0.47178  0.90168  0.70207  Biso   1.000  Hf
  Hf25     1.0000 0.93194  0.87124  0.20309  Biso   1.000  Hf
  Hf26     1.0000 0.96159  0.86375  0.69373  Biso   1.000  Hf
  Hf27     1.0000 0.47351  0.66293  0.42261  Biso   1.000  Hf
  Hf28     1.0000 0.47724  0.63550  0.94200  Biso   1.000  Hf
  Hf29     1.0000 0.96110  0.63602  0.44734  Biso   1.000  Hf
  Hf30     1.0000 0.97745  0.65745  0.95776  Biso   1.000  Hf
  Hf31     1.0000 0.27794  0.24380  0.24846  Biso   1.000  Hf
  Hf32     1.0000 0.25762  0.21052  0.75231  Biso   1.000  Hf
  Hf33     1.0000 0.76430  0.23570  0.25299  Biso   1.000  Hf
  Hf34     1.0000 0.78404  0.23370  0.75090  Biso   1.000  Hf
  Hf35     1.0000 0.25166  0.23973  0.48980  Biso   1.000  Hf
  Hf36     1.0000 0.27788  0.26534  0.99008  Biso   1.000  Hf
  Hf37     1.0000 0.76496  0.26227  0.50154  Biso   1.000  Hf
  Hf38     1.0000 0.77262  0.25946  0.00219  Biso   1.000  Hf
  Hf39     1.0000 0.22158  0.76533  0.49009  Biso   1.000  Hf
  Hf40     1.0000 0.24781  0.73969  0.98981  Biso   1.000  Hf
  Hf41     1.0000 0.72672  0.75945  0.50222  Biso   1.000  Hf
  Hf42     1.0000 0.73447  0.76230  0.00155  Biso   1.000  Hf
  Hf43     1.0000 0.24184  0.71068  0.25230  Biso   1.000  Hf
  Hf44     1.0000 0.22134  0.74377  0.74846  Biso   1.000  Hf
  Hf45     1.0000 0.71533  0.73375  0.25090  Biso   1.000  Hf
  Hf46     1.0000 0.73514  0.73570  0.75298  Biso   1.000  Hf
