data_image0
_cell_length_a       10.0593
_cell_length_b       10.4389
_cell_length_c       5.02349
_cell_angle_alpha    89.7245
_cell_angle_beta     90.4392
_cell_angle_gamma    90.434

_symmetry_space_group_name_H-M    "P 1"
_symmetry_int_tables_number       1

loop_
  _symmetry_equiv_pos_as_xyz
  'x, y, z'

loop_
  _atom_site_label
  _atom_site_occupancy
  _atom_site_fract_x
  _atom_site_fract_y
  _atom_site_fract_z
  _atom_site_thermal_displace_type
  _atom_site_B_iso_or_equiv
  _atom_site_type_symbol
  La1      1.0000 0.12549  0.00835  0.24953  Biso   1.000  La
  Hf1      1.0000 0.13113  0.51663  0.25364  Biso   1.000  Hf
  Hf2      1.0000 0.63775  0.01664  0.25341  Biso   1.000  Hf
  Hf3      1.0000 0.63425  0.51585  0.25513  Biso   1.000  Hf
  Hf4      1.0000 0.12327  0.24338  0.73421  Biso   1.000  Hf
  Hf5      1.0000 0.13664  0.73263  0.75297  Biso   1.000  Hf
  Hf6      1.0000 0.63186  0.23329  0.75557  Biso   1.000  Hf
  Hf7      1.0000 0.63564  0.72971  0.75471  Biso   1.000  Hf
  Hf8      1.0000 0.37013  0.27238  0.26887  Biso   1.000  Hf
  Hf9      1.0000 0.37066  0.76020  0.24223  Biso   1.000  Hf
  Hf10     1.0000 0.86029  0.27124  0.25557  Biso   1.000  Hf
  Hf11     1.0000 0.86284  0.76434  0.25840  Biso   1.000  Hf
  Hf12     1.0000 0.36298  0.48204  0.75904  Biso   1.000  Hf
  Hf13     1.0000 0.37777  0.97347  0.72744  Biso   1.000  Hf
  Hf14     1.0000 0.86459  0.48486  0.75569  Biso   1.000  Hf
  Hf15     1.0000 0.86202  0.98219  0.75630  Biso   1.000  Hf
  Hf16     1.0000 0.03399  0.20594  0.37408  Biso   1.000  Hf
  Hf17     1.0000 0.03730  0.68718  0.39188  Biso   1.000  Hf
  Hf18     1.0000 0.53926  0.18344  0.38881  Biso   1.000  Hf
  Hf19     1.0000 0.53653  0.67941  0.39425  Biso   1.000  Hf
  Hf20     1.0000 0.03837  0.07233  0.82655  Biso   1.000  Hf
  Hf21     1.0000 0.03517  0.56737  0.89060  Biso   1.000  Hf
  Hf22     1.0000 0.53580  0.06550  0.89163  Biso   1.000  Hf
  Hf23     1.0000 0.53303  0.56314  0.89911  Biso   1.000  Hf
  Hf24     1.0000 0.46624  0.43178  0.40282  Biso   1.000  Hf
  Hf25     1.0000 0.46583  0.93261  0.37307  Biso   1.000  Hf
  Hf26     1.0000 0.95899  0.44188  0.39218  Biso   1.000  Hf
  Hf27     1.0000 0.93986  0.92867  0.40573  Biso   1.000  Hf
  Hf28     1.0000 0.46025  0.31133  0.89749  Biso   1.000  Hf
  Hf29     1.0000 0.47401  0.81270  0.88954  Biso   1.000  Hf
  Hf30     1.0000 0.95812  0.32018  0.89079  Biso   1.000  Hf
  Hf31     1.0000 0.97367  0.82278  0.91265  Biso   1.000  Hf
  Hf32     1.0000 0.28287  0.12984  0.53013  Biso   1.000  Hf
  Hf33     1.0000 0.27006  0.61218  0.49956  Biso   1.000  Hf
  Hf34     1.0000 0.76954  0.12008  0.50681  Biso   1.000  Hf
  Hf35     1.0000 0.77011  0.61823  0.50155  Biso   1.000  Hf
  Hf36     1.0000 0.26970  0.62819  0.99989  Biso   1.000  Hf
  Hf37     1.0000 0.77015  0.13289  0.00463  Biso   1.000  Hf
  Hf38     1.0000 0.77013  0.63001  0.00113  Biso   1.000  Hf
  Hf39     1.0000 0.22854  0.37734  0.00382  Biso   1.000  Hf
  Hf40     1.0000 0.24655  0.87685  0.97679  Biso   1.000  Hf
  Hf41     1.0000 0.72580  0.38293  0.00208  Biso   1.000  Hf
  Hf42     1.0000 0.73172  0.87950  0.00852  Biso   1.000  Hf
  Hf43     1.0000 0.22960  0.37329  0.49857  Biso   1.000  Hf
  Hf44     1.0000 0.24503  0.85195  0.49916  Biso   1.000  Hf
  Hf45     1.0000 0.72723  0.36977  0.50529  Biso   1.000  Hf
  Hf46     1.0000 0.71893  0.86712  0.50944  Biso   1.000  Hf
