data_image0
_cell_length_a       10.0074
_cell_length_b       5.19608
_cell_length_c       10.0543
_cell_angle_alpha    90.1319
_cell_angle_beta     90.07
_cell_angle_gamma    90.0124

_symmetry_space_group_name_H-M    "P 1"
_symmetry_int_tables_number       1

loop_
  _symmetry_equiv_pos_as_xyz
  'x, y, z'

loop_
  _atom_site_label
  _atom_site_occupancy
  _atom_site_fract_x
  _atom_site_fract_y
  _atom_site_fract_z
  _atom_site_thermal_displace_type
  _atom_site_B_iso_or_equiv
  _atom_site_type_symbol
  La1      1.0000 0.11212  0.00573  0.12912  Biso   1.000  La
  Hf1      1.0000 0.13400  0.03426  0.62447  Biso   1.000  Hf
  Hf2      1.0000 0.63343  0.02632  0.12444  Biso   1.000  Hf
  Hf3      1.0000 0.63000  0.03213  0.62645  Biso   1.000  Hf
  Hf4      1.0000 0.13607  0.47035  0.37851  Biso   1.000  Hf
  Hf5      1.0000 0.13703  0.46943  0.87457  Biso   1.000  Hf
  Hf6      1.0000 0.63184  0.46553  0.37536  Biso   1.000  Hf
  Hf7      1.0000 0.63083  0.46532  0.87326  Biso   1.000  Hf
  Hf8      1.0000 0.36708  0.51939  0.12582  Biso   1.000  Hf
  Hf9      1.0000 0.36418  0.53389  0.62609  Biso   1.000  Hf
  Hf10     1.0000 0.85686  0.52275  0.12048  Biso   1.000  Hf
  Hf11     1.0000 0.86632  0.53383  0.62461  Biso   1.000  Hf
  Hf12     1.0000 0.36635  0.96645  0.37476  Biso   1.000  Hf
  Hf13     1.0000 0.36525  0.96555  0.87740  Biso   1.000  Hf
  Hf14     1.0000 0.85818  0.96663  0.38578  Biso   1.000  Hf
  Hf15     1.0000 0.86179  0.96655  0.87156  Biso   1.000  Hf
  Hf16     1.0000 0.03276  0.43575  0.19776  Biso   1.000  Hf
  Hf17     1.0000 0.03872  0.37548  0.68402  Biso   1.000  Hf
  Hf18     1.0000 0.54299  0.36706  0.19297  Biso   1.000  Hf
  Hf19     1.0000 0.53334  0.36546  0.69459  Biso   1.000  Hf
  Hf20     1.0000 0.03848  0.12363  0.42918  Biso   1.000  Hf
  Hf21     1.0000 0.02378  0.16245  0.92690  Biso   1.000  Hf
  Hf22     1.0000 0.53837  0.13033  0.44367  Biso   1.000  Hf
  Hf23     1.0000 0.53554  0.13058  0.94593  Biso   1.000  Hf
  Hf24     1.0000 0.47050  0.86001  0.19749  Biso   1.000  Hf
  Hf25     1.0000 0.46353  0.86660  0.69618  Biso   1.000  Hf
  Hf26     1.0000 0.96137  0.87199  0.69113  Biso   1.000  Hf
  Hf27     1.0000 0.46642  0.62979  0.44848  Biso   1.000  Hf
  Hf28     1.0000 0.46821  0.63309  0.94472  Biso   1.000  Hf
  Hf29     1.0000 0.96294  0.63698  0.44523  Biso   1.000  Hf
  Hf30     1.0000 0.97242  0.66255  0.95711  Biso   1.000  Hf
  Hf31     1.0000 0.27710  0.23887  0.25400  Biso   1.000  Hf
  Hf32     1.0000 0.26943  0.23702  0.74947  Biso   1.000  Hf
  Hf33     1.0000 0.77530  0.22239  0.24694  Biso   1.000  Hf
  Hf34     1.0000 0.76873  0.23578  0.74625  Biso   1.000  Hf
  Hf35     1.0000 0.27019  0.26245  0.50216  Biso   1.000  Hf
  Hf36     1.0000 0.27091  0.25993  0.99602  Biso   1.000  Hf
  Hf37     1.0000 0.77013  0.26515  0.49879  Biso   1.000  Hf
  Hf38     1.0000 0.76824  0.26193  0.99598  Biso   1.000  Hf
  Hf39     1.0000 0.23040  0.76631  0.50094  Biso   1.000  Hf
  Hf40     1.0000 0.23921  0.74544  0.99584  Biso   1.000  Hf
  Hf41     1.0000 0.72510  0.76036  0.50248  Biso   1.000  Hf
  Hf42     1.0000 0.72786  0.75983  0.99864  Biso   1.000  Hf
  Hf43     1.0000 0.24441  0.71760  0.25787  Biso   1.000  Hf
  Hf44     1.0000 0.22739  0.74224  0.74791  Biso   1.000  Hf
  Hf45     1.0000 0.73982  0.73137  0.25211  Biso   1.000  Hf
  Hf46     1.0000 0.72896  0.73333  0.74949  Biso   1.000  Hf
