data_image0
_cell_length_a       10.0565
_cell_length_b       10.4467
_cell_length_c       5.0236
_cell_angle_alpha    90.7765
_cell_angle_beta     90.6657
_cell_angle_gamma    89.9814

_symmetry_space_group_name_H-M    "P 1"
_symmetry_int_tables_number       1

loop_
  _symmetry_equiv_pos_as_xyz
  'x, y, z'

loop_
  _atom_site_label
  _atom_site_occupancy
  _atom_site_fract_x
  _atom_site_fract_y
  _atom_site_fract_z
  _atom_site_thermal_displace_type
  _atom_site_B_iso_or_equiv
  _atom_site_type_symbol
  La1      1.0000 0.12271  0.00659  0.24634  Biso   1.000  La
  Hf1      1.0000 0.13092  0.51507  0.24794  Biso   1.000  Hf
  Hf2      1.0000 0.63320  0.01512  0.25645  Biso   1.000  Hf
  Hf3      1.0000 0.63344  0.51667  0.25119  Biso   1.000  Hf
  Hf4      1.0000 0.12749  0.24099  0.74883  Biso   1.000  Hf
  Hf5      1.0000 0.13583  0.73162  0.75641  Biso   1.000  Hf
  Hf6      1.0000 0.63714  0.23263  0.75267  Biso   1.000  Hf
  Hf7      1.0000 0.63539  0.73130  0.75711  Biso   1.000  Hf
  Hf8      1.0000 0.37370  0.27162  0.22594  Biso   1.000  Hf
  Hf9      1.0000 0.36767  0.76122  0.25174  Biso   1.000  Hf
  Hf10     1.0000 0.86431  0.27035  0.25625  Biso   1.000  Hf
  Hf11     1.0000 0.86223  0.76415  0.26033  Biso   1.000  Hf
  Hf12     1.0000 0.36672  0.48285  0.74528  Biso   1.000  Hf
  Hf13     1.0000 0.37488  0.97522  0.75972  Biso   1.000  Hf
  Hf14     1.0000 0.86457  0.48530  0.75610  Biso   1.000  Hf
  Hf15     1.0000 0.85972  0.98133  0.75831  Biso   1.000  Hf
  Hf16     1.0000 0.03719  0.20345  0.38237  Biso   1.000  Hf
  Hf17     1.0000 0.03694  0.68701  0.39205  Biso   1.000  Hf
  Hf18     1.0000 0.53039  0.18216  0.39564  Biso   1.000  Hf
  Hf19     1.0000 0.53492  0.68134  0.39777  Biso   1.000  Hf
  Hf20     1.0000 0.03280  0.07256  0.82540  Biso   1.000  Hf
  Hf21     1.0000 0.03385  0.56890  0.89501  Biso   1.000  Hf
  Hf22     1.0000 0.54122  0.06681  0.89184  Biso   1.000  Hf
  Hf23     1.0000 0.53436  0.56675  0.89385  Biso   1.000  Hf
  Hf24     1.0000 0.46678  0.43482  0.38492  Biso   1.000  Hf
  Hf25     1.0000 0.45977  0.93839  0.38677  Biso   1.000  Hf
  Hf26     1.0000 0.96336  0.44061  0.39904  Biso   1.000  Hf
  Hf27     1.0000 0.93751  0.92845  0.40660  Biso   1.000  Hf
  Hf28     1.0000 0.46944  0.32000  0.88301  Biso   1.000  Hf
  Hf29     1.0000 0.47427  0.81804  0.90317  Biso   1.000  Hf
  Hf30     1.0000 0.96308  0.32195  0.89902  Biso   1.000  Hf
  Hf31     1.0000 0.97262  0.82329  0.91479  Biso   1.000  Hf
  Hf32     1.0000 0.26701  0.60940  0.49689  Biso   1.000  Hf
  Hf33     1.0000 0.76726  0.11934  0.50507  Biso   1.000  Hf
  Hf34     1.0000 0.77008  0.61784  0.50175  Biso   1.000  Hf
  Hf35     1.0000 0.27882  0.13578  0.96104  Biso   1.000  Hf
  Hf36     1.0000 0.27159  0.62888  0.99817  Biso   1.000  Hf
  Hf37     1.0000 0.77169  0.13322  0.00801  Biso   1.000  Hf
  Hf38     1.0000 0.76982  0.63058  0.00037  Biso   1.000  Hf
  Hf39     1.0000 0.23083  0.38619  0.99219  Biso   1.000  Hf
  Hf40     1.0000 0.24396  0.87031  0.98880  Biso   1.000  Hf
  Hf41     1.0000 0.72999  0.38323  0.00172  Biso   1.000  Hf
  Hf42     1.0000 0.73093  0.87915  0.01070  Biso   1.000  Hf
  Hf43     1.0000 0.23856  0.35655  0.49194  Biso   1.000  Hf
  Hf44     1.0000 0.24325  0.85474  0.51249  Biso   1.000  Hf
  Hf45     1.0000 0.72916  0.36872  0.50309  Biso   1.000  Hf
  Hf46     1.0000 0.71605  0.86660  0.50995  Biso   1.000  Hf
