data_image0
_cell_length_a       10.0479
_cell_length_b       10.4102
_cell_length_c       10.1015
_cell_angle_alpha    90.0451
_cell_angle_beta     90.5186
_cell_angle_gamma    89.9726

_symmetry_space_group_name_H-M    "P 1"
_symmetry_int_tables_number       1

loop_
  _symmetry_equiv_pos_as_xyz
  'x, y, z'

loop_
  _atom_site_label
  _atom_site_occupancy
  _atom_site_fract_x
  _atom_site_fract_y
  _atom_site_fract_z
  _atom_site_thermal_displace_type
  _atom_site_B_iso_or_equiv
  _atom_site_type_symbol
  La1      1.0000 0.12523  0.00713  0.12109  Biso   1.000  La
  Hf1      1.0000 0.13126  0.01681  0.62390  Biso   1.000  Hf
  Hf2      1.0000 0.13668  0.51725  0.12386  Biso   1.000  Hf
  Hf3      1.0000 0.13157  0.51825  0.62903  Biso   1.000  Hf
  Hf4      1.0000 0.63432  0.01172  0.11851  Biso   1.000  Hf
  Hf5      1.0000 0.63366  0.01626  0.62804  Biso   1.000  Hf
  Hf6      1.0000 0.63516  0.51547  0.12608  Biso   1.000  Hf
  Hf7      1.0000 0.63356  0.51629  0.62760  Biso   1.000  Hf
  Hf8      1.0000 0.13494  0.23606  0.37716  Biso   1.000  Hf
  Hf9      1.0000 0.13369  0.23587  0.87010  Biso   1.000  Hf
  Hf10     1.0000 0.13300  0.73414  0.37779  Biso   1.000  Hf
  Hf11     1.0000 0.13598  0.73427  0.87626  Biso   1.000  Hf
  La2      1.0000 0.62025  0.24269  0.36781  Biso   1.000  La
  Hf12     1.0000 0.63436  0.23345  0.87591  Biso   1.000  Hf
  Hf13     1.0000 0.63141  0.73238  0.37808  Biso   1.000  Hf
  Hf14     1.0000 0.63602  0.73189  0.87518  Biso   1.000  Hf
  Hf15     1.0000 0.36272  0.26637  0.12173  Biso   1.000  Hf
  Hf16     1.0000 0.36125  0.26601  0.63135  Biso   1.000  Hf
  Hf17     1.0000 0.37075  0.76311  0.12530  Biso   1.000  Hf
  Hf18     1.0000 0.36505  0.76632  0.62645  Biso   1.000  Hf
  Hf19     1.0000 0.86600  0.26805  0.12274  Biso   1.000  Hf
  Hf20     1.0000 0.86497  0.26721  0.62328  Biso   1.000  Hf
  Hf21     1.0000 0.86093  0.76431  0.12898  Biso   1.000  Hf
  Hf22     1.0000 0.86497  0.76579  0.62538  Biso   1.000  Hf
  Hf23     1.0000 0.35947  0.48561  0.37832  Biso   1.000  Hf
  Hf24     1.0000 0.36752  0.48445  0.87528  Biso   1.000  Hf
  Hf25     1.0000 0.36210  0.98211  0.37656  Biso   1.000  Hf
  Hf26     1.0000 0.36936  0.98288  0.87115  Biso   1.000  Hf
  Hf27     1.0000 0.86860  0.48712  0.37640  Biso   1.000  Hf
  Hf28     1.0000 0.86655  0.48293  0.87562  Biso   1.000  Hf
  Hf29     1.0000 0.85920  0.98309  0.38240  Biso   1.000  Hf
  Hf30     1.0000 0.86406  0.98337  0.87122  Biso   1.000  Hf
  Hf31     1.0000 0.03233  0.19896  0.20123  Biso   1.000  Hf
  Hf32     1.0000 0.03905  0.18914  0.68411  Biso   1.000  Hf
  Hf33     1.0000 0.03528  0.68571  0.19740  Biso   1.000  Hf
  Hf34     1.0000 0.03369  0.68499  0.69836  Biso   1.000  Hf
  Hf35     1.0000 0.53612  0.17773  0.15760  Biso   1.000  Hf
  Hf36     1.0000 0.53409  0.18472  0.69290  Biso   1.000  Hf
  Hf37     1.0000 0.53447  0.67692  0.19837  Biso   1.000  Hf
  Hf38     1.0000 0.53430  0.68260  0.69757  Biso   1.000  Hf
  Hf39     1.0000 0.03621  0.06465  0.43783  Biso   1.000  Hf
  Hf40     1.0000 0.03149  0.07489  0.91728  Biso   1.000  Hf
  Hf41     1.0000 0.03441  0.56985  0.44972  Biso   1.000  Hf
  Hf42     1.0000 0.03478  0.57026  0.94555  Biso   1.000  Hf
  Hf43     1.0000 0.52703  0.05331  0.45603  Biso   1.000  Hf
  Hf44     1.0000 0.54398  0.05975  0.92979  Biso   1.000  Hf
  Hf45     1.0000 0.53431  0.56248  0.44717  Biso   1.000  Hf
  Hf46     1.0000 0.53495  0.56704  0.94843  Biso   1.000  Hf
  Hf47     1.0000 0.47438  0.42320  0.20736  Biso   1.000  Hf
  Hf48     1.0000 0.46530  0.43429  0.69808  Biso   1.000  Hf
  Hf49     1.0000 0.46604  0.93295  0.19662  Biso   1.000  Hf
  Hf50     1.0000 0.46494  0.92980  0.69602  Biso   1.000  Hf
  Hf51     1.0000 0.97050  0.43896  0.19659  Biso   1.000  Hf
  Hf52     1.0000 0.96660  0.43381  0.70004  Biso   1.000  Hf
  Hf53     1.0000 0.94206  0.92537  0.20787  Biso   1.000  Hf
  Hf54     1.0000 0.96098  0.93461  0.69174  Biso   1.000  Hf
  Hf55     1.0000 0.43843  0.32151  0.45703  Biso   1.000  Hf
  Hf56     1.0000 0.46460  0.31847  0.94034  Biso   1.000  Hf
  Hf57     1.0000 0.46246  0.81149  0.44771  Biso   1.000  Hf
  Hf58     1.0000 0.47558  0.81777  0.95021  Biso   1.000  Hf
  Hf59     1.0000 0.96372  0.31801  0.44461  Biso   1.000  Hf
  Hf60     1.0000 0.96754  0.32011  0.94748  Biso   1.000  Hf
  Hf61     1.0000 0.96465  0.81664  0.44969  Biso   1.000  Hf
  Hf62     1.0000 0.97562  0.82570  0.95688  Biso   1.000  Hf
  Hf63     1.0000 0.28477  0.12829  0.25642  Biso   1.000  Hf
  Hf64     1.0000 0.26859  0.11567  0.74761  Biso   1.000  Hf
  Hf65     1.0000 0.26942  0.61457  0.24786  Biso   1.000  Hf
  Hf66     1.0000 0.27002  0.61862  0.74968  Biso   1.000  Hf
  Hf67     1.0000 0.77293  0.11090  0.24243  Biso   1.000  Hf
  Hf68     1.0000 0.76943  0.11954  0.75051  Biso   1.000  Hf
  Hf69     1.0000 0.77020  0.61981  0.25047  Biso   1.000  Hf
  Hf70     1.0000 0.77061  0.61624  0.74915  Biso   1.000  Hf
  Hf71     1.0000 0.26551  0.13217  0.50306  Biso   1.000  Hf
  Hf72     1.0000 0.27632  0.13719  0.98922  Biso   1.000  Hf
  Hf73     1.0000 0.26863  0.63325  0.50021  Biso   1.000  Hf
  Hf74     1.0000 0.27223  0.63073  0.99908  Biso   1.000  Hf
  Hf75     1.0000 0.77596  0.12524  0.50670  Biso   1.000  Hf
  Hf76     1.0000 0.77462  0.13146  0.99726  Biso   1.000  Hf
  Hf77     1.0000 0.76835  0.63574  0.49937  Biso   1.000  Hf
  Hf78     1.0000 0.77062  0.63046  0.99886  Biso   1.000  Hf
  Hf79     1.0000 0.21807  0.38595  0.50145  Biso   1.000  Hf
  Hf80     1.0000 0.23165  0.38447  0.99913  Biso   1.000  Hf
  Hf81     1.0000 0.22805  0.88275  0.50015  Biso   1.000  Hf
  Hf82     1.0000 0.24630  0.87195  0.98963  Biso   1.000  Hf
  Hf83     1.0000 0.74127  0.39451  0.50591  Biso   1.000  Hf
  Hf84     1.0000 0.72930  0.38254  0.99621  Biso   1.000  Hf
  Hf85     1.0000 0.72583  0.87985  0.50226  Biso   1.000  Hf
  Hf86     1.0000 0.73520  0.87865  0.99839  Biso   1.000  Hf
  Hf87     1.0000 0.23018  0.37093  0.24982  Biso   1.000  Hf
  Hf88     1.0000 0.23016  0.37053  0.75031  Biso   1.000  Hf
  Hf89     1.0000 0.24249  0.85404  0.25589  Biso   1.000  Hf
  Hf90     1.0000 0.22840  0.86758  0.74632  Biso   1.000  Hf
  Hf91     1.0000 0.74385  0.37856  0.24036  Biso   1.000  Hf
  Hf92     1.0000 0.73009  0.36642  0.74982  Biso   1.000  Hf
  Hf93     1.0000 0.71795  0.86437  0.25090  Biso   1.000  Hf
  Hf94     1.0000 0.73066  0.86557  0.75012  Biso   1.000  Hf
