data_image0
_cell_length_a       10.037
_cell_length_b       10.3991
_cell_length_c       10.0687
_cell_angle_alpha    89.9982
_cell_angle_beta     90.4767
_cell_angle_gamma    89.9705

_symmetry_space_group_name_H-M    "P 1"
_symmetry_int_tables_number       1

loop_
  _symmetry_equiv_pos_as_xyz
  'x, y, z'

loop_
  _atom_site_label
  _atom_site_occupancy
  _atom_site_fract_x
  _atom_site_fract_y
  _atom_site_fract_z
  _atom_site_thermal_displace_type
  _atom_site_B_iso_or_equiv
  _atom_site_type_symbol
  Hf1      1.0000 0.14299  0.99611  0.11264  Biso   1.000  Hf
  Hf2      1.0000 0.13311  0.01405  0.62295  Biso   1.000  Hf
  Hf3      1.0000 0.13870  0.51904  0.12419  Biso   1.000  Hf
  Hf4      1.0000 0.13370  0.51941  0.62460  Biso   1.000  Hf
  Hf5      1.0000 0.62964  0.01281  0.12510  Biso   1.000  Hf
  Hf6      1.0000 0.63238  0.01703  0.62456  Biso   1.000  Hf
  Hf7      1.0000 0.64000  0.51388  0.12534  Biso   1.000  Hf
  Hf8      1.0000 0.63244  0.51760  0.62843  Biso   1.000  Hf
  La1      1.0000 0.12788  0.24813  0.37952  Biso   1.000  La
  Hf9      1.0000 0.13839  0.23497  0.86780  Biso   1.000  Hf
  Hf10     1.0000 0.13182  0.73283  0.37524  Biso   1.000  Hf
  Hf11     1.0000 0.13457  0.73195  0.87306  Biso   1.000  Hf
  Hf12     1.0000 0.63285  0.23402  0.37563  Biso   1.000  Hf
  Hf13     1.0000 0.63251  0.23407  0.87418  Biso   1.000  Hf
  Hf14     1.0000 0.63367  0.73356  0.37629  Biso   1.000  Hf
  Hf15     1.0000 0.63435  0.73332  0.87603  Biso   1.000  Hf
  Hf16     1.0000 0.36905  0.26594  0.11891  Biso   1.000  Hf
  Hf17     1.0000 0.36859  0.26654  0.62262  Biso   1.000  Hf
  Hf18     1.0000 0.37231  0.76189  0.12521  Biso   1.000  Hf
  Hf19     1.0000 0.36604  0.76638  0.62216  Biso   1.000  Hf
  La2      1.0000 0.88162  0.25270  0.12316  Biso   1.000  La
  Hf20     1.0000 0.86076  0.26699  0.62930  Biso   1.000  Hf
  Hf21     1.0000 0.86702  0.76764  0.12663  Biso   1.000  Hf
  Hf22     1.0000 0.86527  0.76696  0.62717  Biso   1.000  Hf
  Hf23     1.0000 0.37252  0.48597  0.37062  Biso   1.000  Hf
  Hf24     1.0000 0.36798  0.48438  0.87329  Biso   1.000  Hf
  Hf25     1.0000 0.36352  0.98445  0.37377  Biso   1.000  Hf
  Hf26     1.0000 0.36947  0.98328  0.86957  Biso   1.000  Hf
  Hf27     1.0000 0.85924  0.48420  0.38124  Biso   1.000  Hf
  Hf28     1.0000 0.86752  0.48570  0.87167  Biso   1.000  Hf
  Hf29     1.0000 0.86071  0.98127  0.38150  Biso   1.000  Hf
  Hf30     1.0000 0.86400  0.98394  0.87756  Biso   1.000  Hf
  Hf31     1.0000 0.03579  0.18380  0.69089  Biso   1.000  Hf
  Hf32     1.0000 0.03726  0.68741  0.19326  Biso   1.000  Hf
  Hf33     1.0000 0.03401  0.68423  0.69760  Biso   1.000  Hf
  Hf34     1.0000 0.53054  0.18030  0.19585  Biso   1.000  Hf
  Hf35     1.0000 0.53510  0.18320  0.69589  Biso   1.000  Hf
  Hf36     1.0000 0.53837  0.68115  0.19690  Biso   1.000  Hf
  Hf37     1.0000 0.53386  0.68541  0.69632  Biso   1.000  Hf
  Hf38     1.0000 0.02487  0.05821  0.45475  Biso   1.000  Hf
  Hf39     1.0000 0.02328  0.08386  0.96674  Biso   1.000  Hf
  Hf40     1.0000 0.03570  0.56421  0.44597  Biso   1.000  Hf
  Hf41     1.0000 0.03484  0.57121  0.94655  Biso   1.000  Hf
  Hf42     1.0000 0.53347  0.06509  0.44505  Biso   1.000  Hf
  Hf43     1.0000 0.52906  0.06846  0.94607  Biso   1.000  Hf
  Hf44     1.0000 0.53516  0.56940  0.44729  Biso   1.000  Hf
  Hf45     1.0000 0.53769  0.56657  0.94388  Biso   1.000  Hf
  Hf46     1.0000 0.47184  0.43304  0.19095  Biso   1.000  Hf
  Hf47     1.0000 0.46646  0.43297  0.69700  Biso   1.000  Hf
  Hf48     1.0000 0.46255  0.93180  0.19448  Biso   1.000  Hf
  Hf49     1.0000 0.46414  0.93374  0.69337  Biso   1.000  Hf
  Hf50     1.0000 0.98686  0.43064  0.21591  Biso   1.000  Hf
  Hf51     1.0000 0.96131  0.43789  0.68611  Biso   1.000  Hf
  Hf52     1.0000 0.96747  0.95288  0.20043  Biso   1.000  Hf
  Hf53     1.0000 0.96649  0.93202  0.70314  Biso   1.000  Hf
  Hf54     1.0000 0.46130  0.31396  0.44062  Biso   1.000  Hf
  Hf55     1.0000 0.46388  0.31651  0.94294  Biso   1.000  Hf
  Hf56     1.0000 0.46390  0.81788  0.44307  Biso   1.000  Hf
  Hf57     1.0000 0.46922  0.81746  0.94675  Biso   1.000  Hf
  Hf58     1.0000 0.93261  0.31281  0.44659  Biso   1.000  Hf
  Hf59     1.0000 0.97158  0.32511  0.92280  Biso   1.000  Hf
  Hf60     1.0000 0.96114  0.81153  0.44607  Biso   1.000  Hf
  Hf61     1.0000 0.97559  0.82736  0.95554  Biso   1.000  Hf
  Hf62     1.0000 0.25294  0.10993  0.23689  Biso   1.000  Hf
  Hf63     1.0000 0.26838  0.11645  0.74808  Biso   1.000  Hf
  Hf64     1.0000 0.27207  0.61821  0.24815  Biso   1.000  Hf
  Hf65     1.0000 0.27028  0.61752  0.74814  Biso   1.000  Hf
  Hf66     1.0000 0.75684  0.10715  0.25746  Biso   1.000  Hf
  Hf67     1.0000 0.76926  0.11765  0.75010  Biso   1.000  Hf
  Hf68     1.0000 0.77406  0.61801  0.24903  Biso   1.000  Hf
  Hf69     1.0000 0.76978  0.62017  0.74926  Biso   1.000  Hf
  Hf70     1.0000 0.27884  0.12423  0.50381  Biso   1.000  Hf
  Hf71     1.0000 0.26772  0.12880  0.99474  Biso   1.000  Hf
  Hf72     1.0000 0.26872  0.63686  0.49741  Biso   1.000  Hf
  Hf73     1.0000 0.27315  0.63291  0.99688  Biso   1.000  Hf
  Hf74     1.0000 0.76418  0.13130  0.50363  Biso   1.000  Hf
  Hf75     1.0000 0.75675  0.12305  0.99342  Biso   1.000  Hf
  Hf76     1.0000 0.76859  0.63255  0.50132  Biso   1.000  Hf
  Hf77     1.0000 0.77411  0.63552  0.00000  Biso   1.000  Hf
  Hf78     1.0000 0.24409  0.39618  0.50466  Biso   1.000  Hf
  Hf79     1.0000 0.22890  0.38305  0.99331  Biso   1.000  Hf
  Hf80     1.0000 0.22764  0.88230  0.49455  Biso   1.000  Hf
  Hf81     1.0000 0.23734  0.87756  0.99202  Biso   1.000  Hf
  Hf82     1.0000 0.71568  0.38330  0.50471  Biso   1.000  Hf
  Hf83     1.0000 0.73279  0.38425  0.99635  Biso   1.000  Hf
  Hf84     1.0000 0.72708  0.88011  0.50232  Biso   1.000  Hf
  Hf85     1.0000 0.73256  0.88079  0.00027  Biso   1.000  Hf
  Hf86     1.0000 0.24495  0.37407  0.23626  Biso   1.000  Hf
  Hf87     1.0000 0.23149  0.36737  0.74554  Biso   1.000  Hf
  Hf88     1.0000 0.23254  0.85987  0.24522  Biso   1.000  Hf
  Hf89     1.0000 0.23055  0.86510  0.74547  Biso   1.000  Hf
  Hf90     1.0000 0.72632  0.37338  0.25473  Biso   1.000  Hf
  Hf91     1.0000 0.72872  0.36930  0.75148  Biso   1.000  Hf
  Hf92     1.0000 0.73235  0.86319  0.24920  Biso   1.000  Hf
  Hf93     1.0000 0.73062  0.86857  0.75147  Biso   1.000  Hf
