data_image0
_cell_length_a       10.0443
_cell_length_b       10.4016
_cell_length_c       10.0879
_cell_angle_alpha    89.882
_cell_angle_beta     90.466
_cell_angle_gamma    89.5715

_symmetry_space_group_name_H-M    "P 1"
_symmetry_int_tables_number       1

loop_
  _symmetry_equiv_pos_as_xyz
  'x, y, z'

loop_
  _atom_site_label
  _atom_site_occupancy
  _atom_site_fract_x
  _atom_site_fract_y
  _atom_site_fract_z
  _atom_site_thermal_displace_type
  _atom_site_B_iso_or_equiv
  _atom_site_type_symbol
  Hf1      1.0000 0.10073  0.98596  0.09120  Biso   1.000  Hf
  Hf2      1.0000 0.13379  0.01766  0.62977  Biso   1.000  Hf
  Hf3      1.0000 0.13514  0.51615  0.12457  Biso   1.000  Hf
  Hf4      1.0000 0.13305  0.51797  0.62331  Biso   1.000  Hf
  Hf5      1.0000 0.63635  0.01588  0.12390  Biso   1.000  Hf
  Hf6      1.0000 0.63313  0.01912  0.62715  Biso   1.000  Hf
  Hf7      1.0000 0.63843  0.51815  0.12424  Biso   1.000  Hf
  Hf8      1.0000 0.63174  0.51807  0.62665  Biso   1.000  Hf
  La1      1.0000 0.11804  0.24336  0.36828  Biso   1.000  La
  Hf9      1.0000 0.13762  0.23589  0.87880  Biso   1.000  Hf
  Hf10     1.0000 0.13172  0.73641  0.37378  Biso   1.000  Hf
  Hf11     1.0000 0.13643  0.73383  0.87175  Biso   1.000  Hf
  Hf12     1.0000 0.63755  0.23688  0.38013  Biso   1.000  Hf
  Hf13     1.0000 0.63932  0.23422  0.87307  Biso   1.000  Hf
  Hf14     1.0000 0.63009  0.73341  0.37713  Biso   1.000  Hf
  Hf15     1.0000 0.63386  0.73171  0.87233  Biso   1.000  Hf
  Hf16     1.0000 0.38072  0.27788  0.10842  Biso   1.000  Hf
  Hf17     1.0000 0.36544  0.26889  0.62614  Biso   1.000  Hf
  Hf18     1.0000 0.36632  0.76371  0.11995  Biso   1.000  Hf
  Hf19     1.0000 0.36302  0.77000  0.62072  Biso   1.000  Hf
  Hf20     1.0000 0.86880  0.26455  0.12365  Biso   1.000  Hf
  Hf21     1.0000 0.86659  0.26916  0.63302  Biso   1.000  Hf
  Hf22     1.0000 0.86029  0.76451  0.13280  Biso   1.000  Hf
  Hf23     1.0000 0.86583  0.76484  0.62309  Biso   1.000  Hf
  Hf24     1.0000 0.36985  0.48517  0.37332  Biso   1.000  Hf
  Hf25     1.0000 0.36756  0.48955  0.86819  Biso   1.000  Hf
  La2      1.0000 0.36737  0.99899  0.36197  Biso   1.000  La
  Hf26     1.0000 0.37275  0.98198  0.87649  Biso   1.000  Hf
  Hf27     1.0000 0.86185  0.48620  0.38015  Biso   1.000  Hf
  Hf28     1.0000 0.86848  0.48578  0.87568  Biso   1.000  Hf
  Hf29     1.0000 0.86033  0.98258  0.38252  Biso   1.000  Hf
  Hf30     1.0000 0.86134  0.98028  0.86970  Biso   1.000  Hf
  Hf31     1.0000 0.03385  0.15905  0.16796  Biso   1.000  Hf
  Hf32     1.0000 0.03730  0.18800  0.69633  Biso   1.000  Hf
  Hf33     1.0000 0.02932  0.67504  0.19638  Biso   1.000  Hf
  Hf34     1.0000 0.03341  0.68446  0.69946  Biso   1.000  Hf
  Hf35     1.0000 0.51756  0.17071  0.20873  Biso   1.000  Hf
  Hf36     1.0000 0.53670  0.18680  0.69815  Biso   1.000  Hf
  Hf37     1.0000 0.53382  0.68046  0.19689  Biso   1.000  Hf
  Hf38     1.0000 0.53358  0.68442  0.69445  Biso   1.000  Hf
  Hf39     1.0000 0.02576  0.05483  0.45707  Biso   1.000  Hf
  Hf40     1.0000 0.03509  0.06669  0.91930  Biso   1.000  Hf
  Hf41     1.0000 0.03391  0.56819  0.44724  Biso   1.000  Hf
  Hf42     1.0000 0.03413  0.57212  0.94770  Biso   1.000  Hf
  Hf43     1.0000 0.55383  0.07119  0.45241  Biso   1.000  Hf
  Hf44     1.0000 0.53727  0.07202  0.94619  Biso   1.000  Hf
  Hf45     1.0000 0.53501  0.56659  0.44588  Biso   1.000  Hf
  Hf46     1.0000 0.53788  0.56522  0.94509  Biso   1.000  Hf
  Hf47     1.0000 0.47959  0.43117  0.19616  Biso   1.000  Hf
  Hf48     1.0000 0.46509  0.43663  0.69492  Biso   1.000  Hf
  Hf49     1.0000 0.46666  0.92647  0.16539  Biso   1.000  Hf
  Hf50     1.0000 0.46513  0.93660  0.69556  Biso   1.000  Hf
  Hf51     1.0000 0.98048  0.41721  0.21082  Biso   1.000  Hf
  Hf52     1.0000 0.96673  0.43740  0.70164  Biso   1.000  Hf
  Hf53     1.0000 0.95259  0.92692  0.20583  Biso   1.000  Hf
  Hf54     1.0000 0.96348  0.92865  0.69844  Biso   1.000  Hf
  Hf55     1.0000 0.46278  0.31315  0.44444  Biso   1.000  Hf
  Hf56     1.0000 0.46942  0.32115  0.93813  Biso   1.000  Hf
  Hf57     1.0000 0.46730  0.81601  0.44864  Biso   1.000  Hf
  Hf58     1.0000 0.46553  0.81050  0.93595  Biso   1.000  Hf
  Hf59     1.0000 0.94986  0.32965  0.46358  Biso   1.000  Hf
  Hf60     1.0000 0.96768  0.31951  0.94797  Biso   1.000  Hf
  Hf61     1.0000 0.95683  0.80975  0.44286  Biso   1.000  Hf
  Hf62     1.0000 0.98428  0.83464  0.97168  Biso   1.000  Hf
  Hf63     1.0000 0.27279  0.12095  0.76578  Biso   1.000  Hf
  Hf64     1.0000 0.26888  0.61683  0.24622  Biso   1.000  Hf
  Hf65     1.0000 0.26864  0.62003  0.74538  Biso   1.000  Hf
  Hf66     1.0000 0.76712  0.11978  0.25111  Biso   1.000  Hf
  Hf67     1.0000 0.76957  0.11785  0.75247  Biso   1.000  Hf
  Hf68     1.0000 0.76979  0.61747  0.24915  Biso   1.000  Hf
  Hf69     1.0000 0.76975  0.61718  0.74854  Biso   1.000  Hf
  Hf70     1.0000 0.26479  0.13567  0.51744  Biso   1.000  Hf
  Hf71     1.0000 0.26393  0.12738  0.03146  Biso   1.000  Hf
  Hf72     1.0000 0.26993  0.63670  0.49514  Biso   1.000  Hf
  Hf73     1.0000 0.27034  0.63179  0.99486  Biso   1.000  Hf
  Hf74     1.0000 0.77593  0.13730  0.50510  Biso   1.000  Hf
  Hf75     1.0000 0.77280  0.13036  0.99987  Biso   1.000  Hf
  Hf76     1.0000 0.76721  0.63176  0.49978  Biso   1.000  Hf
  Hf77     1.0000 0.77350  0.63425  0.99799  Biso   1.000  Hf
  Hf78     1.0000 0.24159  0.39649  0.50283  Biso   1.000  Hf
  Hf79     1.0000 0.23439  0.38679  0.99108  Biso   1.000  Hf
  Hf80     1.0000 0.21740  0.87721  0.50097  Biso   1.000  Hf
  Hf81     1.0000 0.23757  0.87803  0.98750  Biso   1.000  Hf
  Hf82     1.0000 0.72097  0.38518  0.50143  Biso   1.000  Hf
  Hf83     1.0000 0.73377  0.38174  0.00069  Biso   1.000  Hf
  Hf84     1.0000 0.72854  0.88213  0.50364  Biso   1.000  Hf
  Hf85     1.0000 0.73231  0.88021  0.99904  Biso   1.000  Hf
  Hf86     1.0000 0.25017  0.36873  0.23444  Biso   1.000  Hf
  Hf87     1.0000 0.22984  0.36840  0.74823  Biso   1.000  Hf
  Hf88     1.0000 0.21842  0.86477  0.23246  Biso   1.000  Hf
  Hf89     1.0000 0.23201  0.86948  0.74747  Biso   1.000  Hf
  Hf90     1.0000 0.73672  0.36769  0.24977  Biso   1.000  Hf
  Hf91     1.0000 0.73120  0.36989  0.75236  Biso   1.000  Hf
  Hf92     1.0000 0.72061  0.86724  0.25124  Biso   1.000  Hf
  Hf93     1.0000 0.73182  0.86543  0.75073  Biso   1.000  Hf
