data_image0
_cell_length_a       10.0585
_cell_length_b       10.3901
_cell_length_c       10.081
_cell_angle_alpha    90.0101
_cell_angle_beta     90.4274
_cell_angle_gamma    90.0195

_symmetry_space_group_name_H-M    "P 1"
_symmetry_int_tables_number       1

loop_
  _symmetry_equiv_pos_as_xyz
  'x, y, z'

loop_
  _atom_site_label
  _atom_site_occupancy
  _atom_site_fract_x
  _atom_site_fract_y
  _atom_site_fract_z
  _atom_site_thermal_displace_type
  _atom_site_B_iso_or_equiv
  _atom_site_type_symbol
  La1      1.0000 0.12745  0.00410  0.11647  Biso   1.000  La
  Hf1      1.0000 0.13380  0.01438  0.62313  Biso   1.000  Hf
  Hf2      1.0000 0.13642  0.51439  0.12423  Biso   1.000  Hf
  Hf3      1.0000 0.13477  0.51776  0.62663  Biso   1.000  Hf
  Hf4      1.0000 0.63463  0.01595  0.12539  Biso   1.000  Hf
  Hf5      1.0000 0.63165  0.01497  0.62264  Biso   1.000  Hf
  Hf6      1.0000 0.63091  0.52264  0.12600  Biso   1.000  Hf
  Hf7      1.0000 0.63099  0.51706  0.62863  Biso   1.000  Hf
  La2      1.0000 0.12658  0.24633  0.37606  Biso   1.000  La
  Hf8      1.0000 0.13352  0.23834  0.86736  Biso   1.000  Hf
  Hf9      1.0000 0.13204  0.73138  0.37539  Biso   1.000  Hf
  Hf10     1.0000 0.13566  0.73292  0.87537  Biso   1.000  Hf
  Hf11     1.0000 0.63309  0.23503  0.37606  Biso   1.000  Hf
  Hf12     1.0000 0.62953  0.23167  0.87076  Biso   1.000  Hf
  Hf13     1.0000 0.63191  0.73441  0.37985  Biso   1.000  Hf
  Hf14     1.0000 0.63402  0.73436  0.87431  Biso   1.000  Hf
  Hf15     1.0000 0.37131  0.26475  0.12165  Biso   1.000  Hf
  Hf16     1.0000 0.36619  0.26537  0.62247  Biso   1.000  Hf
  Hf17     1.0000 0.37074  0.76466  0.12319  Biso   1.000  Hf
  Hf18     1.0000 0.36463  0.76758  0.62324  Biso   1.000  Hf
  Hf19     1.0000 0.84351  0.27805  0.11720  Biso   1.000  Hf
  Hf20     1.0000 0.86127  0.26660  0.62944  Biso   1.000  Hf
  Hf21     1.0000 0.86191  0.76634  0.12980  Biso   1.000  Hf
  Hf22     1.0000 0.86689  0.76448  0.62701  Biso   1.000  Hf
  Hf23     1.0000 0.37011  0.48638  0.37157  Biso   1.000  Hf
  Hf24     1.0000 0.36708  0.48315  0.87414  Biso   1.000  Hf
  Hf25     1.0000 0.36523  0.98485  0.37302  Biso   1.000  Hf
  Hf26     1.0000 0.36864  0.98536  0.87068  Biso   1.000  Hf
  Hf27     1.0000 0.85969  0.48459  0.38157  Biso   1.000  Hf
  Hf28     1.0000 0.86830  0.48605  0.87430  Biso   1.000  Hf
  Hf29     1.0000 0.86008  0.97934  0.38244  Biso   1.000  Hf
  Hf30     1.0000 0.86357  0.98232  0.87188  Biso   1.000  Hf
  Hf31     1.0000 0.03734  0.18750  0.68163  Biso   1.000  Hf
  Hf32     1.0000 0.03093  0.67495  0.19670  Biso   1.000  Hf
  Hf33     1.0000 0.03445  0.68196  0.69876  Biso   1.000  Hf
  Hf34     1.0000 0.54776  0.18680  0.18949  Biso   1.000  Hf
  Hf35     1.0000 0.53454  0.18215  0.69307  Biso   1.000  Hf
  Hf36     1.0000 0.53473  0.68300  0.20033  Biso   1.000  Hf
  Hf37     1.0000 0.53397  0.68450  0.69564  Biso   1.000  Hf
  Hf38     1.0000 0.02918  0.05441  0.44603  Biso   1.000  Hf
  Hf39     1.0000 0.02529  0.08095  0.92452  Biso   1.000  Hf
  Hf40     1.0000 0.03554  0.56073  0.44629  Biso   1.000  Hf
  Hf41     1.0000 0.03410  0.56965  0.94690  Biso   1.000  Hf
  Hf42     1.0000 0.53981  0.06481  0.43782  Biso   1.000  Hf
  Hf43     1.0000 0.53594  0.06600  0.94410  Biso   1.000  Hf
  Hf44     1.0000 0.53375  0.56880  0.44826  Biso   1.000  Hf
  Hf45     1.0000 0.53426  0.56902  0.94688  Biso   1.000  Hf
  Hf46     1.0000 0.47167  0.43277  0.19468  Biso   1.000  Hf
  Hf47     1.0000 0.46704  0.43153  0.69779  Biso   1.000  Hf
  Hf48     1.0000 0.46453  0.93568  0.18855  Biso   1.000  Hf
  Hf49     1.0000 0.46378  0.93476  0.69367  Biso   1.000  Hf
  Hf50     1.0000 0.97936  0.40225  0.20753  Biso   1.000  Hf
  Hf51     1.0000 0.96758  0.43267  0.70222  Biso   1.000  Hf
  Hf52     1.0000 0.94819  0.92506  0.21099  Biso   1.000  Hf
  Hf53     1.0000 0.96401  0.93075  0.69695  Biso   1.000  Hf
  Hf54     1.0000 0.46321  0.31368  0.44092  Biso   1.000  Hf
  Hf55     1.0000 0.46740  0.31833  0.94244  Biso   1.000  Hf
  Hf56     1.0000 0.46617  0.81920  0.44772  Biso   1.000  Hf
  Hf57     1.0000 0.47164  0.81807  0.94466  Biso   1.000  Hf
  Hf58     1.0000 0.93913  0.32189  0.45648  Biso   1.000  Hf
  Hf59     1.0000 0.96485  0.32105  0.95439  Biso   1.000  Hf
  Hf60     1.0000 0.96120  0.80896  0.44896  Biso   1.000  Hf
  Hf61     1.0000 0.97627  0.82656  0.95919  Biso   1.000  Hf
  Hf62     1.0000 0.28438  0.12335  0.24453  Biso   1.000  Hf
  Hf63     1.0000 0.26718  0.11809  0.74711  Biso   1.000  Hf
  Hf64     1.0000 0.26912  0.61527  0.24768  Biso   1.000  Hf
  Hf65     1.0000 0.27068  0.61787  0.74898  Biso   1.000  Hf
  Hf66     1.0000 0.78666  0.12554  0.24794  Biso   1.000  Hf
  Hf67     1.0000 0.76666  0.11491  0.74800  Biso   1.000  Hf
  Hf68     1.0000 0.77042  0.61960  0.24974  Biso   1.000  Hf
  Hf69     1.0000 0.76992  0.61689  0.74928  Biso   1.000  Hf
  Hf70     1.0000 0.27994  0.12257  0.50459  Biso   1.000  Hf
  Hf71     1.0000 0.27303  0.14047  0.98735  Biso   1.000  Hf
  Hf72     1.0000 0.26784  0.63629  0.49823  Biso   1.000  Hf
  Hf73     1.0000 0.27020  0.62994  0.99943  Biso   1.000  Hf
  Hf74     1.0000 0.76512  0.13250  0.50146  Biso   1.000  Hf
  Hf75     1.0000 0.76730  0.13394  0.99614  Biso   1.000  Hf
  Hf76     1.0000 0.76889  0.63041  0.50118  Biso   1.000  Hf
  Hf77     1.0000 0.77065  0.63381  0.99807  Biso   1.000  Hf
  Hf78     1.0000 0.24327  0.39428  0.50399  Biso   1.000  Hf
  Hf79     1.0000 0.23020  0.38364  0.99293  Biso   1.000  Hf
  Hf80     1.0000 0.22768  0.88155  0.49676  Biso   1.000  Hf
  Hf81     1.0000 0.24353  0.87359  0.98857  Biso   1.000  Hf
  Hf82     1.0000 0.71683  0.38424  0.50224  Biso   1.000  Hf
  Hf83     1.0000 0.72617  0.38574  0.99980  Biso   1.000  Hf
  Hf84     1.0000 0.72803  0.87857  0.50374  Biso   1.000  Hf
  Hf85     1.0000 0.73351  0.88265  0.00070  Biso   1.000  Hf
  Hf86     1.0000 0.24307  0.37531  0.23589  Biso   1.000  Hf
  Hf87     1.0000 0.23210  0.36862  0.74502  Biso   1.000  Hf
  Hf88     1.0000 0.24200  0.85460  0.25378  Biso   1.000  Hf
  Hf89     1.0000 0.22944  0.86686  0.74557  Biso   1.000  Hf
  Hf90     1.0000 0.72758  0.37638  0.25060  Biso   1.000  Hf
  Hf91     1.0000 0.73054  0.36803  0.75329  Biso   1.000  Hf
  Hf92     1.0000 0.71835  0.86892  0.25219  Biso   1.000  Hf
  Hf93     1.0000 0.72988  0.86609  0.74970  Biso   1.000  Hf
