data_image0
_cell_length_a       10.0222
_cell_length_b       10.4156
_cell_length_c       10.0855
_cell_angle_alpha    89.9137
_cell_angle_beta     89.8074
_cell_angle_gamma    89.9373

_symmetry_space_group_name_H-M    "P 1"
_symmetry_int_tables_number       1

loop_
  _symmetry_equiv_pos_as_xyz
  'x, y, z'

loop_
  _atom_site_label
  _atom_site_occupancy
  _atom_site_fract_x
  _atom_site_fract_y
  _atom_site_fract_z
  _atom_site_thermal_displace_type
  _atom_site_B_iso_or_equiv
  _atom_site_type_symbol
  Hf1      1.0000 0.14361  0.99847  0.11236  Biso   1.000  Hf
  Hf2      1.0000 0.13788  0.01504  0.62540  Biso   1.000  Hf
  Hf3      1.0000 0.13394  0.52150  0.12599  Biso   1.000  Hf
  Hf4      1.0000 0.13375  0.51945  0.62551  Biso   1.000  Hf
  Hf5      1.0000 0.62680  0.01253  0.12271  Biso   1.000  Hf
  Hf6      1.0000 0.63422  0.01704  0.62636  Biso   1.000  Hf
  Hf7      1.0000 0.63661  0.51397  0.12698  Biso   1.000  Hf
  Hf8      1.0000 0.63697  0.51633  0.62481  Biso   1.000  Hf
  Hf9      1.0000 0.15023  0.24095  0.39728  Biso   1.000  Hf
  Hf10     1.0000 0.13841  0.23413  0.86868  Biso   1.000  Hf
  Hf11     1.0000 0.13661  0.73202  0.37658  Biso   1.000  Hf
  Hf12     1.0000 0.13439  0.73028  0.87201  Biso   1.000  Hf
  Hf13     1.0000 0.62874  0.23639  0.37354  Biso   1.000  Hf
  Hf14     1.0000 0.63301  0.23496  0.87516  Biso   1.000  Hf
  Hf15     1.0000 0.63641  0.73255  0.37670  Biso   1.000  Hf
  Hf16     1.0000 0.63401  0.73273  0.87513  Biso   1.000  Hf
  Hf17     1.0000 0.35934  0.26722  0.12420  Biso   1.000  Hf
  Hf18     1.0000 0.37309  0.26947  0.63117  Biso   1.000  Hf
  Hf19     1.0000 0.37022  0.76042  0.12533  Biso   1.000  Hf
  Hf20     1.0000 0.36900  0.76612  0.62226  Biso   1.000  Hf
  La1      1.0000 0.88270  0.25286  0.12269  Biso   1.000  La
  Hf21     1.0000 0.86575  0.26777  0.62627  Biso   1.000  Hf
  Hf22     1.0000 0.86481  0.76736  0.12105  Biso   1.000  Hf
  Hf23     1.0000 0.86492  0.76542  0.62857  Biso   1.000  Hf
  Hf24     1.0000 0.37016  0.48576  0.37431  Biso   1.000  Hf
  Hf25     1.0000 0.36725  0.48467  0.87731  Biso   1.000  Hf
  Hf26     1.0000 0.36877  0.98440  0.37248  Biso   1.000  Hf
  Hf27     1.0000 0.37026  0.98156  0.87108  Biso   1.000  Hf
  Hf28     1.0000 0.86730  0.48457  0.37511  Biso   1.000  Hf
  Hf29     1.0000 0.86681  0.48490  0.87185  Biso   1.000  Hf
  La2      1.0000 0.86935  0.98898  0.38124  Biso   1.000  La
  Hf30     1.0000 0.86410  0.98411  0.87619  Biso   1.000  Hf
  Hf31     1.0000 0.04141  0.18657  0.68913  Biso   1.000  Hf
  Hf32     1.0000 0.03653  0.69168  0.19471  Biso   1.000  Hf
  Hf33     1.0000 0.03474  0.68123  0.69882  Biso   1.000  Hf
  Hf34     1.0000 0.50880  0.17406  0.20795  Biso   1.000  Hf
  Hf35     1.0000 0.53496  0.18163  0.70106  Biso   1.000  Hf
  Hf36     1.0000 0.53413  0.67863  0.19726  Biso   1.000  Hf
  Hf37     1.0000 0.53698  0.68465  0.69447  Biso   1.000  Hf
  Hf38     1.0000 0.06048  0.07369  0.45043  Biso   1.000  Hf
  Hf39     1.0000 0.02789  0.08141  0.95824  Biso   1.000  Hf
  Hf40     1.0000 0.04165  0.56029  0.44268  Biso   1.000  Hf
  Hf41     1.0000 0.03386  0.56945  0.94749  Biso   1.000  Hf
  Hf42     1.0000 0.53538  0.06224  0.44782  Biso   1.000  Hf
  Hf43     1.0000 0.52894  0.06866  0.94594  Biso   1.000  Hf
  Hf44     1.0000 0.53572  0.56783  0.44721  Biso   1.000  Hf
  Hf45     1.0000 0.53509  0.56693  0.94636  Biso   1.000  Hf
  Hf46     1.0000 0.46215  0.43178  0.19429  Biso   1.000  Hf
  Hf47     1.0000 0.46947  0.43439  0.70034  Biso   1.000  Hf
  Hf48     1.0000 0.45556  0.93279  0.19047  Biso   1.000  Hf
  Hf49     1.0000 0.46593  0.93233  0.69481  Biso   1.000  Hf
  Hf50     1.0000 0.97141  0.44155  0.19906  Biso   1.000  Hf
  Hf51     1.0000 0.96186  0.43791  0.68330  Biso   1.000  Hf
  Hf52     1.0000 0.96307  0.94802  0.17075  Biso   1.000  Hf
  Hf53     1.0000 0.96576  0.93668  0.69360  Biso   1.000  Hf
  Hf54     1.0000 0.46573  0.32151  0.45104  Biso   1.000  Hf
  Hf55     1.0000 0.46222  0.31640  0.94775  Biso   1.000  Hf
  Hf56     1.0000 0.46191  0.81681  0.43801  Biso   1.000  Hf
  Hf57     1.0000 0.46773  0.81636  0.94671  Biso   1.000  Hf
  Hf58     1.0000 0.96320  0.30607  0.43076  Biso   1.000  Hf
  Hf59     1.0000 0.96976  0.32313  0.91835  Biso   1.000  Hf
  Hf60     1.0000 0.97471  0.80411  0.45913  Biso   1.000  Hf
  Hf61     1.0000 0.96775  0.82006  0.94038  Biso   1.000  Hf
  Hf62     1.0000 0.22997  0.12305  0.24572  Biso   1.000  Hf
  Hf63     1.0000 0.27128  0.11634  0.74974  Biso   1.000  Hf
  Hf64     1.0000 0.27104  0.61572  0.24871  Biso   1.000  Hf
  Hf65     1.0000 0.27212  0.61696  0.74870  Biso   1.000  Hf
  Hf66     1.0000 0.74154  0.11850  0.24596  Biso   1.000  Hf
  Hf67     1.0000 0.77397  0.11933  0.74848  Biso   1.000  Hf
  Hf68     1.0000 0.77253  0.61776  0.24897  Biso   1.000  Hf
  Hf69     1.0000 0.76934  0.61793  0.74896  Biso   1.000  Hf
  Hf70     1.0000 0.28874  0.13519  0.50236  Biso   1.000  Hf
  Hf71     1.0000 0.26938  0.12812  0.99852  Biso   1.000  Hf
  Hf72     1.0000 0.27187  0.63302  0.49930  Biso   1.000  Hf
  Hf73     1.0000 0.27101  0.63227  0.99804  Biso   1.000  Hf
  Hf74     1.0000 0.75429  0.14627  0.50807  Biso   1.000  Hf
  Hf75     1.0000 0.75734  0.12325  0.99125  Biso   1.000  Hf
  Hf76     1.0000 0.77370  0.63123  0.49937  Biso   1.000  Hf
  Hf77     1.0000 0.77036  0.63337  0.99932  Biso   1.000  Hf
  Hf78     1.0000 0.23607  0.38566  0.50540  Biso   1.000  Hf
  Hf79     1.0000 0.22509  0.38292  0.00032  Biso   1.000  Hf
  Hf80     1.0000 0.23530  0.88461  0.49713  Biso   1.000  Hf
  Hf81     1.0000 0.23424  0.87645  0.99211  Biso   1.000  Hf
  Hf82     1.0000 0.73481  0.38654  0.50061  Biso   1.000  Hf
  Hf83     1.0000 0.73054  0.38416  0.99537  Biso   1.000  Hf
  Hf84     1.0000 0.71764  0.86995  0.50993  Biso   1.000  Hf
  Hf85     1.0000 0.72941  0.88089  0.99772  Biso   1.000  Hf
  Hf86     1.0000 0.22703  0.36602  0.25288  Biso   1.000  Hf
  Hf87     1.0000 0.23315  0.36973  0.75001  Biso   1.000  Hf
  Hf88     1.0000 0.22997  0.86314  0.24627  Biso   1.000  Hf
  Hf89     1.0000 0.23198  0.86428  0.74624  Biso   1.000  Hf
  Hf90     1.0000 0.72127  0.37449  0.25406  Biso   1.000  Hf
  Hf91     1.0000 0.73004  0.36766  0.74836  Biso   1.000  Hf
  Hf92     1.0000 0.72276  0.85989  0.24142  Biso   1.000  Hf
  Hf93     1.0000 0.73219  0.86973  0.75375  Biso   1.000  Hf
