data_image0
_cell_length_a       9.99614
_cell_length_b       10.3901
_cell_length_c       10.0271
_cell_angle_alpha    90.2313
_cell_angle_beta     89.9331
_cell_angle_gamma    89.7865

_symmetry_space_group_name_H-M    "P 1"
_symmetry_int_tables_number       1

loop_
  _symmetry_equiv_pos_as_xyz
  'x, y, z'

loop_
  _atom_site_label
  _atom_site_occupancy
  _atom_site_fract_x
  _atom_site_fract_y
  _atom_site_fract_z
  _atom_site_thermal_displace_type
  _atom_site_B_iso_or_equiv
  _atom_site_type_symbol
  La1      1.0000 0.12850  0.00149  0.11427  Biso   1.000  La
  Hf1      1.0000 0.13183  0.01781  0.62748  Biso   1.000  Hf
  Hf2      1.0000 0.13222  0.51759  0.12584  Biso   1.000  Hf
  Hf3      1.0000 0.13400  0.51336  0.62298  Biso   1.000  Hf
  Hf4      1.0000 0.63597  0.01602  0.12829  Biso   1.000  Hf
  Hf5      1.0000 0.63431  0.01882  0.62522  Biso   1.000  Hf
  Hf6      1.0000 0.63507  0.51394  0.12802  Biso   1.000  Hf
  Hf7      1.0000 0.63317  0.51548  0.62617  Biso   1.000  Hf
  Hf8      1.0000 0.13524  0.23123  0.37424  Biso   1.000  Hf
  Hf9      1.0000 0.13494  0.23756  0.86983  Biso   1.000  Hf
  Hf10     1.0000 0.13419  0.73188  0.37694  Biso   1.000  Hf
  Hf11     1.0000 0.12755  0.72742  0.86882  Biso   1.000  Hf
  Hf12     1.0000 0.63358  0.23352  0.37398  Biso   1.000  Hf
  Hf13     1.0000 0.63708  0.23462  0.87710  Biso   1.000  Hf
  Hf14     1.0000 0.63259  0.73247  0.38154  Biso   1.000  Hf
  Hf15     1.0000 0.63201  0.73396  0.87729  Biso   1.000  Hf
  Hf16     1.0000 0.36533  0.26589  0.12538  Biso   1.000  Hf
  Hf17     1.0000 0.36646  0.26501  0.62313  Biso   1.000  Hf
  Hf18     1.0000 0.37653  0.75948  0.12673  Biso   1.000  Hf
  Hf19     1.0000 0.36411  0.76673  0.62764  Biso   1.000  Hf
  Hf20     1.0000 0.86703  0.26713  0.12722  Biso   1.000  Hf
  Hf21     1.0000 0.86672  0.26792  0.62315  Biso   1.000  Hf
  Hf22     1.0000 0.86064  0.76486  0.13178  Biso   1.000  Hf
  Hf23     1.0000 0.86342  0.76579  0.62534  Biso   1.000  Hf
  Hf24     1.0000 0.36563  0.48221  0.37494  Biso   1.000  Hf
  Hf25     1.0000 0.36795  0.48406  0.87440  Biso   1.000  Hf
  Hf26     1.0000 0.36598  0.98308  0.37509  Biso   1.000  Hf
  Hf27     1.0000 0.37700  0.99288  0.86835  Biso   1.000  Hf
  Hf28     1.0000 0.86698  0.48299  0.37623  Biso   1.000  Hf
  Hf29     1.0000 0.86447  0.48255  0.87612  Biso   1.000  Hf
  Hf30     1.0000 0.86349  0.98230  0.38059  Biso   1.000  Hf
  Hf31     1.0000 0.86368  0.98356  0.87316  Biso   1.000  Hf
  Hf32     1.0000 0.03142  0.18981  0.19986  Biso   1.000  Hf
  Hf33     1.0000 0.04052  0.19089  0.68250  Biso   1.000  Hf
  Hf34     1.0000 0.03555  0.68609  0.19672  Biso   1.000  Hf
  Hf35     1.0000 0.03385  0.68208  0.69288  Biso   1.000  Hf
  Hf36     1.0000 0.53903  0.18515  0.19031  Biso   1.000  Hf
  Hf37     1.0000 0.53485  0.18311  0.69757  Biso   1.000  Hf
  Hf38     1.0000 0.53806  0.68061  0.20065  Biso   1.000  Hf
  Hf39     1.0000 0.53335  0.68326  0.69757  Biso   1.000  Hf
  Hf40     1.0000 0.03529  0.06403  0.44398  Biso   1.000  Hf
  Hf41     1.0000 0.03604  0.07181  0.91150  Biso   1.000  Hf
  Hf42     1.0000 0.03713  0.56430  0.44392  Biso   1.000  Hf
  Hf43     1.0000 0.03198  0.56707  0.94435  Biso   1.000  Hf
  Hf44     1.0000 0.53630  0.06534  0.44349  Biso   1.000  Hf
  Hf45     1.0000 0.54541  0.06532  0.94226  Biso   1.000  Hf
  Hf46     1.0000 0.53455  0.56443  0.44700  Biso   1.000  Hf
  Hf47     1.0000 0.53022  0.57177  0.95237  Biso   1.000  Hf
  Hf48     1.0000 0.46578  0.43222  0.19617  Biso   1.000  Hf
  Hf49     1.0000 0.46504  0.43307  0.69548  Biso   1.000  Hf
  Hf50     1.0000 0.46367  0.93462  0.19040  Biso   1.000  Hf
  Hf51     1.0000 0.46453  0.93426  0.68992  Biso   1.000  Hf
  Hf52     1.0000 0.96161  0.43826  0.19323  Biso   1.000  Hf
  Hf53     1.0000 0.96374  0.43547  0.69549  Biso   1.000  Hf
  Hf54     1.0000 0.94285  0.92893  0.20529  Biso   1.000  Hf
  Hf55     1.0000 0.96188  0.93146  0.69275  Biso   1.000  Hf
  Hf56     1.0000 0.46398  0.31464  0.44434  Biso   1.000  Hf
  Hf57     1.0000 0.46785  0.31907  0.94330  Biso   1.000  Hf
  Hf58     1.0000 0.46364  0.81547  0.44796  Biso   1.000  Hf
  Hf59     1.0000 0.45833  0.82001  0.94323  Biso   1.000  Hf
  Hf60     1.0000 0.96392  0.31714  0.44357  Biso   1.000  Hf
  Hf61     1.0000 0.96563  0.31799  0.94592  Biso   1.000  Hf
  Hf62     1.0000 0.96311  0.81336  0.44718  Biso   1.000  Hf
  Hf63     1.0000 0.97949  0.82833  0.96019  Biso   1.000  Hf
  Hf64     1.0000 0.28067  0.12421  0.25306  Biso   1.000  Hf
  Hf65     1.0000 0.27145  0.11894  0.74403  Biso   1.000  Hf
  Hf66     1.0000 0.27072  0.61177  0.24808  Biso   1.000  Hf
  Hf67     1.0000 0.26858  0.61535  0.74789  Biso   1.000  Hf
  Hf68     1.0000 0.76895  0.11727  0.25245  Biso   1.000  Hf
  Hf69     1.0000 0.77222  0.11898  0.74876  Biso   1.000  Hf
  Hf70     1.0000 0.76942  0.61706  0.25192  Biso   1.000  Hf
  Hf71     1.0000 0.76762  0.61830  0.75158  Biso   1.000  Hf
  Hf72     1.0000 0.26977  0.12979  0.49951  Biso   1.000  Hf
  Hf73     1.0000 0.27790  0.13861  0.98842  Biso   1.000  Hf
  Hf74     1.0000 0.27043  0.63211  0.49987  Biso   1.000  Hf
  Hf75     1.0000 0.26349  0.64398  0.99886  Biso   1.000  Hf
  Hf76     1.0000 0.76753  0.13387  0.50095  Biso   1.000  Hf
  Hf77     1.0000 0.77584  0.13125  0.00076  Biso   1.000  Hf
  Hf78     1.0000 0.76988  0.63079  0.50162  Biso   1.000  Hf
  Hf79     1.0000 0.76848  0.63201  0.99987  Biso   1.000  Hf
  Hf80     1.0000 0.23043  0.38119  0.49781  Biso   1.000  Hf
  Hf81     1.0000 0.23231  0.38819  0.99771  Biso   1.000  Hf
  Hf82     1.0000 0.22787  0.88201  0.50369  Biso   1.000  Hf
  Hf83     1.0000 0.72924  0.38272  0.49929  Biso   1.000  Hf
  Hf84     1.0000 0.72913  0.38282  0.99946  Biso   1.000  Hf
  Hf85     1.0000 0.72843  0.88085  0.50350  Biso   1.000  Hf
  Hf86     1.0000 0.73093  0.87901  0.00122  Biso   1.000  Hf
  Hf87     1.0000 0.22748  0.36791  0.24770  Biso   1.000  Hf
  Hf88     1.0000 0.23168  0.36849  0.74640  Biso   1.000  Hf
  Hf89     1.0000 0.24369  0.85315  0.25335  Biso   1.000  Hf
  Hf90     1.0000 0.23098  0.86925  0.76188  Biso   1.000  Hf
  Hf91     1.0000 0.73021  0.36780  0.25033  Biso   1.000  Hf
  Hf92     1.0000 0.72990  0.36781  0.74942  Biso   1.000  Hf
  Hf93     1.0000 0.71785  0.86546  0.25395  Biso   1.000  Hf
  Hf94     1.0000 0.72824  0.86807  0.75179  Biso   1.000  Hf
