data_image0
_cell_length_a       9.99583
_cell_length_b       10.3783
_cell_length_c       10.0411
_cell_angle_alpha    90.0416
_cell_angle_beta     90.0106
_cell_angle_gamma    89.9152

_symmetry_space_group_name_H-M    "P 1"
_symmetry_int_tables_number       1

loop_
  _symmetry_equiv_pos_as_xyz
  'x, y, z'

loop_
  _atom_site_label
  _atom_site_occupancy
  _atom_site_fract_x
  _atom_site_fract_y
  _atom_site_fract_z
  _atom_site_thermal_displace_type
  _atom_site_B_iso_or_equiv
  _atom_site_type_symbol
  La1      1.0000 0.12350  0.00808  0.12154  Biso   1.000  La
  Hf1      1.0000 0.13420  0.01599  0.62599  Biso   1.000  Hf
  Hf2      1.0000 0.13298  0.51582  0.12611  Biso   1.000  Hf
  Hf3      1.0000 0.13451  0.51845  0.62808  Biso   1.000  Hf
  Hf4      1.0000 0.63397  0.01580  0.12594  Biso   1.000  Hf
  Hf5      1.0000 0.63396  0.01612  0.62490  Biso   1.000  Hf
  Hf6      1.0000 0.63052  0.51774  0.12671  Biso   1.000  Hf
  Hf7      1.0000 0.63430  0.51595  0.62648  Biso   1.000  Hf
  Hf8      1.0000 0.14130  0.23709  0.38736  Biso   1.000  Hf
  Hf9      1.0000 0.13492  0.23648  0.87130  Biso   1.000  Hf
  Hf10     1.0000 0.13410  0.73178  0.37687  Biso   1.000  Hf
  Hf11     1.0000 0.13614  0.73346  0.87670  Biso   1.000  Hf
  Hf12     1.0000 0.63232  0.23346  0.37536  Biso   1.000  Hf
  Hf13     1.0000 0.63356  0.23272  0.87432  Biso   1.000  Hf
  Hf14     1.0000 0.63242  0.73270  0.37937  Biso   1.000  Hf
  Hf15     1.0000 0.63549  0.73283  0.87501  Biso   1.000  Hf
  Hf16     1.0000 0.36382  0.26567  0.12630  Biso   1.000  Hf
  Hf17     1.0000 0.36796  0.26641  0.62787  Biso   1.000  Hf
  Hf18     1.0000 0.36925  0.76357  0.12374  Biso   1.000  Hf
  Hf19     1.0000 0.36632  0.76756  0.62541  Biso   1.000  Hf
  Hf20     1.0000 0.85396  0.27218  0.12326  Biso   1.000  Hf
  Hf21     1.0000 0.86651  0.26688  0.62370  Biso   1.000  Hf
  Hf22     1.0000 0.85960  0.76510  0.12898  Biso   1.000  Hf
  Hf23     1.0000 0.86664  0.76500  0.62486  Biso   1.000  Hf
  Hf24     1.0000 0.36586  0.48383  0.37556  Biso   1.000  Hf
  Hf25     1.0000 0.36711  0.48317  0.87717  Biso   1.000  Hf
  Hf26     1.0000 0.36567  0.98367  0.37364  Biso   1.000  Hf
  Hf27     1.0000 0.36907  0.98423  0.87396  Biso   1.000  Hf
  Hf28     1.0000 0.86645  0.48302  0.37639  Biso   1.000  Hf
  Hf29     1.0000 0.86742  0.48349  0.87525  Biso   1.000  Hf
  Hf30     1.0000 0.86291  0.98288  0.38018  Biso   1.000  Hf
  Hf31     1.0000 0.86382  0.98217  0.87183  Biso   1.000  Hf
  Hf32     1.0000 0.04238  0.19028  0.67881  Biso   1.000  Hf
  Hf33     1.0000 0.03370  0.68346  0.19585  Biso   1.000  Hf
  Hf34     1.0000 0.03630  0.68466  0.69642  Biso   1.000  Hf
  Hf35     1.0000 0.53780  0.18481  0.19282  Biso   1.000  Hf
  Hf36     1.0000 0.53706  0.18357  0.69449  Biso   1.000  Hf
  Hf37     1.0000 0.53528  0.68211  0.19815  Biso   1.000  Hf
  Hf38     1.0000 0.53678  0.68381  0.69383  Biso   1.000  Hf
  Hf39     1.0000 0.03886  0.06613  0.43315  Biso   1.000  Hf
  Hf40     1.0000 0.03332  0.07276  0.91416  Biso   1.000  Hf
  Hf41     1.0000 0.03577  0.56433  0.44695  Biso   1.000  Hf
  Hf42     1.0000 0.03532  0.56796  0.94487  Biso   1.000  Hf
  Hf43     1.0000 0.53705  0.06510  0.44281  Biso   1.000  Hf
  Hf44     1.0000 0.53954  0.06515  0.94234  Biso   1.000  Hf
  Hf45     1.0000 0.53466  0.56460  0.44601  Biso   1.000  Hf
  Hf46     1.0000 0.53572  0.56697  0.94642  Biso   1.000  Hf
  Hf47     1.0000 0.46161  0.43351  0.19487  Biso   1.000  Hf
  Hf48     1.0000 0.46600  0.43340  0.69609  Biso   1.000  Hf
  Hf49     1.0000 0.46001  0.93800  0.18929  Biso   1.000  Hf
  Hf50     1.0000 0.46509  0.93403  0.69403  Biso   1.000  Hf
  Hf51     1.0000 0.96454  0.42653  0.19583  Biso   1.000  Hf
  Hf52     1.0000 0.96545  0.43399  0.69568  Biso   1.000  Hf
  Hf53     1.0000 0.93876  0.92999  0.20333  Biso   1.000  Hf
  Hf54     1.0000 0.96133  0.93450  0.68884  Biso   1.000  Hf
  Hf55     1.0000 0.46302  0.31515  0.44500  Biso   1.000  Hf
  Hf56     1.0000 0.46702  0.31770  0.94465  Biso   1.000  Hf
  Hf57     1.0000 0.46466  0.81736  0.44658  Biso   1.000  Hf
  Hf58     1.0000 0.47105  0.81669  0.94466  Biso   1.000  Hf
  Hf59     1.0000 0.96251  0.31485  0.44061  Biso   1.000  Hf
  Hf60     1.0000 0.96480  0.31780  0.94757  Biso   1.000  Hf
  Hf61     1.0000 0.96384  0.81511  0.44569  Biso   1.000  Hf
  Hf62     1.0000 0.97187  0.82361  0.95438  Biso   1.000  Hf
  Hf63     1.0000 0.27151  0.12914  0.25664  Biso   1.000  Hf
  Hf64     1.0000 0.27166  0.11797  0.74758  Biso   1.000  Hf
  Hf65     1.0000 0.26834  0.61292  0.24943  Biso   1.000  Hf
  Hf66     1.0000 0.27205  0.61879  0.75048  Biso   1.000  Hf
  Hf67     1.0000 0.77372  0.12248  0.24928  Biso   1.000  Hf
  Hf68     1.0000 0.77154  0.11803  0.74728  Biso   1.000  Hf
  Hf69     1.0000 0.76973  0.61719  0.25017  Biso   1.000  Hf
  Hf70     1.0000 0.77162  0.61662  0.74892  Biso   1.000  Hf
  Hf71     1.0000 0.27332  0.13073  0.50336  Biso   1.000  Hf
  Hf72     1.0000 0.27641  0.13820  0.99149  Biso   1.000  Hf
  Hf73     1.0000 0.27026  0.63265  0.50033  Biso   1.000  Hf
  Hf74     1.0000 0.27063  0.62937  0.00060  Biso   1.000  Hf
  Hf75     1.0000 0.76851  0.13316  0.49966  Biso   1.000  Hf
  Hf76     1.0000 0.77193  0.13148  0.99832  Biso   1.000  Hf
  Hf77     1.0000 0.77037  0.63114  0.49975  Biso   1.000  Hf
  Hf78     1.0000 0.77014  0.63069  0.99905  Biso   1.000  Hf
  Hf79     1.0000 0.23119  0.38348  0.50243  Biso   1.000  Hf
  Hf80     1.0000 0.23041  0.38329  0.00030  Biso   1.000  Hf
  Hf81     1.0000 0.22905  0.88351  0.49914  Biso   1.000  Hf
  Hf82     1.0000 0.24191  0.87271  0.99076  Biso   1.000  Hf
  Hf83     1.0000 0.73015  0.38256  0.49934  Biso   1.000  Hf
  Hf84     1.0000 0.72922  0.38205  0.00029  Biso   1.000  Hf
  Hf85     1.0000 0.72858  0.88032  0.50248  Biso   1.000  Hf
  Hf86     1.0000 0.73080  0.88038  0.00062  Biso   1.000  Hf
  Hf87     1.0000 0.22467  0.36739  0.25091  Biso   1.000  Hf
  Hf88     1.0000 0.23191  0.37023  0.74938  Biso   1.000  Hf
  Hf89     1.0000 0.24144  0.85521  0.25583  Biso   1.000  Hf
  Hf90     1.0000 0.22885  0.86877  0.74701  Biso   1.000  Hf
  Hf91     1.0000 0.72469  0.37140  0.24995  Biso   1.000  Hf
  Hf92     1.0000 0.73096  0.36750  0.75014  Biso   1.000  Hf
  Hf93     1.0000 0.71539  0.86792  0.25298  Biso   1.000  Hf
  Hf94     1.0000 0.73059  0.86668  0.74990  Biso   1.000  Hf
