data_image0
_cell_length_a       10.0012
_cell_length_b       10.3917
_cell_length_c       10.0535
_cell_angle_alpha    90.2636
_cell_angle_beta     90.4212
_cell_angle_gamma    90.0587

_symmetry_space_group_name_H-M    "P 1"
_symmetry_int_tables_number       1

loop_
  _symmetry_equiv_pos_as_xyz
  'x, y, z'

loop_
  _atom_site_label
  _atom_site_occupancy
  _atom_site_fract_x
  _atom_site_fract_y
  _atom_site_fract_z
  _atom_site_thermal_displace_type
  _atom_site_B_iso_or_equiv
  _atom_site_type_symbol
  La1      1.0000 0.12635  0.00756  0.12560  Biso   1.000  La
  Hf1      1.0000 0.13374  0.01639  0.62426  Biso   1.000  Hf
  Hf2      1.0000 0.13167  0.51666  0.12518  Biso   1.000  Hf
  Hf3      1.0000 0.13332  0.51526  0.62353  Biso   1.000  Hf
  Hf4      1.0000 0.63357  0.01558  0.12389  Biso   1.000  Hf
  Hf5      1.0000 0.63159  0.01766  0.62357  Biso   1.000  Hf
  Hf6      1.0000 0.63132  0.51433  0.12620  Biso   1.000  Hf
  Hf7      1.0000 0.63404  0.51594  0.62765  Biso   1.000  Hf
  Hf8      1.0000 0.13404  0.23490  0.37718  Biso   1.000  Hf
  Hf9      1.0000 0.13537  0.23386  0.87082  Biso   1.000  Hf
  Hf10     1.0000 0.13364  0.73305  0.37677  Biso   1.000  Hf
  Hf11     1.0000 0.14887  0.72632  0.86904  Biso   1.000  Hf
  Hf12     1.0000 0.63228  0.23350  0.37358  Biso   1.000  Hf
  Hf13     1.0000 0.63341  0.23587  0.87560  Biso   1.000  Hf
  Hf14     1.0000 0.63098  0.73155  0.38233  Biso   1.000  Hf
  Hf15     1.0000 0.63779  0.73312  0.87592  Biso   1.000  Hf
  Hf16     1.0000 0.36341  0.26558  0.12728  Biso   1.000  Hf
  Hf17     1.0000 0.36645  0.26545  0.62411  Biso   1.000  Hf
  Hf18     1.0000 0.37060  0.76303  0.12475  Biso   1.000  Hf
  Hf19     1.0000 0.36854  0.76763  0.62250  Biso   1.000  Hf
  Hf20     1.0000 0.86383  0.26938  0.12720  Biso   1.000  Hf
  Hf21     1.0000 0.86670  0.26945  0.62382  Biso   1.000  Hf
  Hf22     1.0000 0.85360  0.76123  0.14080  Biso   1.000  Hf
  Hf23     1.0000 0.86752  0.76618  0.62743  Biso   1.000  Hf
  Hf24     1.0000 0.36430  0.48318  0.37488  Biso   1.000  Hf
  Hf25     1.0000 0.36917  0.47934  0.87710  Biso   1.000  Hf
  Hf26     1.0000 0.36554  0.98473  0.37432  Biso   1.000  Hf
  Hf27     1.0000 0.36886  0.98344  0.87377  Biso   1.000  Hf
  Hf28     1.0000 0.86541  0.48319  0.37785  Biso   1.000  Hf
  Hf29     1.0000 0.86697  0.48354  0.87795  Biso   1.000  Hf
  Hf30     1.0000 0.86144  0.98313  0.37960  Biso   1.000  Hf
  Hf31     1.0000 0.85909  0.99166  0.86718  Biso   1.000  Hf
  Hf32     1.0000 0.02733  0.19693  0.20504  Biso   1.000  Hf
  Hf33     1.0000 0.03840  0.18787  0.68520  Biso   1.000  Hf
  Hf34     1.0000 0.03547  0.68937  0.19305  Biso   1.000  Hf
  Hf35     1.0000 0.03906  0.68426  0.69303  Biso   1.000  Hf
  Hf36     1.0000 0.53814  0.18414  0.18964  Biso   1.000  Hf
  Hf37     1.0000 0.53567  0.18471  0.69458  Biso   1.000  Hf
  Hf38     1.0000 0.53444  0.67973  0.19934  Biso   1.000  Hf
  Hf39     1.0000 0.53704  0.68421  0.69583  Biso   1.000  Hf
  Hf40     1.0000 0.03539  0.06471  0.44044  Biso   1.000  Hf
  Hf41     1.0000 0.03319  0.06628  0.91764  Biso   1.000  Hf
  Hf42     1.0000 0.03589  0.56565  0.44486  Biso   1.000  Hf
  Hf43     1.0000 0.03281  0.57902  0.94524  Biso   1.000  Hf
  Hf44     1.0000 0.53592  0.06617  0.44413  Biso   1.000  Hf
  Hf45     1.0000 0.54212  0.06437  0.93930  Biso   1.000  Hf
  Hf46     1.0000 0.53299  0.56549  0.44883  Biso   1.000  Hf
  Hf47     1.0000 0.53773  0.56690  0.94528  Biso   1.000  Hf
  Hf48     1.0000 0.46383  0.43240  0.19600  Biso   1.000  Hf
  Hf49     1.0000 0.46593  0.43279  0.69623  Biso   1.000  Hf
  Hf50     1.0000 0.46117  0.93731  0.18962  Biso   1.000  Hf
  Hf51     1.0000 0.46506  0.93457  0.69424  Biso   1.000  Hf
  Hf52     1.0000 0.95879  0.44219  0.19338  Biso   1.000  Hf
  Hf53     1.0000 0.96589  0.43574  0.69813  Biso   1.000  Hf
  Hf54     1.0000 0.93793  0.92742  0.20257  Biso   1.000  Hf
  Hf55     1.0000 0.96213  0.93434  0.69249  Biso   1.000  Hf
  Hf56     1.0000 0.46285  0.31504  0.44355  Biso   1.000  Hf
  Hf57     1.0000 0.46697  0.31723  0.94648  Biso   1.000  Hf
  Hf58     1.0000 0.46539  0.81837  0.44782  Biso   1.000  Hf
  Hf59     1.0000 0.47591  0.81939  0.94876  Biso   1.000  Hf
  Hf60     1.0000 0.96429  0.31988  0.44759  Biso   1.000  Hf
  Hf61     1.0000 0.96772  0.31964  0.94709  Biso   1.000  Hf
  Hf62     1.0000 0.96258  0.81425  0.44584  Biso   1.000  Hf
  Hf63     1.0000 0.28057  0.12879  0.25735  Biso   1.000  Hf
  Hf64     1.0000 0.27127  0.11636  0.74683  Biso   1.000  Hf
  Hf65     1.0000 0.26715  0.61314  0.24837  Biso   1.000  Hf
  Hf66     1.0000 0.27292  0.61604  0.74896  Biso   1.000  Hf
  Hf67     1.0000 0.76653  0.11677  0.25036  Biso   1.000  Hf
  Hf68     1.0000 0.76933  0.12082  0.74661  Biso   1.000  Hf
  Hf69     1.0000 0.76581  0.61653  0.25477  Biso   1.000  Hf
  Hf70     1.0000 0.77247  0.61769  0.75154  Biso   1.000  Hf
  Hf71     1.0000 0.26890  0.13123  0.50136  Biso   1.000  Hf
  Hf72     1.0000 0.27764  0.13626  0.99099  Biso   1.000  Hf
  Hf73     1.0000 0.27020  0.63285  0.49941  Biso   1.000  Hf
  Hf74     1.0000 0.27610  0.62570  0.99866  Biso   1.000  Hf
  Hf75     1.0000 0.76843  0.13462  0.49977  Biso   1.000  Hf
  Hf76     1.0000 0.77183  0.13519  0.99832  Biso   1.000  Hf
  Hf77     1.0000 0.77024  0.63116  0.50258  Biso   1.000  Hf
  Hf78     1.0000 0.77145  0.63266  0.00233  Biso   1.000  Hf
  Hf79     1.0000 0.23084  0.38326  0.49930  Biso   1.000  Hf
  Hf80     1.0000 0.22903  0.38252  0.99879  Biso   1.000  Hf
  Hf81     1.0000 0.22908  0.88369  0.49840  Biso   1.000  Hf
  Hf82     1.0000 0.23908  0.86712  0.98742  Biso   1.000  Hf
  Hf83     1.0000 0.72833  0.38313  0.49990  Biso   1.000  Hf
  Hf84     1.0000 0.72960  0.38441  0.99921  Biso   1.000  Hf
  Hf85     1.0000 0.72914  0.88121  0.50314  Biso   1.000  Hf
  Hf86     1.0000 0.74752  0.88015  0.00068  Biso   1.000  Hf
  Hf87     1.0000 0.22600  0.36958  0.24898  Biso   1.000  Hf
  Hf88     1.0000 0.23171  0.36726  0.74812  Biso   1.000  Hf
  Hf89     1.0000 0.24461  0.85417  0.25706  Biso   1.000  Hf
  Hf90     1.0000 0.23203  0.86705  0.74424  Biso   1.000  Hf
  Hf91     1.0000 0.72861  0.36818  0.25061  Biso   1.000  Hf
  Hf92     1.0000 0.73155  0.36855  0.75037  Biso   1.000  Hf
  Hf93     1.0000 0.71238  0.86543  0.25393  Biso   1.000  Hf
  Hf94     1.0000 0.72862  0.86899  0.75022  Biso   1.000  Hf
