data_image0
_cell_length_a       10.0528
_cell_length_b       10.1713
_cell_length_c       5.06386
_cell_angle_alpha    89.6026
_cell_angle_beta     93.4626
_cell_angle_gamma    90.1603

_symmetry_space_group_name_H-M    "P 1"
_symmetry_int_tables_number       1

loop_
  _symmetry_equiv_pos_as_xyz
  'x, y, z'

loop_
  _atom_site_label
  _atom_site_occupancy
  _atom_site_fract_x
  _atom_site_fract_y
  _atom_site_fract_z
  _atom_site_thermal_displace_type
  _atom_site_B_iso_or_equiv
  _atom_site_type_symbol
  Ag1      1.0000 0.11411  0.02299  0.23451  Biso   1.000  Ag
  Hf1      1.0000 0.13557  0.25798  0.73178  Biso   1.000  Hf
  Hf2      1.0000 0.38657  0.24917  0.25634  Biso   1.000  Hf
  Hf3      1.0000 0.35293  0.98712  0.70808  Biso   1.000  Hf
  O1       1.0000 0.00846  0.15471  0.00538  Biso   1.000  O
  O2       1.0000 0.99376  0.10993  0.53411  Biso   1.000  O
  O3       1.0000 0.03342  0.33819  0.39366  Biso   1.000  O
  O4       1.0000 0.03204  0.40935  0.89296  Biso   1.000  O
  O5       1.0000 0.24468  0.13747  0.44556  Biso   1.000  O
  O6       1.0000 0.26907  0.12277  0.93966  Biso   1.000  O
  O7       1.0000 0.26538  0.36337  0.02002  Biso   1.000  O
  O8       1.0000 0.26720  0.38730  0.51818  Biso   1.000  O
  Hf4      1.0000 0.13196  0.49165  0.22758  Biso   1.000  Hf
  Hf5      1.0000 0.12226  0.73152  0.70761  Biso   1.000  Hf
  Hf6      1.0000 0.35616  0.75960  0.20938  Biso   1.000  Hf
  Hf7      1.0000 0.38326  0.49977  0.76781  Biso   1.000  Hf
  O9       1.0000 0.99941  0.64790  0.98893  Biso   1.000  O
  O10      1.0000 0.00134  0.59217  0.47745  Biso   1.000  O
  O11      1.0000 0.96184  0.84004  0.57395  Biso   1.000  O
  O12      1.0000 0.97860  0.90290  0.07022  Biso   1.000  O
  O13      1.0000 0.25174  0.63907  0.46274  Biso   1.000  O
  O14      1.0000 0.24836  0.60721  0.96467  Biso   1.000  O
  O15      1.0000 0.23979  0.85504  0.93355  Biso   1.000  O
  O16      1.0000 0.21962  0.88586  0.44315  Biso   1.000  O
  Hf8      1.0000 0.61900  0.99620  0.27210  Biso   1.000  Hf
  Hf9      1.0000 0.62355  0.23880  0.77694  Biso   1.000  Hf
  Hf10     1.0000 0.86650  0.24289  0.26172  Biso   1.000  Hf
  Hf11     1.0000 0.87682  0.00166  0.76628  Biso   1.000  Hf
  O17      1.0000 0.52308  0.15264  0.06285  Biso   1.000  O
  O18      1.0000 0.49390  0.10440  0.54354  Biso   1.000  O
  O19      1.0000 0.52170  0.35617  0.49683  Biso   1.000  O
  O20      1.0000 0.52020  0.39611  0.99817  Biso   1.000  O
  O21      1.0000 0.74586  0.14972  0.51454  Biso   1.000  O
  O22      1.0000 0.75639  0.09314  0.03051  Biso   1.000  O
  O23      1.0000 0.78286  0.34201  0.93638  Biso   1.000  O
  O24      1.0000 0.78029  0.40720  0.43688  Biso   1.000  O
  Hf12     1.0000 0.62103  0.51358  0.28444  Biso   1.000  Hf
  Hf13     1.0000 0.61701  0.75520  0.77247  Biso   1.000  Hf
  Hf14     1.0000 0.88009  0.73907  0.25197  Biso   1.000  Hf
  Hf15     1.0000 0.86765  0.50842  0.75350  Biso   1.000  Hf
  O25      1.0000 0.49712  0.64848  0.04328  Biso   1.000  O
  O26      1.0000 0.51165  0.60227  0.55504  Biso   1.000  O
  O27      1.0000 0.47607  0.84948  0.49520  Biso   1.000  O
  O28      1.0000 0.48419  0.90293  0.99432  Biso   1.000  O
  O29      1.0000 0.74964  0.65611  0.52095  Biso   1.000  O
  O30      1.0000 0.74783  0.59927  0.01114  Biso   1.000  O
  O31      1.0000 0.72299  0.84167  0.09908  Biso   1.000  O
  O32      1.0000 0.71266  0.91173  0.60548  Biso   1.000  O
