data_image0
_cell_length_a       10.2211
_cell_length_b       10.3157
_cell_length_c       5.27249
_cell_angle_alpha    90.2834
_cell_angle_beta     79.2735
_cell_angle_gamma    90.0304

_symmetry_space_group_name_H-M    "P 1"
_symmetry_int_tables_number       1

loop_
  _symmetry_equiv_pos_as_xyz
  'x, y, z'

loop_
  _atom_site_label
  _atom_site_occupancy
  _atom_site_fract_x
  _atom_site_fract_y
  _atom_site_fract_z
  _atom_site_thermal_displace_type
  _atom_site_B_iso_or_equiv
  _atom_site_type_symbol
  Hf1      1.0000 0.13222  0.01981  0.28832  Biso   1.000  Hf
  Hf2      1.0000 0.13721  0.22938  0.77896  Biso   1.000  Hf
  Hf3      1.0000 0.35148  0.27682  0.18690  Biso   1.000  Hf
  Hf4      1.0000 0.35736  0.48193  0.70170  Biso   1.000  Hf
  O1       1.0000 0.03543  0.16805  0.15274  Biso   1.000  O
  O2       1.0000 0.02901  0.08241  0.65632  Biso   1.000  O
  O3       1.0000 0.46236  0.42275  0.34491  Biso   1.000  O
  O4       1.0000 0.48560  0.36360  0.88379  Biso   1.000  O
  O5       1.0000 0.26319  0.12485  0.46322  Biso   1.000  O
  O6       1.0000 0.27160  0.11723  0.97341  Biso   1.000  O
  O7       1.0000 0.21758  0.38260  0.00575  Biso   1.000  O
  O8       1.0000 0.21165  0.37509  0.49989  Biso   1.000  O
  Hf5      1.0000 0.13756  0.52458  0.28963  Biso   1.000  Hf
  Hf6      1.0000 0.13511  0.72839  0.79561  Biso   1.000  Hf
  Hf7      1.0000 0.35951  0.77040  0.21175  Biso   1.000  Hf
  Hf8      1.0000 0.35906  0.96896  0.71366  Biso   1.000  Hf
  O9       1.0000 0.02947  0.66735  0.15585  Biso   1.000  O
  O10      1.0000 0.03219  0.58592  0.65550  Biso   1.000  O
  O11      1.0000 0.46415  0.91778  0.34798  Biso   1.000  O
  O12      1.0000 0.46157  0.82865  0.84807  Biso   1.000  O
  O13      1.0000 0.27416  0.62901  0.48357  Biso   1.000  O
  O14      1.0000 0.27301  0.62351  0.98335  Biso   1.000  O
  O15      1.0000 0.22164  0.87636  0.02331  Biso   1.000  O
  O16      1.0000 0.22205  0.86942  0.52318  Biso   1.000  O
  Hf9      1.0000 0.63934  0.01883  0.30009  Biso   1.000  Hf
  Hf10     1.0000 0.65284  0.23243  0.82008  Biso   1.000  Hf
  Hf11     1.0000 0.86498  0.27284  0.21956  Biso   1.000  Hf
  Hf12     1.0000 0.86225  0.47974  0.71165  Biso   1.000  Hf
  O17      1.0000 0.53119  0.16635  0.16237  Biso   1.000  O
  O18      1.0000 0.54758  0.06314  0.68856  Biso   1.000  O
  O19      1.0000 0.96401  0.42039  0.34421  Biso   1.000  O
  O20      1.0000 0.96350  0.33256  0.84295  Biso   1.000  O
  O21      1.0000 0.77592  0.13095  0.49135  Biso   1.000  O
  O22      1.0000 0.77863  0.11981  0.99603  Biso   1.000  O
  O23      1.0000 0.72893  0.37748  0.03641  Biso   1.000  O
  O24      1.0000 0.72462  0.37242  0.53342  Biso   1.000  O
  Hf13     1.0000 0.63610  0.52319  0.29781  Biso   1.000  Hf
  Hf14     1.0000 0.63674  0.72684  0.79472  Biso   1.000  Hf
  Hf15     1.0000 0.85758  0.77041  0.20987  Biso   1.000  Hf
  Hf16     1.0000 0.85885  0.97696  0.71161  Biso   1.000  Hf
  O25      1.0000 0.53267  0.66771  0.15825  Biso   1.000  O
  O26      1.0000 0.53036  0.58929  0.65199  Biso   1.000  O
  O27      1.0000 0.96022  0.91553  0.34662  Biso   1.000  O
  O28      1.0000 0.96292  0.83378  0.84627  Biso   1.000  O
  O29      1.0000 0.77441  0.62886  0.48373  Biso   1.000  O
  O30      1.0000 0.77259  0.62085  0.98258  Biso   1.000  O
  O31      1.0000 0.72116  0.87876  0.02469  Biso   1.000  O
  O32      1.0000 0.72173  0.86986  0.52235  Biso   1.000  O
  Ag1      1.0000 0.43804  0.22616  0.60541  Biso   1.000  Ag
