data_image0
_cell_length_a       10.0144
_cell_length_b       10.4055
_cell_length_c       5.07023
_cell_angle_alpha    90.3324
_cell_angle_beta     88.4108
_cell_angle_gamma    89.0279

_symmetry_space_group_name_H-M    "P 1"
_symmetry_int_tables_number       1

loop_
  _symmetry_equiv_pos_as_xyz
  'x, y, z'

loop_
  _atom_site_label
  _atom_site_occupancy
  _atom_site_fract_x
  _atom_site_fract_y
  _atom_site_fract_z
  _atom_site_thermal_displace_type
  _atom_site_B_iso_or_equiv
  _atom_site_type_symbol
  Hf1      1.0000 0.14267  0.93728  0.25796  Biso   1.000  Hf
  Hf2      1.0000 0.12665  0.25301  0.73155  Biso   1.000  Hf
  Hf3      1.0000 0.39232  0.26868  0.31130  Biso   1.000  Hf
  Hf4      1.0000 0.37357  0.98740  0.81264  Biso   1.000  Hf
  O1       1.0000 0.97326  0.16961  0.97031  Biso   1.000  O
  O2       1.0000 0.01415  0.07122  0.45549  Biso   1.000  O
  O3       1.0000 0.01597  0.31152  0.41220  Biso   1.000  O
  O4       1.0000 0.99069  0.40314  0.94366  Biso   1.000  O
  O5       1.0000 0.23992  0.14588  0.45132  Biso   1.000  O
  O6       1.0000 0.19845  0.07694  0.96398  Biso   1.000  O
  O7       1.0000 0.21334  0.30975  0.07553  Biso   1.000  O
  O8       1.0000 0.25794  0.38814  0.54925  Biso   1.000  O
  Hf5      1.0000 0.10839  0.48578  0.21891  Biso   1.000  Hf
  Hf6      1.0000 0.12919  0.72336  0.74782  Biso   1.000  Hf
  Hf7      1.0000 0.40582  0.76735  0.29815  Biso   1.000  Hf
  Hf8      1.0000 0.38698  0.52264  0.72219  Biso   1.000  Hf
  O9       1.0000 0.99260  0.64330  0.02546  Biso   1.000  O
  O10      1.0000 0.03184  0.57056  0.54504  Biso   1.000  O
  O11      1.0000 0.02222  0.81277  0.45560  Biso   1.000  O
  O12      1.0000 0.00970  0.89074  0.96308  Biso   1.000  O
  O13      1.0000 0.27594  0.64060  0.48143  Biso   1.000  O
  O14      1.0000 0.23107  0.56941  0.96119  Biso   1.000  O
  O15      1.0000 0.26747  0.81907  0.01761  Biso   1.000  O
  O16      1.0000 0.26129  0.87442  0.54986  Biso   1.000  O
  Hf9      1.0000 0.61517  0.03624  0.29650  Biso   1.000  Hf
  Hf10     1.0000 0.59874  0.24855  0.81925  Biso   1.000  Hf
  Hf11     1.0000 0.82857  0.27355  0.21587  Biso   1.000  Hf
  Hf12     1.0000 0.87410  0.01477  0.74398  Biso   1.000  Hf
  O17      1.0000 0.46438  0.13238  0.04207  Biso   1.000  O
  O18      1.0000 0.48577  0.13054  0.56299  Biso   1.000  O
  O19      1.0000 0.51536  0.38502  0.53671  Biso   1.000  O
  O20      1.0000 0.46339  0.39418  0.01936  Biso   1.000  O
  O21      1.0000 0.74812  0.17021  0.52886  Biso   1.000  O
  O22      1.0000 0.73439  0.11850  0.00068  Biso   1.000  O
  O23      1.0000 0.73488  0.38758  0.91753  Biso   1.000  O
  O24      1.0000 0.78364  0.44040  0.41695  Biso   1.000  O
  Hf13     1.0000 0.61518  0.49052  0.22318  Biso   1.000  Hf
  Hf14     1.0000 0.62595  0.75491  0.77938  Biso   1.000  Hf
  Hf15     1.0000 0.86412  0.77475  0.21957  Biso   1.000  Hf
  Hf16     1.0000 0.86327  0.52905  0.75371  Biso   1.000  Hf
  O25      1.0000 0.48951  0.64128  0.99630  Biso   1.000  O
  O26      1.0000 0.53025  0.63039  0.49486  Biso   1.000  O
  O27      1.0000 0.51992  0.88289  0.54314  Biso   1.000  O
  O28      1.0000 0.51922  0.89264  0.04416  Biso   1.000  O
  O29      1.0000 0.78384  0.68686  0.54987  Biso   1.000  O
  O30      1.0000 0.73844  0.63134  0.03738  Biso   1.000  O
  O31      1.0000 0.76503  0.87273  0.92943  Biso   1.000  O
  O32      1.0000 0.77773  0.93452  0.42659  Biso   1.000  O
  Al1      1.0000 0.10394  0.18323  0.22466  Biso   1.000  Al
