data_image0
_cell_length_a       10.0465
_cell_length_b       10.077
_cell_length_c       5.3235
_cell_angle_alpha    91.9727
_cell_angle_beta     89.6344
_cell_angle_gamma    91.7478

_symmetry_space_group_name_H-M    "P 1"
_symmetry_int_tables_number       1

loop_
  _symmetry_equiv_pos_as_xyz
  'x, y, z'

loop_
  _atom_site_label
  _atom_site_occupancy
  _atom_site_fract_x
  _atom_site_fract_y
  _atom_site_fract_z
  _atom_site_thermal_displace_type
  _atom_site_B_iso_or_equiv
  _atom_site_type_symbol
  Zr1      1.0000 0.14068  0.97424  0.20085  Biso   1.000  Zr
  Zr2      1.0000 0.12259  0.25850  0.92179  Biso   1.000  Zr
  Zr3      1.0000 0.41023  0.21245  0.19884  Biso   1.000  Zr
  Zr4      1.0000 0.36081  0.99813  0.68682  Biso   1.000  Zr
  O1       1.0000 0.02412  0.16210  0.20478  Biso   1.000  O
  O2       1.0000 0.02175  0.15417  0.66768  Biso   1.000  O
  O3       1.0000 0.99218  0.39184  0.47286  Biso   1.000  O
  O4       1.0000 0.98265  0.40124  0.99867  Biso   1.000  O
  O5       1.0000 0.25381  0.12146  0.43940  Biso   1.000  O
  O6       1.0000 0.26122  0.11361  0.96420  Biso   1.000  O
  O7       1.0000 0.22356  0.35300  0.21665  Biso   1.000  O
  O8       1.0000 0.22623  0.35905  0.67867  Biso   1.000  O
  Zr5      1.0000 0.10276  0.53641  0.24048  Biso   1.000  Zr
  Zr6      1.0000 0.14298  0.74202  0.77150  Biso   1.000  Zr
  Zr7      1.0000 0.38624  0.74180  0.25667  Biso   1.000  Zr
  Zr8      1.0000 0.37962  0.49976  0.70075  Biso   1.000  Zr
  O9       1.0000 0.98722  0.64991  0.99321  Biso   1.000  O
  O10      1.0000 0.00111  0.65328  0.49485  Biso   1.000  O
  O11      1.0000 0.97038  0.91317  0.37612  Biso   1.000  O
  O12      1.0000 0.04103  0.91179  0.87254  Biso   1.000  O
  O13      1.0000 0.25062  0.61294  0.49377  Biso   1.000  O
  O14      1.0000 0.24471  0.60299  0.98558  Biso   1.000  O
  O15      1.0000 0.28601  0.86517  0.98030  Biso   1.000  O
  O16      1.0000 0.23052  0.86059  0.46864  Biso   1.000  O
  Zr9      1.0000 0.65757  0.01699  0.19762  Biso   1.000  Zr
  Zr10     1.0000 0.62146  0.24547  0.66627  Biso   1.000  Zr
  Zr11     1.0000 0.84043  0.27983  0.21342  Biso   1.000  Zr
  Zr12     1.0000 0.87984  0.99749  0.70124  Biso   1.000  Zr
  O17      1.0000 0.51649  0.09776  0.92220  Biso   1.000  O
  O18      1.0000 0.50631  0.08737  0.44705  Biso   1.000  O
  O19      1.0000 0.47660  0.35395  0.47153  Biso   1.000  O
  O20      1.0000 0.47279  0.35971  0.95068  Biso   1.000  O
  O21      1.0000 0.77320  0.13889  0.47417  Biso   1.000  O
  O22      1.0000 0.78158  0.12662  0.96026  Biso   1.000  O
  O23      1.0000 0.73596  0.37646  0.92210  Biso   1.000  O
  O24      1.0000 0.73737  0.40583  0.45696  Biso   1.000  O
  Zr13     1.0000 0.59799  0.47461  0.18936  Biso   1.000  Zr
  Zr14     1.0000 0.62359  0.75591  0.78078  Biso   1.000  Zr
  Zr15     1.0000 0.84978  0.74916  0.27715  Biso   1.000  Zr
  Zr16     1.0000 0.87061  0.51043  0.73351  Biso   1.000  Zr
  O25      1.0000 0.49128  0.61452  0.95476  Biso   1.000  O
  O26      1.0000 0.50433  0.60175  0.44621  Biso   1.000  O
  O27      1.0000 0.46711  0.83402  0.59767  Biso   1.000  O
  O28      1.0000 0.53825  0.85126  0.10727  Biso   1.000  O
  O29      1.0000 0.76144  0.65185  0.57484  Biso   1.000  O
  O30      1.0000 0.73588  0.61833  0.05482  Biso   1.000  O
  O31      1.0000 0.77683  0.87380  0.97219  Biso   1.000  O
  O32      1.0000 0.72703  0.88817  0.48943  Biso   1.000  O
  Al1      1.0000 0.12388  0.25663  0.44177  Biso   1.000  Al
