data_image0
_cell_length_a       10.0369
_cell_length_b       5.20486
_cell_length_c       10.0461
_cell_angle_alpha    91.9884
_cell_angle_beta     89.2948
_cell_angle_gamma    90.1018

_symmetry_space_group_name_H-M    "P 1"
_symmetry_int_tables_number       1

loop_
  _symmetry_equiv_pos_as_xyz
  'x, y, z'

loop_
  _atom_site_label
  _atom_site_occupancy
  _atom_site_fract_x
  _atom_site_fract_y
  _atom_site_fract_z
  _atom_site_thermal_displace_type
  _atom_site_B_iso_or_equiv
  _atom_site_type_symbol
  Al1      1.0000 0.11922  0.05887  0.10727  Biso   1.000  Al
  Zr1      1.0000 0.13718  0.03645  0.62993  Biso   1.000  Zr
  Zr2      1.0000 0.63647  0.04344  0.12566  Biso   1.000  Zr
  Zr3      1.0000 0.62655  0.02578  0.61692  Biso   1.000  Zr
  Zr4      1.0000 0.13769  0.43739  0.37067  Biso   1.000  Zr
  Zr5      1.0000 0.13101  0.48476  0.88549  Biso   1.000  Zr
  Zr6      1.0000 0.63868  0.47140  0.37820  Biso   1.000  Zr
  Zr7      1.0000 0.63655  0.47716  0.86740  Biso   1.000  Zr
  Zr8      1.0000 0.38848  0.52300  0.10470  Biso   1.000  Zr
  Zr9      1.0000 0.36343  0.54014  0.62983  Biso   1.000  Zr
  Zr10     1.0000 0.86981  0.53970  0.12016  Biso   1.000  Zr
  Zr11     1.0000 0.87295  0.52835  0.61832  Biso   1.000  Zr
  Zr12     1.0000 0.36231  0.94457  0.37015  Biso   1.000  Zr
  Zr13     1.0000 0.35464  0.98743  0.88632  Biso   1.000  Zr
  Zr14     1.0000 0.87232  0.96945  0.37025  Biso   1.000  Zr
  Zr15     1.0000 0.86451  0.97856  0.86905  Biso   1.000  Zr
  O1       1.0000 0.03374  0.36510  0.18787  Biso   1.000  O
  O2       1.0000 0.03413  0.37136  0.70239  Biso   1.000  O
  O3       1.0000 0.53694  0.37208  0.20634  Biso   1.000  O
  O4       1.0000 0.53167  0.36810  0.69480  Biso   1.000  O
  O5       1.0000 0.02906  0.13626  0.45975  Biso   1.000  O
  O6       1.0000 0.03053  0.13795  0.94732  Biso   1.000  O
  O7       1.0000 0.53394  0.13453  0.44018  Biso   1.000  O
  O8       1.0000 0.51493  0.18827  0.96443  Biso   1.000  O
  O9       1.0000 0.47037  0.87213  0.19013  Biso   1.000  O
  O10      1.0000 0.46112  0.87988  0.70251  Biso   1.000  O
  O11      1.0000 0.98109  0.87193  0.18749  Biso   1.000  O
  O12      1.0000 0.96660  0.86791  0.69193  Biso   1.000  O
  O13      1.0000 0.47657  0.64612  0.46169  Biso   1.000  O
  O14      1.0000 0.46595  0.66900  0.93373  Biso   1.000  O
  O15      1.0000 0.96825  0.62905  0.43598  Biso   1.000  O
  O16      1.0000 0.95605  0.63930  0.93812  Biso   1.000  O
  O17      1.0000 0.22523  0.11178  0.25505  Biso   1.000  O
  O18      1.0000 0.26890  0.25056  0.75732  Biso   1.000  O
  O19      1.0000 0.77564  0.23606  0.24553  Biso   1.000  O
  O20      1.0000 0.76430  0.22891  0.74354  Biso   1.000  O
  O21      1.0000 0.27400  0.25659  0.50039  Biso   1.000  O
  O22      1.0000 0.25434  0.27628  0.01281  Biso   1.000  O
  O23      1.0000 0.76786  0.26679  0.49580  Biso   1.000  O
  O24      1.0000 0.76369  0.27730  0.99421  Biso   1.000  O
  O25      1.0000 0.22772  0.75564  0.50277  Biso   1.000  O
  O26      1.0000 0.22255  0.78773  0.01549  Biso   1.000  O
  O27      1.0000 0.73912  0.77143  0.49411  Biso   1.000  O
  O28      1.0000 0.72593  0.78084  0.99205  Biso   1.000  O
  O29      1.0000 0.27707  0.61707  0.26482  Biso   1.000  O
  O30      1.0000 0.22624  0.74733  0.75783  Biso   1.000  O
  O31      1.0000 0.73484  0.73727  0.24437  Biso   1.000  O
  O32      1.0000 0.73105  0.73001  0.74041  Biso   1.000  O
