data_image0
_cell_length_a       10.0649
_cell_length_b       10.2387
_cell_length_c       10.5339
_cell_angle_alpha    90.1418
_cell_angle_beta     90.7806
_cell_angle_gamma    89.7091

_symmetry_space_group_name_H-M    "P 1"
_symmetry_int_tables_number       1

loop_
  _symmetry_equiv_pos_as_xyz
  'x, y, z'

loop_
  _atom_site_label
  _atom_site_occupancy
  _atom_site_fract_x
  _atom_site_fract_y
  _atom_site_fract_z
  _atom_site_thermal_displace_type
  _atom_site_B_iso_or_equiv
  _atom_site_type_symbol
  Hf1      1.0000 0.13394  0.01786  0.17540  Biso   1.000  Hf
  Hf2      1.0000 0.13770  0.22757  0.42656  Biso   1.000  Hf
  Hf3      1.0000 0.34935  0.26279  0.18582  Biso   1.000  Hf
  Hf4      1.0000 0.36239  0.47868  0.42184  Biso   1.000  Hf
  Hf5      1.0000 0.64071  0.01784  0.07837  Biso   1.000  Hf
  Hf6      1.0000 0.63783  0.22638  0.32981  Biso   1.000  Hf
  Hf7      1.0000 0.86052  0.27197  0.07590  Biso   1.000  Hf
  Hf8      1.0000 0.86183  0.47829  0.32773  Biso   1.000  Hf
  O1       1.0000 0.03014  0.16478  0.08522  Biso   1.000  O
  O2       1.0000 0.02940  0.08635  0.33480  Biso   1.000  O
  O3       1.0000 0.47220  0.42565  0.08986  Biso   1.000  O
  O4       1.0000 0.46819  0.33857  0.32730  Biso   1.000  O
  O5       1.0000 0.26960  0.12276  0.30222  Biso   1.000  O
  O6       1.0000 0.26478  0.11256  0.05218  Biso   1.000  O
  O7       1.0000 0.21906  0.37467  0.30189  Biso   1.000  O
  O8       1.0000 0.22361  0.37584  0.05265  Biso   1.000  O
  O9       1.0000 0.51785  0.13327  0.19666  Biso   1.000  O
  O10      1.0000 0.52856  0.09424  0.43258  Biso   1.000  O
  O11      1.0000 0.96591  0.41498  0.16829  Biso   1.000  O
  O12      1.0000 0.96915  0.33683  0.41884  Biso   1.000  O
  O13      1.0000 0.77563  0.12383  0.45390  Biso   1.000  O
  O14      1.0000 0.77258  0.12744  0.20313  Biso   1.000  O
  O15      1.0000 0.72626  0.37473  0.45323  Biso   1.000  O
  O16      1.0000 0.72214  0.37572  0.20396  Biso   1.000  O
  Hf9      1.0000 0.14103  0.02172  0.67486  Biso   1.000  Hf
  Hf10     1.0000 0.14233  0.22804  0.92668  Biso   1.000  Hf
  Hf11     1.0000 0.36504  0.27362  0.67278  Biso   1.000  Hf
  Hf12     1.0000 0.36215  0.48216  0.92421  Biso   1.000  Hf
  Hf13     1.0000 0.64048  0.02133  0.58074  Biso   1.000  Hf
  Hf14     1.0000 0.65352  0.23723  0.81676  Biso   1.000  Hf
  Hf15     1.0000 0.86517  0.27243  0.57602  Biso   1.000  Hf
  Hf16     1.0000 0.86893  0.48215  0.82718  Biso   1.000  Hf
  O17      1.0000 0.03372  0.16318  0.58373  Biso   1.000  O
  O18      1.0000 0.03695  0.08503  0.83429  Biso   1.000  O
  O19      1.0000 0.47430  0.40577  0.57001  Biso   1.000  O
  O20      1.0000 0.48503  0.36674  0.80593  Biso   1.000  O
  O21      1.0000 0.28072  0.12427  0.79862  Biso   1.000  O
  O22      1.0000 0.27660  0.12528  0.54936  Biso   1.000  O
  O23      1.0000 0.23029  0.37256  0.79945  Biso   1.000  O
  O24      1.0000 0.22723  0.37618  0.54867  Biso   1.000  O
  O25      1.0000 0.53467  0.16143  0.67529  Biso   1.000  O
  O26      1.0000 0.53065  0.07435  0.91273  Biso   1.000  O
  O27      1.0000 0.97347  0.41366  0.66778  Biso   1.000  O
  O28      1.0000 0.97272  0.33523  0.91736  Biso   1.000  O
  O29      1.0000 0.77925  0.12417  0.94993  Biso   1.000  O
  O30      1.0000 0.78380  0.12534  0.70068  Biso   1.000  O
  O31      1.0000 0.73809  0.38745  0.95040  Biso   1.000  O
  O32      1.0000 0.73326  0.37726  0.70036  Biso   1.000  O
  Hf17     1.0000 0.13774  0.52088  0.17312  Biso   1.000  Hf
  Hf18     1.0000 0.13913  0.72866  0.42270  Biso   1.000  Hf
  Hf19     1.0000 0.36283  0.77098  0.17461  Biso   1.000  Hf
  Hf20     1.0000 0.36361  0.97843  0.42688  Biso   1.000  Hf
  Hf21     1.0000 0.64583  0.52759  0.07803  Biso   1.000  Hf
  Hf22     1.0000 0.63985  0.73007  0.32954  Biso   1.000  Hf
  Hf23     1.0000 0.86277  0.77147  0.07867  Biso   1.000  Hf
  Hf24     1.0000 0.86061  0.97908  0.33021  Biso   1.000  Hf
  O33      1.0000 0.03299  0.66335  0.08241  Biso   1.000  O
  O34      1.0000 0.03229  0.58627  0.33358  Biso   1.000  O
  O35      1.0000 0.46989  0.90738  0.07935  Biso   1.000  O
  O36      1.0000 0.47062  0.84040  0.33246  Biso   1.000  O
  O37      1.0000 0.27578  0.62417  0.29536  Biso   1.000  O
  O38      1.0000 0.27661  0.62438  0.04629  Biso   1.000  O
  O39      1.0000 0.22491  0.87340  0.29880  Biso   1.000  O
  O40      1.0000 0.22311  0.87059  0.04976  Biso   1.000  O
  O41      1.0000 0.53494  0.66514  0.17143  Biso   1.000  O
  O42      1.0000 0.53113  0.59009  0.41925  Biso   1.000  O
  O43      1.0000 0.96508  0.91403  0.16969  Biso   1.000  O
  O44      1.0000 0.96767  0.83582  0.41907  Biso   1.000  O
  O45      1.0000 0.77661  0.62392  0.45476  Biso   1.000  O
  O46      1.0000 0.77920  0.62807  0.20497  Biso   1.000  O
  O47      1.0000 0.72534  0.87520  0.45691  Biso   1.000  O
  O48      1.0000 0.72438  0.87605  0.20632  Biso   1.000  O
  Hf25     1.0000 0.14226  0.52092  0.67237  Biso   1.000  Hf
  Hf26     1.0000 0.14009  0.72854  0.92391  Biso   1.000  Hf
  Hf27     1.0000 0.36302  0.76994  0.67305  Biso   1.000  Hf
  Hf28     1.0000 0.35702  0.97241  0.92456  Biso   1.000  Hf
  Hf29     1.0000 0.63925  0.52157  0.57570  Biso   1.000  Hf
  Hf30     1.0000 0.64003  0.72903  0.82797  Biso   1.000  Hf
  Hf31     1.0000 0.86374  0.77135  0.57989  Biso   1.000  Hf
  Hf32     1.0000 0.86513  0.97913  0.82946  Biso   1.000  Hf
  O49      1.0000 0.03520  0.66419  0.58352  Biso   1.000  O
  O50      1.0000 0.03779  0.58598  0.83290  Biso   1.000  O
  O51      1.0000 0.47173  0.90992  0.58334  Biso   1.000  O
  O52      1.0000 0.46792  0.83487  0.83116  Biso   1.000  O
  O53      1.0000 0.27849  0.62395  0.79627  Biso   1.000  O
  O54      1.0000 0.27752  0.62481  0.54568  Biso   1.000  O
  O55      1.0000 0.22366  0.87192  0.79762  Biso   1.000  O
  O56      1.0000 0.22626  0.87609  0.54782  Biso   1.000  O
  O57      1.0000 0.53224  0.65961  0.67013  Biso   1.000  O
  O58      1.0000 0.53297  0.59262  0.92325  Biso   1.000  O
  O59      1.0000 0.97057  0.91374  0.66901  Biso   1.000  O
  O60      1.0000 0.96987  0.83665  0.92017  Biso   1.000  O
  O61      1.0000 0.77975  0.62942  0.95282  Biso   1.000  O
  O62      1.0000 0.77796  0.62661  0.70378  Biso   1.000  O
  O63      1.0000 0.72625  0.87563  0.95629  Biso   1.000  O
  O64      1.0000 0.72709  0.87584  0.70723  Biso   1.000  O
  As1      1.0000 0.50143  0.24999  0.00128  Biso   1.000  As
