data_image0
_cell_length_a       10.2944
_cell_length_b       5.15333
_cell_length_c       10.4995
_cell_angle_alpha    90.3324
_cell_angle_beta     78.9628
_cell_angle_gamma    89.9777

_symmetry_space_group_name_H-M    "P 1"
_symmetry_int_tables_number       1

loop_
  _symmetry_equiv_pos_as_xyz
  'x, y, z'

loop_
  _atom_site_label
  _atom_site_occupancy
  _atom_site_fract_x
  _atom_site_fract_y
  _atom_site_fract_z
  _atom_site_thermal_displace_type
  _atom_site_B_iso_or_equiv
  _atom_site_type_symbol
  Hf1      1.0000 0.13222  0.04460  0.14399  Biso   1.000  Hf
  Hf2      1.0000 0.13714  0.45797  0.39706  Biso   1.000  Hf
  Hf3      1.0000 0.34238  0.54625  0.09755  Biso   1.000  Hf
  Hf4      1.0000 0.34831  0.96453  0.34599  Biso   1.000  Hf
  O1       1.0000 0.02914  0.33528  0.07874  Biso   1.000  O
  O2       1.0000 0.03183  0.17258  0.32905  Biso   1.000  O
  O3       1.0000 0.44107  0.90235  0.12856  Biso   1.000  O
  O4       1.0000 0.47504  0.67863  0.43910  Biso   1.000  O
  O5       1.0000 0.26451  0.25329  0.23935  Biso   1.000  O
  O6       1.0000 0.27545  0.24300  0.48871  Biso   1.000  O
  O7       1.0000 0.21404  0.76168  0.00408  Biso   1.000  O
  O8       1.0000 0.21002  0.74465  0.25617  Biso   1.000  O
  Hf5      1.0000 0.13866  0.03818  0.64683  Biso   1.000  Hf
  Hf6      1.0000 0.13210  0.45601  0.89447  Biso   1.000  Hf
  Hf7      1.0000 0.36135  0.53892  0.60798  Biso   1.000  Hf
  Hf8      1.0000 0.36013  0.95292  0.85668  Biso   1.000  Hf
  O9       1.0000 0.03558  0.32951  0.58136  Biso   1.000  O
  O10      1.0000 0.03100  0.16267  0.82964  Biso   1.000  O
  O11      1.0000 0.46536  0.82922  0.67651  Biso   1.000  O
  O12      1.0000 0.45653  0.64185  0.91296  Biso   1.000  O
  O13      1.0000 0.27311  0.24968  0.74016  Biso   1.000  O
  O14      1.0000 0.26737  0.24699  0.98814  Biso   1.000  O
  O15      1.0000 0.22698  0.75355  0.50601  Biso   1.000  O
  O16      1.0000 0.22251  0.73821  0.75751  Biso   1.000  O
  Hf9      1.0000 0.63047  0.03242  0.15082  Biso   1.000  Hf
  Hf10     1.0000 0.65275  0.45487  0.41081  Biso   1.000  Hf
  Hf11     1.0000 0.85733  0.54033  0.11161  Biso   1.000  Hf
  Hf12     1.0000 0.86605  0.95568  0.35981  Biso   1.000  Hf
  O17      1.0000 0.52915  0.35537  0.08238  Biso   1.000  O
  O18      1.0000 0.52690  0.13732  0.33097  Biso   1.000  O
  O19      1.0000 0.96602  0.83159  0.17231  Biso   1.000  O
  O20      1.0000 0.96562  0.66405  0.42833  Biso   1.000  O
  O21      1.0000 0.77397  0.25529  0.24893  Biso   1.000  O
  O22      1.0000 0.77988  0.23080  0.50062  Biso   1.000  O
  O23      1.0000 0.71940  0.74712  0.01804  Biso   1.000  O
  O24      1.0000 0.73910  0.75063  0.27170  Biso   1.000  O
  Hf13     1.0000 0.63726  0.03595  0.65412  Biso   1.000  Hf
  Hf14     1.0000 0.63490  0.45752  0.89912  Biso   1.000  Hf
  Hf15     1.0000 0.86434  0.53909  0.61229  Biso   1.000  Hf
  Hf16     1.0000 0.85856  0.95568  0.86070  Biso   1.000  Hf
  O25      1.0000 0.53466  0.32335  0.58452  Biso   1.000  O
  O26      1.0000 0.53413  0.15291  0.83730  Biso   1.000  O
  O27      1.0000 0.96582  0.83109  0.67623  Biso   1.000  O
  O28      1.0000 0.95926  0.66226  0.92438  Biso   1.000  O
  O29      1.0000 0.77326  0.25602  0.74721  Biso   1.000  O
  O30      1.0000 0.76809  0.23585  0.99759  Biso   1.000  O
  O31      1.0000 0.72697  0.74655  0.52063  Biso   1.000  O
  O32      1.0000 0.72454  0.74221  0.76765  Biso   1.000  O
  As1      1.0000 0.50472  0.56353  0.25348  Biso   1.000  As
