data_image0
_cell_length_a       10.1825
_cell_length_b       5.14554
_cell_length_c       10.5408
_cell_angle_alpha    90.0175
_cell_angle_beta     80.6637
_cell_angle_gamma    89.4663

_symmetry_space_group_name_H-M    "P 1"
_symmetry_int_tables_number       1

loop_
  _symmetry_equiv_pos_as_xyz
  'x, y, z'

loop_
  _atom_site_label
  _atom_site_occupancy
  _atom_site_fract_x
  _atom_site_fract_y
  _atom_site_fract_z
  _atom_site_thermal_displace_type
  _atom_site_B_iso_or_equiv
  _atom_site_type_symbol
  As1      1.0000 0.11336  0.03838  0.16137  Biso   1.000  As
  Zr1      1.0000 0.13932  0.04196  0.64408  Biso   1.000  Zr
  Zr2      1.0000 0.63549  0.04285  0.14448  Biso   1.000  Zr
  Zr3      1.0000 0.63820  0.04267  0.64804  Biso   1.000  Zr
  Zr4      1.0000 0.14057  0.45982  0.39358  Biso   1.000  Zr
  Zr5      1.0000 0.14497  0.45733  0.89344  Biso   1.000  Zr
  Zr6      1.0000 0.63665  0.45502  0.39543  Biso   1.000  Zr
  Zr7      1.0000 0.63794  0.46064  0.89677  Biso   1.000  Zr
  Zr8      1.0000 0.35465  0.54693  0.10270  Biso   1.000  Zr
  Zr9      1.0000 0.36227  0.54565  0.60405  Biso   1.000  Zr
  Zr10     1.0000 0.86180  0.53319  0.10452  Biso   1.000  Zr
  Zr11     1.0000 0.86136  0.54001  0.60622  Biso   1.000  Zr
  Zr12     1.0000 0.35927  0.95898  0.35102  Biso   1.000  Zr
  Zr13     1.0000 0.36075  0.96547  0.85653  Biso   1.000  Zr
  Zr14     1.0000 0.85428  0.95288  0.35901  Biso   1.000  Zr
  Zr15     1.0000 0.86517  0.95511  0.85607  Biso   1.000  Zr
  O1       1.0000 0.03960  0.30751  0.07944  Biso   1.000  O
  O2       1.0000 0.03180  0.32067  0.57137  Biso   1.000  O
  O3       1.0000 0.53435  0.33580  0.07775  Biso   1.000  O
  O4       1.0000 0.53488  0.33291  0.57698  Biso   1.000  O
  O5       1.0000 0.03314  0.16257  0.32091  Biso   1.000  O
  O6       1.0000 0.03523  0.17008  0.82569  Biso   1.000  O
  O7       1.0000 0.53410  0.16522  0.32764  Biso   1.000  O
  O8       1.0000 0.53582  0.17332  0.82673  Biso   1.000  O
  O9       1.0000 0.46552  0.83101  0.17314  Biso   1.000  O
  O10      1.0000 0.46683  0.83348  0.67305  Biso   1.000  O
  O11      1.0000 0.96767  0.83386  0.17379  Biso   1.000  O
  O12      1.0000 0.96894  0.82150  0.67550  Biso   1.000  O
  O13      1.0000 0.46592  0.66939  0.42214  Biso   1.000  O
  O14      1.0000 0.46982  0.68266  0.92468  Biso   1.000  O
  O15      1.0000 0.96464  0.66741  0.42261  Biso   1.000  O
  O16      1.0000 0.96843  0.66331  0.92932  Biso   1.000  O
  O17      1.0000 0.27206  0.26246  0.23932  Biso   1.000  O
  O18      1.0000 0.27530  0.25666  0.73476  Biso   1.000  O
  O19      1.0000 0.77527  0.25187  0.24034  Biso   1.000  O
  O20      1.0000 0.77766  0.25627  0.74091  Biso   1.000  O
  O21      1.0000 0.27612  0.24372  0.48800  Biso   1.000  O
  O22      1.0000 0.28882  0.27165  0.97672  Biso   1.000  O
  O23      1.0000 0.77559  0.24003  0.49082  Biso   1.000  O
  O24      1.0000 0.77767  0.24323  0.99131  Biso   1.000  O
  O25      1.0000 0.22267  0.77083  0.00833  Biso   1.000  O
  O26      1.0000 0.22346  0.75615  0.50781  Biso   1.000  O
  O27      1.0000 0.72756  0.75620  0.01210  Biso   1.000  O
  O28      1.0000 0.72284  0.75384  0.51169  Biso   1.000  O
  O29      1.0000 0.22050  0.74479  0.25950  Biso   1.000  O
  O30      1.0000 0.22641  0.74289  0.75869  Biso   1.000  O
  O31      1.0000 0.72864  0.73751  0.25983  Biso   1.000  O
  O32      1.0000 0.72669  0.74430  0.76182  Biso   1.000  O
