data_image0
_cell_length_a       10.09
_cell_length_b       10.3008
_cell_length_c       10.5056
_cell_angle_alpha    89.8793
_cell_angle_beta     90.2938
_cell_angle_gamma    89.7752

_symmetry_space_group_name_H-M    "P 1"
_symmetry_int_tables_number       1

loop_
  _symmetry_equiv_pos_as_xyz
  'x, y, z'

loop_
  _atom_site_label
  _atom_site_occupancy
  _atom_site_fract_x
  _atom_site_fract_y
  _atom_site_fract_z
  _atom_site_thermal_displace_type
  _atom_site_B_iso_or_equiv
  _atom_site_type_symbol
  As1      1.0000 0.11093  0.02092  0.18782  Biso   1.000  As
  Zr1      1.0000 0.13879  0.02049  0.66918  Biso   1.000  Zr
  Zr2      1.0000 0.13917  0.52180  0.17085  Biso   1.000  Zr
  Zr3      1.0000 0.13909  0.52143  0.67212  Biso   1.000  Zr
  Zr4      1.0000 0.14156  0.23265  0.42116  Biso   1.000  Zr
  Zr5      1.0000 0.14529  0.22567  0.92136  Biso   1.000  Zr
  Zr6      1.0000 0.13703  0.72945  0.42052  Biso   1.000  Zr
  Zr7      1.0000 0.14158  0.73106  0.92055  Biso   1.000  Zr
  Zr8      1.0000 0.35823  0.26865  0.16874  Biso   1.000  Zr
  Zr9      1.0000 0.36217  0.27145  0.67098  Biso   1.000  Zr
  Zr10     1.0000 0.35772  0.77511  0.16814  Biso   1.000  Zr
  Zr11     1.0000 0.36154  0.77161  0.67003  Biso   1.000  Zr
  Zr12     1.0000 0.36113  0.48024  0.42035  Biso   1.000  Zr
  Zr13     1.0000 0.36137  0.47833  0.92176  Biso   1.000  Zr
  Zr14     1.0000 0.35887  0.98111  0.41803  Biso   1.000  Zr
  Zr15     1.0000 0.36089  0.98004  0.92165  Biso   1.000  Zr
  Zr16     1.0000 0.63926  0.02181  0.07786  Biso   1.000  Zr
  Zr17     1.0000 0.63621  0.02077  0.58047  Biso   1.000  Zr
  Zr18     1.0000 0.63734  0.52079  0.07930  Biso   1.000  Zr
  Zr19     1.0000 0.63931  0.52066  0.58007  Biso   1.000  Zr
  Zr20     1.0000 0.63671  0.22997  0.32884  Biso   1.000  Zr
  Zr21     1.0000 0.64023  0.22897  0.82983  Biso   1.000  Zr
  Zr22     1.0000 0.63559  0.72769  0.32797  Biso   1.000  Zr
  Zr23     1.0000 0.63881  0.72905  0.82912  Biso   1.000  Zr
  Zr24     1.0000 0.86273  0.26979  0.08170  Biso   1.000  Zr
  Zr25     1.0000 0.86144  0.27039  0.57944  Biso   1.000  Zr
  Zr26     1.0000 0.86162  0.76859  0.07732  Biso   1.000  Zr
  Zr27     1.0000 0.86003  0.77002  0.58035  Biso   1.000  Zr
  Zr28     1.0000 0.86100  0.47913  0.32940  Biso   1.000  Zr
  Zr29     1.0000 0.86440  0.47651  0.83123  Biso   1.000  Zr
  Zr30     1.0000 0.85173  0.97757  0.33366  Biso   1.000  Zr
  Zr31     1.0000 0.86283  0.97937  0.82920  Biso   1.000  Zr
  O1       1.0000 0.04179  0.15788  0.09063  Biso   1.000  O
  O2       1.0000 0.03194  0.16267  0.57851  Biso   1.000  O
  O3       1.0000 0.03386  0.66810  0.08497  Biso   1.000  O
  O4       1.0000 0.03209  0.66511  0.58396  Biso   1.000  O
  O5       1.0000 0.03232  0.08120  0.33085  Biso   1.000  O
  O6       1.0000 0.03418  0.08482  0.83258  Biso   1.000  O
  O7       1.0000 0.03180  0.58439  0.33426  Biso   1.000  O
  O8       1.0000 0.03419  0.58277  0.83512  Biso   1.000  O
  O9       1.0000 0.46684  0.41565  0.08442  Biso   1.000  O
  O10      1.0000 0.46679  0.41738  0.58423  Biso   1.000  O
  O11      1.0000 0.47020  0.91613  0.08337  Biso   1.000  O
  O12      1.0000 0.46506  0.91732  0.58329  Biso   1.000  O
  O13      1.0000 0.46607  0.33386  0.33489  Biso   1.000  O
  O14      1.0000 0.46859  0.33409  0.83378  Biso   1.000  O
  O15      1.0000 0.46394  0.83549  0.33246  Biso   1.000  O
  O16      1.0000 0.46786  0.83399  0.83255  Biso   1.000  O
  O17      1.0000 0.27230  0.12723  0.29475  Biso   1.000  O
  O18      1.0000 0.27591  0.12269  0.78954  Biso   1.000  O
  O19      1.0000 0.27443  0.62714  0.29441  Biso   1.000  O
  O20      1.0000 0.27658  0.62387  0.79418  Biso   1.000  O
  O21      1.0000 0.29215  0.13764  0.03193  Biso   1.000  O
  O22      1.0000 0.27623  0.12714  0.54303  Biso   1.000  O
  O23      1.0000 0.27591  0.62512  0.04463  Biso   1.000  O
  O24      1.0000 0.27480  0.62608  0.54446  Biso   1.000  O
  O25      1.0000 0.22395  0.37675  0.29515  Biso   1.000  O
  O26      1.0000 0.22564  0.37301  0.79526  Biso   1.000  O
  O27      1.0000 0.21785  0.87703  0.29221  Biso   1.000  O
  O28      1.0000 0.22443  0.87360  0.79175  Biso   1.000  O
  O29      1.0000 0.22187  0.37840  0.04514  Biso   1.000  O
  O30      1.0000 0.22406  0.37623  0.54447  Biso   1.000  O
  O31      1.0000 0.22974  0.87311  0.03846  Biso   1.000  O
  O32      1.0000 0.22336  0.87653  0.54214  Biso   1.000  O
  O33      1.0000 0.53449  0.16710  0.16519  Biso   1.000  O
  O34      1.0000 0.53400  0.16749  0.66526  Biso   1.000  O
  O35      1.0000 0.53153  0.66683  0.16511  Biso   1.000  O
  O36      1.0000 0.53416  0.66666  0.66494  Biso   1.000  O
  O37      1.0000 0.53271  0.08342  0.41490  Biso   1.000  O
  O38      1.0000 0.53783  0.08166  0.91317  Biso   1.000  O
  O39      1.0000 0.53261  0.58394  0.41559  Biso   1.000  O
  O40      1.0000 0.53374  0.58318  0.91545  Biso   1.000  O
  O41      1.0000 0.96765  0.41479  0.16725  Biso   1.000  O
  O42      1.0000 0.96922  0.41235  0.66868  Biso   1.000  O
  O43      1.0000 0.96587  0.92092  0.16756  Biso   1.000  O
  O44      1.0000 0.96680  0.91475  0.66632  Biso   1.000  O
  O45      1.0000 0.96651  0.33297  0.41573  Biso   1.000  O
  O46      1.0000 0.96988  0.33078  0.92211  Biso   1.000  O
  O47      1.0000 0.96386  0.83493  0.41617  Biso   1.000  O
  O48      1.0000 0.96772  0.83393  0.91701  Biso   1.000  O
  O49      1.0000 0.77933  0.12409  0.95670  Biso   1.000  O
  O50      1.0000 0.77472  0.12285  0.45635  Biso   1.000  O
  O51      1.0000 0.77702  0.62365  0.95664  Biso   1.000  O
  O52      1.0000 0.77487  0.62396  0.45563  Biso   1.000  O
  O53      1.0000 0.77670  0.12531  0.20684  Biso   1.000  O
  O54      1.0000 0.77621  0.12567  0.70550  Biso   1.000  O
  O55      1.0000 0.77458  0.62534  0.20538  Biso   1.000  O
  O56      1.0000 0.77695  0.62464  0.70669  Biso   1.000  O
  O57      1.0000 0.72674  0.37323  0.95725  Biso   1.000  O
  O58      1.0000 0.72452  0.37385  0.45618  Biso   1.000  O
  O59      1.0000 0.72568  0.87370  0.95557  Biso   1.000  O
  O60      1.0000 0.72001  0.87278  0.45643  Biso   1.000  O
  O61      1.0000 0.72510  0.37501  0.20557  Biso   1.000  O
  O62      1.0000 0.72594  0.37574  0.70641  Biso   1.000  O
  O63      1.0000 0.72729  0.87531  0.20622  Biso   1.000  O
  O64      1.0000 0.72446  0.87567  0.70580  Biso   1.000  O
