data_image0
_cell_length_a       10.3319
_cell_length_b       5.40981
_cell_length_c       10.3319
_cell_angle_alpha    78.3353
_cell_angle_beta     84.1312
_cell_angle_gamma    78.3364

_symmetry_space_group_name_H-M    "P 1"
_symmetry_int_tables_number       1

loop_
  _symmetry_equiv_pos_as_xyz
  'x, y, z'

loop_
  _atom_site_label
  _atom_site_occupancy
  _atom_site_fract_x
  _atom_site_fract_y
  _atom_site_fract_z
  _atom_site_thermal_displace_type
  _atom_site_B_iso_or_equiv
  _atom_site_type_symbol
  Hf1      1.0000 0.09819  0.96300  0.09819  Biso   1.000  Hf
  Hf2      1.0000 0.14045  0.53726  0.40866  Biso   1.000  Hf
  Hf3      1.0000 0.40866  0.53724  0.14045  Biso   1.000  Hf
  Hf4      1.0000 0.35905  0.99603  0.35906  Biso   1.000  Hf
  O1       1.0000 0.99551  0.31678  0.99551  Biso   1.000  O
  O2       1.0000 0.98655  0.15707  0.23988  Biso   1.000  O
  O3       1.0000 0.99358  0.69048  0.25776  Biso   1.000  O
  O4       1.0000 0.99235  0.79817  0.99234  Biso   1.000  O
  O5       1.0000 0.32256  0.39929  0.32256  Biso   1.000  O
  O6       1.0000 0.23988  0.15707  0.98655  Biso   1.000  O
  O7       1.0000 0.25777  0.69048  0.99358  Biso   1.000  O
  O8       1.0000 0.24199  0.85536  0.24199  Biso   1.000  O
  Hf5      1.0000 0.09634  0.97982  0.60459  Biso   1.000  Hf
  Hf6      1.0000 0.14123  0.51518  0.89375  Biso   1.000  Hf
  Hf7      1.0000 0.39338  0.52393  0.64616  Biso   1.000  Hf
  Hf8      1.0000 0.35128  0.97689  0.84577  Biso   1.000  Hf
  O9       1.0000 0.99785  0.33837  0.50607  Biso   1.000  O
  O10      1.0000 0.99065  0.16640  0.74653  Biso   1.000  O
  O11      1.0000 0.99947  0.68228  0.75280  Biso   1.000  O
  O12      1.0000 0.99005  0.81900  0.49623  Biso   1.000  O
  O13      1.0000 0.25209  0.33354  0.75058  Biso   1.000  O
  O14      1.0000 0.23281  0.16347  0.50036  Biso   1.000  O
  O15      1.0000 0.24917  0.69633  0.51040  Biso   1.000  O
  O16      1.0000 0.24118  0.81239  0.74500  Biso   1.000  O
  Hf9      1.0000 0.60458  0.97981  0.09634  Biso   1.000  Hf
  Hf10     1.0000 0.64617  0.52393  0.39338  Biso   1.000  Hf
  Hf11     1.0000 0.89375  0.51518  0.14123  Biso   1.000  Hf
  Hf12     1.0000 0.84576  0.97690  0.35128  Biso   1.000  Hf
  O17      1.0000 0.50606  0.33836  0.99785  Biso   1.000  O
  O18      1.0000 0.50034  0.16345  0.23280  Biso   1.000  O
  O19      1.0000 0.51041  0.69629  0.24917  Biso   1.000  O
  O20      1.0000 0.49624  0.81899  0.99004  Biso   1.000  O
  O21      1.0000 0.75058  0.33353  0.25209  Biso   1.000  O
  O22      1.0000 0.74653  0.16640  0.99065  Biso   1.000  O
  O23      1.0000 0.75280  0.68227  0.99947  Biso   1.000  O
  O24      1.0000 0.74500  0.81240  0.24118  Biso   1.000  O
  Hf13     1.0000 0.60179  0.98721  0.60180  Biso   1.000  Hf
  Hf14     1.0000 0.64592  0.52101  0.89133  Biso   1.000  Hf
  Hf15     1.0000 0.89133  0.52102  0.64592  Biso   1.000  Hf
  Hf16     1.0000 0.85026  0.97809  0.85027  Biso   1.000  Hf
  O25      1.0000 0.50383  0.34276  0.50383  Biso   1.000  O
  O26      1.0000 0.49349  0.16958  0.74313  Biso   1.000  O
  O27      1.0000 0.50121  0.69067  0.75015  Biso   1.000  O
  O28      1.0000 0.49482  0.82224  0.49481  Biso   1.000  O
  O29      1.0000 0.74938  0.33267  0.74938  Biso   1.000  O
  O30      1.0000 0.74314  0.16958  0.49349  Biso   1.000  O
  O31      1.0000 0.75015  0.69067  0.50121  Biso   1.000  O
  O32      1.0000 0.74301  0.81566  0.74301  Biso   1.000  O
  Au1      1.0000 0.18192  0.35076  0.18193  Biso   1.000  Au
