data_image0
_cell_length_a       10.0725
_cell_length_b       10.5118
_cell_length_c       5.08545
_cell_angle_alpha    90.6537
_cell_angle_beta     86.7723
_cell_angle_gamma    90.066

_symmetry_space_group_name_H-M    "P 1"
_symmetry_int_tables_number       1

loop_
  _symmetry_equiv_pos_as_xyz
  'x, y, z'

loop_
  _atom_site_label
  _atom_site_occupancy
  _atom_site_fract_x
  _atom_site_fract_y
  _atom_site_fract_z
  _atom_site_thermal_displace_type
  _atom_site_B_iso_or_equiv
  _atom_site_type_symbol
  Hf1      1.0000 0.14164  0.01557  0.29371  Biso   1.000  Hf
  Hf2      1.0000 0.14187  0.21597  0.81424  Biso   1.000  Hf
  Hf3      1.0000 0.37245  0.26686  0.26406  Biso   1.000  Hf
  Hf4      1.0000 0.37137  0.48764  0.74963  Biso   1.000  Hf
  O1       1.0000 0.04467  0.06939  0.65667  Biso   1.000  O
  O2       1.0000 0.01033  0.12726  0.11283  Biso   1.000  O
  O3       1.0000 0.47552  0.42931  0.40145  Biso   1.000  O
  O4       1.0000 0.47244  0.31792  0.89653  Biso   1.000  O
  O5       1.0000 0.28342  0.11194  0.52141  Biso   1.000  O
  O6       1.0000 0.27971  0.12227  0.02581  Biso   1.000  O
  O7       1.0000 0.25350  0.40126  0.05329  Biso   1.000  O
  O8       1.0000 0.25994  0.34567  0.58156  Biso   1.000  O
  Hf5      1.0000 0.12609  0.54251  0.21245  Biso   1.000  Hf
  Hf6      1.0000 0.13462  0.73983  0.73572  Biso   1.000  Hf
  Hf7      1.0000 0.37242  0.76199  0.24029  Biso   1.000  Hf
  Hf8      1.0000 0.36912  0.97886  0.75413  Biso   1.000  Hf
  O9       1.0000 0.03383  0.69655  0.37799  Biso   1.000  O
  O10      1.0000 0.03302  0.57479  0.86325  Biso   1.000  O
  O11      1.0000 0.46919  0.92789  0.37827  Biso   1.000  O
  O12      1.0000 0.46696  0.81620  0.88575  Biso   1.000  O
  O13      1.0000 0.26578  0.61074  0.47794  Biso   1.000  O
  O14      1.0000 0.26781  0.64487  0.97292  Biso   1.000  O
  O15      1.0000 0.22382  0.88546  0.00195  Biso   1.000  O
  O16      1.0000 0.24026  0.86230  0.49883  Biso   1.000  O
  Hf9      1.0000 0.63174  0.01264  0.21890  Biso   1.000  Hf
  Hf10     1.0000 0.62808  0.23255  0.71588  Biso   1.000  Hf
  Hf11     1.0000 0.84610  0.26011  0.17754  Biso   1.000  Hf
  Hf12     1.0000 0.86536  0.48683  0.72075  Biso   1.000  Hf
  O17      1.0000 0.53994  0.18102  0.36982  Biso   1.000  O
  O18      1.0000 0.53589  0.06343  0.87099  Biso   1.000  O
  O19      1.0000 0.94728  0.46117  0.33551  Biso   1.000  O
  O20      1.0000 0.97014  0.32856  0.84957  Biso   1.000  O
  O21      1.0000 0.77141  0.11200  0.44077  Biso   1.000  O
  O22      1.0000 0.76406  0.13159  0.93550  Biso   1.000  O
  O23      1.0000 0.72829  0.38242  0.96809  Biso   1.000  O
  O24      1.0000 0.73189  0.36472  0.47305  Biso   1.000  O
  Hf13     1.0000 0.63604  0.51640  0.23874  Biso   1.000  Hf
  Hf14     1.0000 0.63608  0.73166  0.73833  Biso   1.000  Hf
  Hf15     1.0000 0.86555  0.76695  0.21700  Biso   1.000  Hf
  Hf16     1.0000 0.86443  0.97946  0.69332  Biso   1.000  Hf
  O25      1.0000 0.53127  0.67933  0.39670  Biso   1.000  O
  O26      1.0000 0.53398  0.57029  0.90372  Biso   1.000  O
  O27      1.0000 0.96186  0.92059  0.34660  Biso   1.000  O
  O28      1.0000 0.96397  0.82508  0.85883  Biso   1.000  O
  O29      1.0000 0.76516  0.61792  0.47779  Biso   1.000  O
  O30      1.0000 0.77016  0.63132  0.97182  Biso   1.000  O
  O31      1.0000 0.72883  0.87876  0.97409  Biso   1.000  O
  O32      1.0000 0.72850  0.86514  0.47570  Biso   1.000  O
  Au1      1.0000 0.07950  0.29815  0.35377  Biso   1.000  Au
