data_image0
_cell_length_a       10.1685
_cell_length_b       10.2953
_cell_length_c       10.5043
_cell_angle_alpha    90.1845
_cell_angle_beta     79.9684
_cell_angle_gamma    89.9192

_symmetry_space_group_name_H-M    "P 1"
_symmetry_int_tables_number       1

loop_
  _symmetry_equiv_pos_as_xyz
  'x, y, z'

loop_
  _atom_site_label
  _atom_site_occupancy
  _atom_site_fract_x
  _atom_site_fract_y
  _atom_site_fract_z
  _atom_site_thermal_displace_type
  _atom_site_B_iso_or_equiv
  _atom_site_type_symbol
  Hf1      1.0000 0.13180  0.02136  0.14403  Biso   1.000  Hf
  Hf2      1.0000 0.13723  0.22832  0.39389  Biso   1.000  Hf
  Hf3      1.0000 0.35502  0.27442  0.09685  Biso   1.000  Hf
  Hf4      1.0000 0.36101  0.47884  0.34982  Biso   1.000  Hf
  O1       1.0000 0.03197  0.16818  0.07636  Biso   1.000  O
  O2       1.0000 0.02923  0.08147  0.32990  Biso   1.000  O
  O3       1.0000 0.45917  0.43103  0.15904  Biso   1.000  O
  O4       1.0000 0.48754  0.37160  0.44856  Biso   1.000  O
  O5       1.0000 0.25995  0.12797  0.23413  Biso   1.000  O
  O6       1.0000 0.27157  0.11255  0.49201  Biso   1.000  O
  O7       1.0000 0.21960  0.38211  0.00585  Biso   1.000  O
  O8       1.0000 0.21341  0.37635  0.25600  Biso   1.000  O
  Hf5      1.0000 0.13777  0.01983  0.64639  Biso   1.000  Hf
  Hf6      1.0000 0.13594  0.22903  0.89348  Biso   1.000  Hf
  Hf7      1.0000 0.36214  0.27608  0.60695  Biso   1.000  Hf
  Hf8      1.0000 0.36002  0.47994  0.85629  Biso   1.000  Hf
  O9       1.0000 0.03660  0.16787  0.57935  Biso   1.000  O
  O10      1.0000 0.03284  0.08286  0.82788  Biso   1.000  O
  O11      1.0000 0.46707  0.41349  0.68299  Biso   1.000  O
  O12      1.0000 0.46443  0.33322  0.92131  Biso   1.000  O
  O13      1.0000 0.27482  0.12986  0.73888  Biso   1.000  O
  O14      1.0000 0.27265  0.12337  0.98639  Biso   1.000  O
  O15      1.0000 0.22670  0.37515  0.50849  Biso   1.000  O
  O16      1.0000 0.22369  0.37233  0.75870  Biso   1.000  O
  Hf9      1.0000 0.13795  0.52340  0.14538  Biso   1.000  Hf
  Hf10     1.0000 0.13750  0.72759  0.39680  Biso   1.000  Hf
  Hf11     1.0000 0.35969  0.77340  0.10436  Biso   1.000  Hf
  Hf12     1.0000 0.36075  0.96698  0.35855  Biso   1.000  Hf
  O17      1.0000 0.03309  0.66924  0.07814  Biso   1.000  O
  O18      1.0000 0.03334  0.58464  0.32761  Biso   1.000  O
  O19      1.0000 0.46309  0.92032  0.17390  Biso   1.000  O
  O20      1.0000 0.46004  0.82187  0.42242  Biso   1.000  O
  O21      1.0000 0.27482  0.63087  0.24084  Biso   1.000  O
  O22      1.0000 0.27336  0.61782  0.49071  Biso   1.000  O
  O23      1.0000 0.22256  0.88036  0.01018  Biso   1.000  O
  O24      1.0000 0.22223  0.87034  0.26134  Biso   1.000  O
  Hf13     1.0000 0.13849  0.52151  0.64547  Biso   1.000  Hf
  Hf14     1.0000 0.13685  0.72944  0.89672  Biso   1.000  Hf
  Hf15     1.0000 0.36041  0.76807  0.60615  Biso   1.000  Hf
  Hf16     1.0000 0.35970  0.97997  0.85336  Biso   1.000  Hf
  O25      1.0000 0.03234  0.66587  0.57876  Biso   1.000  O
  O26      1.0000 0.03411  0.58382  0.82819  Biso   1.000  O
  O27      1.0000 0.46371  0.91676  0.66990  Biso   1.000  O
  O28      1.0000 0.46392  0.83586  0.92176  Biso   1.000  O
  O29      1.0000 0.27518  0.62777  0.74112  Biso   1.000  O
  O30      1.0000 0.27541  0.62434  0.99146  Biso   1.000  O
  O31      1.0000 0.22199  0.87351  0.51226  Biso   1.000  O
  O32      1.0000 0.22297  0.87105  0.76084  Biso   1.000  O
  Hf17     1.0000 0.63947  0.01951  0.14815  Biso   1.000  Hf
  Hf18     1.0000 0.65596  0.23457  0.40676  Biso   1.000  Hf
  Hf19     1.0000 0.85938  0.27360  0.10494  Biso   1.000  Hf
  Hf20     1.0000 0.86352  0.48010  0.35363  Biso   1.000  Hf
  O33      1.0000 0.53060  0.16165  0.07372  Biso   1.000  O
  O34      1.0000 0.55666  0.05095  0.34860  Biso   1.000  O
  O35      1.0000 0.96405  0.41968  0.16974  Biso   1.000  O
  O36      1.0000 0.96468  0.33169  0.42155  Biso   1.000  O
  O37      1.0000 0.77640  0.13179  0.24197  Biso   1.000  O
  O38      1.0000 0.78131  0.11936  0.49528  Biso   1.000  O
  O39      1.0000 0.72189  0.37917  0.01165  Biso   1.000  O
  O40      1.0000 0.72469  0.37394  0.26242  Biso   1.000  O
  Hf21     1.0000 0.63657  0.02139  0.64584  Biso   1.000  Hf
  Hf22     1.0000 0.63799  0.22800  0.89664  Biso   1.000  Hf
  Hf23     1.0000 0.86548  0.27086  0.60902  Biso   1.000  Hf
  Hf24     1.0000 0.86038  0.47962  0.85519  Biso   1.000  Hf
  O41      1.0000 0.53550  0.16965  0.57817  Biso   1.000  O
  O42      1.0000 0.53269  0.08426  0.82601  Biso   1.000  O
  O43      1.0000 0.96654  0.41788  0.67271  Biso   1.000  O
  O44      1.0000 0.96283  0.33337  0.92075  Biso   1.000  O
  O45      1.0000 0.77465  0.12894  0.74226  Biso   1.000  O
  O46      1.0000 0.77488  0.12203  0.99198  Biso   1.000  O
  O47      1.0000 0.73133  0.37862  0.51537  Biso   1.000  O
  O48      1.0000 0.72497  0.37169  0.76272  Biso   1.000  O
  Hf25     1.0000 0.63652  0.52461  0.14428  Biso   1.000  Hf
  Hf26     1.0000 0.63877  0.72564  0.39549  Biso   1.000  Hf
  Hf27     1.0000 0.85911  0.77030  0.10382  Biso   1.000  Hf
  Hf28     1.0000 0.85874  0.97635  0.35487  Biso   1.000  Hf
  O49      1.0000 0.53579  0.67423  0.07823  Biso   1.000  O
  O50      1.0000 0.53254  0.58772  0.32228  Biso   1.000  O
  O51      1.0000 0.96087  0.91682  0.17197  Biso   1.000  O
  O52      1.0000 0.96347  0.83178  0.42197  Biso   1.000  O
  O53      1.0000 0.77648  0.62804  0.24008  Biso   1.000  O
  O54      1.0000 0.77447  0.62011  0.49019  Biso   1.000  O
  O55      1.0000 0.72266  0.88077  0.01068  Biso   1.000  O
  O56      1.0000 0.72378  0.86691  0.25849  Biso   1.000  O
  Hf29     1.0000 0.63762  0.52126  0.64839  Biso   1.000  Hf
  Hf30     1.0000 0.63671  0.73084  0.89579  Biso   1.000  Hf
  Hf31     1.0000 0.85988  0.77159  0.60421  Biso   1.000  Hf
  Hf32     1.0000 0.85969  0.97913  0.85461  Biso   1.000  Hf
  O57      1.0000 0.53344  0.66376  0.57903  Biso   1.000  O
  O58      1.0000 0.53321  0.58529  0.83024  Biso   1.000  O
  O59      1.0000 0.96341  0.91717  0.67150  Biso   1.000  O
  O60      1.0000 0.96369  0.83363  0.92133  Biso   1.000  O
  O61      1.0000 0.77452  0.62926  0.74005  Biso   1.000  O
  O62      1.0000 0.77439  0.62238  0.98957  Biso   1.000  O
  O63      1.0000 0.72158  0.87743  0.51031  Biso   1.000  O
  O64      1.0000 0.72234  0.87247  0.76019  Biso   1.000  O
  Au1      1.0000 0.43955  0.21816  0.31254  Biso   1.000  Au
