data_image0
_cell_length_a       10.0902
_cell_length_b       5.16499
_cell_length_c       10.4789
_cell_angle_alpha    89.7
_cell_angle_beta     90.9051
_cell_angle_gamma    89.6554

_symmetry_space_group_name_H-M    "P 1"
_symmetry_int_tables_number       1

loop_
  _symmetry_equiv_pos_as_xyz
  'x, y, z'

loop_
  _atom_site_label
  _atom_site_occupancy
  _atom_site_fract_x
  _atom_site_fract_y
  _atom_site_fract_z
  _atom_site_thermal_displace_type
  _atom_site_B_iso_or_equiv
  _atom_site_type_symbol
  Au1      1.0000 0.12469  0.03287  0.19051  Biso   1.000  Au
  Zr1      1.0000 0.13547  0.46481  0.42070  Biso   1.000  Zr
  Zr2      1.0000 0.35924  0.54484  0.16087  Biso   1.000  Zr
  Zr3      1.0000 0.36066  0.95954  0.41816  Biso   1.000  Zr
  Zr4      1.0000 0.64079  0.04075  0.07799  Biso   1.000  Zr
  Zr5      1.0000 0.63449  0.45780  0.32808  Biso   1.000  Zr
  Zr6      1.0000 0.86550  0.53176  0.08157  Biso   1.000  Zr
  Zr7      1.0000 0.85181  0.95732  0.33557  Biso   1.000  Zr
  O1       1.0000 0.04521  0.33305  0.09379  Biso   1.000  O
  O2       1.0000 0.02444  0.16178  0.36122  Biso   1.000  O
  O3       1.0000 0.47045  0.83638  0.08389  Biso   1.000  O
  O4       1.0000 0.45750  0.65374  0.33602  Biso   1.000  O
  O5       1.0000 0.26985  0.24435  0.28407  Biso   1.000  O
  O6       1.0000 0.29717  0.28141  0.02636  Biso   1.000  O
  O7       1.0000 0.21685  0.74794  0.28929  Biso   1.000  O
  O8       1.0000 0.22803  0.76036  0.03786  Biso   1.000  O
  O9       1.0000 0.53629  0.33955  0.16108  Biso   1.000  O
  O10      1.0000 0.53255  0.15810  0.41085  Biso   1.000  O
  O11      1.0000 0.95682  0.84780  0.16361  Biso   1.000  O
  O12      1.0000 0.96044  0.66141  0.41501  Biso   1.000  O
  O13      1.0000 0.77146  0.24891  0.45886  Biso   1.000  O
  O14      1.0000 0.77601  0.25007  0.20868  Biso   1.000  O
  O15      1.0000 0.71912  0.74806  0.45752  Biso   1.000  O
  O16      1.0000 0.72574  0.74666  0.20702  Biso   1.000  O
  Zr8      1.0000 0.13805  0.04123  0.66800  Biso   1.000  Zr
  Zr9      1.0000 0.14644  0.45522  0.91919  Biso   1.000  Zr
  Zr10     1.0000 0.36124  0.54215  0.66874  Biso   1.000  Zr
  Zr11     1.0000 0.36207  0.96182  0.91885  Biso   1.000  Zr
  Zr12     1.0000 0.63705  0.04183  0.58225  Biso   1.000  Zr
  Zr13     1.0000 0.64044  0.45917  0.83030  Biso   1.000  Zr
  Zr14     1.0000 0.85924  0.54069  0.58254  Biso   1.000  Zr
  Zr15     1.0000 0.86624  0.95547  0.83310  Biso   1.000  Zr
  O17      1.0000 0.03601  0.34878  0.59104  Biso   1.000  O
  O18      1.0000 0.03842  0.15779  0.83747  Biso   1.000  O
  O19      1.0000 0.46411  0.84012  0.58467  Biso   1.000  O
  O20      1.0000 0.46813  0.66414  0.83286  Biso   1.000  O
  O21      1.0000 0.27658  0.24481  0.78570  Biso   1.000  O
  O22      1.0000 0.27530  0.25384  0.53772  Biso   1.000  O
  O23      1.0000 0.22540  0.74529  0.79068  Biso   1.000  O
  O24      1.0000 0.22296  0.75409  0.54083  Biso   1.000  O
  O25      1.0000 0.53534  0.34028  0.66136  Biso   1.000  O
  O26      1.0000 0.54050  0.15772  0.90988  Biso   1.000  O
  O27      1.0000 0.96473  0.83837  0.66494  Biso   1.000  O
  O28      1.0000 0.96912  0.65424  0.91958  Biso   1.000  O
  O29      1.0000 0.78091  0.24609  0.95829  Biso   1.000  O
  O30      1.0000 0.77731  0.25086  0.70833  Biso   1.000  O
  O31      1.0000 0.72825  0.74470  0.95763  Biso   1.000  O
  O32      1.0000 0.72561  0.75206  0.70745  Biso   1.000  O
