data_image0
_cell_length_a       10.2069
_cell_length_b       10.4061
_cell_length_c       5.08942
_cell_angle_alpha    89.9875
_cell_angle_beta     87.305
_cell_angle_gamma    90.0009

_symmetry_space_group_name_H-M    "P 1"
_symmetry_int_tables_number       1

loop_
  _symmetry_equiv_pos_as_xyz
  'x, y, z'

loop_
  _atom_site_label
  _atom_site_occupancy
  _atom_site_fract_x
  _atom_site_fract_y
  _atom_site_fract_z
  _atom_site_thermal_displace_type
  _atom_site_B_iso_or_equiv
  _atom_site_type_symbol
  Zr1      1.0000 0.12563  0.94770  0.25058  Biso   1.000  Zr
  Zr2      1.0000 0.12564  0.29570  0.75096  Biso   1.000  Zr
  Zr3      1.0000 0.38263  0.24801  0.28899  Biso   1.000  Zr
  Zr4      1.0000 0.37437  0.00314  0.77731  Biso   1.000  Zr
  O1       1.0000 0.97791  0.16370  0.85751  Biso   1.000  O
  O2       1.0000 0.95935  0.06572  0.36510  Biso   1.000  O
  O3       1.0000 0.98720  0.36261  0.48911  Biso   1.000  O
  O4       1.0000 0.99826  0.41137  0.99520  Biso   1.000  O
  O5       1.0000 0.27339  0.16376  0.64365  Biso   1.000  O
  O6       1.0000 0.29188  0.06573  0.13591  Biso   1.000  O
  O7       1.0000 0.26417  0.36256  0.01233  Biso   1.000  O
  O8       1.0000 0.25299  0.41139  0.50636  Biso   1.000  O
  Zr5      1.0000 0.12562  0.51368  0.25084  Biso   1.000  Zr
  Zr6      1.0000 0.12565  0.73995  0.75071  Biso   1.000  Zr
  Zr7      1.0000 0.38971  0.75827  0.26911  Biso   1.000  Zr
  Zr8      1.0000 0.38634  0.49565  0.77189  Biso   1.000  Zr
  O9       1.0000 0.00908  0.65758  0.06521  Biso   1.000  O
  O10      1.0000 0.01547  0.59435  0.56628  Biso   1.000  O
  O11      1.0000 0.99671  0.83575  0.48494  Biso   1.000  O
  O12      1.0000 0.00590  0.89534  0.95622  Biso   1.000  O
  O13      1.0000 0.24230  0.65756  0.43647  Biso   1.000  O
  O14      1.0000 0.23590  0.59437  0.93543  Biso   1.000  O
  O15      1.0000 0.25455  0.83575  0.01638  Biso   1.000  O
  O16      1.0000 0.24529  0.89541  0.54511  Biso   1.000  O
  Zr9      1.0000 0.62558  0.00867  0.25059  Biso   1.000  Zr
  Zr10     1.0000 0.62566  0.24939  0.75058  Biso   1.000  Zr
  Zr11     1.0000 0.86871  0.24793  0.21215  Biso   1.000  Zr
  Zr12     1.0000 0.87684  0.00316  0.72388  Biso   1.000  Zr
  O17      1.0000 0.50722  0.15253  0.01458  Biso   1.000  O
  O18      1.0000 0.50287  0.10612  0.51281  Biso   1.000  O
  O19      1.0000 0.50009  0.35657  0.52634  Biso   1.000  O
  O20      1.0000 0.50442  0.39870  0.02610  Biso   1.000  O
  O21      1.0000 0.74409  0.15250  0.48674  Biso   1.000  O
  O22      1.0000 0.74844  0.10612  0.98848  Biso   1.000  O
  O23      1.0000 0.75120  0.35654  0.97486  Biso   1.000  O
  O24      1.0000 0.74691  0.39866  0.47509  Biso   1.000  O
  Zr13     1.0000 0.62566  0.50367  0.25060  Biso   1.000  Zr
  Zr14     1.0000 0.62566  0.75640  0.75052  Biso   1.000  Zr
  Zr15     1.0000 0.86160  0.75834  0.23201  Biso   1.000  Zr
  Zr16     1.0000 0.86490  0.49560  0.72934  Biso   1.000  Zr
  O25      1.0000 0.49578  0.64711  0.99504  Biso   1.000  O
  O26      1.0000 0.50233  0.61060  0.49762  Biso   1.000  O
  O27      1.0000 0.49690  0.85948  0.52651  Biso   1.000  O
  O28      1.0000 0.50749  0.89767  0.01816  Biso   1.000  O
  O29      1.0000 0.75556  0.64708  0.50617  Biso   1.000  O
  O30      1.0000 0.74905  0.61060  0.00360  Biso   1.000  O
  O31      1.0000 0.75436  0.85949  0.97453  Biso   1.000  O
  O32      1.0000 0.74379  0.89765  0.48289  Biso   1.000  O
  Au1      1.0000 0.12566  0.19596  0.25125  Biso   1.000  Au
