data_image0
_cell_length_a       10.0709
_cell_length_b       10.188
_cell_length_c       5.2152
_cell_angle_alpha    89.9597
_cell_angle_beta     90.4329
_cell_angle_gamma    90.1367

_symmetry_space_group_name_H-M    "P 1"
_symmetry_int_tables_number       1

loop_
  _symmetry_equiv_pos_as_xyz
  'x, y, z'

loop_
  _atom_site_label
  _atom_site_occupancy
  _atom_site_fract_x
  _atom_site_fract_y
  _atom_site_fract_z
  _atom_site_thermal_displace_type
  _atom_site_B_iso_or_equiv
  _atom_site_type_symbol
  B1       1.0000 0.02337  0.05615  0.34738  Biso   1.000  B
  Hf1      1.0000 0.14592  0.22359  0.83984  Biso   1.000  Hf
  Hf2      1.0000 0.35774  0.26452  0.34476  Biso   1.000  Hf
  Hf3      1.0000 0.36057  0.47656  0.84715  Biso   1.000  Hf
  Hf4      1.0000 0.63916  0.02039  0.15840  Biso   1.000  Hf
  Hf5      1.0000 0.63795  0.22919  0.65642  Biso   1.000  Hf
  Hf6      1.0000 0.85898  0.27389  0.15569  Biso   1.000  Hf
  Hf7      1.0000 0.86648  0.47777  0.66046  Biso   1.000  Hf
  O1       1.0000 0.03070  0.14563  0.15240  Biso   1.000  O
  O2       1.0000 0.02973  0.09496  0.60266  Biso   1.000  O
  O3       1.0000 0.46821  0.41119  0.16824  Biso   1.000  O
  O4       1.0000 0.47090  0.33765  0.66535  Biso   1.000  O
  O5       1.0000 0.28578  0.12839  0.60731  Biso   1.000  O
  O6       1.0000 0.28920  0.13400  0.07117  Biso   1.000  O
  O7       1.0000 0.22354  0.37123  0.59358  Biso   1.000  O
  O8       1.0000 0.22076  0.37324  0.09150  Biso   1.000  O
  O9       1.0000 0.53396  0.16330  0.33544  Biso   1.000  O
  O10      1.0000 0.53807  0.08448  0.83558  Biso   1.000  O
  O11      1.0000 0.97048  0.41007  0.33862  Biso   1.000  O
  O12      1.0000 0.96981  0.33047  0.84191  Biso   1.000  O
  O13      1.0000 0.77990  0.12278  0.91058  Biso   1.000  O
  O14      1.0000 0.77704  0.12671  0.41067  Biso   1.000  O
  O15      1.0000 0.72639  0.37389  0.91178  Biso   1.000  O
  O16      1.0000 0.72622  0.37629  0.40962  Biso   1.000  O
  Hf8      1.0000 0.14136  0.52036  0.34625  Biso   1.000  Hf
  Hf9      1.0000 0.14503  0.73215  0.84336  Biso   1.000  Hf
  Hf10     1.0000 0.35816  0.77494  0.34473  Biso   1.000  Hf
  Hf11     1.0000 0.35908  0.97669  0.84398  Biso   1.000  Hf
  Hf12     1.0000 0.63760  0.52100  0.16155  Biso   1.000  Hf
  Hf13     1.0000 0.63925  0.72697  0.65728  Biso   1.000  Hf
  Hf14     1.0000 0.86586  0.76927  0.15742  Biso   1.000  Hf
  Hf15     1.0000 0.85541  0.97721  0.66973  Biso   1.000  Hf
  O17      1.0000 0.03584  0.66991  0.17802  Biso   1.000  O
  O18      1.0000 0.03564  0.58245  0.67262  Biso   1.000  O
  O19      1.0000 0.47551  0.91003  0.16361  Biso   1.000  O
  O20      1.0000 0.47720  0.84211  0.65706  Biso   1.000  O
  O21      1.0000 0.27922  0.62012  0.59159  Biso   1.000  O
  O22      1.0000 0.27615  0.62034  0.09450  Biso   1.000  O
  O23      1.0000 0.23249  0.86646  0.59816  Biso   1.000  O
  O24      1.0000 0.23785  0.86664  0.07837  Biso   1.000  O
  O25      1.0000 0.53338  0.66251  0.33837  Biso   1.000  O
  O26      1.0000 0.53276  0.58582  0.83852  Biso   1.000  O
  O27      1.0000 0.96540  0.93539  0.31855  Biso   1.000  O
  O28      1.0000 0.96938  0.83711  0.82867  Biso   1.000  O
  O29      1.0000 0.77910  0.62408  0.91582  Biso   1.000  O
  O30      1.0000 0.77920  0.62538  0.41298  Biso   1.000  O
  O31      1.0000 0.72582  0.87233  0.91598  Biso   1.000  O
  O32      1.0000 0.73246  0.87441  0.41641  Biso   1.000  O
