data_image0
_cell_length_a       9.97756
_cell_length_b       10.3757
_cell_length_c       10.0215
_cell_angle_alpha    90.1678
_cell_angle_beta     89.6942
_cell_angle_gamma    90.3937

_symmetry_space_group_name_H-M    "P 1"
_symmetry_int_tables_number       1

loop_
  _symmetry_equiv_pos_as_xyz
  'x, y, z'

loop_
  _atom_site_label
  _atom_site_occupancy
  _atom_site_fract_x
  _atom_site_fract_y
  _atom_site_fract_z
  _atom_site_thermal_displace_type
  _atom_site_B_iso_or_equiv
  _atom_site_type_symbol
  Hf1      1.0000 0.14160  0.01772  0.12159  Biso   1.000  Hf
  Hf2      1.0000 0.13557  0.22671  0.39818  Biso   1.000  Hf
  Hf3      1.0000 0.36546  0.26155  0.11790  Biso   1.000  Hf
  Hf4      1.0000 0.37447  0.48652  0.37797  Biso   1.000  Hf
  O1       1.0000 0.02397  0.18325  0.22200  Biso   1.000  O
  O2       1.0000 0.03608  0.06382  0.45528  Biso   1.000  O
  O3       1.0000 0.45568  0.43108  0.19652  Biso   1.000  O
  O4       1.0000 0.46324  0.31504  0.44372  Biso   1.000  O
  O5       1.0000 0.26785  0.11595  0.25820  Biso   1.000  O
  O6       1.0000 0.27605  0.12819  0.50821  Biso   1.000  O
  O7       1.0000 0.23225  0.38274  0.49472  Biso   1.000  O
  O8       1.0000 0.19269  0.34581  0.22915  Biso   1.000  O
  Hf5      1.0000 0.13767  0.01635  0.63439  Biso   1.000  Hf
  Hf6      1.0000 0.13606  0.23719  0.89084  Biso   1.000  Hf
  Hf7      1.0000 0.36747  0.26663  0.63087  Biso   1.000  Hf
  Hf8      1.0000 0.37060  0.48883  0.87007  Biso   1.000  Hf
  O9       1.0000 0.03860  0.18496  0.69479  Biso   1.000  O
  O10      1.0000 0.03841  0.06642  0.94805  Biso   1.000  O
  O11      1.0000 0.46448  0.43541  0.69032  Biso   1.000  O
  O12      1.0000 0.46586  0.31503  0.93886  Biso   1.000  O
  O13      1.0000 0.27109  0.11989  0.75597  Biso   1.000  O
  O14      1.0000 0.29243  0.11884  0.99591  Biso   1.000  O
  O15      1.0000 0.24287  0.39228  0.99415  Biso   1.000  O
  O16      1.0000 0.22744  0.36920  0.74868  Biso   1.000  O
  Hf9      1.0000 0.12761  0.51823  0.11793  Biso   1.000  Hf
  Hf10     1.0000 0.13385  0.73222  0.37530  Biso   1.000  Hf
  Hf11     1.0000 0.36568  0.76344  0.12583  Biso   1.000  Hf
  Hf12     1.0000 0.36751  0.98079  0.37683  Biso   1.000  Hf
  O17      1.0000 0.03664  0.68564  0.19200  Biso   1.000  O
  O18      1.0000 0.03547  0.56607  0.44323  Biso   1.000  O
  O19      1.0000 0.46495  0.93233  0.19445  Biso   1.000  O
  O20      1.0000 0.46546  0.81423  0.44441  Biso   1.000  O
  O21      1.0000 0.26553  0.60695  0.24861  Biso   1.000  O
  O22      1.0000 0.27156  0.63226  0.49793  Biso   1.000  O
  O23      1.0000 0.22934  0.88158  0.50104  Biso   1.000  O
  O24      1.0000 0.23314  0.86348  0.25009  Biso   1.000  O
  Hf13     1.0000 0.13350  0.51604  0.62450  Biso   1.000  Hf
  Hf14     1.0000 0.13365  0.73493  0.87439  Biso   1.000  Hf
  Hf15     1.0000 0.36747  0.76548  0.62457  Biso   1.000  Hf
  Hf16     1.0000 0.37175  0.97969  0.87405  Biso   1.000  Hf
  O25      1.0000 0.03792  0.68547  0.69141  Biso   1.000  O
  O26      1.0000 0.03510  0.56540  0.93968  Biso   1.000  O
  O27      1.0000 0.46607  0.93349  0.69040  Biso   1.000  O
  O28      1.0000 0.46665  0.81440  0.94715  Biso   1.000  O
  O29      1.0000 0.26968  0.61865  0.74757  Biso   1.000  O
  O30      1.0000 0.26834  0.63575  0.99716  Biso   1.000  O
  O31      1.0000 0.23016  0.88029  0.99993  Biso   1.000  O
  O32      1.0000 0.23301  0.86701  0.75056  Biso   1.000  O
  Hf17     1.0000 0.63392  0.01719  0.12487  Biso   1.000  Hf
  Hf18     1.0000 0.63394  0.23280  0.37508  Biso   1.000  Hf
  Hf19     1.0000 0.86178  0.27240  0.11683  Biso   1.000  Hf
  Hf20     1.0000 0.86507  0.48375  0.37586  Biso   1.000  Hf
  O33      1.0000 0.53437  0.18277  0.19204  Biso   1.000  O
  O34      1.0000 0.53828  0.06444  0.44287  Biso   1.000  O
  O35      1.0000 0.95175  0.44274  0.19001  Biso   1.000  O
  O36      1.0000 0.96633  0.31893  0.44919  Biso   1.000  O
  O37      1.0000 0.76969  0.11896  0.24769  Biso   1.000  O
  O38      1.0000 0.77222  0.13462  0.49846  Biso   1.000  O
  O39      1.0000 0.72876  0.38246  0.49848  Biso   1.000  O
  O40      1.0000 0.72512  0.36899  0.24836  Biso   1.000  O
  Hf21     1.0000 0.63662  0.01759  0.62445  Biso   1.000  Hf
  Hf22     1.0000 0.63550  0.23239  0.87424  Biso   1.000  Hf
  Hf23     1.0000 0.86938  0.26731  0.62872  Biso   1.000  Hf
  Hf24     1.0000 0.86234  0.48557  0.87280  Biso   1.000  Hf
  O41      1.0000 0.53778  0.18423  0.69286  Biso   1.000  O
  O42      1.0000 0.54466  0.06193  0.93924  Biso   1.000  O
  O43      1.0000 0.96002  0.43975  0.68980  Biso   1.000  O
  O44      1.0000 0.95015  0.31508  0.92400  Biso   1.000  O
  O45      1.0000 0.77263  0.11766  0.74848  Biso   1.000  O
  O46      1.0000 0.77256  0.13223  0.99811  Biso   1.000  O
  O47      1.0000 0.72527  0.38316  0.99953  Biso   1.000  O
  O48      1.0000 0.72668  0.36998  0.74816  Biso   1.000  O
  Hf25     1.0000 0.63136  0.51654  0.12845  Biso   1.000  Hf
  Hf26     1.0000 0.63728  0.73624  0.37604  Biso   1.000  Hf
  Hf27     1.0000 0.86752  0.76830  0.12614  Biso   1.000  Hf
  Hf28     1.0000 0.86807  0.98649  0.37348  Biso   1.000  Hf
  O49      1.0000 0.53227  0.68088  0.19985  Biso   1.000  O
  O50      1.0000 0.53749  0.56713  0.44690  Biso   1.000  O
  O51      1.0000 0.96834  0.93638  0.19430  Biso   1.000  O
  O52      1.0000 0.96378  0.81633  0.44178  Biso   1.000  O
  O53      1.0000 0.76804  0.61968  0.25128  Biso   1.000  O
  O54      1.0000 0.77028  0.63350  0.50005  Biso   1.000  O
  O55      1.0000 0.73262  0.88430  0.49890  Biso   1.000  O
  O56      1.0000 0.73090  0.86912  0.24921  Biso   1.000  O
  Hf29     1.0000 0.63740  0.51695  0.62616  Biso   1.000  Hf
  Hf30     1.0000 0.63657  0.73472  0.87685  Biso   1.000  Hf
  Hf31     1.0000 0.86872  0.76822  0.62469  Biso   1.000  Hf
  Hf32     1.0000 0.86701  0.98449  0.87619  Biso   1.000  Hf
  O57      1.0000 0.53519  0.68266  0.69778  Biso   1.000  O
  O58      1.0000 0.53690  0.56709  0.94828  Biso   1.000  O
  O59      1.0000 0.96686  0.93250  0.69876  Biso   1.000  O
  O60      1.0000 0.96390  0.81606  0.94423  Biso   1.000  O
  O61      1.0000 0.77082  0.62084  0.74945  Biso   1.000  O
  O62      1.0000 0.76955  0.63248  0.00190  Biso   1.000  O
  O63      1.0000 0.73190  0.88225  0.00023  Biso   1.000  O
  O64      1.0000 0.73069  0.86878  0.74921  Biso   1.000  O
  B1       1.0000 0.11040  0.26005  0.14187  Biso   1.000  B
