data_image0
_cell_length_a       10.0988
_cell_length_b       5.15303
_cell_length_c       10.6105
_cell_angle_alpha    90.0581
_cell_angle_beta     90.7832
_cell_angle_gamma    89.8231

_symmetry_space_group_name_H-M    "P 1"
_symmetry_int_tables_number       1

loop_
  _symmetry_equiv_pos_as_xyz
  'x, y, z'

loop_
  _atom_site_label
  _atom_site_occupancy
  _atom_site_fract_x
  _atom_site_fract_y
  _atom_site_fract_z
  _atom_site_thermal_displace_type
  _atom_site_B_iso_or_equiv
  _atom_site_type_symbol
  Zr1      1.0000 0.13342  0.04058  0.17244  Biso   1.000  Zr
  Zr2      1.0000 0.13757  0.45276  0.42691  Biso   1.000  Zr
  Zr3      1.0000 0.34392  0.54795  0.18272  Biso   1.000  Zr
  Zr4      1.0000 0.35819  0.95355  0.42497  Biso   1.000  Zr
  Zr5      1.0000 0.65238  0.08187  0.06240  Biso   1.000  Zr
  Zr6      1.0000 0.63799  0.45214  0.34174  Biso   1.000  Zr
  Zr7      1.0000 0.85536  0.54120  0.07123  Biso   1.000  Zr
  Zr8      1.0000 0.86403  0.95862  0.33182  Biso   1.000  Zr
  O1       1.0000 0.03371  0.33369  0.08650  Biso   1.000  O
  O2       1.0000 0.02995  0.16346  0.33771  Biso   1.000  O
  O3       1.0000 0.49315  0.76405  0.07074  Biso   1.000  O
  O4       1.0000 0.46278  0.66860  0.33439  Biso   1.000  O
  O5       1.0000 0.27207  0.24625  0.29606  Biso   1.000  O
  O6       1.0000 0.27923  0.24693  0.05136  Biso   1.000  O
  O7       1.0000 0.21112  0.74606  0.30232  Biso   1.000  O
  O8       1.0000 0.22609  0.75615  0.04814  Biso   1.000  O
  O9       1.0000 0.53081  0.35386  0.16853  Biso   1.000  O
  O10      1.0000 0.52933  0.17180  0.41961  Biso   1.000  O
  O11      1.0000 0.95331  0.83600  0.16834  Biso   1.000  O
  O12      1.0000 0.96490  0.66021  0.41803  Biso   1.000  O
  O13      1.0000 0.77577  0.24420  0.45910  Biso   1.000  O
  O14      1.0000 0.77224  0.24348  0.20990  Biso   1.000  O
  O15      1.0000 0.72251  0.74883  0.45115  Biso   1.000  O
  O16      1.0000 0.69283  0.71947  0.18391  Biso   1.000  O
  Zr9      1.0000 0.14446  0.04053  0.67283  Biso   1.000  Zr
  Zr10     1.0000 0.14176  0.45268  0.92496  Biso   1.000  Zr
  Zr11     1.0000 0.36468  0.54020  0.67398  Biso   1.000  Zr
  Zr12     1.0000 0.36167  0.95452  0.92157  Biso   1.000  Zr
  Zr13     1.0000 0.63908  0.04107  0.58255  Biso   1.000  Zr
  Zr14     1.0000 0.64307  0.46853  0.83379  Biso   1.000  Zr
  Zr15     1.0000 0.86276  0.53904  0.57993  Biso   1.000  Zr
  Zr16     1.0000 0.87050  0.95789  0.82185  Biso   1.000  Zr
  O17      1.0000 0.03448  0.32651  0.58639  Biso   1.000  O
  O18      1.0000 0.04147  0.16691  0.83289  Biso   1.000  O
  O19      1.0000 0.46987  0.82266  0.58208  Biso   1.000  O
  O20      1.0000 0.47269  0.68203  0.82995  Biso   1.000  O
  O21      1.0000 0.28316  0.24355  0.79897  Biso   1.000  O
  O22      1.0000 0.27919  0.24973  0.54923  Biso   1.000  O
  O23      1.0000 0.22789  0.74326  0.79935  Biso   1.000  O
  O24      1.0000 0.22517  0.74809  0.54908  Biso   1.000  O
  O25      1.0000 0.53486  0.32550  0.67183  Biso   1.000  O
  O26      1.0000 0.53038  0.17323  0.91701  Biso   1.000  O
  O27      1.0000 0.97372  0.82636  0.66409  Biso   1.000  O
  O28      1.0000 0.97369  0.66900  0.91788  Biso   1.000  O
  O29      1.0000 0.79508  0.24789  0.94375  Biso   1.000  O
  O30      1.0000 0.77830  0.25268  0.70470  Biso   1.000  O
  O31      1.0000 0.73610  0.78018  0.94423  Biso   1.000  O
  O32      1.0000 0.72754  0.74916  0.70153  Biso   1.000  O
  B1       1.0000 0.59449  0.56745  0.10086  Biso   1.000  B
