data_image0
_cell_length_a       10.2469
_cell_length_b       10.2951
_cell_length_c       5.24665
_cell_angle_alpha    90.1503
_cell_angle_beta     80.2777
_cell_angle_gamma    90.179

_symmetry_space_group_name_H-M    "P 1"
_symmetry_int_tables_number       1

loop_
  _symmetry_equiv_pos_as_xyz
  'x, y, z'

loop_
  _atom_site_label
  _atom_site_occupancy
  _atom_site_fract_x
  _atom_site_fract_y
  _atom_site_fract_z
  _atom_site_thermal_displace_type
  _atom_site_B_iso_or_equiv
  _atom_site_type_symbol
  B1       1.0000 0.02152  0.05634  0.33415  Biso   1.000  B
  Zr1      1.0000 0.14152  0.52044  0.28947  Biso   1.000  Zr
  Zr2      1.0000 0.63902  0.02116  0.29643  Biso   1.000  Zr
  Zr3      1.0000 0.63779  0.52163  0.29458  Biso   1.000  Zr
  Zr4      1.0000 0.14576  0.22360  0.78437  Biso   1.000  Zr
  Zr5      1.0000 0.14547  0.73161  0.78695  Biso   1.000  Zr
  Zr6      1.0000 0.63808  0.22892  0.79131  Biso   1.000  Zr
  Zr7      1.0000 0.64003  0.72709  0.79686  Biso   1.000  Zr
  Zr8      1.0000 0.35846  0.26468  0.21069  Biso   1.000  Zr
  Zr9      1.0000 0.35881  0.77529  0.20893  Biso   1.000  Zr
  Zr10     1.0000 0.85815  0.27433  0.20845  Biso   1.000  Zr
  Zr11     1.0000 0.86598  0.76931  0.20900  Biso   1.000  Zr
  Zr12     1.0000 0.36068  0.47628  0.70800  Biso   1.000  Zr
  Zr13     1.0000 0.35824  0.97608  0.70869  Biso   1.000  Zr
  Zr14     1.0000 0.86659  0.47752  0.71032  Biso   1.000  Zr
  Zr15     1.0000 0.85700  0.97708  0.72405  Biso   1.000  Zr
  O1       1.0000 0.02849  0.14383  0.13694  Biso   1.000  O
  O2       1.0000 0.03690  0.67063  0.16390  Biso   1.000  O
  O3       1.0000 0.53719  0.16627  0.15946  Biso   1.000  O
  O4       1.0000 0.53478  0.66362  0.15595  Biso   1.000  O
  O5       1.0000 0.03147  0.09488  0.58409  Biso   1.000  O
  O6       1.0000 0.03630  0.58149  0.65797  Biso   1.000  O
  O7       1.0000 0.53903  0.08134  0.66048  Biso   1.000  O
  O8       1.0000 0.53387  0.58416  0.65754  Biso   1.000  O
  O9       1.0000 0.46734  0.41302  0.34553  Biso   1.000  O
  O10      1.0000 0.47398  0.91105  0.35117  Biso   1.000  O
  O11      1.0000 0.96949  0.41101  0.34630  Biso   1.000  O
  O12      1.0000 0.96402  0.93642  0.32819  Biso   1.000  O
  O13      1.0000 0.46894  0.33543  0.84669  Biso   1.000  O
  O14      1.0000 0.47717  0.83973  0.85222  Biso   1.000  O
  O15      1.0000 0.96883  0.32939  0.85030  Biso   1.000  O
  O16      1.0000 0.96899  0.83622  0.83776  Biso   1.000  O
  O17      1.0000 0.28921  0.13346  0.50088  Biso   1.000  O
  O18      1.0000 0.27759  0.62329  0.47731  Biso   1.000  O
  O19      1.0000 0.77790  0.12992  0.48080  Biso   1.000  O
  O20      1.0000 0.77763  0.62780  0.48327  Biso   1.000  O
  O21      1.0000 0.28500  0.12874  0.96597  Biso   1.000  O
  O22      1.0000 0.27657  0.61741  0.98018  Biso   1.000  O
  O23      1.0000 0.77623  0.12121  0.98087  Biso   1.000  O
  O24      1.0000 0.78010  0.62260  0.98586  Biso   1.000  O
  O25      1.0000 0.22266  0.37457  0.01524  Biso   1.000  O
  O26      1.0000 0.23572  0.86996  0.00034  Biso   1.000  O
  O27      1.0000 0.72741  0.37936  0.02075  Biso   1.000  O
  O28      1.0000 0.72773  0.87699  0.02805  Biso   1.000  O
  O29      1.0000 0.22292  0.36922  0.51637  Biso   1.000  O
  O30      1.0000 0.23501  0.86307  0.52058  Biso   1.000  O
  O31      1.0000 0.72631  0.37217  0.52028  Biso   1.000  O
  O32      1.0000 0.73371  0.87057  0.52603  Biso   1.000  O
