data_image0
_cell_length_a       10.1866
_cell_length_b       5.10101
_cell_length_c       10.4743
_cell_angle_alpha    90.0417
_cell_angle_beta     80.1082
_cell_angle_gamma    90.1244

_symmetry_space_group_name_H-M    "P 1"
_symmetry_int_tables_number       1

loop_
  _symmetry_equiv_pos_as_xyz
  'x, y, z'

loop_
  _atom_site_label
  _atom_site_occupancy
  _atom_site_fract_x
  _atom_site_fract_y
  _atom_site_fract_z
  _atom_site_thermal_displace_type
  _atom_site_B_iso_or_equiv
  _atom_site_type_symbol
  Be1      1.0000 0.04842  0.10113  0.16964  Biso   1.000  Be
  Hf1      1.0000 0.14081  0.03905  0.64476  Biso   1.000  Hf
  Hf2      1.0000 0.64043  0.04306  0.14634  Biso   1.000  Hf
  Hf3      1.0000 0.63972  0.03943  0.64795  Biso   1.000  Hf
  Hf4      1.0000 0.14166  0.44996  0.39049  Biso   1.000  Hf
  Hf5      1.0000 0.14341  0.45434  0.89831  Biso   1.000  Hf
  Hf6      1.0000 0.63831  0.45585  0.39663  Biso   1.000  Hf
  Hf7      1.0000 0.64167  0.45725  0.89763  Biso   1.000  Hf
  Hf8      1.0000 0.35531  0.53768  0.10470  Biso   1.000  Hf
  Hf9      1.0000 0.36038  0.54125  0.60292  Biso   1.000  Hf
  Hf10     1.0000 0.86502  0.54777  0.10469  Biso   1.000  Hf
  Hf11     1.0000 0.86336  0.53860  0.60381  Biso   1.000  Hf
  Hf12     1.0000 0.35791  0.95591  0.34915  Biso   1.000  Hf
  Hf13     1.0000 0.35941  0.95603  0.85671  Biso   1.000  Hf
  Hf14     1.0000 0.85861  0.95526  0.35718  Biso   1.000  Hf
  Hf15     1.0000 0.86378  0.95709  0.85472  Biso   1.000  Hf
  O1       1.0000 0.03538  0.32929  0.07795  Biso   1.000  O
  O2       1.0000 0.03284  0.32034  0.57267  Biso   1.000  O
  O3       1.0000 0.53576  0.33075  0.07828  Biso   1.000  O
  O4       1.0000 0.53370  0.32719  0.57887  Biso   1.000  O
  O5       1.0000 0.02849  0.18062  0.31659  Biso   1.000  O
  O6       1.0000 0.03493  0.16869  0.82556  Biso   1.000  O
  O7       1.0000 0.53592  0.16371  0.32869  Biso   1.000  O
  O8       1.0000 0.53680  0.16868  0.82834  Biso   1.000  O
  O9       1.0000 0.47150  0.82449  0.17124  Biso   1.000  O
  O10      1.0000 0.46826  0.82560  0.67380  Biso   1.000  O
  O11      1.0000 0.96310  0.85157  0.16901  Biso   1.000  O
  O12      1.0000 0.96827  0.82536  0.67259  Biso   1.000  O
  O13      1.0000 0.46811  0.66899  0.42308  Biso   1.000  O
  O14      1.0000 0.47549  0.67992  0.92367  Biso   1.000  O
  O15      1.0000 0.96796  0.67092  0.42085  Biso   1.000  O
  O16      1.0000 0.96886  0.66744  0.92281  Biso   1.000  O
  O17      1.0000 0.28543  0.25859  0.24583  Biso   1.000  O
  O18      1.0000 0.27693  0.25349  0.73822  Biso   1.000  O
  O19      1.0000 0.77657  0.26074  0.24097  Biso   1.000  O
  O20      1.0000 0.77855  0.25493  0.74036  Biso   1.000  O
  O21      1.0000 0.27595  0.24043  0.49067  Biso   1.000  O
  O22      1.0000 0.28870  0.25595  0.98017  Biso   1.000  O
  O23      1.0000 0.77527  0.24006  0.49146  Biso   1.000  O
  O24      1.0000 0.77885  0.24391  0.99076  Biso   1.000  O
  O25      1.0000 0.23381  0.74535  0.99994  Biso   1.000  O
  O26      1.0000 0.22406  0.75401  0.50848  Biso   1.000  O
  O27      1.0000 0.72784  0.75752  0.01080  Biso   1.000  O
  O28      1.0000 0.72492  0.75223  0.51208  Biso   1.000  O
  O29      1.0000 0.23221  0.72450  0.26148  Biso   1.000  O
  O30      1.0000 0.22484  0.74005  0.75660  Biso   1.000  O
  O31      1.0000 0.72535  0.74351  0.26211  Biso   1.000  O
  O32      1.0000 0.72711  0.74150  0.76042  Biso   1.000  O
