data_image0
_cell_length_a       10.1555
_cell_length_b       5.11672
_cell_length_c       10.5299
_cell_angle_alpha    89.9462
_cell_angle_beta     90.4988
_cell_angle_gamma    90.0862

_symmetry_space_group_name_H-M    "P 1"
_symmetry_int_tables_number       1

loop_
  _symmetry_equiv_pos_as_xyz
  'x, y, z'

loop_
  _atom_site_label
  _atom_site_occupancy
  _atom_site_fract_x
  _atom_site_fract_y
  _atom_site_fract_z
  _atom_site_thermal_displace_type
  _atom_site_B_iso_or_equiv
  _atom_site_type_symbol
  Be1      1.0000 0.04775  0.10114  0.17967  Biso   1.000  Be
  Zr1      1.0000 0.14051  0.03872  0.67157  Biso   1.000  Zr
  Zr2      1.0000 0.14119  0.45402  0.41728  Biso   1.000  Zr
  Zr3      1.0000 0.14476  0.45176  0.92575  Biso   1.000  Zr
  Zr4      1.0000 0.35410  0.53765  0.17259  Biso   1.000  Zr
  Zr5      1.0000 0.36068  0.54021  0.67236  Biso   1.000  Zr
  Zr6      1.0000 0.35714  0.95744  0.41849  Biso   1.000  Zr
  Zr7      1.0000 0.35984  0.95467  0.92621  Biso   1.000  Zr
  Zr8      1.0000 0.64172  0.04299  0.07822  Biso   1.000  Zr
  Zr9      1.0000 0.63874  0.03800  0.57871  Biso   1.000  Zr
  Zr10     1.0000 0.63871  0.45747  0.32696  Biso   1.000  Zr
  Zr11     1.0000 0.64122  0.45734  0.82868  Biso   1.000  Zr
  Zr12     1.0000 0.86670  0.54802  0.07950  Biso   1.000  Zr
  Zr13     1.0000 0.86307  0.53774  0.57845  Biso   1.000  Zr
  Zr14     1.0000 0.85888  0.95722  0.33163  Biso   1.000  Zr
  Zr15     1.0000 0.86402  0.95695  0.82927  Biso   1.000  Zr
  O1       1.0000 0.03414  0.32268  0.08285  Biso   1.000  O
  O2       1.0000 0.02984  0.31306  0.57605  Biso   1.000  O
  O3       1.0000 0.02623  0.18806  0.32052  Biso   1.000  O
  O4       1.0000 0.03177  0.17622  0.82892  Biso   1.000  O
  O5       1.0000 0.47737  0.81105  0.08015  Biso   1.000  O
  O6       1.0000 0.47083  0.81535  0.57853  Biso   1.000  O
  O7       1.0000 0.47587  0.68967  0.32683  Biso   1.000  O
  O8       1.0000 0.47374  0.68038  0.82861  Biso   1.000  O
  O9       1.0000 0.28261  0.25447  0.30385  Biso   1.000  O
  O10      1.0000 0.27577  0.24415  0.79459  Biso   1.000  O
  O11      1.0000 0.28841  0.25885  0.03840  Biso   1.000  O
  O12      1.0000 0.27480  0.24950  0.54710  Biso   1.000  O
  O13      1.0000 0.23096  0.73465  0.30123  Biso   1.000  O
  O14      1.0000 0.22688  0.74365  0.79463  Biso   1.000  O
  O15      1.0000 0.23646  0.73608  0.03958  Biso   1.000  O
  O16      1.0000 0.22472  0.74997  0.54659  Biso   1.000  O
  O17      1.0000 0.53053  0.31619  0.17094  Biso   1.000  O
  O18      1.0000 0.53072  0.31667  0.67078  Biso   1.000  O
  O19      1.0000 0.53101  0.17954  0.42056  Biso   1.000  O
  O20      1.0000 0.53377  0.17699  0.92029  Biso   1.000  O
  O21      1.0000 0.96665  0.84856  0.16479  Biso   1.000  O
  O22      1.0000 0.97065  0.81740  0.66992  Biso   1.000  O
  O23      1.0000 0.96924  0.67728  0.41787  Biso   1.000  O
  O24      1.0000 0.97280  0.67411  0.92024  Biso   1.000  O
  O25      1.0000 0.77849  0.24947  0.95451  Biso   1.000  O
  O26      1.0000 0.77473  0.24464  0.45467  Biso   1.000  O
  O27      1.0000 0.77602  0.25606  0.20437  Biso   1.000  O
  O28      1.0000 0.77585  0.24927  0.70417  Biso   1.000  O
  O29      1.0000 0.72905  0.74845  0.95516  Biso   1.000  O
  O30      1.0000 0.72556  0.74440  0.45659  Biso   1.000  O
  O31      1.0000 0.72810  0.75279  0.20633  Biso   1.000  O
  O32      1.0000 0.72743  0.74905  0.70506  Biso   1.000  O
