data_image0
_cell_length_a       10.1285
_cell_length_b       5.16575
_cell_length_c       10.1285
_cell_angle_alpha    89.5149
_cell_angle_beta     89.3928
_cell_angle_gamma    89.5134

_symmetry_space_group_name_H-M    "P 1"
_symmetry_int_tables_number       1

loop_
  _symmetry_equiv_pos_as_xyz
  'x, y, z'

loop_
  _atom_site_label
  _atom_site_occupancy
  _atom_site_fract_x
  _atom_site_fract_y
  _atom_site_fract_z
  _atom_site_thermal_displace_type
  _atom_site_B_iso_or_equiv
  _atom_site_type_symbol
  Zr1      1.0000 0.11942  0.00305  0.11941  Biso   1.000  Zr
  Zr2      1.0000 0.14901  0.52034  0.38785  Biso   1.000  Zr
  Zr3      1.0000 0.38785  0.52032  0.14901  Biso   1.000  Zr
  Zr4      1.0000 0.38693  0.96123  0.38693  Biso   1.000  Zr
  O1       1.0000 0.02429  0.34972  0.02428  Biso   1.000  O
  O2       1.0000 0.97575  0.17391  0.24148  Biso   1.000  O
  O3       1.0000 0.02903  0.66115  0.22215  Biso   1.000  O
  O4       1.0000 0.98995  0.82790  0.98989  Biso   1.000  O
  O5       1.0000 0.21513  0.33031  0.21514  Biso   1.000  O
  O6       1.0000 0.24150  0.17393  0.97576  Biso   1.000  O
  O7       1.0000 0.22216  0.66115  0.02903  Biso   1.000  O
  O8       1.0000 0.25627  0.82731  0.25628  Biso   1.000  O
  Zr5      1.0000 0.12414  0.01072  0.62512  Biso   1.000  Zr
  Zr6      1.0000 0.12976  0.49904  0.85886  Biso   1.000  Zr
  Zr7      1.0000 0.38327  0.48563  0.61291  Biso   1.000  Zr
  Zr8      1.0000 0.37961  0.99780  0.87181  Biso   1.000  Zr
  O9       1.0000 0.00994  0.29327  0.50773  Biso   1.000  O
  O10      1.0000 0.99924  0.22111  0.76346  Biso   1.000  O
  O11      1.0000 0.00252  0.71830  0.73347  Biso   1.000  O
  O12      1.0000 0.00714  0.79176  0.48358  Biso   1.000  O
  O13      1.0000 0.24572  0.28953  0.72914  Biso   1.000  O
  O14      1.0000 0.25515  0.21680  0.48555  Biso   1.000  O
  O15      1.0000 0.24864  0.73930  0.52531  Biso   1.000  O
  O16      1.0000 0.24488  0.79129  0.77050  Biso   1.000  O
  Zr9      1.0000 0.62513  0.01068  0.12413  Biso   1.000  Zr
  Zr10     1.0000 0.61291  0.48562  0.38327  Biso   1.000  Zr
  Zr11     1.0000 0.85886  0.49898  0.12978  Biso   1.000  Zr
  Zr12     1.0000 0.87180  0.99779  0.37961  Biso   1.000  Zr
  O17      1.0000 0.50774  0.29325  0.00994  Biso   1.000  O
  O18      1.0000 0.48554  0.21678  0.25515  Biso   1.000  O
  O19      1.0000 0.52530  0.73928  0.24864  Biso   1.000  O
  O20      1.0000 0.48360  0.79173  0.00713  Biso   1.000  O
  O21      1.0000 0.72913  0.28949  0.24573  Biso   1.000  O
  O22      1.0000 0.76346  0.22108  0.99925  Biso   1.000  O
  O23      1.0000 0.73349  0.71827  0.00252  Biso   1.000  O
  O24      1.0000 0.77049  0.79125  0.24488  Biso   1.000  O
  Zr13     1.0000 0.63020  0.99277  0.63020  Biso   1.000  Zr
  Zr14     1.0000 0.62123  0.49730  0.87550  Biso   1.000  Zr
  Zr15     1.0000 0.87549  0.49729  0.62123  Biso   1.000  Zr
  Zr16     1.0000 0.86750  0.99479  0.86749  Biso   1.000  Zr
  O25      1.0000 0.50973  0.24550  0.50973  Biso   1.000  O
  O26      1.0000 0.50163  0.21070  0.75515  Biso   1.000  O
  O27      1.0000 0.50172  0.70718  0.75124  Biso   1.000  O
  O28      1.0000 0.51118  0.76379  0.51119  Biso   1.000  O
  O29      1.0000 0.74626  0.28414  0.74626  Biso   1.000  O
  O30      1.0000 0.75514  0.21069  0.50163  Biso   1.000  O
  O31      1.0000 0.75124  0.70718  0.50172  Biso   1.000  O
  O32      1.0000 0.75240  0.77513  0.75240  Biso   1.000  O
  Be1      1.0000 0.12167  0.50135  0.12167  Biso   1.000  Be
