data_image0
_cell_length_a       10.1483
_cell_length_b       10.2722
_cell_length_c       5.24423
_cell_angle_alpha    89.9633
_cell_angle_beta     90.4299
_cell_angle_gamma    90.0699

_symmetry_space_group_name_H-M    "P 1"
_symmetry_int_tables_number       1

loop_
  _symmetry_equiv_pos_as_xyz
  'x, y, z'

loop_
  _atom_site_label
  _atom_site_occupancy
  _atom_site_fract_x
  _atom_site_fract_y
  _atom_site_fract_z
  _atom_site_thermal_displace_type
  _atom_site_B_iso_or_equiv
  _atom_site_type_symbol
  Be1      1.0000 0.04679  0.04830  0.35357  Biso   1.000  Be
  Zr1      1.0000 0.14149  0.51991  0.34481  Biso   1.000  Zr
  Zr2      1.0000 0.14187  0.22207  0.84190  Biso   1.000  Zr
  Zr3      1.0000 0.14421  0.73231  0.84266  Biso   1.000  Zr
  Zr4      1.0000 0.35692  0.26555  0.34517  Biso   1.000  Zr
  Zr5      1.0000 0.35751  0.77491  0.34350  Biso   1.000  Zr
  Zr6      1.0000 0.35927  0.47665  0.84653  Biso   1.000  Zr
  Zr7      1.0000 0.35767  0.97721  0.84343  Biso   1.000  Zr
  Zr8      1.0000 0.64086  0.02023  0.15715  Biso   1.000  Zr
  Zr9      1.0000 0.63913  0.52043  0.15878  Biso   1.000  Zr
  Zr10     1.0000 0.63974  0.22898  0.65611  Biso   1.000  Zr
  Zr11     1.0000 0.64016  0.72814  0.65698  Biso   1.000  Zr
  Zr12     1.0000 0.86309  0.27081  0.15632  Biso   1.000  Zr
  Zr13     1.0000 0.86538  0.77152  0.16060  Biso   1.000  Zr
  Zr14     1.0000 0.86328  0.47927  0.65931  Biso   1.000  Zr
  Zr15     1.0000 0.85950  0.97800  0.66326  Biso   1.000  Zr
  O1       1.0000 0.03289  0.15722  0.15621  Biso   1.000  O
  O2       1.0000 0.03426  0.66614  0.17240  Biso   1.000  O
  O3       1.0000 0.02867  0.09139  0.63779  Biso   1.000  O
  O4       1.0000 0.03368  0.58420  0.66947  Biso   1.000  O
  O5       1.0000 0.46971  0.40995  0.16568  Biso   1.000  O
  O6       1.0000 0.47528  0.90980  0.16254  Biso   1.000  O
  O7       1.0000 0.47147  0.33815  0.66419  Biso   1.000  O
  O8       1.0000 0.47576  0.84172  0.65796  Biso   1.000  O
  O9       1.0000 0.28443  0.12810  0.60517  Biso   1.000  O
  O10      1.0000 0.27740  0.62135  0.59180  Biso   1.000  O
  O11      1.0000 0.28929  0.13382  0.07119  Biso   1.000  O
  O12      1.0000 0.27576  0.62150  0.09389  Biso   1.000  O
  O13      1.0000 0.22465  0.37247  0.59399  Biso   1.000  O
  O14      1.0000 0.23169  0.86773  0.59603  Biso   1.000  O
  O15      1.0000 0.22303  0.37509  0.09341  Biso   1.000  O
  O16      1.0000 0.23648  0.86765  0.07855  Biso   1.000  O
  O17      1.0000 0.53309  0.16239  0.33496  Biso   1.000  O
  O18      1.0000 0.53154  0.66112  0.33773  Biso   1.000  O
  O19      1.0000 0.53570  0.08534  0.83422  Biso   1.000  O
  O20      1.0000 0.53073  0.58706  0.83774  Biso   1.000  O
  O21      1.0000 0.96968  0.41286  0.33573  Biso   1.000  O
  O22      1.0000 0.96397  0.92396  0.32399  Biso   1.000  O
  O23      1.0000 0.97035  0.33548  0.83711  Biso   1.000  O
  O24      1.0000 0.96883  0.83445  0.82931  Biso   1.000  O
  O25      1.0000 0.77751  0.12378  0.90899  Biso   1.000  O
  O26      1.0000 0.77610  0.62345  0.91149  Biso   1.000  O
  O27      1.0000 0.77614  0.12627  0.40934  Biso   1.000  O
  O28      1.0000 0.77684  0.62588  0.41033  Biso   1.000  O
  O29      1.0000 0.72700  0.37374  0.91030  Biso   1.000  O
  O30      1.0000 0.72688  0.87298  0.91419  Biso   1.000  O
  O31      1.0000 0.72702  0.37581  0.40918  Biso   1.000  O
  O32      1.0000 0.72733  0.87487  0.41500  Biso   1.000  O
