data_image0
_cell_length_a       10.1534
_cell_length_b       5.16047
_cell_length_c       10.4837
_cell_angle_alpha    90.024
_cell_angle_beta     80.609
_cell_angle_gamma    90.0192

_symmetry_space_group_name_H-M    "P 1"
_symmetry_int_tables_number       1

loop_
  _symmetry_equiv_pos_as_xyz
  'x, y, z'

loop_
  _atom_site_label
  _atom_site_occupancy
  _atom_site_fract_x
  _atom_site_fract_y
  _atom_site_fract_z
  _atom_site_thermal_displace_type
  _atom_site_B_iso_or_equiv
  _atom_site_type_symbol
  Bi1      1.0000 0.13325  0.03531  0.14578  Biso   1.000  Bi
  Hf1      1.0000 0.13835  0.45640  0.39861  Biso   1.000  Hf
  Hf2      1.0000 0.36492  0.53876  0.10293  Biso   1.000  Hf
  Hf3      1.0000 0.36200  0.95586  0.35482  Biso   1.000  Hf
  O1       1.0000 0.03693  0.36540  0.07795  Biso   1.000  O
  O2       1.0000 0.02996  0.16303  0.33844  Biso   1.000  O
  O3       1.0000 0.46407  0.83879  0.17012  Biso   1.000  O
  O4       1.0000 0.46386  0.66004  0.42100  Biso   1.000  O
  O5       1.0000 0.28089  0.26194  0.24463  Biso   1.000  O
  O6       1.0000 0.27596  0.24003  0.49109  Biso   1.000  O
  O7       1.0000 0.23326  0.74585  0.00093  Biso   1.000  O
  O8       1.0000 0.22850  0.72760  0.26172  Biso   1.000  O
  Hf4      1.0000 0.13914  0.04211  0.64568  Biso   1.000  Hf
  Hf5      1.0000 0.13993  0.45967  0.89193  Biso   1.000  Hf
  Hf6      1.0000 0.36142  0.54222  0.60372  Biso   1.000  Hf
  Hf7      1.0000 0.36450  0.95718  0.85166  Biso   1.000  Hf
  O9       1.0000 0.03665  0.34302  0.58341  Biso   1.000  O
  O10      1.0000 0.03772  0.15679  0.83132  Biso   1.000  O
  O11      1.0000 0.46583  0.83650  0.66951  Biso   1.000  O
  O12      1.0000 0.47042  0.66744  0.91978  Biso   1.000  O
  O13      1.0000 0.27673  0.25828  0.73801  Biso   1.000  O
  O14      1.0000 0.28238  0.24975  0.98220  Biso   1.000  O
  O15      1.0000 0.22369  0.75820  0.50981  Biso   1.000  O
  O16      1.0000 0.22487  0.74292  0.75708  Biso   1.000  O
  Hf8      1.0000 0.63850  0.03945  0.14612  Biso   1.000  Hf
  Hf9      1.0000 0.63678  0.45533  0.39683  Biso   1.000  Hf
  Hf10     1.0000 0.85565  0.53765  0.10326  Biso   1.000  Hf
  Hf11     1.0000 0.85492  0.95580  0.35870  Biso   1.000  Hf
  O17      1.0000 0.53848  0.33684  0.07900  Biso   1.000  O
  O18      1.0000 0.53593  0.15912  0.33045  Biso   1.000  O
  O19      1.0000 0.94453  0.84759  0.17143  Biso   1.000  O
  O20      1.0000 0.96349  0.66333  0.42044  Biso   1.000  O
  O21      1.0000 0.77393  0.25897  0.24170  Biso   1.000  O
  O22      1.0000 0.77478  0.24260  0.49197  Biso   1.000  O
  O23      1.0000 0.72324  0.75768  0.00919  Biso   1.000  O
  O24      1.0000 0.71808  0.73958  0.26197  Biso   1.000  O
  Hf12     1.0000 0.63920  0.04370  0.64643  Biso   1.000  Hf
  Hf13     1.0000 0.64037  0.45777  0.89458  Biso   1.000  Hf
  Hf14     1.0000 0.86202  0.54391  0.60475  Biso   1.000  Hf
  Hf15     1.0000 0.86247  0.95717  0.85390  Biso   1.000  Hf
  O25      1.0000 0.53495  0.33604  0.58015  Biso   1.000  O
  O26      1.0000 0.53761  0.16371  0.82839  Biso   1.000  O
  O27      1.0000 0.96398  0.84136  0.66941  Biso   1.000  O
  O28      1.0000 0.96353  0.66116  0.91889  Biso   1.000  O
  O29      1.0000 0.77772  0.25922  0.74012  Biso   1.000  O
  O30      1.0000 0.77681  0.23940  0.99005  Biso   1.000  O
  O31      1.0000 0.72250  0.75731  0.51094  Biso   1.000  O
  O32      1.0000 0.72530  0.74221  0.75920  Biso   1.000  O
