data_image0
_cell_length_a       10.1972
_cell_length_b       5.1651
_cell_length_c       10.6873
_cell_angle_alpha    88.0277
_cell_angle_beta     93.6428
_cell_angle_gamma    91.6179

_symmetry_space_group_name_H-M    "P 1"
_symmetry_int_tables_number       1

loop_
  _symmetry_equiv_pos_as_xyz
  'x, y, z'

loop_
  _atom_site_label
  _atom_site_occupancy
  _atom_site_fract_x
  _atom_site_fract_y
  _atom_site_fract_z
  _atom_site_thermal_displace_type
  _atom_site_B_iso_or_equiv
  _atom_site_type_symbol
  Hf1      1.0000 0.12592  0.04618  0.18012  Biso   1.000  Hf
  Hf2      1.0000 0.13222  0.45752  0.43082  Biso   1.000  Hf
  Hf3      1.0000 0.34006  0.56768  0.20239  Biso   1.000  Hf
  Hf4      1.0000 0.35890  0.96656  0.43455  Biso   1.000  Hf
  Hf5      1.0000 0.65261  0.00606  0.05875  Biso   1.000  Hf
  Hf6      1.0000 0.63049  0.47130  0.33408  Biso   1.000  Hf
  Hf7      1.0000 0.86219  0.52877  0.07636  Biso   1.000  Hf
  Hf8      1.0000 0.85480  0.96312  0.32341  Biso   1.000  Hf
  O1       1.0000 0.02776  0.33171  0.08496  Biso   1.000  O
  O2       1.0000 0.02242  0.18366  0.33226  Biso   1.000  O
  O3       1.0000 0.46528  0.91429  0.11297  Biso   1.000  O
  O4       1.0000 0.46119  0.68944  0.35099  Biso   1.000  O
  O5       1.0000 0.26151  0.26622  0.30815  Biso   1.000  O
  O6       1.0000 0.25452  0.24107  0.05942  Biso   1.000  O
  O7       1.0000 0.21434  0.76651  0.31430  Biso   1.000  O
  O8       1.0000 0.21413  0.75989  0.06554  Biso   1.000  O
  O9       1.0000 0.50299  0.36151  0.19955  Biso   1.000  O
  O10      1.0000 0.52936  0.17723  0.42224  Biso   1.000  O
  O11      1.0000 0.95818  0.82685  0.17038  Biso   1.000  O
  O12      1.0000 0.96841  0.67977  0.42028  Biso   1.000  O
  O13      1.0000 0.77617  0.25540  0.44582  Biso   1.000  O
  O14      1.0000 0.76432  0.23734  0.19168  Biso   1.000  O
  O15      1.0000 0.72864  0.75687  0.45248  Biso   1.000  O
  O16      1.0000 0.72311  0.73111  0.20268  Biso   1.000  O
  Hf9      1.0000 0.15087  0.03692  0.68169  Biso   1.000  Hf
  Hf10     1.0000 0.14348  0.47122  0.92875  Biso   1.000  Hf
  Hf11     1.0000 0.37516  0.52878  0.67107  Biso   1.000  Hf
  Hf12     1.0000 0.35308  0.99393  0.94635  Biso   1.000  Hf
  Hf13     1.0000 0.64675  0.03349  0.57057  Biso   1.000  Hf
  Hf14     1.0000 0.66560  0.43235  0.80272  Biso   1.000  Hf
  Hf15     1.0000 0.87344  0.54252  0.57430  Biso   1.000  Hf
  Hf16     1.0000 0.87975  0.95383  0.82499  Biso   1.000  Hf
  O17      1.0000 0.03725  0.32026  0.58483  Biso   1.000  O
  O18      1.0000 0.04749  0.17317  0.83473  Biso   1.000  O
  O19      1.0000 0.47629  0.82283  0.58289  Biso   1.000  O
  O20      1.0000 0.50267  0.63852  0.80560  Biso   1.000  O
  O21      1.0000 0.28256  0.26887  0.80244  Biso   1.000  O
  O22      1.0000 0.27702  0.24320  0.55264  Biso   1.000  O
  O23      1.0000 0.24136  0.76264  0.81340  Biso   1.000  O
  O24      1.0000 0.22948  0.74466  0.55929  Biso   1.000  O
  O25      1.0000 0.54447  0.31062  0.65413  Biso   1.000  O
  O26      1.0000 0.54041  0.08572  0.89213  Biso   1.000  O
  O27      1.0000 0.98325  0.81637  0.67285  Biso   1.000  O
  O28      1.0000 0.97792  0.66832  0.92014  Biso   1.000  O
  O29      1.0000 0.79155  0.24013  0.93956  Biso   1.000  O
  O30      1.0000 0.79131  0.23352  0.69080  Biso   1.000  O
  O31      1.0000 0.75116  0.75893  0.94569  Biso   1.000  O
  O32      1.0000 0.74415  0.73381  0.69696  Biso   1.000  O
  Bi1      1.0000 0.50285  0.49996  0.00257  Biso   1.000  Bi
