data_image0
_cell_length_a       10.1022
_cell_length_b       10.2687
_cell_length_c       5.05195
_cell_angle_alpha    89.9985
_cell_angle_beta     89.9996
_cell_angle_gamma    90.0043

_symmetry_space_group_name_H-M    "P 1"
_symmetry_int_tables_number       1

loop_
  _symmetry_equiv_pos_as_xyz
  'x, y, z'

loop_
  _atom_site_label
  _atom_site_occupancy
  _atom_site_fract_x
  _atom_site_fract_y
  _atom_site_fract_z
  _atom_site_thermal_displace_type
  _atom_site_B_iso_or_equiv
  _atom_site_type_symbol
  Bi1      1.0000 0.12544  0.00027  0.25323  Biso   1.000  Bi
  Zr1      1.0000 0.12544  0.50027  0.25323  Biso   1.000  Zr
  Zr2      1.0000 0.62543  0.00027  0.25323  Biso   1.000  Zr
  Zr3      1.0000 0.62544  0.50027  0.25323  Biso   1.000  Zr
  Zr4      1.0000 0.12544  0.25351  0.75320  Biso   1.000  Zr
  Zr5      1.0000 0.12544  0.74702  0.75321  Biso   1.000  Zr
  Zr6      1.0000 0.62544  0.24985  0.75319  Biso   1.000  Zr
  Zr7      1.0000 0.62545  0.75069  0.75319  Biso   1.000  Zr
  Zr8      1.0000 0.37686  0.25234  0.25240  Biso   1.000  Zr
  Zr9      1.0000 0.37686  0.74820  0.25400  Biso   1.000  Zr
  Zr10     1.0000 0.87402  0.25233  0.25399  Biso   1.000  Zr
  Zr11     1.0000 0.87403  0.74820  0.25239  Biso   1.000  Zr
  Zr12     1.0000 0.37818  0.00026  0.75323  Biso   1.000  Zr
  Zr13     1.0000 0.37553  0.50027  0.75323  Biso   1.000  Zr
  Zr14     1.0000 0.87269  0.00026  0.75324  Biso   1.000  Zr
  Zr15     1.0000 0.87535  0.50026  0.75322  Biso   1.000  Zr
  O1       1.0000 0.99860  0.14999  0.00186  Biso   1.000  O
  O2       1.0000 0.00166  0.64477  0.00944  Biso   1.000  O
  O3       1.0000 0.50407  0.14797  0.00953  Biso   1.000  O
  O4       1.0000 0.50193  0.64662  0.00291  Biso   1.000  O
  O5       1.0000 0.99433  0.11074  0.51540  Biso   1.000  O
  O6       1.0000 0.00021  0.60308  0.50761  Biso   1.000  O
  O7       1.0000 0.50056  0.10317  0.50632  Biso   1.000  O
  O8       1.0000 0.49930  0.60312  0.50232  Biso   1.000  O
  O9       1.0000 0.00166  0.35576  0.49698  Biso   1.000  O
  O10      1.0000 0.99860  0.85053  0.50459  Biso   1.000  O
  O11      1.0000 0.50194  0.35392  0.50354  Biso   1.000  O
  O12      1.0000 0.50406  0.85257  0.49692  Biso   1.000  O
  O13      1.0000 0.00021  0.39745  0.99880  Biso   1.000  O
  O14      1.0000 0.99433  0.88979  0.99104  Biso   1.000  O
  O15      1.0000 0.49930  0.39742  0.00413  Biso   1.000  O
  O16      1.0000 0.50056  0.89737  0.00012  Biso   1.000  O
  O17      1.0000 0.25228  0.15000  0.50461  Biso   1.000  O
  O18      1.0000 0.24920  0.64477  0.49696  Biso   1.000  O
  O19      1.0000 0.74682  0.14797  0.49693  Biso   1.000  O
  O20      1.0000 0.74893  0.64662  0.50349  Biso   1.000  O
  O21      1.0000 0.25656  0.11074  0.99107  Biso   1.000  O
  O22      1.0000 0.25065  0.60308  0.99879  Biso   1.000  O
  O23      1.0000 0.75033  0.10317  0.00013  Biso   1.000  O
  O24      1.0000 0.75157  0.60312  0.00408  Biso   1.000  O
  O25      1.0000 0.24920  0.35576  0.00946  Biso   1.000  O
  O26      1.0000 0.25229  0.85054  0.00185  Biso   1.000  O
  O27      1.0000 0.74893  0.35392  0.00293  Biso   1.000  O
  O28      1.0000 0.74682  0.85257  0.00949  Biso   1.000  O
  O29      1.0000 0.25066  0.39745  0.50763  Biso   1.000  O
  O30      1.0000 0.25656  0.88979  0.51539  Biso   1.000  O
  O31      1.0000 0.75156  0.39742  0.50233  Biso   1.000  O
  O32      1.0000 0.75032  0.89737  0.50629  Biso   1.000  O
