data_image0
_cell_length_a       5.03736
_cell_length_b       10.4697
_cell_length_c       10.1128
_cell_angle_alpha    90.051
_cell_angle_beta     90.0522
_cell_angle_gamma    89.9198

_symmetry_space_group_name_H-M    "P 1"
_symmetry_int_tables_number       1

loop_
  _symmetry_equiv_pos_as_xyz
  'x, y, z'

loop_
  _atom_site_label
  _atom_site_occupancy
  _atom_site_fract_x
  _atom_site_fract_y
  _atom_site_fract_z
  _atom_site_thermal_displace_type
  _atom_site_B_iso_or_equiv
  _atom_site_type_symbol
  Bi1      1.0000 0.25764  0.01436  0.12176  Biso   1.000  Bi
  Zr1      1.0000 0.26619  0.01585  0.62532  Biso   1.000  Zr
  Zr2      1.0000 0.26641  0.51536  0.12577  Biso   1.000  Zr
  Zr3      1.0000 0.26696  0.51553  0.62507  Biso   1.000  Zr
  Zr4      1.0000 0.26861  0.23518  0.37728  Biso   1.000  Zr
  Zr5      1.0000 0.26901  0.23759  0.87174  Biso   1.000  Zr
  Zr6      1.0000 0.26663  0.73337  0.37720  Biso   1.000  Zr
  Zr7      1.0000 0.26716  0.73249  0.87444  Biso   1.000  Zr
  Zr8      1.0000 0.72750  0.26841  0.12554  Biso   1.000  Zr
  Zr9      1.0000 0.73396  0.26599  0.62433  Biso   1.000  Zr
  Zr10     1.0000 0.73311  0.76069  0.12503  Biso   1.000  Zr
  Zr11     1.0000 0.73219  0.76496  0.62476  Biso   1.000  Zr
  Zr12     1.0000 0.73208  0.48433  0.37556  Biso   1.000  Zr
  Zr13     1.0000 0.73398  0.48410  0.87532  Biso   1.000  Zr
  Zr14     1.0000 0.72969  0.98422  0.37871  Biso   1.000  Zr
  Zr15     1.0000 0.73093  0.98291  0.87123  Biso   1.000  Zr
  O1       1.0000 0.06568  0.19051  0.19807  Biso   1.000  O
  O2       1.0000 0.07370  0.18546  0.69093  Biso   1.000  O
  O3       1.0000 0.07261  0.68338  0.19631  Biso   1.000  O
  O4       1.0000 0.06891  0.68259  0.69541  Biso   1.000  O
  O5       1.0000 0.07115  0.06618  0.44371  Biso   1.000  O
  O6       1.0000 0.07026  0.06904  0.92981  Biso   1.000  O
  O7       1.0000 0.06914  0.56583  0.44600  Biso   1.000  O
  O8       1.0000 0.06699  0.56817  0.94663  Biso   1.000  O
  O9       1.0000 0.92766  0.43500  0.19520  Biso   1.000  O
  O10      1.0000 0.93335  0.43294  0.69653  Biso   1.000  O
  O11      1.0000 0.90509  0.93040  0.19742  Biso   1.000  O
  O12      1.0000 0.92763  0.93306  0.69256  Biso   1.000  O
  O13      1.0000 0.92931  0.31749  0.44569  Biso   1.000  O
  O14      1.0000 0.93352  0.31837  0.94562  Biso   1.000  O
  O15      1.0000 0.93150  0.81635  0.44742  Biso   1.000  O
  O16      1.0000 0.93818  0.81891  0.94726  Biso   1.000  O
  O17      1.0000 0.54802  0.12305  0.25411  Biso   1.000  O
  O18      1.0000 0.53973  0.11691  0.74671  Biso   1.000  O
  O19      1.0000 0.53805  0.61441  0.24869  Biso   1.000  O
  O20      1.0000 0.53828  0.61584  0.74825  Biso   1.000  O
  O21      1.0000 0.53725  0.13339  0.50036  Biso   1.000  O
  O22      1.0000 0.54729  0.13644  0.99376  Biso   1.000  O
  O23      1.0000 0.53813  0.63304  0.49885  Biso   1.000  O
  O24      1.0000 0.53731  0.63109  0.99795  Biso   1.000  O
  O25      1.0000 0.46210  0.38362  0.49898  Biso   1.000  O
  O26      1.0000 0.46151  0.38435  0.99804  Biso   1.000  O
  O27      1.0000 0.46048  0.88320  0.50021  Biso   1.000  O
  O28      1.0000 0.47262  0.87662  0.99438  Biso   1.000  O
  O29      1.0000 0.45845  0.36843  0.24934  Biso   1.000  O
  O30      1.0000 0.46509  0.36733  0.74768  Biso   1.000  O
  O31      1.0000 0.47005  0.85939  0.25355  Biso   1.000  O
  O32      1.0000 0.46046  0.86590  0.74756  Biso   1.000  O
