data_image0
_cell_length_a       10.1437
_cell_length_b       10.4365
_cell_length_c       5.22706
_cell_angle_alpha    89.761
_cell_angle_beta     81.3007
_cell_angle_gamma    90.4118

_symmetry_space_group_name_H-M    "P 1"
_symmetry_int_tables_number       1

loop_
  _symmetry_equiv_pos_as_xyz
  'x, y, z'

loop_
  _atom_site_label
  _atom_site_occupancy
  _atom_site_fract_x
  _atom_site_fract_y
  _atom_site_fract_z
  _atom_site_thermal_displace_type
  _atom_site_B_iso_or_equiv
  _atom_site_type_symbol
  Zr1      1.0000 0.12303  0.01320  0.30910  Biso   1.000  Zr
  Zr2      1.0000 0.14409  0.23469  0.78386  Biso   1.000  Zr
  Zr3      1.0000 0.36689  0.27204  0.26709  Biso   1.000  Zr
  Zr4      1.0000 0.34940  0.48020  0.71323  Biso   1.000  Zr
  O1       1.0000 0.05075  0.17082  0.15404  Biso   1.000  O
  O2       1.0000 0.03172  0.07719  0.67388  Biso   1.000  O
  O3       1.0000 0.45603  0.43318  0.34395  Biso   1.000  O
  O4       1.0000 0.46710  0.34267  0.87767  Biso   1.000  O
  O5       1.0000 0.26609  0.12101  0.46694  Biso   1.000  O
  O6       1.0000 0.33098  0.16070  0.90492  Biso   1.000  O
  O7       1.0000 0.22279  0.38155  0.02684  Biso   1.000  O
  O8       1.0000 0.20366  0.38074  0.51712  Biso   1.000  O
  Zr5      1.0000 0.13466  0.52257  0.28590  Biso   1.000  Zr
  Zr6      1.0000 0.13281  0.73049  0.78745  Biso   1.000  Zr
  Zr7      1.0000 0.35890  0.77068  0.20748  Biso   1.000  Zr
  Zr8      1.0000 0.37093  0.97700  0.69749  Biso   1.000  Zr
  O9       1.0000 0.03512  0.67871  0.16835  Biso   1.000  O
  O10      1.0000 0.03094  0.58133  0.66642  Biso   1.000  O
  O11      1.0000 0.46139  0.92368  0.32905  Biso   1.000  O
  O12      1.0000 0.45505  0.81792  0.82867  Biso   1.000  O
  O13      1.0000 0.27169  0.63022  0.48204  Biso   1.000  O
  O14      1.0000 0.26896  0.62566  0.98262  Biso   1.000  O
  O15      1.0000 0.22825  0.90049  0.01356  Biso   1.000  O
  O16      1.0000 0.22273  0.86765  0.51649  Biso   1.000  O
  Zr9      1.0000 0.64273  0.01653  0.28640  Biso   1.000  Zr
  Zr10     1.0000 0.63457  0.22265  0.78400  Biso   1.000  Zr
  Zr11     1.0000 0.86372  0.26925  0.20444  Biso   1.000  Zr
  Zr12     1.0000 0.85766  0.47523  0.71147  Biso   1.000  Zr
  O17      1.0000 0.54020  0.17048  0.17349  Biso   1.000  O
  O18      1.0000 0.56022  0.04644  0.67974  Biso   1.000  O
  O19      1.0000 0.95693  0.42315  0.33311  Biso   1.000  O
  O20      1.0000 0.96389  0.32746  0.83443  Biso   1.000  O
  O21      1.0000 0.78057  0.12813  0.47395  Biso   1.000  O
  O22      1.0000 0.77591  0.11890  0.97934  Biso   1.000  O
  O23      1.0000 0.72411  0.37604  0.02005  Biso   1.000  O
  O24      1.0000 0.71951  0.36587  0.51808  Biso   1.000  O
  Zr13     1.0000 0.63737  0.51892  0.29322  Biso   1.000  Zr
  Zr14     1.0000 0.63355  0.72413  0.78911  Biso   1.000  Zr
  Zr15     1.0000 0.85514  0.76540  0.20930  Biso   1.000  Zr
  Zr16     1.0000 0.85356  0.97748  0.71467  Biso   1.000  Zr
  O25      1.0000 0.53525  0.67416  0.17260  Biso   1.000  O
  O26      1.0000 0.53434  0.57404  0.67110  Biso   1.000  O
  O27      1.0000 0.95257  0.91986  0.34140  Biso   1.000  O
  O28      1.0000 0.95897  0.82925  0.83818  Biso   1.000  O
  O29      1.0000 0.77320  0.62372  0.48294  Biso   1.000  O
  O30      1.0000 0.77203  0.61754  0.98267  Biso   1.000  O
  O31      1.0000 0.72040  0.87615  0.01676  Biso   1.000  O
  O32      1.0000 0.72246  0.86107  0.51366  Biso   1.000  O
  C1       1.0000 0.40852  0.25387  0.72170  Biso   1.000  C
