data_image0
_cell_length_a       10.2172
_cell_length_b       10.3117
_cell_length_c       10.5305
_cell_angle_alpha    90.0963
_cell_angle_beta     80.2908
_cell_angle_gamma    89.9077

_symmetry_space_group_name_H-M    "P 1"
_symmetry_int_tables_number       1

loop_
  _symmetry_equiv_pos_as_xyz
  'x, y, z'

loop_
  _atom_site_label
  _atom_site_occupancy
  _atom_site_fract_x
  _atom_site_fract_y
  _atom_site_fract_z
  _atom_site_thermal_displace_type
  _atom_site_B_iso_or_equiv
  _atom_site_type_symbol
  C1       1.0000 0.01766  0.06083  0.17534  Biso   1.000  C
  Zr1      1.0000 0.13999  0.01929  0.64378  Biso   1.000  Zr
  Zr2      1.0000 0.13984  0.52113  0.14427  Biso   1.000  Zr
  Zr3      1.0000 0.14069  0.52251  0.64639  Biso   1.000  Zr
  Zr4      1.0000 0.63863  0.02243  0.14516  Biso   1.000  Zr
  Zr5      1.0000 0.63625  0.02038  0.64992  Biso   1.000  Zr
  Zr6      1.0000 0.63258  0.52267  0.14564  Biso   1.000  Zr
  Zr7      1.0000 0.64057  0.51998  0.64659  Biso   1.000  Zr
  Zr8      1.0000 0.14815  0.23061  0.39362  Biso   1.000  Zr
  Zr9      1.0000 0.14738  0.22640  0.89263  Biso   1.000  Zr
  Zr10     1.0000 0.14284  0.72840  0.39263  Biso   1.000  Zr
  Zr11     1.0000 0.14409  0.73351  0.89613  Biso   1.000  Zr
  Zr12     1.0000 0.63703  0.22837  0.39579  Biso   1.000  Zr
  Zr13     1.0000 0.63808  0.22888  0.89473  Biso   1.000  Zr
  Zr14     1.0000 0.63714  0.72551  0.39629  Biso   1.000  Zr
  Zr15     1.0000 0.63786  0.72969  0.89656  Biso   1.000  Zr
  Zr16     1.0000 0.35586  0.26335  0.10593  Biso   1.000  Zr
  Zr17     1.0000 0.36334  0.27016  0.60478  Biso   1.000  Zr
  Zr18     1.0000 0.35654  0.77759  0.10459  Biso   1.000  Zr
  Zr19     1.0000 0.36331  0.77207  0.60371  Biso   1.000  Zr
  Zr20     1.0000 0.85176  0.27716  0.10573  Biso   1.000  Zr
  Zr21     1.0000 0.86428  0.26909  0.60223  Biso   1.000  Zr
  Zr22     1.0000 0.86054  0.76524  0.09914  Biso   1.000  Zr
  Zr23     1.0000 0.86270  0.76878  0.60648  Biso   1.000  Zr
  Zr24     1.0000 0.36037  0.47754  0.35198  Biso   1.000  Zr
  Zr25     1.0000 0.36325  0.47782  0.85618  Biso   1.000  Zr
  Zr26     1.0000 0.35918  0.97879  0.35089  Biso   1.000  Zr
  Zr27     1.0000 0.35795  0.97870  0.85924  Biso   1.000  Zr
  Zr28     1.0000 0.86322  0.47763  0.35413  Biso   1.000  Zr
  Zr29     1.0000 0.86696  0.47579  0.85445  Biso   1.000  Zr
  Zr30     1.0000 0.84959  0.97455  0.36594  Biso   1.000  Zr
  Zr31     1.0000 0.86317  0.97933  0.85398  Biso   1.000  Zr
  O1       1.0000 0.03179  0.14673  0.08770  Biso   1.000  O
  O2       1.0000 0.02914  0.15034  0.55901  Biso   1.000  O
  O3       1.0000 0.03587  0.67425  0.08307  Biso   1.000  O
  O4       1.0000 0.03417  0.66407  0.57772  Biso   1.000  O
  O5       1.0000 0.53719  0.16816  0.07924  Biso   1.000  O
  O6       1.0000 0.53582  0.16732  0.57974  Biso   1.000  O
  O7       1.0000 0.53370  0.66750  0.07761  Biso   1.000  O
  O8       1.0000 0.53575  0.66430  0.57749  Biso   1.000  O
  O9       1.0000 0.03030  0.09115  0.29239  Biso   1.000  O
  O10      1.0000 0.03385  0.08773  0.82415  Biso   1.000  O
  O11      1.0000 0.03285  0.58470  0.32708  Biso   1.000  O
  O12      1.0000 0.03683  0.58083  0.82945  Biso   1.000  O
  O13      1.0000 0.54081  0.07858  0.33051  Biso   1.000  O
  O14      1.0000 0.53589  0.08354  0.82934  Biso   1.000  O
  O15      1.0000 0.53251  0.58210  0.32845  Biso   1.000  O
  O16      1.0000 0.53549  0.58456  0.82736  Biso   1.000  O
  O17      1.0000 0.46408  0.41417  0.17203  Biso   1.000  O
  O18      1.0000 0.46764  0.41638  0.67191  Biso   1.000  O
  O19      1.0000 0.47104  0.91618  0.17238  Biso   1.000  O
  O20      1.0000 0.46648  0.91479  0.67522  Biso   1.000  O
  O21      1.0000 0.96565  0.41372  0.17170  Biso   1.000  O
  O22      1.0000 0.97264  0.40769  0.67493  Biso   1.000  O
  O23      1.0000 0.96986  0.94818  0.16281  Biso   1.000  O
  O24      1.0000 0.96693  0.91315  0.67301  Biso   1.000  O
  O25      1.0000 0.46534  0.33204  0.42197  Biso   1.000  O
  O26      1.0000 0.46907  0.33639  0.92292  Biso   1.000  O
  O27      1.0000 0.46951  0.83386  0.42342  Biso   1.000  O
  O28      1.0000 0.47423  0.84024  0.92464  Biso   1.000  O
  O29      1.0000 0.96814  0.33131  0.41966  Biso   1.000  O
  O30      1.0000 0.96874  0.32958  0.93056  Biso   1.000  O
  O31      1.0000 0.96820  0.83945  0.41973  Biso   1.000  O
  O32      1.0000 0.96649  0.83271  0.92190  Biso   1.000  O
  O33      1.0000 0.28731  0.13813  0.25426  Biso   1.000  O
  O34      1.0000 0.27553  0.12701  0.73746  Biso   1.000  O
  O35      1.0000 0.27561  0.62453  0.23849  Biso   1.000  O
  O36      1.0000 0.27733  0.62872  0.73980  Biso   1.000  O
  O37      1.0000 0.77863  0.12989  0.24110  Biso   1.000  O
  O38      1.0000 0.77717  0.12787  0.73928  Biso   1.000  O
  O39      1.0000 0.77376  0.62695  0.23939  Biso   1.000  O
  O40      1.0000 0.77884  0.62650  0.74107  Biso   1.000  O
  O41      1.0000 0.27592  0.12040  0.49463  Biso   1.000  O
  O42      1.0000 0.28534  0.13236  0.97867  Biso   1.000  O
  O43      1.0000 0.27634  0.61999  0.48964  Biso   1.000  O
  O44      1.0000 0.27567  0.61807  0.99084  Biso   1.000  O
  O45      1.0000 0.77404  0.11862  0.49139  Biso   1.000  O
  O46      1.0000 0.77764  0.12347  0.99033  Biso   1.000  O
  O47      1.0000 0.77693  0.62032  0.49023  Biso   1.000  O
  O48      1.0000 0.77907  0.62321  0.99173  Biso   1.000  O
  O49      1.0000 0.22198  0.37676  0.00986  Biso   1.000  O
  O50      1.0000 0.22373  0.37590  0.50794  Biso   1.000  O
  O51      1.0000 0.23342  0.87021  0.99866  Biso   1.000  O
  O52      1.0000 0.22565  0.87740  0.50987  Biso   1.000  O
  O53      1.0000 0.72498  0.38156  0.00953  Biso   1.000  O
  O54      1.0000 0.72759  0.37640  0.51020  Biso   1.000  O
  O55      1.0000 0.72749  0.87995  0.01072  Biso   1.000  O
  O56      1.0000 0.72278  0.87557  0.51260  Biso   1.000  O
  O57      1.0000 0.22035  0.37410  0.25799  Biso   1.000  O
  O58      1.0000 0.22734  0.36900  0.75952  Biso   1.000  O
  O59      1.0000 0.23472  0.86250  0.26540  Biso   1.000  O
  O60      1.0000 0.22415  0.87203  0.75638  Biso   1.000  O
  O61      1.0000 0.72210  0.37186  0.25990  Biso   1.000  O
  O62      1.0000 0.72847  0.37087  0.75967  Biso   1.000  O
  O63      1.0000 0.73656  0.86941  0.25920  Biso   1.000  O
  O64      1.0000 0.72679  0.87055  0.76035  Biso   1.000  O
