data_image0
_cell_length_a       10.1378
_cell_length_b       10.3557
_cell_length_c       5.33815
_cell_angle_alpha    90.0279
_cell_angle_beta     91.2143
_cell_angle_gamma    90.4386

_symmetry_space_group_name_H-M    "P 1"
_symmetry_int_tables_number       1

loop_
  _symmetry_equiv_pos_as_xyz
  'x, y, z'

loop_
  _atom_site_label
  _atom_site_occupancy
  _atom_site_fract_x
  _atom_site_fract_y
  _atom_site_fract_z
  _atom_site_thermal_displace_type
  _atom_site_B_iso_or_equiv
  _atom_site_type_symbol
  Zr1      1.0000 0.14064  0.02060  0.35219  Biso   1.000  Zr
  Zr2      1.0000 0.14114  0.22756  0.85853  Biso   1.000  Zr
  Zr3      1.0000 0.35115  0.27381  0.38440  Biso   1.000  Zr
  Zr4      1.0000 0.35869  0.48485  0.85776  Biso   1.000  Zr
  Zr5      1.0000 0.64415  0.00655  0.15423  Biso   1.000  Zr
  Zr6      1.0000 0.65480  0.22036  0.60264  Biso   1.000  Zr
  Zr7      1.0000 0.86864  0.27193  0.14517  Biso   1.000  Zr
  Zr8      1.0000 0.86109  0.47750  0.65472  Biso   1.000  Zr
  O1       1.0000 0.03524  0.16020  0.16595  Biso   1.000  O
  O2       1.0000 0.03357  0.08773  0.66642  Biso   1.000  O
  O3       1.0000 0.46050  0.42766  0.18886  Biso   1.000  O
  O4       1.0000 0.47120  0.33436  0.67997  Biso   1.000  O
  O5       1.0000 0.27374  0.12471  0.60820  Biso   1.000  O
  O6       1.0000 0.28116  0.12790  0.10388  Biso   1.000  O
  O7       1.0000 0.22071  0.37693  0.61616  Biso   1.000  O
  O8       1.0000 0.22263  0.37625  0.11141  Biso   1.000  O
  O9       1.0000 0.52257  0.14542  0.35309  Biso   1.000  O
  O10      1.0000 0.53347  0.08163  0.84088  Biso   1.000  O
  O11      1.0000 0.96863  0.41211  0.34727  Biso   1.000  O
  O12      1.0000 0.97229  0.33668  0.84295  Biso   1.000  O
  O13      1.0000 0.77054  0.12800  0.90020  Biso   1.000  O
  O14      1.0000 0.79040  0.11724  0.38951  Biso   1.000  O
  O15      1.0000 0.72616  0.37756  0.89292  Biso   1.000  O
  O16      1.0000 0.71976  0.37359  0.37986  Biso   1.000  O
  Zr9      1.0000 0.13862  0.52152  0.35219  Biso   1.000  Zr
  Zr10     1.0000 0.13874  0.72931  0.84855  Biso   1.000  Zr
  Zr11     1.0000 0.36132  0.77184  0.35367  Biso   1.000  Zr
  Zr12     1.0000 0.36348  0.97698  0.85408  Biso   1.000  Zr
  Zr13     1.0000 0.64285  0.53456  0.15408  Biso   1.000  Zr
  Zr14     1.0000 0.64071  0.72994  0.65638  Biso   1.000  Zr
  Zr15     1.0000 0.86749  0.77003  0.16108  Biso   1.000  Zr
  Zr16     1.0000 0.86531  0.97919  0.66064  Biso   1.000  Zr
  O17      1.0000 0.03360  0.66107  0.16590  Biso   1.000  O
  O18      1.0000 0.03208  0.58688  0.66895  Biso   1.000  O
  O19      1.0000 0.47219  0.90463  0.15994  Biso   1.000  O
  O20      1.0000 0.47136  0.83832  0.66484  Biso   1.000  O
  O21      1.0000 0.27478  0.62644  0.59757  Biso   1.000  O
  O22      1.0000 0.27472  0.62730  0.09626  Biso   1.000  O
  O23      1.0000 0.22685  0.87457  0.60102  Biso   1.000  O
  O24      1.0000 0.22567  0.87690  0.10235  Biso   1.000  O
  O25      1.0000 0.53283  0.66629  0.34363  Biso   1.000  O
  O26      1.0000 0.53076  0.59023  0.84134  Biso   1.000  O
  O27      1.0000 0.97333  0.91008  0.34784  Biso   1.000  O
  O28      1.0000 0.97196  0.83852  0.84691  Biso   1.000  O
  O29      1.0000 0.77800  0.62809  0.90399  Biso   1.000  O
  O30      1.0000 0.77977  0.62598  0.41053  Biso   1.000  O
  O31      1.0000 0.72952  0.87367  0.91133  Biso   1.000  O
  O32      1.0000 0.73132  0.87047  0.41325  Biso   1.000  O
  Ca1      1.0000 0.55857  0.26627  0.03701  Biso   1.000  Ca
