data_image0
_cell_length_a       10.1302
_cell_length_b       5.1864
_cell_length_c       10.6717
_cell_angle_alpha    90.0248
_cell_angle_beta     91.3756
_cell_angle_gamma    90.3458

_symmetry_space_group_name_H-M    "P 1"
_symmetry_int_tables_number       1

loop_
  _symmetry_equiv_pos_as_xyz
  'x, y, z'

loop_
  _atom_site_label
  _atom_site_occupancy
  _atom_site_fract_x
  _atom_site_fract_y
  _atom_site_fract_z
  _atom_site_thermal_displace_type
  _atom_site_B_iso_or_equiv
  _atom_site_type_symbol
  Zr1      1.0000 0.13775  0.04409  0.17521  Biso   1.000  Zr
  Zr2      1.0000 0.13851  0.45113  0.42766  Biso   1.000  Zr
  Zr3      1.0000 0.34986  0.54854  0.19124  Biso   1.000  Zr
  Zr4      1.0000 0.36129  0.95482  0.43034  Biso   1.000  Zr
  Zr5      1.0000 0.64664  0.04648  0.08208  Biso   1.000  Zr
  Zr6      1.0000 0.63920  0.45126  0.33084  Biso   1.000  Zr
  Zr7      1.0000 0.86645  0.54014  0.07797  Biso   1.000  Zr
  Zr8      1.0000 0.86099  0.95439  0.32660  Biso   1.000  Zr
  O1       1.0000 0.03385  0.31950  0.08125  Biso   1.000  O
  O2       1.0000 0.03053  0.17391  0.33329  Biso   1.000  O
  O3       1.0000 0.45834  0.84921  0.09480  Biso   1.000  O
  O4       1.0000 0.46822  0.67113  0.33989  Biso   1.000  O
  O5       1.0000 0.27180  0.24916  0.30290  Biso   1.000  O
  O6       1.0000 0.27943  0.26370  0.04815  Biso   1.000  O
  O7       1.0000 0.21992  0.75257  0.30683  Biso   1.000  O
  O8       1.0000 0.22046  0.75732  0.05333  Biso   1.000  O
  O9       1.0000 0.52450  0.31386  0.18181  Biso   1.000  O
  O10      1.0000 0.53008  0.17156  0.42205  Biso   1.000  O
  O11      1.0000 0.96805  0.82661  0.17230  Biso   1.000  O
  O12      1.0000 0.97194  0.67631  0.42244  Biso   1.000  O
  O13      1.0000 0.77637  0.24704  0.45140  Biso   1.000  O
  O14      1.0000 0.78284  0.24885  0.20541  Biso   1.000  O
  O15      1.0000 0.72700  0.74735  0.45241  Biso   1.000  O
  O16      1.0000 0.72139  0.73576  0.20108  Biso   1.000  O
  Zr9      1.0000 0.14115  0.04045  0.67650  Biso   1.000  Zr
  Zr10     1.0000 0.14125  0.46248  0.92497  Biso   1.000  Zr
  Zr11     1.0000 0.36323  0.54289  0.67771  Biso   1.000  Zr
  Zr12     1.0000 0.36040  0.96771  0.92736  Biso   1.000  Zr
  Zr13     1.0000 0.64302  0.03567  0.57216  Biso   1.000  Zr
  Zr14     1.0000 0.65480  0.45160  0.79816  Biso   1.000  Zr
  Zr15     1.0000 0.86882  0.54451  0.57506  Biso   1.000  Zr
  Zr16     1.0000 0.86603  0.96022  0.83125  Biso   1.000  Zr
  O17      1.0000 0.03396  0.31953  0.58233  Biso   1.000  O
  O18      1.0000 0.03491  0.17684  0.83324  Biso   1.000  O
  O19      1.0000 0.47413  0.81655  0.58347  Biso   1.000  O
  O20      1.0000 0.47537  0.66741  0.83390  Biso   1.000  O
  O21      1.0000 0.27666  0.25286  0.79898  Biso   1.000  O
  O22      1.0000 0.27683  0.24709  0.55086  Biso   1.000  O
  O23      1.0000 0.22800  0.74958  0.80242  Biso   1.000  O
  O24      1.0000 0.22722  0.74776  0.55408  Biso   1.000  O
  O25      1.0000 0.53127  0.31366  0.66368  Biso   1.000  O
  O26      1.0000 0.53234  0.16542  0.91972  Biso   1.000  O
  O27      1.0000 0.97471  0.81735  0.67534  Biso   1.000  O
  O28      1.0000 0.97142  0.67469  0.92220  Biso   1.000  O
  O29      1.0000 0.76963  0.26654  0.94813  Biso   1.000  O
  O30      1.0000 0.78761  0.23877  0.69369  Biso   1.000  O
  O31      1.0000 0.72906  0.75979  0.95281  Biso   1.000  O
  O32      1.0000 0.73320  0.75224  0.69921  Biso   1.000  O
  Ca1      1.0000 0.55827  0.53404  0.01678  Biso   1.000  Ca
