data_image0
_cell_length_a       10.0578
_cell_length_b       10.2677
_cell_length_c       10.5125
_cell_angle_alpha    89.8533
_cell_angle_beta     90.7995
_cell_angle_gamma    90.0358

_symmetry_space_group_name_H-M    "P 1"
_symmetry_int_tables_number       1

loop_
  _symmetry_equiv_pos_as_xyz
  'x, y, z'

loop_
  _atom_site_label
  _atom_site_occupancy
  _atom_site_fract_x
  _atom_site_fract_y
  _atom_site_fract_z
  _atom_site_thermal_displace_type
  _atom_site_B_iso_or_equiv
  _atom_site_type_symbol
  Hf1      1.0000 0.13622  0.02076  0.17215  Biso   1.000  Hf
  Hf2      1.0000 0.13464  0.22732  0.42754  Biso   1.000  Hf
  Hf3      1.0000 0.34350  0.26891  0.18836  Biso   1.000  Hf
  Hf4      1.0000 0.36165  0.48022  0.42448  Biso   1.000  Hf
  Hf5      1.0000 0.64122  0.01993  0.07098  Biso   1.000  Hf
  Hf6      1.0000 0.63575  0.22463  0.33371  Biso   1.000  Hf
  Hf7      1.0000 0.85826  0.26923  0.07322  Biso   1.000  Hf
  Hf8      1.0000 0.86029  0.47756  0.32792  Biso   1.000  Hf
  O1       1.0000 0.03451  0.16629  0.08404  Biso   1.000  O
  O2       1.0000 0.02984  0.08519  0.33405  Biso   1.000  O
  O3       1.0000 0.45747  0.43023  0.09778  Biso   1.000  O
  O4       1.0000 0.46410  0.33522  0.33688  Biso   1.000  O
  O5       1.0000 0.26688  0.12481  0.30239  Biso   1.000  O
  O6       1.0000 0.27877  0.12580  0.04787  Biso   1.000  O
  O7       1.0000 0.21696  0.37500  0.30174  Biso   1.000  O
  O8       1.0000 0.22244  0.37626  0.04931  Biso   1.000  O
  O9       1.0000 0.50853  0.14057  0.19666  Biso   1.000  O
  O10      1.0000 0.53006  0.08738  0.42824  Biso   1.000  O
  O11      1.0000 0.96328  0.41430  0.16712  Biso   1.000  O
  O12      1.0000 0.96575  0.33508  0.41845  Biso   1.000  O
  O13      1.0000 0.77519  0.12319  0.45462  Biso   1.000  O
  O14      1.0000 0.77194  0.12773  0.20614  Biso   1.000  O
  O15      1.0000 0.72314  0.37341  0.45500  Biso   1.000  O
  O16      1.0000 0.71780  0.38005  0.20624  Biso   1.000  O
  Hf9      1.0000 0.14154  0.02004  0.67300  Biso   1.000  Hf
  Hf10     1.0000 0.13994  0.22781  0.92265  Biso   1.000  Hf
  Hf11     1.0000 0.36410  0.27092  0.67505  Biso   1.000  Hf
  Hf12     1.0000 0.35941  0.48226  0.92336  Biso   1.000  Hf
  Hf13     1.0000 0.64032  0.01897  0.58035  Biso   1.000  Hf
  Hf14     1.0000 0.64986  0.22504  0.81875  Biso   1.000  Hf
  Hf15     1.0000 0.86220  0.27150  0.57803  Biso   1.000  Hf
  Hf16     1.0000 0.86845  0.48255  0.82571  Biso   1.000  Hf
  O17      1.0000 0.03254  0.16378  0.58518  Biso   1.000  O
  O18      1.0000 0.03967  0.08108  0.83306  Biso   1.000  O
  O19      1.0000 0.46906  0.41529  0.58464  Biso   1.000  O
  O20      1.0000 0.47174  0.33622  0.83618  Biso   1.000  O
  O21      1.0000 0.27994  0.12433  0.79650  Biso   1.000  O
  O22      1.0000 0.27641  0.12505  0.54855  Biso   1.000  O
  O23      1.0000 0.22711  0.37390  0.79797  Biso   1.000  O
  O24      1.0000 0.22570  0.37505  0.54870  Biso   1.000  O
  O25      1.0000 0.53541  0.16535  0.66628  Biso   1.000  O
  O26      1.0000 0.53953  0.06510  0.89879  Biso   1.000  O
  O27      1.0000 0.97074  0.41452  0.66592  Biso   1.000  O
  O28      1.0000 0.97215  0.33341  0.91395  Biso   1.000  O
  O29      1.0000 0.79513  0.11749  0.94473  Biso   1.000  O
  O30      1.0000 0.78235  0.12220  0.69941  Biso   1.000  O
  O31      1.0000 0.74255  0.39350  0.95027  Biso   1.000  O
  O32      1.0000 0.72818  0.37488  0.70249  Biso   1.000  O
  Hf17     1.0000 0.13487  0.52167  0.17151  Biso   1.000  Hf
  Hf18     1.0000 0.13796  0.72851  0.42094  Biso   1.000  Hf
  Hf19     1.0000 0.36102  0.77374  0.17302  Biso   1.000  Hf
  Hf20     1.0000 0.36151  0.97791  0.42554  Biso   1.000  Hf
  Hf21     1.0000 0.64422  0.53372  0.07944  Biso   1.000  Hf
  Hf22     1.0000 0.63951  0.73156  0.32918  Biso   1.000  Hf
  Hf23     1.0000 0.86318  0.77371  0.07877  Biso   1.000  Hf
  Hf24     1.0000 0.85995  0.97989  0.32833  Biso   1.000  Hf
  O33      1.0000 0.03365  0.66578  0.08313  Biso   1.000  O
  O34      1.0000 0.03178  0.58439  0.33263  Biso   1.000  O
  O35      1.0000 0.46886  0.91292  0.08071  Biso   1.000  O
  O36      1.0000 0.46825  0.83764  0.33419  Biso   1.000  O
  O37      1.0000 0.27502  0.62412  0.29478  Biso   1.000  O
  O38      1.0000 0.27612  0.62704  0.04519  Biso   1.000  O
  O39      1.0000 0.22428  0.87460  0.29652  Biso   1.000  O
  O40      1.0000 0.22318  0.87654  0.04747  Biso   1.000  O
  O41      1.0000 0.53477  0.67059  0.16732  Biso   1.000  O
  O42      1.0000 0.53225  0.58684  0.41702  Biso   1.000  O
  O43      1.0000 0.96647  0.91757  0.16715  Biso   1.000  O
  O44      1.0000 0.96634  0.83347  0.41531  Biso   1.000  O
  O45      1.0000 0.77644  0.62345  0.45368  Biso   1.000  O
  O46      1.0000 0.77866  0.62953  0.20490  Biso   1.000  O
  O47      1.0000 0.72444  0.87462  0.45593  Biso   1.000  O
  O48      1.0000 0.72539  0.87651  0.20518  Biso   1.000  O
  Hf25     1.0000 0.14145  0.52014  0.67144  Biso   1.000  Hf
  Hf26     1.0000 0.14138  0.73053  0.92248  Biso   1.000  Hf
  Hf27     1.0000 0.36287  0.76891  0.67238  Biso   1.000  Hf
  Hf28     1.0000 0.36386  0.97685  0.92087  Biso   1.000  Hf
  Hf29     1.0000 0.64017  0.52111  0.57733  Biso   1.000  Hf
  Hf30     1.0000 0.63978  0.72893  0.82727  Biso   1.000  Hf
  Hf31     1.0000 0.86375  0.77011  0.57769  Biso   1.000  Hf
  Hf32     1.0000 0.86667  0.97557  0.82688  Biso   1.000  Hf
  O49      1.0000 0.03455  0.66361  0.58207  Biso   1.000  O
  O50      1.0000 0.03843  0.58633  0.83303  Biso   1.000  O
  O51      1.0000 0.46872  0.91229  0.58545  Biso   1.000  O
  O52      1.0000 0.46563  0.82715  0.83467  Biso   1.000  O
  O53      1.0000 0.27858  0.62301  0.79544  Biso   1.000  O
  O54      1.0000 0.27634  0.62507  0.54537  Biso   1.000  O
  O55      1.0000 0.22586  0.87263  0.79546  Biso   1.000  O
  O56      1.0000 0.22515  0.87480  0.54548  Biso   1.000  O
  O57      1.0000 0.53403  0.66297  0.66683  Biso   1.000  O
  O58      1.0000 0.53384  0.58422  0.91884  Biso   1.000  O
  O59      1.0000 0.97120  0.91253  0.66475  Biso   1.000  O
  O60      1.0000 0.97063  0.83470  0.91856  Biso   1.000  O
  O61      1.0000 0.77776  0.63187  0.95393  Biso   1.000  O
  O62      1.0000 0.77796  0.62541  0.70328  Biso   1.000  O
  O63      1.0000 0.72686  0.87429  0.95503  Biso   1.000  O
  O64      1.0000 0.72663  0.87309  0.70528  Biso   1.000  O
  Cd1      1.0000 0.56640  0.26853  0.04322  Biso   1.000  Cd
