data_image0
_cell_length_a       10.055
_cell_length_b       5.26647
_cell_length_c       10.0997
_cell_angle_alpha    89.1815
_cell_angle_beta     88.6117
_cell_angle_gamma    89.9759

_symmetry_space_group_name_H-M    "P 1"
_symmetry_int_tables_number       1

loop_
  _symmetry_equiv_pos_as_xyz
  'x, y, z'

loop_
  _atom_site_label
  _atom_site_occupancy
  _atom_site_fract_x
  _atom_site_fract_y
  _atom_site_fract_z
  _atom_site_thermal_displace_type
  _atom_site_B_iso_or_equiv
  _atom_site_type_symbol
  Hf1      1.0000 0.12912  0.12256  0.11408  Biso   1.000  Hf
  Hf2      1.0000 0.13699  0.44981  0.39611  Biso   1.000  Hf
  Hf3      1.0000 0.37797  0.53639  0.12235  Biso   1.000  Hf
  Hf4      1.0000 0.36578  0.95706  0.37874  Biso   1.000  Hf
  O1       1.0000 0.99477  0.31931  0.24887  Biso   1.000  O
  O2       1.0000 0.04399  0.10917  0.45718  Biso   1.000  O
  O3       1.0000 0.47224  0.85575  0.20765  Biso   1.000  O
  O4       1.0000 0.46981  0.63418  0.45521  Biso   1.000  O
  O5       1.0000 0.26587  0.22257  0.24856  Biso   1.000  O
  O6       1.0000 0.27766  0.25373  0.50344  Biso   1.000  O
  O7       1.0000 0.23362  0.75186  0.51285  Biso   1.000  O
  O8       1.0000 0.24424  0.69341  0.27094  Biso   1.000  O
  Hf5      1.0000 0.13607  0.01286  0.63006  Biso   1.000  Hf
  Hf6      1.0000 0.12088  0.44306  0.85205  Biso   1.000  Hf
  Hf7      1.0000 0.37037  0.52952  0.63202  Biso   1.000  Hf
  Hf8      1.0000 0.37504  0.98479  0.87438  Biso   1.000  Hf
  O9       1.0000 0.03506  0.36141  0.67676  Biso   1.000  O
  O10      1.0000 0.03674  0.10822  0.92946  Biso   1.000  O
  O11      1.0000 0.46725  0.86102  0.69342  Biso   1.000  O
  O12      1.0000 0.47387  0.64468  0.94424  Biso   1.000  O
  O13      1.0000 0.26563  0.22183  0.74487  Biso   1.000  O
  O14      1.0000 0.28042  0.30454  0.98028  Biso   1.000  O
  O15      1.0000 0.26660  0.85362  0.03221  Biso   1.000  O
  O16      1.0000 0.23441  0.72686  0.76580  Biso   1.000  O
  Hf9      1.0000 0.63211  0.02247  0.12743  Biso   1.000  Hf
  Hf10     1.0000 0.63236  0.46671  0.37516  Biso   1.000  Hf
  Hf11     1.0000 0.84791  0.51328  0.12201  Biso   1.000  Hf
  Hf12     1.0000 0.88178  0.98496  0.36474  Biso   1.000  Hf
  O17      1.0000 0.53552  0.36407  0.19745  Biso   1.000  O
  O18      1.0000 0.53458  0.13292  0.44584  Biso   1.000  O
  O19      1.0000 0.96270  0.87441  0.17701  Biso   1.000  O
  O20      1.0000 0.97068  0.64452  0.44637  Biso   1.000  O
  O21      1.0000 0.75711  0.21954  0.24667  Biso   1.000  O
  O22      1.0000 0.77132  0.27840  0.49300  Biso   1.000  O
  O23      1.0000 0.73743  0.78007  0.49501  Biso   1.000  O
  O24      1.0000 0.73451  0.72467  0.24945  Biso   1.000  O
  Hf13     1.0000 0.63515  0.03053  0.61895  Biso   1.000  Hf
  Hf14     1.0000 0.63624  0.46121  0.87326  Biso   1.000  Hf
  Hf15     1.0000 0.86278  0.54082  0.61800  Biso   1.000  Hf
  Hf16     1.0000 0.86002  0.95409  0.86891  Biso   1.000  Hf
  O25      1.0000 0.53215  0.35349  0.70313  Biso   1.000  O
  O26      1.0000 0.53733  0.13864  0.95257  Biso   1.000  O
  O27      1.0000 0.96447  0.85793  0.69456  Biso   1.000  O
  O28      1.0000 0.94182  0.61007  0.91806  Biso   1.000  O
  O29      1.0000 0.76903  0.22968  0.74367  Biso   1.000  O
  O30      1.0000 0.76944  0.25219  0.99737  Biso   1.000  O
  O31      1.0000 0.72447  0.75506  0.00079  Biso   1.000  O
  O32      1.0000 0.72513  0.73453  0.74500  Biso   1.000  O
  Cd1      1.0000 0.10483  0.61983  0.10077  Biso   1.000  Cd
