data_image0
_cell_length_a       10.1351
_cell_length_b       10.2842
_cell_length_c       10.4544
_cell_angle_alpha    90.032
_cell_angle_beta     80.3294
_cell_angle_gamma    90.0368

_symmetry_space_group_name_H-M    "P 1"
_symmetry_int_tables_number       1

loop_
  _symmetry_equiv_pos_as_xyz
  'x, y, z'

loop_
  _atom_site_label
  _atom_site_occupancy
  _atom_site_fract_x
  _atom_site_fract_y
  _atom_site_fract_z
  _atom_site_thermal_displace_type
  _atom_site_B_iso_or_equiv
  _atom_site_type_symbol
  Cd1      1.0000 0.13258  0.01400  0.14785  Biso   1.000  Cd
  Hf1      1.0000 0.13939  0.02081  0.64493  Biso   1.000  Hf
  Hf2      1.0000 0.13933  0.52117  0.14451  Biso   1.000  Hf
  Hf3      1.0000 0.13995  0.52132  0.64629  Biso   1.000  Hf
  Hf4      1.0000 0.63989  0.02149  0.14617  Biso   1.000  Hf
  Hf5      1.0000 0.63874  0.02176  0.64669  Biso   1.000  Hf
  Hf6      1.0000 0.63783  0.51938  0.14583  Biso   1.000  Hf
  Hf7      1.0000 0.63898  0.52117  0.64568  Biso   1.000  Hf
  Hf8      1.0000 0.14026  0.22873  0.39461  Biso   1.000  Hf
  Hf9      1.0000 0.13966  0.22785  0.89676  Biso   1.000  Hf
  Hf10     1.0000 0.13947  0.72699  0.39551  Biso   1.000  Hf
  Hf11     1.0000 0.14077  0.73034  0.89546  Biso   1.000  Hf
  Hf12     1.0000 0.63816  0.22918  0.39601  Biso   1.000  Hf
  Hf13     1.0000 0.63929  0.22927  0.89643  Biso   1.000  Hf
  Hf14     1.0000 0.63793  0.72791  0.39601  Biso   1.000  Hf
  Hf15     1.0000 0.63913  0.72891  0.89533  Biso   1.000  Hf
  Hf16     1.0000 0.35809  0.26750  0.10339  Biso   1.000  Hf
  Hf17     1.0000 0.36025  0.27092  0.60412  Biso   1.000  Hf
  Hf18     1.0000 0.36161  0.77153  0.10452  Biso   1.000  Hf
  Hf19     1.0000 0.36097  0.77222  0.60393  Biso   1.000  Hf
  Hf20     1.0000 0.86170  0.27068  0.10371  Biso   1.000  Hf
  Hf21     1.0000 0.86021  0.27186  0.60379  Biso   1.000  Hf
  Hf22     1.0000 0.85960  0.76834  0.10267  Biso   1.000  Hf
  Hf23     1.0000 0.86153  0.77083  0.60382  Biso   1.000  Hf
  Hf24     1.0000 0.36006  0.47772  0.35286  Biso   1.000  Hf
  Hf25     1.0000 0.36124  0.47839  0.85431  Biso   1.000  Hf
  Hf26     1.0000 0.35917  0.97880  0.35278  Biso   1.000  Hf
  Hf27     1.0000 0.36075  0.98066  0.85470  Biso   1.000  Hf
  Hf28     1.0000 0.86106  0.47871  0.35375  Biso   1.000  Hf
  Hf29     1.0000 0.86155  0.47867  0.85379  Biso   1.000  Hf
  Hf30     1.0000 0.85913  0.97895  0.35788  Biso   1.000  Hf
  Hf31     1.0000 0.86100  0.97891  0.85433  Biso   1.000  Hf
  O1       1.0000 0.03750  0.18151  0.07937  Biso   1.000  O
  O2       1.0000 0.03546  0.17072  0.58165  Biso   1.000  O
  O3       1.0000 0.03683  0.67210  0.08082  Biso   1.000  O
  O4       1.0000 0.03577  0.66883  0.58165  Biso   1.000  O
  O5       1.0000 0.53620  0.16865  0.07977  Biso   1.000  O
  O6       1.0000 0.53430  0.16843  0.58029  Biso   1.000  O
  O7       1.0000 0.53589  0.66724  0.07889  Biso   1.000  O
  O8       1.0000 0.53495  0.66798  0.57965  Biso   1.000  O
  O9       1.0000 0.03115  0.07923  0.34818  Biso   1.000  O
  O10      1.0000 0.03546  0.08075  0.82969  Biso   1.000  O
  O11      1.0000 0.03582  0.58020  0.32977  Biso   1.000  O
  O12      1.0000 0.03619  0.58070  0.83059  Biso   1.000  O
  O13      1.0000 0.53561  0.08111  0.33015  Biso   1.000  O
  O14      1.0000 0.53739  0.08146  0.82955  Biso   1.000  O
  O15      1.0000 0.53414  0.58124  0.32945  Biso   1.000  O
  O16      1.0000 0.53524  0.58230  0.82893  Biso   1.000  O
  O17      1.0000 0.46451  0.41612  0.17045  Biso   1.000  O
  O18      1.0000 0.46496  0.41821  0.67002  Biso   1.000  O
  O19      1.0000 0.46733  0.91776  0.17011  Biso   1.000  O
  O20      1.0000 0.46535  0.91818  0.67045  Biso   1.000  O
  O21      1.0000 0.96186  0.42318  0.16801  Biso   1.000  O
  O22      1.0000 0.96508  0.41905  0.66931  Biso   1.000  O
  O23      1.0000 0.94615  0.92294  0.17162  Biso   1.000  O
  O24      1.0000 0.96394  0.91957  0.66912  Biso   1.000  O
  O25      1.0000 0.46411  0.33141  0.42044  Biso   1.000  O
  O26      1.0000 0.46711  0.33379  0.92030  Biso   1.000  O
  O27      1.0000 0.46546  0.83221  0.42103  Biso   1.000  O
  O28      1.0000 0.46788  0.83346  0.92013  Biso   1.000  O
  O29      1.0000 0.96401  0.33171  0.41957  Biso   1.000  O
  O30      1.0000 0.96382  0.33131  0.91756  Biso   1.000  O
  O31      1.0000 0.96369  0.82833  0.41902  Biso   1.000  O
  O32      1.0000 0.96457  0.83060  0.91908  Biso   1.000  O
  O33      1.0000 0.28129  0.13103  0.24536  Biso   1.000  O
  O34      1.0000 0.27583  0.12807  0.73807  Biso   1.000  O
  O35      1.0000 0.27721  0.62493  0.23907  Biso   1.000  O
  O36      1.0000 0.27694  0.62972  0.74032  Biso   1.000  O
  O37      1.0000 0.77568  0.13019  0.24230  Biso   1.000  O
  O38      1.0000 0.77740  0.12956  0.74079  Biso   1.000  O
  O39      1.0000 0.77511  0.62874  0.24034  Biso   1.000  O
  O40      1.0000 0.77657  0.62902  0.73993  Biso   1.000  O
  O41      1.0000 0.27603  0.12108  0.49128  Biso   1.000  O
  O42      1.0000 0.28597  0.12845  0.98077  Biso   1.000  O
  O43      1.0000 0.27665  0.62051  0.49036  Biso   1.000  O
  O44      1.0000 0.27674  0.62081  0.98991  Biso   1.000  O
  O45      1.0000 0.77407  0.12203  0.49243  Biso   1.000  O
  O46      1.0000 0.77685  0.12086  0.99079  Biso   1.000  O
  O47      1.0000 0.77598  0.62074  0.49038  Biso   1.000  O
  O48      1.0000 0.77621  0.62036  0.98989  Biso   1.000  O
  O49      1.0000 0.22457  0.38090  0.00833  Biso   1.000  O
  O50      1.0000 0.22312  0.37901  0.50896  Biso   1.000  O
  O51      1.0000 0.23098  0.87448  0.00334  Biso   1.000  O
  O52      1.0000 0.22360  0.87876  0.50996  Biso   1.000  O
  O53      1.0000 0.72366  0.37941  0.00887  Biso   1.000  O
  O54      1.0000 0.72305  0.37926  0.50953  Biso   1.000  O
  O55      1.0000 0.72375  0.87852  0.00905  Biso   1.000  O
  O56      1.0000 0.72334  0.87885  0.51027  Biso   1.000  O
  O57      1.0000 0.22194  0.37077  0.25795  Biso   1.000  O
  O58      1.0000 0.22433  0.37115  0.75906  Biso   1.000  O
  O59      1.0000 0.23125  0.86159  0.26283  Biso   1.000  O
  O60      1.0000 0.22335  0.87179  0.75788  Biso   1.000  O
  O61      1.0000 0.72285  0.37146  0.26016  Biso   1.000  O
  O62      1.0000 0.72402  0.37135  0.75881  Biso   1.000  O
  O63      1.0000 0.72032  0.87039  0.26074  Biso   1.000  O
  O64      1.0000 0.72435  0.87099  0.75923  Biso   1.000  O
