data_image0
_cell_length_a       10.2093
_cell_length_b       5.22121
_cell_length_c       10.6579
_cell_angle_alpha    90.008
_cell_angle_beta     92.2482
_cell_angle_gamma    89.5555

_symmetry_space_group_name_H-M    "P 1"
_symmetry_int_tables_number       1

loop_
  _symmetry_equiv_pos_as_xyz
  'x, y, z'

loop_
  _atom_site_label
  _atom_site_occupancy
  _atom_site_fract_x
  _atom_site_fract_y
  _atom_site_fract_z
  _atom_site_thermal_displace_type
  _atom_site_B_iso_or_equiv
  _atom_site_type_symbol
  Zr1      1.0000 0.13561  0.04166  0.17583  Biso   1.000  Zr
  Zr2      1.0000 0.13652  0.45211  0.42776  Biso   1.000  Zr
  Zr3      1.0000 0.34203  0.53714  0.19152  Biso   1.000  Zr
  Zr4      1.0000 0.36209  0.95078  0.43225  Biso   1.000  Zr
  Zr5      1.0000 0.63990  0.03393  0.07826  Biso   1.000  Zr
  Zr6      1.0000 0.63640  0.45204  0.33366  Biso   1.000  Zr
  Zr7      1.0000 0.87546  0.54908  0.07260  Biso   1.000  Zr
  Zr8      1.0000 0.85926  0.96066  0.32438  Biso   1.000  Zr
  O1       1.0000 0.03397  0.31486  0.07757  Biso   1.000  O
  O2       1.0000 0.02609  0.18282  0.33038  Biso   1.000  O
  O3       1.0000 0.45391  0.83745  0.10048  Biso   1.000  O
  O4       1.0000 0.46492  0.66857  0.34009  Biso   1.000  O
  O5       1.0000 0.26705  0.24560  0.30470  Biso   1.000  O
  O6       1.0000 0.27312  0.24676  0.05088  Biso   1.000  O
  O7       1.0000 0.21815  0.75011  0.30818  Biso   1.000  O
  O8       1.0000 0.21706  0.74778  0.05481  Biso   1.000  O
  O9       1.0000 0.50961  0.29645  0.18871  Biso   1.000  O
  O10      1.0000 0.52854  0.16989  0.42374  Biso   1.000  O
  O11      1.0000 0.96761  0.83327  0.17234  Biso   1.000  O
  O12      1.0000 0.97021  0.68091  0.42069  Biso   1.000  O
  O13      1.0000 0.77568  0.24776  0.44921  Biso   1.000  O
  O14      1.0000 0.76573  0.25937  0.19954  Biso   1.000  O
  O15      1.0000 0.72688  0.75043  0.45182  Biso   1.000  O
  O16      1.0000 0.72493  0.74050  0.20442  Biso   1.000  O
  Zr9      1.0000 0.14261  0.04006  0.67512  Biso   1.000  Zr
  Zr10     1.0000 0.14382  0.45959  0.92323  Biso   1.000  Zr
  Zr11     1.0000 0.36496  0.53850  0.67961  Biso   1.000  Zr
  Zr12     1.0000 0.35750  0.95994  0.93027  Biso   1.000  Zr
  Zr13     1.0000 0.64372  0.03808  0.57161  Biso   1.000  Zr
  Zr14     1.0000 0.65691  0.46438  0.79339  Biso   1.000  Zr
  Zr15     1.0000 0.86995  0.54900  0.57382  Biso   1.000  Zr
  Zr16     1.0000 0.86952  0.97270  0.82727  Biso   1.000  Zr
  O17      1.0000 0.03502  0.32272  0.58106  Biso   1.000  O
  O18      1.0000 0.03883  0.17770  0.83087  Biso   1.000  O
  O19      1.0000 0.47632  0.81364  0.58620  Biso   1.000  O
  O20      1.0000 0.47798  0.66305  0.84004  Biso   1.000  O
  O21      1.0000 0.27804  0.25008  0.79957  Biso   1.000  O
  O22      1.0000 0.27623  0.24542  0.55160  Biso   1.000  O
  O23      1.0000 0.23053  0.74740  0.80265  Biso   1.000  O
  O24      1.0000 0.22974  0.74610  0.55436  Biso   1.000  O
  O25      1.0000 0.53017  0.30788  0.66569  Biso   1.000  O
  O26      1.0000 0.52477  0.16416  0.92384  Biso   1.000  O
  O27      1.0000 0.97702  0.82275  0.67102  Biso   1.000  O
  O28      1.0000 0.97640  0.67695  0.91773  Biso   1.000  O
  O29      1.0000 0.76981  0.27613  0.94329  Biso   1.000  O
  O30      1.0000 0.79001  0.24264  0.68939  Biso   1.000  O
  O31      1.0000 0.74104  0.78231  0.94672  Biso   1.000  O
  O32      1.0000 0.73837  0.75894  0.69733  Biso   1.000  O
  Ce1      1.0000 0.58874  0.53033  0.03578  Biso   1.000  Ce
