data_image0
_cell_length_a       10.0181
_cell_length_b       10.1917
_cell_length_c       5.00871
_cell_angle_alpha    88.3009
_cell_angle_beta     86.8111
_cell_angle_gamma    89.2516

_symmetry_space_group_name_H-M    "P 1"
_symmetry_int_tables_number       1

loop_
  _symmetry_equiv_pos_as_xyz
  'x, y, z'

loop_
  _atom_site_label
  _atom_site_occupancy
  _atom_site_fract_x
  _atom_site_fract_y
  _atom_site_fract_z
  _atom_site_thermal_displace_type
  _atom_site_B_iso_or_equiv
  _atom_site_type_symbol
  Co1      1.0000 0.11255  0.96129  0.23900  Biso   1.000  Co
  Hf1      1.0000 0.12396  0.49671  0.25978  Biso   1.000  Hf
  Hf2      1.0000 0.60279  0.00651  0.24682  Biso   1.000  Hf
  Hf3      1.0000 0.63322  0.49212  0.23279  Biso   1.000  Hf
  Hf4      1.0000 0.12776  0.25760  0.78423  Biso   1.000  Hf
  Hf5      1.0000 0.11943  0.76303  0.74253  Biso   1.000  Hf
  Hf6      1.0000 0.62302  0.24300  0.75308  Biso   1.000  Hf
  Hf7      1.0000 0.62415  0.76276  0.70845  Biso   1.000  Hf
  Hf8      1.0000 0.37845  0.26427  0.29273  Biso   1.000  Hf
  Hf9      1.0000 0.38883  0.74375  0.23748  Biso   1.000  Hf
  Hf10     1.0000 0.88677  0.24839  0.24077  Biso   1.000  Hf
  Hf11     1.0000 0.87037  0.75341  0.21911  Biso   1.000  Hf
  Hf12     1.0000 0.35260  0.00553  0.77147  Biso   1.000  Hf
  Hf13     1.0000 0.38724  0.51105  0.75318  Biso   1.000  Hf
  Hf14     1.0000 0.87121  0.00290  0.70579  Biso   1.000  Hf
  Hf15     1.0000 0.87349  0.48809  0.73092  Biso   1.000  Hf
  O1       1.0000 0.95563  0.16292  0.89069  Biso   1.000  O
  O2       1.0000 0.03820  0.66181  0.07069  Biso   1.000  O
  O3       1.0000 0.46869  0.14589  0.01186  Biso   1.000  O
  O4       1.0000 0.52753  0.64445  0.98867  Biso   1.000  O
  O5       1.0000 0.99949  0.08407  0.39061  Biso   1.000  O
  O6       1.0000 0.03009  0.59492  0.57351  Biso   1.000  O
  O7       1.0000 0.50085  0.11324  0.51943  Biso   1.000  O
  O8       1.0000 0.51920  0.61193  0.48579  Biso   1.000  O
  O9       1.0000 0.00650  0.34586  0.49463  Biso   1.000  O
  O10      1.0000 0.99337  0.84857  0.47754  Biso   1.000  O
  O11      1.0000 0.50376  0.36481  0.51118  Biso   1.000  O
  O12      1.0000 0.48407  0.86519  0.49868  Biso   1.000  O
  O13      1.0000 0.00180  0.40317  0.00719  Biso   1.000  O
  O14      1.0000 0.00204  0.91180  0.97925  Biso   1.000  O
  O15      1.0000 0.50494  0.39416  0.00654  Biso   1.000  O
  O16      1.0000 0.49992  0.89268  0.99184  Biso   1.000  O
  O17      1.0000 0.26458  0.16354  0.56296  Biso   1.000  O
  O18      1.0000 0.28437  0.67568  0.58350  Biso   1.000  O
  O19      1.0000 0.74899  0.14446  0.46562  Biso   1.000  O
  O20      1.0000 0.77019  0.64533  0.52420  Biso   1.000  O
  O21      1.0000 0.20295  0.08479  0.03323  Biso   1.000  O
  O22      1.0000 0.28926  0.58538  0.08740  Biso   1.000  O
  O23      1.0000 0.71605  0.08504  0.94456  Biso   1.000  O
  O24      1.0000 0.78598  0.58889  0.03700  Biso   1.000  O
  O25      1.0000 0.24230  0.34279  0.05039  Biso   1.000  O
  O26      1.0000 0.24426  0.84836  0.03079  Biso   1.000  O
  O27      1.0000 0.74987  0.34209  0.99081  Biso   1.000  O
  O28      1.0000 0.76967  0.83885  0.92289  Biso   1.000  O
  O29      1.0000 0.25160  0.41396  0.54469  Biso   1.000  O
  O30      1.0000 0.22086  0.92502  0.52124  Biso   1.000  O
  O31      1.0000 0.75464  0.38987  0.48971  Biso   1.000  O
  O32      1.0000 0.74119  0.89547  0.43621  Biso   1.000  O
