data_image0
_cell_length_a       10.1427
_cell_length_b       10.2487
_cell_length_c       5.24435
_cell_angle_alpha    90.068
_cell_angle_beta     81.0137
_cell_angle_gamma    89.2036

_symmetry_space_group_name_H-M    "P 1"
_symmetry_int_tables_number       1

loop_
  _symmetry_equiv_pos_as_xyz
  'x, y, z'

loop_
  _atom_site_label
  _atom_site_occupancy
  _atom_site_fract_x
  _atom_site_fract_y
  _atom_site_fract_z
  _atom_site_thermal_displace_type
  _atom_site_B_iso_or_equiv
  _atom_site_type_symbol
  Co1      1.0000 0.11940  0.00980  0.33640  Biso   1.000  Co
  Zr1      1.0000 0.14155  0.52278  0.29319  Biso   1.000  Zr
  Zr2      1.0000 0.63755  0.02190  0.29175  Biso   1.000  Zr
  Zr3      1.0000 0.63656  0.52019  0.29125  Biso   1.000  Zr
  Zr4      1.0000 0.14389  0.22386  0.77653  Biso   1.000  Zr
  Zr5      1.0000 0.13719  0.73366  0.79447  Biso   1.000  Zr
  Zr6      1.0000 0.64039  0.23043  0.79312  Biso   1.000  Zr
  Zr7      1.0000 0.63471  0.72846  0.79433  Biso   1.000  Zr
  Zr8      1.0000 0.35790  0.26848  0.20075  Biso   1.000  Zr
  Zr9      1.0000 0.35425  0.78059  0.20706  Biso   1.000  Zr
  Zr10     1.0000 0.87014  0.26466  0.21733  Biso   1.000  Zr
  Zr11     1.0000 0.85959  0.76912  0.21380  Biso   1.000  Zr
  Zr12     1.0000 0.36158  0.48068  0.70952  Biso   1.000  Zr
  Zr13     1.0000 0.35771  0.98501  0.70249  Biso   1.000  Zr
  Zr14     1.0000 0.86411  0.47666  0.71627  Biso   1.000  Zr
  Zr15     1.0000 0.85676  0.97655  0.71347  Biso   1.000  Zr
  O1       1.0000 0.04895  0.14201  0.15337  Biso   1.000  O
  O2       1.0000 0.03333  0.66534  0.15896  Biso   1.000  O
  O3       1.0000 0.53587  0.16852  0.15619  Biso   1.000  O
  O4       1.0000 0.53172  0.66918  0.15671  Biso   1.000  O
  O5       1.0000 0.03338  0.08015  0.63599  Biso   1.000  O
  O6       1.0000 0.03639  0.58263  0.66340  Biso   1.000  O
  O7       1.0000 0.53779  0.08291  0.65606  Biso   1.000  O
  O8       1.0000 0.53445  0.58373  0.65515  Biso   1.000  O
  O9       1.0000 0.46472  0.41646  0.34459  Biso   1.000  O
  O10      1.0000 0.46382  0.91871  0.34330  Biso   1.000  O
  O11      1.0000 0.97330  0.40901  0.35512  Biso   1.000  O
  O12      1.0000 0.96860  0.91430  0.34763  Biso   1.000  O
  O13      1.0000 0.47260  0.34198  0.84951  Biso   1.000  O
  O14      1.0000 0.45763  0.83333  0.83910  Biso   1.000  O
  O15      1.0000 0.96974  0.32717  0.85821  Biso   1.000  O
  O16      1.0000 0.96122  0.83182  0.84945  Biso   1.000  O
  O17      1.0000 0.26059  0.11716  0.43774  Biso   1.000  O
  O18      1.0000 0.27480  0.63507  0.48300  Biso   1.000  O
  O19      1.0000 0.77792  0.12640  0.48149  Biso   1.000  O
  O20      1.0000 0.77627  0.62621  0.48502  Biso   1.000  O
  O21      1.0000 0.29976  0.14435  0.91799  Biso   1.000  O
  O22      1.0000 0.27519  0.62719  0.98282  Biso   1.000  O
  O23      1.0000 0.77915  0.11989  0.98385  Biso   1.000  O
  O24      1.0000 0.77507  0.62050  0.98452  Biso   1.000  O
  O25      1.0000 0.22342  0.38330  0.01545  Biso   1.000  O
  O26      1.0000 0.21713  0.89926  0.02890  Biso   1.000  O
  O27      1.0000 0.73075  0.37609  0.02659  Biso   1.000  O
  O28      1.0000 0.72022  0.87782  0.02206  Biso   1.000  O
  O29      1.0000 0.22823  0.36855  0.51785  Biso   1.000  O
  O30      1.0000 0.20965  0.87824  0.51461  Biso   1.000  O
  O31      1.0000 0.72986  0.36966  0.52254  Biso   1.000  O
  O32      1.0000 0.72519  0.87022  0.52109  Biso   1.000  O
