data_image0
_cell_length_a       10.2259
_cell_length_b       5.16336
_cell_length_c       10.4724
_cell_angle_alpha    90.2015
_cell_angle_beta     79.5918
_cell_angle_gamma    89.9985

_symmetry_space_group_name_H-M    "P 1"
_symmetry_int_tables_number       1

loop_
  _symmetry_equiv_pos_as_xyz
  'x, y, z'

loop_
  _atom_site_label
  _atom_site_occupancy
  _atom_site_fract_x
  _atom_site_fract_y
  _atom_site_fract_z
  _atom_site_thermal_displace_type
  _atom_site_B_iso_or_equiv
  _atom_site_type_symbol
  Hf1      1.0000 0.13495  0.04461  0.14493  Biso   1.000  Hf
  Hf2      1.0000 0.12748  0.45100  0.39464  Biso   1.000  Hf
  Hf3      1.0000 0.35790  0.54741  0.10838  Biso   1.000  Hf
  Hf4      1.0000 0.35757  0.93059  0.34338  Biso   1.000  Hf
  O1       1.0000 0.03082  0.33981  0.07634  Biso   1.000  O
  O2       1.0000 0.02766  0.16522  0.32374  Biso   1.000  O
  O3       1.0000 0.46259  0.85791  0.15825  Biso   1.000  O
  O4       1.0000 0.48901  0.70495  0.42638  Biso   1.000  O
  O5       1.0000 0.27622  0.25876  0.24723  Biso   1.000  O
  O6       1.0000 0.26728  0.20048  0.48859  Biso   1.000  O
  O7       1.0000 0.22209  0.76127  0.00732  Biso   1.000  O
  O8       1.0000 0.20564  0.74986  0.25315  Biso   1.000  O
  Hf5      1.0000 0.13827  0.03995  0.64798  Biso   1.000  Hf
  Hf6      1.0000 0.13747  0.46276  0.89770  Biso   1.000  Hf
  Hf7      1.0000 0.36855  0.54111  0.61741  Biso   1.000  Hf
  Hf8      1.0000 0.36101  0.96051  0.85831  Biso   1.000  Hf
  O9       1.0000 0.03194  0.33180  0.57887  Biso   1.000  O
  O10      1.0000 0.03462  0.17063  0.82523  Biso   1.000  O
  O11      1.0000 0.46712  0.84067  0.67717  Biso   1.000  O
  O12      1.0000 0.46265  0.66269  0.92022  Biso   1.000  O
  O13      1.0000 0.27564  0.25915  0.74433  Biso   1.000  O
  O14      1.0000 0.27380  0.24718  0.99452  Biso   1.000  O
  O15      1.0000 0.24431  0.69927  0.49758  Biso   1.000  O
  O16      1.0000 0.22172  0.75104  0.75984  Biso   1.000  O
  Hf9      1.0000 0.63848  0.05085  0.14273  Biso   1.000  Hf
  Hf10     1.0000 0.64676  0.45827  0.39919  Biso   1.000  Hf
  Hf11     1.0000 0.85905  0.54735  0.10246  Biso   1.000  Hf
  Hf12     1.0000 0.85856  0.95642  0.35215  Biso   1.000  Hf
  O17      1.0000 0.53599  0.34944  0.08156  Biso   1.000  O
  O18      1.0000 0.52824  0.18293  0.32617  Biso   1.000  O
  O19      1.0000 0.96109  0.84143  0.16613  Biso   1.000  O
  O20      1.0000 0.96117  0.66931  0.42083  Biso   1.000  O
  O21      1.0000 0.77423  0.26077  0.23962  Biso   1.000  O
  O22      1.0000 0.77957  0.23989  0.49171  Biso   1.000  O
  O23      1.0000 0.72366  0.76411  0.00878  Biso   1.000  O
  O24      1.0000 0.72203  0.74719  0.25870  Biso   1.000  O
  Hf13     1.0000 0.64099  0.04211  0.64887  Biso   1.000  Hf
  Hf14     1.0000 0.63588  0.46224  0.89738  Biso   1.000  Hf
  Hf15     1.0000 0.86107  0.54268  0.60577  Biso   1.000  Hf
  Hf16     1.0000 0.86149  0.96058  0.85368  Biso   1.000  Hf
  O25      1.0000 0.54058  0.33484  0.58259  Biso   1.000  O
  O26      1.0000 0.53521  0.16487  0.83351  Biso   1.000  O
  O27      1.0000 0.96821  0.83289  0.66966  Biso   1.000  O
  O28      1.0000 0.96419  0.66827  0.91887  Biso   1.000  O
  O29      1.0000 0.77546  0.25924  0.74161  Biso   1.000  O
  O30      1.0000 0.77453  0.24638  0.98961  Biso   1.000  O
  O31      1.0000 0.72593  0.75731  0.51254  Biso   1.000  O
  O32      1.0000 0.72635  0.74484  0.76096  Biso   1.000  O
  Cr1      1.0000 0.38628  0.43707  0.37839  Biso   1.000  Cr
