data_image0
_cell_length_a       10.0779
_cell_length_b       10.2568
_cell_length_c       10.4134
_cell_angle_alpha    89.97
_cell_angle_beta     80.3405
_cell_angle_gamma    89.9638

_symmetry_space_group_name_H-M    "P 1"
_symmetry_int_tables_number       1

loop_
  _symmetry_equiv_pos_as_xyz
  'x, y, z'

loop_
  _atom_site_label
  _atom_site_occupancy
  _atom_site_fract_x
  _atom_site_fract_y
  _atom_site_fract_z
  _atom_site_thermal_displace_type
  _atom_site_B_iso_or_equiv
  _atom_site_type_symbol
  Cr1      1.0000 0.13432  0.02493  0.14941  Biso   1.000  Cr
  Hf1      1.0000 0.13962  0.22810  0.39307  Biso   1.000  Hf
  Hf2      1.0000 0.35920  0.26923  0.10483  Biso   1.000  Hf
  Hf3      1.0000 0.36187  0.47918  0.35419  Biso   1.000  Hf
  O1       1.0000 0.03919  0.16127  0.08394  Biso   1.000  O
  O2       1.0000 0.04126  0.08003  0.31788  Biso   1.000  O
  O3       1.0000 0.46323  0.42028  0.16842  Biso   1.000  O
  O4       1.0000 0.46370  0.32984  0.41917  Biso   1.000  O
  O5       1.0000 0.27195  0.12453  0.23680  Biso   1.000  O
  O6       1.0000 0.27725  0.12151  0.48954  Biso   1.000  O
  O7       1.0000 0.22253  0.37886  0.01009  Biso   1.000  O
  O8       1.0000 0.22419  0.37020  0.25940  Biso   1.000  O
  Hf4      1.0000 0.13891  0.02122  0.64548  Biso   1.000  Hf
  Hf5      1.0000 0.13945  0.22570  0.89816  Biso   1.000  Hf
  Hf6      1.0000 0.36078  0.27171  0.60452  Biso   1.000  Hf
  Hf7      1.0000 0.36011  0.47855  0.85471  Biso   1.000  Hf
  O9       1.0000 0.03442  0.16556  0.57517  Biso   1.000  O
  O10      1.0000 0.03471  0.08172  0.82851  Biso   1.000  O
  O11      1.0000 0.46310  0.42116  0.66873  Biso   1.000  O
  O12      1.0000 0.46103  0.32688  0.91824  Biso   1.000  O
  O13      1.0000 0.27703  0.12892  0.74214  Biso   1.000  O
  O14      1.0000 0.27168  0.11719  0.99774  Biso   1.000  O
  O15      1.0000 0.22264  0.37891  0.50904  Biso   1.000  O
  O16      1.0000 0.22277  0.36985  0.76004  Biso   1.000  O
  Hf8      1.0000 0.13985  0.52152  0.14622  Biso   1.000  Hf
  Hf9      1.0000 0.13916  0.72983  0.39481  Biso   1.000  Hf
  Hf10     1.0000 0.35640  0.77577  0.10508  Biso   1.000  Hf
  Hf11     1.0000 0.35861  0.97861  0.35167  Biso   1.000  Hf
  O17      1.0000 0.03654  0.66956  0.08152  Biso   1.000  O
  O18      1.0000 0.03652  0.57966  0.33119  Biso   1.000  O
  O19      1.0000 0.46512  0.91931  0.16928  Biso   1.000  O
  O20      1.0000 0.46390  0.83007  0.41770  Biso   1.000  O
  O21      1.0000 0.27685  0.63087  0.24122  Biso   1.000  O
  O22      1.0000 0.27722  0.62109  0.49074  Biso   1.000  O
  O23      1.0000 0.21732  0.88521  0.01328  Biso   1.000  O
  O24      1.0000 0.21917  0.87428  0.25715  Biso   1.000  O
  Hf12     1.0000 0.13925  0.52155  0.64600  Biso   1.000  Hf
  Hf13     1.0000 0.13938  0.73017  0.89665  Biso   1.000  Hf
  Hf14     1.0000 0.36160  0.77176  0.60388  Biso   1.000  Hf
  Hf15     1.0000 0.35826  0.97899  0.85717  Biso   1.000  Hf
  O25      1.0000 0.03597  0.66971  0.58048  Biso   1.000  O
  O26      1.0000 0.03671  0.58018  0.83173  Biso   1.000  O
  O27      1.0000 0.46253  0.92081  0.66955  Biso   1.000  O
  O28      1.0000 0.46023  0.82895  0.91913  Biso   1.000  O
  O29      1.0000 0.27718  0.62953  0.74092  Biso   1.000  O
  O30      1.0000 0.27657  0.62179  0.99116  Biso   1.000  O
  O31      1.0000 0.22301  0.87929  0.50856  Biso   1.000  O
  O32      1.0000 0.22258  0.87109  0.75962  Biso   1.000  O
  Hf16     1.0000 0.63877  0.02196  0.14565  Biso   1.000  Hf
  Hf17     1.0000 0.63884  0.22822  0.39559  Biso   1.000  Hf
  Hf18     1.0000 0.86320  0.26960  0.10538  Biso   1.000  Hf
  Hf19     1.0000 0.86091  0.47886  0.35384  Biso   1.000  Hf
  O33      1.0000 0.53636  0.17095  0.08174  Biso   1.000  O
  O34      1.0000 0.53521  0.08043  0.33035  Biso   1.000  O
  O35      1.0000 0.96544  0.41866  0.16940  Biso   1.000  O
  O36      1.0000 0.96355  0.32872  0.41780  Biso   1.000  O
  O37      1.0000 0.77724  0.12864  0.24061  Biso   1.000  O
  O38      1.0000 0.77813  0.12007  0.48935  Biso   1.000  O
  O39      1.0000 0.72414  0.37906  0.00983  Biso   1.000  O
  O40      1.0000 0.72396  0.37021  0.25892  Biso   1.000  O
  Hf20     1.0000 0.63786  0.02061  0.64615  Biso   1.000  Hf
  Hf21     1.0000 0.63843  0.22874  0.89602  Biso   1.000  Hf
  Hf22     1.0000 0.86087  0.27101  0.60363  Biso   1.000  Hf
  Hf23     1.0000 0.86181  0.47815  0.85549  Biso   1.000  Hf
  O41      1.0000 0.53697  0.17096  0.58156  Biso   1.000  O
  O42      1.0000 0.53555  0.07865  0.83292  Biso   1.000  O
  O43      1.0000 0.96479  0.41780  0.67046  Biso   1.000  O
  O44      1.0000 0.96540  0.32858  0.92224  Biso   1.000  O
  O45      1.0000 0.77600  0.12913  0.74040  Biso   1.000  O
  O46      1.0000 0.77706  0.12109  0.99072  Biso   1.000  O
  O47      1.0000 0.72335  0.37914  0.50952  Biso   1.000  O
  O48      1.0000 0.72322  0.37090  0.75985  Biso   1.000  O
  Hf24     1.0000 0.63836  0.52253  0.14557  Biso   1.000  Hf
  Hf25     1.0000 0.63991  0.72981  0.39555  Biso   1.000  Hf
  Hf26     1.0000 0.86488  0.77370  0.10373  Biso   1.000  Hf
  Hf27     1.0000 0.86444  0.97998  0.35186  Biso   1.000  Hf
  O49      1.0000 0.53456  0.67131  0.08189  Biso   1.000  O
  O50      1.0000 0.53765  0.57930  0.33188  Biso   1.000  O
  O51      1.0000 0.97729  0.92401  0.16507  Biso   1.000  O
  O52      1.0000 0.96396  0.83093  0.41853  Biso   1.000  O
  O53      1.0000 0.77773  0.63034  0.24044  Biso   1.000  O
  O54      1.0000 0.77725  0.62082  0.49092  Biso   1.000  O
  O55      1.0000 0.72316  0.87958  0.00963  Biso   1.000  O
  O56      1.0000 0.73024  0.87261  0.25788  Biso   1.000  O
  Hf28     1.0000 0.63905  0.52142  0.64641  Biso   1.000  Hf
  Hf29     1.0000 0.63741  0.72853  0.89768  Biso   1.000  Hf
  Hf30     1.0000 0.86046  0.77109  0.60450  Biso   1.000  Hf
  Hf31     1.0000 0.86031  0.97885  0.85381  Biso   1.000  Hf
  O57      1.0000 0.53738  0.67131  0.58112  Biso   1.000  O
  O58      1.0000 0.53633  0.57863  0.83215  Biso   1.000  O
  O59      1.0000 0.96386  0.91930  0.66911  Biso   1.000  O
  O60      1.0000 0.96351  0.83015  0.91877  Biso   1.000  O
  O61      1.0000 0.77706  0.62880  0.74185  Biso   1.000  O
  O62      1.0000 0.77774  0.62201  0.99174  Biso   1.000  O
  O63      1.0000 0.72327  0.87943  0.50887  Biso   1.000  O
  O64      1.0000 0.72226  0.87045  0.75970  Biso   1.000  O
