data_image0
_cell_length_a       5.12413
_cell_length_b       10.2832
_cell_length_c       10.4901
_cell_angle_alpha    90.564
_cell_angle_beta     79.4531
_cell_angle_gamma    90.0965

_symmetry_space_group_name_H-M    "P 1"
_symmetry_int_tables_number       1

loop_
  _symmetry_equiv_pos_as_xyz
  'x, y, z'

loop_
  _atom_site_label
  _atom_site_occupancy
  _atom_site_fract_x
  _atom_site_fract_y
  _atom_site_fract_z
  _atom_site_thermal_displace_type
  _atom_site_B_iso_or_equiv
  _atom_site_type_symbol
  Hf1      1.0000 0.27440  0.02335  0.14723  Biso   1.000  Hf
  Hf2      1.0000 0.27552  0.23093  0.39921  Biso   1.000  Hf
  Hf3      1.0000 0.71361  0.27570  0.10846  Biso   1.000  Hf
  Hf4      1.0000 0.71908  0.48229  0.34295  Biso   1.000  Hf
  O1       1.0000 0.06356  0.16843  0.08180  Biso   1.000  O
  O2       1.0000 0.05036  0.08766  0.32812  Biso   1.000  O
  O3       1.0000 0.92290  0.42861  0.15983  Biso   1.000  O
  O4       1.0000 0.97538  0.36109  0.42714  Biso   1.000  O
  O5       1.0000 0.55724  0.12942  0.24945  Biso   1.000  O
  O6       1.0000 0.55432  0.11098  0.49227  Biso   1.000  O
  O7       1.0000 0.44635  0.38053  0.00594  Biso   1.000  O
  O8       1.0000 0.41752  0.37890  0.25133  Biso   1.000  O
  Hf5      1.0000 0.27601  0.01813  0.64896  Biso   1.000  Hf
  Hf6      1.0000 0.27101  0.23021  0.90019  Biso   1.000  Hf
  Hf7      1.0000 0.73169  0.26756  0.61526  Biso   1.000  Hf
  Hf8      1.0000 0.72389  0.47802  0.85469  Biso   1.000  Hf
  O9       1.0000 0.07693  0.16573  0.58156  Biso   1.000  O
  O10      1.0000 0.06615  0.08276  0.83026  Biso   1.000  O
  O11      1.0000 0.94135  0.41286  0.67741  Biso   1.000  O
  O12      1.0000 0.92830  0.33320  0.92271  Biso   1.000  O
  O13      1.0000 0.54852  0.12748  0.74575  Biso   1.000  O
  O14      1.0000 0.54591  0.12252  0.99571  Biso   1.000  O
  O15      1.0000 0.49244  0.36418  0.49954  Biso   1.000  O
  O16      1.0000 0.44594  0.37279  0.75966  Biso   1.000  O
  Hf9      1.0000 0.27481  0.52500  0.14208  Biso   1.000  Hf
  Hf10     1.0000 0.27272  0.72494  0.39667  Biso   1.000  Hf
  Hf11     1.0000 0.71977  0.77254  0.10098  Biso   1.000  Hf
  Hf12     1.0000 0.71344  0.96658  0.35437  Biso   1.000  Hf
  O17      1.0000 0.06419  0.67087  0.07349  Biso   1.000  O
  O18      1.0000 0.06061  0.59136  0.32052  Biso   1.000  O
  O19      1.0000 0.92967  0.91669  0.17081  Biso   1.000  O
  O20      1.0000 0.93280  0.83290  0.42491  Biso   1.000  O
  O21      1.0000 0.54815  0.63271  0.23838  Biso   1.000  O
  O22      1.0000 0.54292  0.61673  0.49025  Biso   1.000  O
  O23      1.0000 0.44490  0.88109  0.00992  Biso   1.000  O
  O24      1.0000 0.43761  0.87199  0.25953  Biso   1.000  O
  Hf13     1.0000 0.28126  0.51885  0.64555  Biso   1.000  Hf
  Hf14     1.0000 0.27367  0.72946  0.89485  Biso   1.000  Hf
  Hf15     1.0000 0.72311  0.76864  0.60481  Biso   1.000  Hf
  Hf16     1.0000 0.71985  0.97956  0.85605  Biso   1.000  Hf
  O25      1.0000 0.06255  0.66020  0.57691  Biso   1.000  O
  O26      1.0000 0.06885  0.58534  0.82441  Biso   1.000  O
  O27      1.0000 0.93092  0.91515  0.67296  Biso   1.000  O
  O28      1.0000 0.92844  0.83451  0.91979  Biso   1.000  O
  O29      1.0000 0.55078  0.62696  0.73909  Biso   1.000  O
  O30      1.0000 0.54943  0.62406  0.98803  Biso   1.000  O
  O31      1.0000 0.44527  0.87156  0.51212  Biso   1.000  O
  O32      1.0000 0.44942  0.87129  0.76026  Biso   1.000  O
  Cr1      1.0000 0.77910  0.22764  0.37281  Biso   1.000  Cr
