data_image0
_cell_length_a       9.96872
_cell_length_b       10.1872
_cell_length_c       5.20439
_cell_angle_alpha    89.824
_cell_angle_beta     89.9456
_cell_angle_gamma    89.9714

_symmetry_space_group_name_H-M    "P 1"
_symmetry_int_tables_number       1

loop_
  _symmetry_equiv_pos_as_xyz
  'x, y, z'

loop_
  _atom_site_label
  _atom_site_occupancy
  _atom_site_fract_x
  _atom_site_fract_y
  _atom_site_fract_z
  _atom_site_thermal_displace_type
  _atom_site_B_iso_or_equiv
  _atom_site_type_symbol
  Cr1      1.0000 0.13154  0.02455  0.35567  Biso   1.000  Cr
  Hf1      1.0000 0.14045  0.22577  0.84643  Biso   1.000  Hf
  Hf2      1.0000 0.35847  0.26816  0.34552  Biso   1.000  Hf
  Hf3      1.0000 0.36114  0.47910  0.84410  Biso   1.000  Hf
  Hf4      1.0000 0.63782  0.02137  0.15329  Biso   1.000  Hf
  Hf5      1.0000 0.63836  0.22939  0.65779  Biso   1.000  Hf
  Hf6      1.0000 0.86351  0.26881  0.16041  Biso   1.000  Hf
  Hf7      1.0000 0.86189  0.47871  0.66055  Biso   1.000  Hf
  O1       1.0000 0.03387  0.15282  0.16234  Biso   1.000  O
  O2       1.0000 0.03555  0.08837  0.63717  Biso   1.000  O
  O3       1.0000 0.46515  0.41683  0.17379  Biso   1.000  O
  O4       1.0000 0.46484  0.33163  0.67310  Biso   1.000  O
  O5       1.0000 0.27303  0.12142  0.59159  Biso   1.000  O
  O6       1.0000 0.26961  0.11984  0.10679  Biso   1.000  O
  O7       1.0000 0.22335  0.37413  0.59193  Biso   1.000  O
  O8       1.0000 0.22311  0.37371  0.09033  Biso   1.000  O
  O9       1.0000 0.53327  0.16659  0.33139  Biso   1.000  O
  O10      1.0000 0.53091  0.08524  0.83299  Biso   1.000  O
  O11      1.0000 0.96893  0.41245  0.33595  Biso   1.000  O
  O12      1.0000 0.96824  0.33091  0.83556  Biso   1.000  O
  O13      1.0000 0.77826  0.12319  0.90546  Biso   1.000  O
  O14      1.0000 0.77616  0.12569  0.40706  Biso   1.000  O
  O15      1.0000 0.72450  0.37327  0.91434  Biso   1.000  O
  O16      1.0000 0.72424  0.37610  0.41270  Biso   1.000  O
  Hf8      1.0000 0.13999  0.52114  0.34431  Biso   1.000  Hf
  Hf9      1.0000 0.14034  0.73206  0.84090  Biso   1.000  Hf
  Hf10     1.0000 0.35680  0.77590  0.34045  Biso   1.000  Hf
  Hf11     1.0000 0.35646  0.97864  0.84420  Biso   1.000  Hf
  Hf12     1.0000 0.63820  0.52182  0.16140  Biso   1.000  Hf
  Hf13     1.0000 0.63757  0.72961  0.65690  Biso   1.000  Hf
  Hf14     1.0000 0.86432  0.77220  0.15525  Biso   1.000  Hf
  Hf15     1.0000 0.86272  0.98043  0.65215  Biso   1.000  Hf
  O17      1.0000 0.03318  0.66474  0.16615  Biso   1.000  O
  O18      1.0000 0.03355  0.58442  0.66872  Biso   1.000  O
  O19      1.0000 0.46768  0.91578  0.16744  Biso   1.000  O
  O20      1.0000 0.46373  0.83440  0.66989  Biso   1.000  O
  O21      1.0000 0.27698  0.62588  0.59009  Biso   1.000  O
  O22      1.0000 0.27696  0.62667  0.08964  Biso   1.000  O
  O23      1.0000 0.21826  0.88002  0.57971  Biso   1.000  O
  O24      1.0000 0.22013  0.87737  0.08744  Biso   1.000  O
  O25      1.0000 0.53335  0.66929  0.32935  Biso   1.000  O
  O26      1.0000 0.53519  0.58203  0.82905  Biso   1.000  O
  O27      1.0000 0.98128  0.91988  0.32930  Biso   1.000  O
  O28      1.0000 0.96739  0.83659  0.82964  Biso   1.000  O
  O29      1.0000 0.77795  0.62548  0.91402  Biso   1.000  O
  O30      1.0000 0.77760  0.62618  0.41296  Biso   1.000  O
  O31      1.0000 0.72354  0.87461  0.90717  Biso   1.000  O
  O32      1.0000 0.73063  0.87684  0.40760  Biso   1.000  O
