data_image0
_cell_length_a       9.97018
_cell_length_b       10.3944
_cell_length_c       10.0499
_cell_angle_alpha    89.984
_cell_angle_beta     89.7656
_cell_angle_gamma    89.9962

_symmetry_space_group_name_H-M    "P 1"
_symmetry_int_tables_number       1

loop_
  _symmetry_equiv_pos_as_xyz
  'x, y, z'

loop_
  _atom_site_label
  _atom_site_occupancy
  _atom_site_fract_x
  _atom_site_fract_y
  _atom_site_fract_z
  _atom_site_thermal_displace_type
  _atom_site_B_iso_or_equiv
  _atom_site_type_symbol
  Cs1      1.0000 0.10947  0.01057  0.11342  Biso   1.000  Cs
  Hf1      1.0000 0.13041  0.02046  0.63752  Biso   1.000  Hf
  Hf2      1.0000 0.13464  0.51582  0.12737  Biso   1.000  Hf
  Hf3      1.0000 0.13433  0.51804  0.62705  Biso   1.000  Hf
  Hf4      1.0000 0.63705  0.01437  0.12620  Biso   1.000  Hf
  Hf5      1.0000 0.63217  0.01745  0.62523  Biso   1.000  Hf
  Hf6      1.0000 0.63225  0.51465  0.12739  Biso   1.000  Hf
  Hf7      1.0000 0.63273  0.51616  0.62654  Biso   1.000  Hf
  Hf8      1.0000 0.13786  0.23243  0.38462  Biso   1.000  Hf
  Hf9      1.0000 0.13246  0.23829  0.86514  Biso   1.000  Hf
  Hf10     1.0000 0.13499  0.73421  0.37909  Biso   1.000  Hf
  Hf11     1.0000 0.13666  0.73085  0.87752  Biso   1.000  Hf
  Hf12     1.0000 0.63117  0.23246  0.37477  Biso   1.000  Hf
  Hf13     1.0000 0.63546  0.23219  0.87620  Biso   1.000  Hf
  Hf14     1.0000 0.63164  0.73371  0.37787  Biso   1.000  Hf
  Hf15     1.0000 0.63428  0.73139  0.87515  Biso   1.000  Hf
  Hf16     1.0000 0.36370  0.26639  0.13130  Biso   1.000  Hf
  Hf17     1.0000 0.36793  0.26653  0.62726  Biso   1.000  Hf
  Hf18     1.0000 0.36940  0.76356  0.12980  Biso   1.000  Hf
  Hf19     1.0000 0.36450  0.76773  0.62699  Biso   1.000  Hf
  Hf20     1.0000 0.85851  0.26820  0.12735  Biso   1.000  Hf
  Hf21     1.0000 0.86599  0.27011  0.62191  Biso   1.000  Hf
  Hf22     1.0000 0.86190  0.75902  0.12372  Biso   1.000  Hf
  Hf23     1.0000 0.86595  0.76212  0.62166  Biso   1.000  Hf
  Hf24     1.0000 0.36418  0.48359  0.37749  Biso   1.000  Hf
  Hf25     1.0000 0.36664  0.48181  0.87835  Biso   1.000  Hf
  Hf26     1.0000 0.36191  0.98398  0.37789  Biso   1.000  Hf
  Hf27     1.0000 0.37044  0.98337  0.87491  Biso   1.000  Hf
  Hf28     1.0000 0.86580  0.48437  0.37577  Biso   1.000  Hf
  Hf29     1.0000 0.86610  0.48129  0.87585  Biso   1.000  Hf
  Hf30     1.0000 0.86313  0.98587  0.38804  Biso   1.000  Hf
  Hf31     1.0000 0.86443  0.98014  0.86343  Biso   1.000  Hf
  O1       1.0000 0.02790  0.20303  0.20808  Biso   1.000  O
  O2       1.0000 0.04846  0.20271  0.66785  Biso   1.000  O
  O3       1.0000 0.03792  0.68926  0.19280  Biso   1.000  O
  O4       1.0000 0.03684  0.68663  0.69591  Biso   1.000  O
  O5       1.0000 0.54181  0.18608  0.18843  Biso   1.000  O
  O6       1.0000 0.53903  0.18529  0.69471  Biso   1.000  O
  O7       1.0000 0.53856  0.68219  0.19713  Biso   1.000  O
  O8       1.0000 0.53547  0.68363  0.69553  Biso   1.000  O
  O9       1.0000 0.03755  0.06395  0.44235  Biso   1.000  O
  O10      1.0000 0.04600  0.06132  0.86238  Biso   1.000  O
  O11      1.0000 0.03511  0.56574  0.44696  Biso   1.000  O
  O12      1.0000 0.03529  0.56597  0.94439  Biso   1.000  O
  O13      1.0000 0.53580  0.06580  0.44545  Biso   1.000  O
  O14      1.0000 0.53997  0.06459  0.94426  Biso   1.000  O
  O15      1.0000 0.53474  0.56583  0.44556  Biso   1.000  O
  O16      1.0000 0.53617  0.56418  0.94703  Biso   1.000  O
  O17      1.0000 0.46266  0.43275  0.19617  Biso   1.000  O
  O18      1.0000 0.46491  0.43385  0.69690  Biso   1.000  O
  O19      1.0000 0.46930  0.93305  0.19679  Biso   1.000  O
  O20      1.0000 0.46470  0.93382  0.69633  Biso   1.000  O
  O21      1.0000 0.95886  0.43847  0.19024  Biso   1.000  O
  O22      1.0000 0.96366  0.43691  0.69658  Biso   1.000  O
  O23      1.0000 0.94027  0.93764  0.19786  Biso   1.000  O
  O24      1.0000 0.95117  0.93462  0.67201  Biso   1.000  O
  O25      1.0000 0.46311  0.31571  0.44487  Biso   1.000  O
  O26      1.0000 0.46187  0.31162  0.94344  Biso   1.000  O
  O27      1.0000 0.46458  0.81664  0.44989  Biso   1.000  O
  O28      1.0000 0.46791  0.81536  0.94514  Biso   1.000  O
  O29      1.0000 0.96160  0.31941  0.44100  Biso   1.000  O
  O30      1.0000 0.96353  0.31155  0.94472  Biso   1.000  O
  O31      1.0000 0.95981  0.81275  0.43848  Biso   1.000  O
  O32      1.0000 0.97036  0.82259  0.94894  Biso   1.000  O
  O33      1.0000 0.28631  0.13315  0.26434  Biso   1.000  O
  O34      1.0000 0.28066  0.12398  0.75390  Biso   1.000  O
  O35      1.0000 0.26969  0.61390  0.25115  Biso   1.000  O
  O36      1.0000 0.27096  0.61783  0.75184  Biso   1.000  O
  O37      1.0000 0.76914  0.11692  0.25285  Biso   1.000  O
  O38      1.0000 0.77157  0.11930  0.74693  Biso   1.000  O
  O39      1.0000 0.76988  0.61646  0.24872  Biso   1.000  O
  O40      1.0000 0.77060  0.61572  0.74957  Biso   1.000  O
  O41      1.0000 0.27054  0.12845  0.50912  Biso   1.000  O
  O42      1.0000 0.26237  0.12918  0.00108  Biso   1.000  O
  O43      1.0000 0.27040  0.63244  0.50194  Biso   1.000  O
  O44      1.0000 0.27175  0.62921  0.00222  Biso   1.000  O
  O45      1.0000 0.76867  0.13398  0.50067  Biso   1.000  O
  O46      1.0000 0.77985  0.12743  0.99815  Biso   1.000  O
  O47      1.0000 0.76801  0.63146  0.49818  Biso   1.000  O
  O48      1.0000 0.77079  0.62891  0.99846  Biso   1.000  O
  O49      1.0000 0.23045  0.38281  0.50268  Biso   1.000  O
  O50      1.0000 0.22948  0.38075  0.00162  Biso   1.000  O
  O51      1.0000 0.22508  0.88335  0.50679  Biso   1.000  O
  O52      1.0000 0.24466  0.87248  0.99635  Biso   1.000  O
  O53      1.0000 0.72865  0.38295  0.50004  Biso   1.000  O
  O54      1.0000 0.72732  0.38021  0.00002  Biso   1.000  O
  O55      1.0000 0.72533  0.88077  0.50152  Biso   1.000  O
  O56      1.0000 0.72985  0.87742  0.99969  Biso   1.000  O
  O57      1.0000 0.22542  0.37115  0.25291  Biso   1.000  O
  O58      1.0000 0.23098  0.37190  0.74980  Biso   1.000  O
  O59      1.0000 0.24628  0.85449  0.26243  Biso   1.000  O
  O60      1.0000 0.22936  0.86905  0.75297  Biso   1.000  O
  O61      1.0000 0.72666  0.36917  0.25128  Biso   1.000  O
  O62      1.0000 0.72996  0.36779  0.75067  Biso   1.000  O
  O63      1.0000 0.73351  0.86604  0.25131  Biso   1.000  O
  O64      1.0000 0.72961  0.86544  0.74943  Biso   1.000  O
