data_image0
_cell_length_a       10.184
_cell_length_b       5.17535
_cell_length_c       10.456
_cell_angle_alpha    90.2186
_cell_angle_beta     81.16
_cell_angle_gamma    90.5511

_symmetry_space_group_name_H-M    "P 1"
_symmetry_int_tables_number       1

loop_
  _symmetry_equiv_pos_as_xyz
  'x, y, z'

loop_
  _atom_site_label
  _atom_site_occupancy
  _atom_site_fract_x
  _atom_site_fract_y
  _atom_site_fract_z
  _atom_site_thermal_displace_type
  _atom_site_B_iso_or_equiv
  _atom_site_type_symbol
  Cs1      1.0000 0.11123  0.99815  0.11578  Biso   1.000  Cs
  Hf1      1.0000 0.14089  0.04323  0.64421  Biso   1.000  Hf
  Hf2      1.0000 0.63867  0.03619  0.14930  Biso   1.000  Hf
  Hf3      1.0000 0.63960  0.04343  0.64720  Biso   1.000  Hf
  Hf4      1.0000 0.13865  0.44488  0.39195  Biso   1.000  Hf
  Hf5      1.0000 0.14090  0.46551  0.89085  Biso   1.000  Hf
  Hf6      1.0000 0.63262  0.45592  0.39993  Biso   1.000  Hf
  Hf7      1.0000 0.64266  0.45972  0.89473  Biso   1.000  Hf
  Hf8      1.0000 0.36700  0.52159  0.10904  Biso   1.000  Hf
  Hf9      1.0000 0.36023  0.54208  0.60149  Biso   1.000  Hf
  Hf10     1.0000 0.85115  0.53234  0.10517  Biso   1.000  Hf
  Hf11     1.0000 0.86525  0.54346  0.60448  Biso   1.000  Hf
  Hf12     1.0000 0.35715  0.95398  0.35111  Biso   1.000  Hf
  Hf13     1.0000 0.37061  0.95654  0.84892  Biso   1.000  Hf
  Hf14     1.0000 0.85342  0.96292  0.36789  Biso   1.000  Hf
  Hf15     1.0000 0.86284  0.95969  0.85381  Biso   1.000  Hf
  O1       1.0000 0.04301  0.43629  0.08934  Biso   1.000  O
  O2       1.0000 0.03750  0.34317  0.58343  Biso   1.000  O
  O3       1.0000 0.54361  0.33485  0.07980  Biso   1.000  O
  O4       1.0000 0.53403  0.33744  0.58283  Biso   1.000  O
  O5       1.0000 0.02612  0.15622  0.34025  Biso   1.000  O
  O6       1.0000 0.03873  0.16142  0.83488  Biso   1.000  O
  O7       1.0000 0.53589  0.15337  0.33231  Biso   1.000  O
  O8       1.0000 0.54282  0.15579  0.83072  Biso   1.000  O
  O9       1.0000 0.46865  0.82960  0.16925  Biso   1.000  O
  O10      1.0000 0.46545  0.83968  0.66725  Biso   1.000  O
  O11      1.0000 0.91317  0.89227  0.17020  Biso   1.000  O
  O12      1.0000 0.96440  0.84585  0.66960  Biso   1.000  O
  O13      1.0000 0.46294  0.65717  0.42050  Biso   1.000  O
  O14      1.0000 0.47362  0.65610  0.91429  Biso   1.000  O
  O15      1.0000 0.96165  0.65858  0.41708  Biso   1.000  O
  O16      1.0000 0.96480  0.66678  0.91850  Biso   1.000  O
  O17      1.0000 0.28367  0.24707  0.24476  Biso   1.000  O
  O18      1.0000 0.27784  0.25958  0.73779  Biso   1.000  O
  O19      1.0000 0.76986  0.27017  0.24723  Biso   1.000  O
  O20      1.0000 0.77959  0.26141  0.74175  Biso   1.000  O
  O21      1.0000 0.27393  0.23983  0.49095  Biso   1.000  O
  O22      1.0000 0.28117  0.24459  0.98017  Biso   1.000  O
  O23      1.0000 0.77185  0.24466  0.49632  Biso   1.000  O
  O24      1.0000 0.78109  0.24038  0.99243  Biso   1.000  O
  O25      1.0000 0.25430  0.73721  0.99560  Biso   1.000  O
  O26      1.0000 0.22296  0.75949  0.50955  Biso   1.000  O
  O27      1.0000 0.72429  0.75767  0.00902  Biso   1.000  O
  O28      1.0000 0.72259  0.75715  0.51465  Biso   1.000  O
  O29      1.0000 0.23682  0.70638  0.26174  Biso   1.000  O
  O30      1.0000 0.22447  0.74400  0.75748  Biso   1.000  O
  O31      1.0000 0.71899  0.74376  0.26502  Biso   1.000  O
  O32      1.0000 0.72733  0.74246  0.75946  Biso   1.000  O
