data_image0
_cell_length_a       10.1755
_cell_length_b       10.5094
_cell_length_c       5.24971
_cell_angle_alpha    89.8625
_cell_angle_beta     81.243
_cell_angle_gamma    90.5475

_symmetry_space_group_name_H-M    "P 1"
_symmetry_int_tables_number       1

loop_
  _symmetry_equiv_pos_as_xyz
  'x, y, z'

loop_
  _atom_site_label
  _atom_site_occupancy
  _atom_site_fract_x
  _atom_site_fract_y
  _atom_site_fract_z
  _atom_site_thermal_displace_type
  _atom_site_B_iso_or_equiv
  _atom_site_type_symbol
  Cs1      1.0000 0.11475  0.01588  0.23343  Biso   1.000  Cs
  Zr1      1.0000 0.13881  0.52009  0.28289  Biso   1.000  Zr
  Zr2      1.0000 0.64024  0.02158  0.29820  Biso   1.000  Zr
  Zr3      1.0000 0.63654  0.51886  0.29090  Biso   1.000  Zr
  Zr4      1.0000 0.13495  0.23590  0.78024  Biso   1.000  Zr
  Zr5      1.0000 0.14171  0.72565  0.78061  Biso   1.000  Zr
  Zr6      1.0000 0.63506  0.22831  0.79484  Biso   1.000  Zr
  Zr7      1.0000 0.63897  0.72798  0.78754  Biso   1.000  Zr
  Zr8      1.0000 0.35932  0.26946  0.21689  Biso   1.000  Zr
  Zr9      1.0000 0.36569  0.76694  0.20409  Biso   1.000  Zr
  Zr10     1.0000 0.85453  0.27698  0.21387  Biso   1.000  Zr
  Zr11     1.0000 0.85967  0.76158  0.20525  Biso   1.000  Zr
  Zr12     1.0000 0.36074  0.47719  0.70799  Biso   1.000  Zr
  Zr13     1.0000 0.36126  0.97561  0.68799  Biso   1.000  Zr
  Zr14     1.0000 0.85970  0.48035  0.70710  Biso   1.000  Zr
  Zr15     1.0000 0.85716  0.98216  0.73892  Biso   1.000  Zr
  O1       1.0000 0.04486  0.22189  0.18232  Biso   1.000  O
  O2       1.0000 0.04089  0.67657  0.16819  Biso   1.000  O
  O3       1.0000 0.53596  0.17035  0.16745  Biso   1.000  O
  O4       1.0000 0.54016  0.66855  0.16058  Biso   1.000  O
  O5       1.0000 0.02803  0.08137  0.71758  Biso   1.000  O
  O6       1.0000 0.03644  0.57677  0.66191  Biso   1.000  O
  O7       1.0000 0.54016  0.07508  0.66520  Biso   1.000  O
  O8       1.0000 0.53669  0.57632  0.66418  Biso   1.000  O
  O9       1.0000 0.46278  0.41823  0.33831  Biso   1.000  O
  O10      1.0000 0.46870  0.91855  0.33180  Biso   1.000  O
  O11      1.0000 0.95278  0.43632  0.32314  Biso   1.000  O
  O12      1.0000 0.94974  0.91593  0.37185  Biso   1.000  O
  O13      1.0000 0.46065  0.32330  0.83540  Biso   1.000  O
  O14      1.0000 0.47404  0.83014  0.83045  Biso   1.000  O
  O15      1.0000 0.95579  0.32906  0.82244  Biso   1.000  O
  O16      1.0000 0.96796  0.83266  0.85400  Biso   1.000  O
  O17      1.0000 0.28582  0.13823  0.50283  Biso   1.000  O
  O18      1.0000 0.27808  0.62202  0.47305  Biso   1.000  O
  O19      1.0000 0.77993  0.13070  0.48954  Biso   1.000  O
  O20      1.0000 0.77299  0.62787  0.48129  Biso   1.000  O
  O21      1.0000 0.26965  0.11693  0.98417  Biso   1.000  O
  O22      1.0000 0.27562  0.61708  0.97514  Biso   1.000  O
  O23      1.0000 0.77310  0.12314  0.99654  Biso   1.000  O
  O24      1.0000 0.77806  0.62070  0.98036  Biso   1.000  O
  O25      1.0000 0.22813  0.38100  0.01129  Biso   1.000  O
  O26      1.0000 0.24605  0.86253  0.98148  Biso   1.000  O
  O27      1.0000 0.71984  0.38153  0.01809  Biso   1.000  O
  O28      1.0000 0.72598  0.87872  0.02762  Biso   1.000  O
  O29      1.0000 0.21984  0.37409  0.51183  Biso   1.000  O
  O30      1.0000 0.23506  0.85564  0.50924  Biso   1.000  O
  O31      1.0000 0.72052  0.37000  0.51977  Biso   1.000  O
  O32      1.0000 0.73009  0.86927  0.52240  Biso   1.000  O
