data_image0
_cell_length_a       10.1086
_cell_length_b       10.3254
_cell_length_c       10.5416
_cell_angle_alpha    89.8761
_cell_angle_beta     90.3861
_cell_angle_gamma    90.0571

_symmetry_space_group_name_H-M    "P 1"
_symmetry_int_tables_number       1

loop_
  _symmetry_equiv_pos_as_xyz
  'x, y, z'

loop_
  _atom_site_label
  _atom_site_occupancy
  _atom_site_fract_x
  _atom_site_fract_y
  _atom_site_fract_z
  _atom_site_thermal_displace_type
  _atom_site_B_iso_or_equiv
  _atom_site_type_symbol
  Zr1      1.0000 0.13833  0.02102  0.17189  Biso   1.000  Zr
  Zr2      1.0000 0.13721  0.22788  0.42468  Biso   1.000  Zr
  Zr3      1.0000 0.35038  0.27039  0.17941  Biso   1.000  Zr
  Zr4      1.0000 0.36189  0.47915  0.42319  Biso   1.000  Zr
  Zr5      1.0000 0.64222  0.02178  0.07365  Biso   1.000  Zr
  Zr6      1.0000 0.63837  0.22774  0.33296  Biso   1.000  Zr
  Zr7      1.0000 0.86055  0.26884  0.07786  Biso   1.000  Zr
  Zr8      1.0000 0.86141  0.47846  0.32909  Biso   1.000  Zr
  O1       1.0000 0.03328  0.16488  0.08350  Biso   1.000  O
  O2       1.0000 0.03168  0.08520  0.33365  Biso   1.000  O
  O3       1.0000 0.46405  0.42176  0.09048  Biso   1.000  O
  O4       1.0000 0.46578  0.33395  0.33520  Biso   1.000  O
  O5       1.0000 0.27254  0.12454  0.29898  Biso   1.000  O
  O6       1.0000 0.27636  0.12573  0.04682  Biso   1.000  O
  O7       1.0000 0.22078  0.37481  0.29876  Biso   1.000  O
  O8       1.0000 0.22366  0.37625  0.04676  Biso   1.000  O
  O9       1.0000 0.52171  0.15510  0.17604  Biso   1.000  O
  O10      1.0000 0.53180  0.08524  0.41950  Biso   1.000  O
  O11      1.0000 0.96535  0.41490  0.16751  Biso   1.000  O
  O12      1.0000 0.96704  0.33506  0.41822  Biso   1.000  O
  O13      1.0000 0.77543  0.12403  0.45513  Biso   1.000  O
  O14      1.0000 0.77420  0.12689  0.20699  Biso   1.000  O
  O15      1.0000 0.72415  0.37364  0.45546  Biso   1.000  O
  O16      1.0000 0.72103  0.37789  0.20569  Biso   1.000  O
  Zr9      1.0000 0.14062  0.02029  0.67268  Biso   1.000  Zr
  Zr10     1.0000 0.13887  0.22783  0.92176  Biso   1.000  Zr
  Zr11     1.0000 0.36287  0.27040  0.67370  Biso   1.000  Zr
  Zr12     1.0000 0.36042  0.47980  0.92145  Biso   1.000  Zr
  Zr13     1.0000 0.63994  0.01979  0.57894  Biso   1.000  Zr
  Zr14     1.0000 0.64422  0.22523  0.82390  Biso   1.000  Zr
  Zr15     1.0000 0.86227  0.27094  0.57936  Biso   1.000  Zr
  Zr16     1.0000 0.86420  0.47987  0.82839  Biso   1.000  Zr
  O17      1.0000 0.03290  0.16426  0.58441  Biso   1.000  O
  O18      1.0000 0.03563  0.08349  0.83289  Biso   1.000  O
  O19      1.0000 0.46885  0.41475  0.58467  Biso   1.000  O
  O20      1.0000 0.46983  0.33390  0.83700  Biso   1.000  O
  O21      1.0000 0.27744  0.12424  0.79625  Biso   1.000  O
  O22      1.0000 0.27614  0.12486  0.54715  Biso   1.000  O
  O23      1.0000 0.22610  0.37404  0.79663  Biso   1.000  O
  O24      1.0000 0.22568  0.37488  0.54741  Biso   1.000  O
  O25      1.0000 0.53345  0.16400  0.66625  Biso   1.000  O
  O26      1.0000 0.53540  0.07736  0.91137  Biso   1.000  O
  O27      1.0000 0.96928  0.41456  0.66748  Biso   1.000  O
  O28      1.0000 0.96840  0.33462  0.91649  Biso   1.000  O
  O29      1.0000 0.78806  0.11958  0.94800  Biso   1.000  O
  O30      1.0000 0.77906  0.12308  0.70118  Biso   1.000  O
  O31      1.0000 0.72721  0.37831  0.95421  Biso   1.000  O
  O32      1.0000 0.72701  0.37507  0.70451  Biso   1.000  O
  Zr17     1.0000 0.13705  0.52163  0.17157  Biso   1.000  Zr
  Zr18     1.0000 0.13894  0.72834  0.42151  Biso   1.000  Zr
  Zr19     1.0000 0.36098  0.77289  0.17241  Biso   1.000  Zr
  Zr20     1.0000 0.36114  0.97783  0.42340  Biso   1.000  Zr
  Zr21     1.0000 0.64158  0.53128  0.08006  Biso   1.000  Zr
  Zr22     1.0000 0.63963  0.73079  0.32984  Biso   1.000  Zr
  Zr23     1.0000 0.86309  0.77298  0.07926  Biso   1.000  Zr
  Zr24     1.0000 0.86103  0.97911  0.32872  Biso   1.000  Zr
  O33      1.0000 0.03335  0.66536  0.08385  Biso   1.000  O
  O34      1.0000 0.03213  0.58465  0.33335  Biso   1.000  O
  O35      1.0000 0.46856  0.91397  0.08285  Biso   1.000  O
  O36      1.0000 0.46800  0.83577  0.33427  Biso   1.000  O
  O37      1.0000 0.27520  0.62407  0.29543  Biso   1.000  O
  O38      1.0000 0.27625  0.62544  0.04555  Biso   1.000  O
  O39      1.0000 0.22462  0.87440  0.29653  Biso   1.000  O
  O40      1.0000 0.22384  0.87526  0.04707  Biso   1.000  O
  O41      1.0000 0.53353  0.66821  0.16789  Biso   1.000  O
  O42      1.0000 0.53284  0.58531  0.41707  Biso   1.000  O
  O43      1.0000 0.96761  0.91636  0.16710  Biso   1.000  O
  O44      1.0000 0.96777  0.83408  0.41638  Biso   1.000  O
  O45      1.0000 0.77605  0.62388  0.45489  Biso   1.000  O
  O46      1.0000 0.77715  0.62794  0.20556  Biso   1.000  O
  O47      1.0000 0.72534  0.87454  0.45538  Biso   1.000  O
  O48      1.0000 0.72583  0.87586  0.20529  Biso   1.000  O
  Zr25     1.0000 0.14021  0.52040  0.67153  Biso   1.000  Zr
  Zr26     1.0000 0.14039  0.72906  0.92202  Biso   1.000  Zr
  Zr27     1.0000 0.36245  0.77044  0.67215  Biso   1.000  Zr
  Zr28     1.0000 0.36227  0.97779  0.92284  Biso   1.000  Zr
  Zr29     1.0000 0.63974  0.52100  0.57878  Biso   1.000  Zr
  Zr30     1.0000 0.63957  0.72893  0.82772  Biso   1.000  Zr
  Zr31     1.0000 0.86309  0.77043  0.57857  Biso   1.000  Zr
  Zr32     1.0000 0.86369  0.97634  0.82775  Biso   1.000  Zr
  O49      1.0000 0.03356  0.66375  0.58294  Biso   1.000  O
  O50      1.0000 0.03487  0.58499  0.83348  Biso   1.000  O
  O51      1.0000 0.46873  0.91347  0.58355  Biso   1.000  O
  O52      1.0000 0.46836  0.83307  0.83286  Biso   1.000  O
  O53      1.0000 0.27712  0.62341  0.79565  Biso   1.000  O
  O54      1.0000 0.27609  0.62489  0.54559  Biso   1.000  O
  O55      1.0000 0.22591  0.87321  0.79585  Biso   1.000  O
  O56      1.0000 0.22530  0.87475  0.54588  Biso   1.000  O
  O57      1.0000 0.53306  0.66360  0.66709  Biso   1.000  O
  O58      1.0000 0.53309  0.58534  0.91834  Biso   1.000  O
  O59      1.0000 0.97020  0.91315  0.66594  Biso   1.000  O
  O60      1.0000 0.96995  0.83465  0.91814  Biso   1.000  O
  O61      1.0000 0.77737  0.62597  0.95503  Biso   1.000  O
  O62      1.0000 0.77676  0.62518  0.70467  Biso   1.000  O
  O63      1.0000 0.72581  0.87267  0.95481  Biso   1.000  O
  O64      1.0000 0.72582  0.87412  0.70415  Biso   1.000  O
  Cu1      1.0000 0.58023  0.27868  0.05403  Biso   1.000  Cu
