data_image0
_cell_length_a       10.0819
_cell_length_b       10.2529
_cell_length_c       10.4054
_cell_angle_alpha    89.8863
_cell_angle_beta     80.2861
_cell_angle_gamma    90.0151

_symmetry_space_group_name_H-M    "P 1"
_symmetry_int_tables_number       1

loop_
  _symmetry_equiv_pos_as_xyz
  'x, y, z'

loop_
  _atom_site_label
  _atom_site_occupancy
  _atom_site_fract_x
  _atom_site_fract_y
  _atom_site_fract_z
  _atom_site_thermal_displace_type
  _atom_site_B_iso_or_equiv
  _atom_site_type_symbol
  Fe1      1.0000 0.13883  0.02274  0.15166  Biso   1.000  Fe
  Hf1      1.0000 0.13964  0.22853  0.39295  Biso   1.000  Hf
  Hf2      1.0000 0.35932  0.26989  0.10557  Biso   1.000  Hf
  Hf3      1.0000 0.36226  0.47975  0.35450  Biso   1.000  Hf
  O1       1.0000 0.03768  0.16104  0.08297  Biso   1.000  O
  O2       1.0000 0.04203  0.08299  0.31329  Biso   1.000  O
  O3       1.0000 0.46339  0.42066  0.16844  Biso   1.000  O
  O4       1.0000 0.46332  0.32994  0.41948  Biso   1.000  O
  O5       1.0000 0.27264  0.12352  0.23726  Biso   1.000  O
  O6       1.0000 0.27728  0.12175  0.49005  Biso   1.000  O
  O7       1.0000 0.22267  0.37865  0.01065  Biso   1.000  O
  O8       1.0000 0.22462  0.37066  0.25972  Biso   1.000  O
  Hf4      1.0000 0.13890  0.02112  0.64560  Biso   1.000  Hf
  Hf5      1.0000 0.13741  0.22430  0.90053  Biso   1.000  Hf
  Hf6      1.0000 0.36044  0.27172  0.60538  Biso   1.000  Hf
  Hf7      1.0000 0.35952  0.47816  0.85476  Biso   1.000  Hf
  O9       1.0000 0.03359  0.16401  0.57336  Biso   1.000  O
  O10      1.0000 0.03391  0.08225  0.82682  Biso   1.000  O
  O11      1.0000 0.46304  0.42115  0.66879  Biso   1.000  O
  O12      1.0000 0.45930  0.32480  0.91807  Biso   1.000  O
  O13      1.0000 0.27718  0.12863  0.74421  Biso   1.000  O
  O14      1.0000 0.26816  0.11365  0.00305  Biso   1.000  O
  O15      1.0000 0.22266  0.37887  0.50932  Biso   1.000  O
  O16      1.0000 0.22242  0.36964  0.76038  Biso   1.000  O
  Hf8      1.0000 0.13971  0.52171  0.14634  Biso   1.000  Hf
  Hf9      1.0000 0.13854  0.73046  0.39468  Biso   1.000  Hf
  Hf10     1.0000 0.35711  0.77566  0.10461  Biso   1.000  Hf
  Hf11     1.0000 0.35887  0.97870  0.35179  Biso   1.000  Hf
  O17      1.0000 0.03681  0.66948  0.08104  Biso   1.000  O
  O18      1.0000 0.03650  0.58029  0.33106  Biso   1.000  O
  O19      1.0000 0.46537  0.91885  0.16948  Biso   1.000  O
  O20      1.0000 0.46394  0.82957  0.41725  Biso   1.000  O
  O21      1.0000 0.27685  0.63222  0.24160  Biso   1.000  O
  O22      1.0000 0.27694  0.62129  0.49075  Biso   1.000  O
  O23      1.0000 0.21863  0.88489  0.01269  Biso   1.000  O
  O24      1.0000 0.21781  0.87671  0.25479  Biso   1.000  O
  Hf12     1.0000 0.13912  0.52123  0.64609  Biso   1.000  Hf
  Hf13     1.0000 0.13911  0.72989  0.89646  Biso   1.000  Hf
  Hf14     1.0000 0.36171  0.77139  0.60357  Biso   1.000  Hf
  Hf15     1.0000 0.35836  0.97824  0.85700  Biso   1.000  Hf
  O25      1.0000 0.03569  0.66947  0.57980  Biso   1.000  O
  O26      1.0000 0.03648  0.58024  0.83152  Biso   1.000  O
  O27      1.0000 0.46245  0.92067  0.66934  Biso   1.000  O
  O28      1.0000 0.46040  0.82786  0.91829  Biso   1.000  O
  O29      1.0000 0.27718  0.62922  0.74093  Biso   1.000  O
  O30      1.0000 0.27657  0.62169  0.99112  Biso   1.000  O
  O31      1.0000 0.22315  0.87927  0.50779  Biso   1.000  O
  O32      1.0000 0.22262  0.87080  0.75912  Biso   1.000  O
  Hf16     1.0000 0.63877  0.02204  0.14549  Biso   1.000  Hf
  Hf17     1.0000 0.63845  0.22853  0.39572  Biso   1.000  Hf
  Hf18     1.0000 0.86516  0.26821  0.10578  Biso   1.000  Hf
  Hf19     1.0000 0.86080  0.47921  0.35369  Biso   1.000  Hf
  O33      1.0000 0.53584  0.17105  0.08225  Biso   1.000  O
  O34      1.0000 0.53458  0.08056  0.33067  Biso   1.000  O
  O35      1.0000 0.96504  0.41987  0.16935  Biso   1.000  O
  O36      1.0000 0.96394  0.32948  0.41790  Biso   1.000  O
  O37      1.0000 0.77560  0.12908  0.24097  Biso   1.000  O
  O38      1.0000 0.77825  0.12041  0.48884  Biso   1.000  O
  O39      1.0000 0.72399  0.37883  0.00976  Biso   1.000  O
  O40      1.0000 0.72414  0.37054  0.25926  Biso   1.000  O
  Hf20     1.0000 0.63789  0.02046  0.64591  Biso   1.000  Hf
  Hf21     1.0000 0.63826  0.22867  0.89630  Biso   1.000  Hf
  Hf22     1.0000 0.86069  0.27101  0.60340  Biso   1.000  Hf
  Hf23     1.0000 0.86138  0.47798  0.85577  Biso   1.000  Hf
  O41      1.0000 0.53682  0.17105  0.58210  Biso   1.000  O
  O42      1.0000 0.53524  0.07801  0.83362  Biso   1.000  O
  O43      1.0000 0.96482  0.41719  0.67065  Biso   1.000  O
  O44      1.0000 0.96540  0.32859  0.92215  Biso   1.000  O
  O45      1.0000 0.77555  0.12900  0.74030  Biso   1.000  O
  O46      1.0000 0.77621  0.12106  0.99050  Biso   1.000  O
  O47      1.0000 0.72337  0.37918  0.50965  Biso   1.000  O
  O48      1.0000 0.72302  0.37075  0.75987  Biso   1.000  O
  Hf24     1.0000 0.63950  0.52237  0.14558  Biso   1.000  Hf
  Hf25     1.0000 0.64041  0.73016  0.39543  Biso   1.000  Hf
  Hf26     1.0000 0.86639  0.77506  0.10367  Biso   1.000  Hf
  Hf27     1.0000 0.86549  0.98119  0.35010  Biso   1.000  Hf
  O49      1.0000 0.53498  0.67101  0.08198  Biso   1.000  O
  O50      1.0000 0.53816  0.57925  0.33216  Biso   1.000  O
  O51      1.0000 0.97742  0.92580  0.16425  Biso   1.000  O
  O52      1.0000 0.96441  0.83247  0.41847  Biso   1.000  O
  O53      1.0000 0.77802  0.63121  0.24046  Biso   1.000  O
  O54      1.0000 0.77729  0.62107  0.49093  Biso   1.000  O
  O55      1.0000 0.72328  0.87938  0.00959  Biso   1.000  O
  O56      1.0000 0.73114  0.87341  0.25773  Biso   1.000  O
  Hf28     1.0000 0.63900  0.52134  0.64657  Biso   1.000  Hf
  Hf29     1.0000 0.63780  0.72792  0.89779  Biso   1.000  Hf
  Hf30     1.0000 0.86034  0.77141  0.60424  Biso   1.000  Hf
  Hf31     1.0000 0.85989  0.97896  0.85373  Biso   1.000  Hf
  O57      1.0000 0.53746  0.67140  0.58138  Biso   1.000  O
  O58      1.0000 0.53650  0.57751  0.83279  Biso   1.000  O
  O59      1.0000 0.96417  0.91882  0.66910  Biso   1.000  O
  O60      1.0000 0.96393  0.83054  0.91832  Biso   1.000  O
  O61      1.0000 0.77707  0.62869  0.74188  Biso   1.000  O
  O62      1.0000 0.77835  0.62206  0.99179  Biso   1.000  O
  O63      1.0000 0.72333  0.87962  0.50866  Biso   1.000  O
  O64      1.0000 0.72229  0.87037  0.75956  Biso   1.000  O
