data_image0
_cell_length_a       9.98828
_cell_length_b       10.1648
_cell_length_c       5.20817
_cell_angle_alpha    89.9659
_cell_angle_beta     90.8149
_cell_angle_gamma    89.3252

_symmetry_space_group_name_H-M    "P 1"
_symmetry_int_tables_number       1

loop_
  _symmetry_equiv_pos_as_xyz
  'x, y, z'

loop_
  _atom_site_label
  _atom_site_occupancy
  _atom_site_fract_x
  _atom_site_fract_y
  _atom_site_fract_z
  _atom_site_thermal_displace_type
  _atom_site_B_iso_or_equiv
  _atom_site_type_symbol
  Fe1      1.0000 0.11669  0.01379  0.38538  Biso   1.000  Fe
  Hf1      1.0000 0.14682  0.22675  0.83454  Biso   1.000  Hf
  Hf2      1.0000 0.35873  0.26954  0.33435  Biso   1.000  Hf
  Hf3      1.0000 0.36059  0.47982  0.84355  Biso   1.000  Hf
  Hf4      1.0000 0.63663  0.02152  0.15393  Biso   1.000  Hf
  Hf5      1.0000 0.63900  0.22976  0.65855  Biso   1.000  Hf
  Hf6      1.0000 0.86818  0.26538  0.16826  Biso   1.000  Hf
  Hf7      1.0000 0.86420  0.47644  0.66703  Biso   1.000  Hf
  O1       1.0000 0.05084  0.14532  0.17585  Biso   1.000  O
  O2       1.0000 0.03192  0.08281  0.65738  Biso   1.000  O
  O3       1.0000 0.46528  0.41878  0.17180  Biso   1.000  O
  O4       1.0000 0.46697  0.33296  0.66983  Biso   1.000  O
  O5       1.0000 0.26431  0.11614  0.54852  Biso   1.000  O
  O6       1.0000 0.30416  0.14923  0.03571  Biso   1.000  O
  O7       1.0000 0.22523  0.37340  0.59170  Biso   1.000  O
  O8       1.0000 0.21898  0.38194  0.08921  Biso   1.000  O
  O9       1.0000 0.53690  0.17022  0.32497  Biso   1.000  O
  O10      1.0000 0.53866  0.07830  0.81589  Biso   1.000  O
  O11      1.0000 0.97196  0.40917  0.34575  Biso   1.000  O
  O12      1.0000 0.97020  0.32764  0.84758  Biso   1.000  O
  O13      1.0000 0.78086  0.12150  0.91479  Biso   1.000  O
  O14      1.0000 0.77927  0.12445  0.41102  Biso   1.000  O
  O15      1.0000 0.72784  0.37121  0.91973  Biso   1.000  O
  O16      1.0000 0.72792  0.37432  0.41536  Biso   1.000  O
  Hf8      1.0000 0.14006  0.52308  0.34629  Biso   1.000  Hf
  Hf9      1.0000 0.13830  0.73406  0.84596  Biso   1.000  Hf
  Hf10     1.0000 0.35506  0.77964  0.33669  Biso   1.000  Hf
  Hf11     1.0000 0.35629  0.98351  0.83710  Biso   1.000  Hf
  Hf12     1.0000 0.63838  0.52015  0.16162  Biso   1.000  Hf
  Hf13     1.0000 0.63431  0.72774  0.65629  Biso   1.000  Hf
  Hf14     1.0000 0.85951  0.76894  0.16055  Biso   1.000  Hf
  Hf15     1.0000 0.85519  0.97687  0.66239  Biso   1.000  Hf
  O17      1.0000 0.03250  0.66573  0.17053  Biso   1.000  O
  O18      1.0000 0.03372  0.58431  0.67519  Biso   1.000  O
  O19      1.0000 0.46569  0.91883  0.16383  Biso   1.000  O
  O20      1.0000 0.46048  0.83392  0.66620  Biso   1.000  O
  O21      1.0000 0.27541  0.62818  0.58975  Biso   1.000  O
  O22      1.0000 0.27665  0.63146  0.08962  Biso   1.000  O
  O23      1.0000 0.21065  0.87963  0.58102  Biso   1.000  O
  O24      1.0000 0.21841  0.88884  0.08782  Biso   1.000  O
  O25      1.0000 0.53165  0.66983  0.32543  Biso   1.000  O
  O26      1.0000 0.53433  0.58133  0.82803  Biso   1.000  O
  O27      1.0000 0.96987  0.91508  0.34132  Biso   1.000  O
  O28      1.0000 0.96343  0.83522  0.83929  Biso   1.000  O
  O29      1.0000 0.77694  0.62245  0.91619  Biso   1.000  O
  O30      1.0000 0.77638  0.62404  0.41647  Biso   1.000  O
  O31      1.0000 0.72024  0.87127  0.91080  Biso   1.000  O
  O32      1.0000 0.72442  0.87551  0.41094  Biso   1.000  O
