data_image0
_cell_length_a       10.0457
_cell_length_b       10.4647
_cell_length_c       10.087
_cell_angle_alpha    89.8447
_cell_angle_beta     90.1747
_cell_angle_gamma    90.0428

_symmetry_space_group_name_H-M    "P 1"
_symmetry_int_tables_number       1

loop_
  _symmetry_equiv_pos_as_xyz
  'x, y, z'

loop_
  _atom_site_label
  _atom_site_occupancy
  _atom_site_fract_x
  _atom_site_fract_y
  _atom_site_fract_z
  _atom_site_thermal_displace_type
  _atom_site_B_iso_or_equiv
  _atom_site_type_symbol
  Zr1      1.0000 0.13471  0.02277  0.12118  Biso   1.000  Zr
  Zr2      1.0000 0.13408  0.23141  0.38204  Biso   1.000  Zr
  Zr3      1.0000 0.36285  0.26236  0.12142  Biso   1.000  Zr
  Zr4      1.0000 0.36786  0.48417  0.37392  Biso   1.000  Zr
  O1       1.0000 0.01890  0.17683  0.21176  Biso   1.000  O
  O2       1.0000 0.03487  0.06566  0.44997  Biso   1.000  O
  O3       1.0000 0.46062  0.43271  0.19396  Biso   1.000  O
  O4       1.0000 0.46455  0.31659  0.44509  Biso   1.000  O
  O5       1.0000 0.26716  0.11690  0.25112  Biso   1.000  O
  O6       1.0000 0.27085  0.13218  0.50012  Biso   1.000  O
  O7       1.0000 0.23224  0.38353  0.49785  Biso   1.000  O
  O8       1.0000 0.22147  0.36358  0.24476  Biso   1.000  O
  Zr5      1.0000 0.13448  0.01390  0.62686  Biso   1.000  Zr
  Zr6      1.0000 0.14232  0.22686  0.87369  Biso   1.000  Zr
  Zr7      1.0000 0.36811  0.26558  0.62547  Biso   1.000  Zr
  Zr8      1.0000 0.36691  0.48400  0.87479  Biso   1.000  Zr
  O9       1.0000 0.03535  0.18038  0.69538  Biso   1.000  O
  O10      1.0000 0.03814  0.06313  0.94184  Biso   1.000  O
  O11      1.0000 0.46751  0.43291  0.69600  Biso   1.000  O
  O12      1.0000 0.46480  0.31560  0.94241  Biso   1.000  O
  O13      1.0000 0.27271  0.11382  0.74607  Biso   1.000  O
  O14      1.0000 0.28708  0.12166  0.99140  Biso   1.000  O
  O15      1.0000 0.22802  0.38511  0.99961  Biso   1.000  O
  O16      1.0000 0.23394  0.36555  0.74817  Biso   1.000  O
  Zr9      1.0000 0.13373  0.53380  0.12338  Biso   1.000  Zr
  Zr10     1.0000 0.13513  0.73671  0.37819  Biso   1.000  Zr
  Zr11     1.0000 0.36539  0.76837  0.12674  Biso   1.000  Zr
  Zr12     1.0000 0.36524  0.98413  0.37536  Biso   1.000  Zr
  O17      1.0000 0.03177  0.68782  0.20162  Biso   1.000  O
  O18      1.0000 0.03450  0.56782  0.44700  Biso   1.000  O
  O19      1.0000 0.46416  0.93333  0.19511  Biso   1.000  O
  O20      1.0000 0.46486  0.81498  0.44269  Biso   1.000  O
  O21      1.0000 0.27252  0.62196  0.25081  Biso   1.000  O
  O22      1.0000 0.26981  0.63228  0.49916  Biso   1.000  O
  O23      1.0000 0.23201  0.88296  0.49955  Biso   1.000  O
  O24      1.0000 0.22986  0.86888  0.24936  Biso   1.000  O
  Zr13     1.0000 0.13434  0.51424  0.62566  Biso   1.000  Zr
  Zr14     1.0000 0.13396  0.73713  0.87277  Biso   1.000  Zr
  Zr15     1.0000 0.36921  0.76329  0.62364  Biso   1.000  Zr
  Zr16     1.0000 0.37009  0.97872  0.87354  Biso   1.000  Zr
  O25      1.0000 0.03678  0.68241  0.69287  Biso   1.000  O
  O26      1.0000 0.03402  0.57104  0.94500  Biso   1.000  O
  O27      1.0000 0.46836  0.93051  0.69195  Biso   1.000  O
  O28      1.0000 0.46838  0.81533  0.94698  Biso   1.000  O
  O29      1.0000 0.27018  0.61497  0.74826  Biso   1.000  O
  O30      1.0000 0.27155  0.63689  0.99637  Biso   1.000  O
  O31      1.0000 0.23028  0.88152  0.99858  Biso   1.000  O
  O32      1.0000 0.23461  0.86438  0.74736  Biso   1.000  O
  Zr17     1.0000 0.63143  0.01418  0.12362  Biso   1.000  Zr
  Zr18     1.0000 0.63099  0.23177  0.37620  Biso   1.000  Zr
  Zr19     1.0000 0.85148  0.26388  0.12834  Biso   1.000  Zr
  Zr20     1.0000 0.86723  0.48418  0.37589  Biso   1.000  Zr
  O33      1.0000 0.53278  0.18056  0.19532  Biso   1.000  O
  O34      1.0000 0.53460  0.06536  0.44590  Biso   1.000  O
  O35      1.0000 0.96443  0.43298  0.19531  Biso   1.000  O
  O36      1.0000 0.96744  0.31907  0.44963  Biso   1.000  O
  O37      1.0000 0.76290  0.11433  0.24973  Biso   1.000  O
  O38      1.0000 0.77042  0.13335  0.49789  Biso   1.000  O
  O39      1.0000 0.73188  0.38292  0.50003  Biso   1.000  O
  O40      1.0000 0.72499  0.36843  0.25152  Biso   1.000  O
  Zr21     1.0000 0.63613  0.01440  0.62452  Biso   1.000  Zr
  Zr22     1.0000 0.63251  0.23230  0.87341  Biso   1.000  Zr
  Zr23     1.0000 0.86758  0.26444  0.62595  Biso   1.000  Zr
  Zr24     1.0000 0.86699  0.48299  0.87795  Biso   1.000  Zr
  O41      1.0000 0.53775  0.18308  0.69236  Biso   1.000  O
  O42      1.0000 0.54119  0.06316  0.93975  Biso   1.000  O
  O43      1.0000 0.96852  0.43024  0.70293  Biso   1.000  O
  O44      1.0000 0.97452  0.31451  0.96059  Biso   1.000  O
  O45      1.0000 0.77128  0.11513  0.74808  Biso   1.000  O
  O46      1.0000 0.77007  0.13187  0.99789  Biso   1.000  O
  O47      1.0000 0.72910  0.38206  0.99892  Biso   1.000  O
  O48      1.0000 0.73412  0.36508  0.75050  Biso   1.000  O
  Zr25     1.0000 0.63103  0.51617  0.12623  Biso   1.000  Zr
  Zr26     1.0000 0.63428  0.73380  0.37490  Biso   1.000  Zr
  Zr27     1.0000 0.86482  0.76738  0.12574  Biso   1.000  Zr
  Zr28     1.0000 0.86774  0.98462  0.37329  Biso   1.000  Zr
  O49      1.0000 0.53530  0.68264  0.19457  Biso   1.000  O
  O50      1.0000 0.53383  0.56562  0.44564  Biso   1.000  O
  O51      1.0000 0.96451  0.93461  0.19331  Biso   1.000  O
  O52      1.0000 0.96570  0.81807  0.44633  Biso   1.000  O
  O53      1.0000 0.76877  0.61613  0.24930  Biso   1.000  O
  O54      1.0000 0.76871  0.63295  0.49935  Biso   1.000  O
  O55      1.0000 0.73206  0.88334  0.49776  Biso   1.000  O
  O56      1.0000 0.72994  0.86607  0.24851  Biso   1.000  O
  Zr29     1.0000 0.63615  0.51405  0.62610  Biso   1.000  Zr
  Zr30     1.0000 0.63564  0.73286  0.87535  Biso   1.000  Zr
  Zr31     1.0000 0.86754  0.76492  0.62484  Biso   1.000  Zr
  Zr32     1.0000 0.86689  0.98252  0.87537  Biso   1.000  Zr
  O57      1.0000 0.53770  0.68186  0.69478  Biso   1.000  O
  O58      1.0000 0.53554  0.56555  0.94409  Biso   1.000  O
  O59      1.0000 0.96767  0.92982  0.69799  Biso   1.000  O
  O60      1.0000 0.96466  0.81524  0.94547  Biso   1.000  O
  O61      1.0000 0.77211  0.61436  0.75017  Biso   1.000  O
  O62      1.0000 0.76941  0.63165  0.99979  Biso   1.000  O
  O63      1.0000 0.73132  0.88196  0.99857  Biso   1.000  O
  O64      1.0000 0.73276  0.86487  0.74850  Biso   1.000  O
  Fe1      1.0000 0.09746  0.30902  0.10854  Biso   1.000  Fe
