data_image0
_cell_length_a       10.1004
_cell_length_b       10.344
_cell_length_c       5.08505
_cell_angle_alpha    90.0017
_cell_angle_beta     85.3608
_cell_angle_gamma    89.9984

_symmetry_space_group_name_H-M    "P 1"
_symmetry_int_tables_number       1

loop_
  _symmetry_equiv_pos_as_xyz
  'x, y, z'

loop_
  _atom_site_label
  _atom_site_occupancy
  _atom_site_fract_x
  _atom_site_fract_y
  _atom_site_fract_z
  _atom_site_thermal_displace_type
  _atom_site_B_iso_or_equiv
  _atom_site_type_symbol
  Hf1      1.0000 0.12487  0.92937  0.24976  Biso   1.000  Hf
  Hf2      1.0000 0.12486  0.29317  0.74973  Biso   1.000  Hf
  Hf3      1.0000 0.37529  0.25205  0.30482  Biso   1.000  Hf
  Hf4      1.0000 0.37049  0.00373  0.78918  Biso   1.000  Hf
  O1       1.0000 0.97474  0.16333  0.84623  Biso   1.000  O
  O2       1.0000 0.98960  0.07300  0.36206  Biso   1.000  O
  O3       1.0000 0.98550  0.36177  0.48238  Biso   1.000  O
  O4       1.0000 0.99258  0.41777  0.99044  Biso   1.000  O
  O5       1.0000 0.27498  0.16331  0.65330  Biso   1.000  O
  O6       1.0000 0.26015  0.07298  0.13749  Biso   1.000  O
  O7       1.0000 0.26422  0.36178  0.01713  Biso   1.000  O
  O8       1.0000 0.25715  0.41775  0.50906  Biso   1.000  O
  Hf5      1.0000 0.12488  0.51317  0.24973  Biso   1.000  Hf
  Hf6      1.0000 0.12487  0.73781  0.74975  Biso   1.000  Hf
  Hf7      1.0000 0.39366  0.75929  0.27610  Biso   1.000  Hf
  Hf8      1.0000 0.38865  0.49078  0.78150  Biso   1.000  Hf
  O9       1.0000 0.01663  0.66538  0.08780  Biso   1.000  O
  O10      1.0000 0.01611  0.59301  0.58151  Biso   1.000  O
  O11      1.0000 0.98640  0.83539  0.49517  Biso   1.000  O
  O12      1.0000 0.00344  0.89714  0.95504  Biso   1.000  O
  O13      1.0000 0.23312  0.66537  0.41171  Biso   1.000  O
  O14      1.0000 0.23363  0.59302  0.91798  Biso   1.000  O
  O15      1.0000 0.26334  0.83538  0.00435  Biso   1.000  O
  O16      1.0000 0.24630  0.89713  0.54447  Biso   1.000  O
  Hf9      1.0000 0.62488  0.00992  0.24974  Biso   1.000  Hf
  Hf10     1.0000 0.62486  0.24402  0.74976  Biso   1.000  Hf
  Hf11     1.0000 0.87443  0.25209  0.19471  Biso   1.000  Hf
  Hf12     1.0000 0.87926  0.00375  0.71034  Biso   1.000  Hf
  O17      1.0000 0.49540  0.14888  0.01577  Biso   1.000  O
  O18      1.0000 0.50438  0.10605  0.51650  Biso   1.000  O
  O19      1.0000 0.49955  0.35382  0.53356  Biso   1.000  O
  O20      1.0000 0.50597  0.39578  0.03358  Biso   1.000  O
  O21      1.0000 0.75432  0.14889  0.48368  Biso   1.000  O
  O22      1.0000 0.74533  0.10606  0.98296  Biso   1.000  O
  O23      1.0000 0.75019  0.35383  0.96586  Biso   1.000  O
  O24      1.0000 0.74378  0.39581  0.46581  Biso   1.000  O
  Hf13     1.0000 0.62486  0.50107  0.24972  Biso   1.000  Hf
  Hf14     1.0000 0.62487  0.75742  0.74979  Biso   1.000  Hf
  Hf15     1.0000 0.85608  0.75929  0.22346  Biso   1.000  Hf
  Hf16     1.0000 0.86108  0.49080  0.71797  Biso   1.000  Hf
  O25      1.0000 0.49641  0.64567  0.99224  Biso   1.000  O
  O26      1.0000 0.49655  0.61047  0.49202  Biso   1.000  O
  O27      1.0000 0.49588  0.85942  0.54001  Biso   1.000  O
  O28      1.0000 0.50504  0.89959  0.03110  Biso   1.000  O
  O29      1.0000 0.75334  0.64569  0.50731  Biso   1.000  O
  O30      1.0000 0.75319  0.61048  0.00751  Biso   1.000  O
  O31      1.0000 0.75384  0.85944  0.95959  Biso   1.000  O
  O32      1.0000 0.74469  0.89960  0.46848  Biso   1.000  O
  Ga1      1.0000 0.12487  0.20083  0.24969  Biso   1.000  Ga
