data_image0
_cell_length_a       9.96039
_cell_length_b       10.339
_cell_length_c       5.00231
_cell_angle_alpha    90.6063
_cell_angle_beta     89.7163
_cell_angle_gamma    90.1922

_symmetry_space_group_name_H-M    "P 1"
_symmetry_int_tables_number       1

loop_
  _symmetry_equiv_pos_as_xyz
  'x, y, z'

loop_
  _atom_site_label
  _atom_site_occupancy
  _atom_site_fract_x
  _atom_site_fract_y
  _atom_site_fract_z
  _atom_site_thermal_displace_type
  _atom_site_B_iso_or_equiv
  _atom_site_type_symbol
  Ga1      1.0000 0.12342  0.02242  0.23081  Biso   1.000  Ga
  Hf1      1.0000 0.13246  0.23062  0.74106  Biso   1.000  Hf
  Hf2      1.0000 0.36349  0.26194  0.24442  Biso   1.000  Hf
  Hf3      1.0000 0.36629  0.48332  0.75061  Biso   1.000  Hf
  O1       1.0000 0.02931  0.18169  0.39164  Biso   1.000  O
  O2       1.0000 0.03475  0.06808  0.89745  Biso   1.000  O
  O3       1.0000 0.46486  0.43224  0.38892  Biso   1.000  O
  O4       1.0000 0.46659  0.31834  0.89049  Biso   1.000  O
  O5       1.0000 0.26011  0.10601  0.47231  Biso   1.000  O
  O6       1.0000 0.27459  0.13925  0.97136  Biso   1.000  O
  O7       1.0000 0.22957  0.38373  0.99479  Biso   1.000  O
  O8       1.0000 0.23085  0.36288  0.49447  Biso   1.000  O
  Hf4      1.0000 0.13537  0.51471  0.25181  Biso   1.000  Hf
  Hf5      1.0000 0.13520  0.73501  0.76224  Biso   1.000  Hf
  Hf6      1.0000 0.36508  0.76774  0.25936  Biso   1.000  Hf
  Hf7      1.0000 0.35859  0.98454  0.75303  Biso   1.000  Hf
  O9       1.0000 0.03639  0.68330  0.39594  Biso   1.000  O
  O10      1.0000 0.03397  0.56624  0.89725  Biso   1.000  O
  O11      1.0000 0.46964  0.93250  0.40126  Biso   1.000  O
  O12      1.0000 0.46588  0.82051  0.90195  Biso   1.000  O
  O13      1.0000 0.26923  0.61128  0.50084  Biso   1.000  O
  O14      1.0000 0.27099  0.63442  0.00190  Biso   1.000  O
  O15      1.0000 0.22552  0.89043  0.03129  Biso   1.000  O
  O16      1.0000 0.24307  0.85384  0.53217  Biso   1.000  O
  Hf8      1.0000 0.63286  0.01523  0.24579  Biso   1.000  Hf
  Hf9      1.0000 0.63378  0.23285  0.74847  Biso   1.000  Hf
  Hf10     1.0000 0.86503  0.26586  0.24669  Biso   1.000  Hf
  Hf11     1.0000 0.86523  0.48492  0.75152  Biso   1.000  Hf
  O17      1.0000 0.53226  0.18304  0.39174  Biso   1.000  O
  O18      1.0000 0.53417  0.06752  0.89143  Biso   1.000  O
  O19      1.0000 0.96572  0.43300  0.39271  Biso   1.000  O
  O20      1.0000 0.96438  0.31735  0.88832  Biso   1.000  O
  O21      1.0000 0.76827  0.11600  0.49244  Biso   1.000  O
  O22      1.0000 0.77022  0.13406  0.99207  Biso   1.000  O
  O23      1.0000 0.72925  0.38426  0.99660  Biso   1.000  O
  O24      1.0000 0.72923  0.36706  0.49633  Biso   1.000  O
  Hf12     1.0000 0.63377  0.51726  0.25246  Biso   1.000  Hf
  Hf13     1.0000 0.63457  0.73672  0.75251  Biso   1.000  Hf
  Hf14     1.0000 0.87081  0.76802  0.24883  Biso   1.000  Hf
  Hf15     1.0000 0.87003  0.98582  0.74371  Biso   1.000  Hf
  O25      1.0000 0.53469  0.68333  0.39756  Biso   1.000  O
  O26      1.0000 0.53499  0.56880  0.89250  Biso   1.000  O
  O27      1.0000 0.97604  0.93371  0.38999  Biso   1.000  O
  O28      1.0000 0.96347  0.81724  0.88701  Biso   1.000  O
  O29      1.0000 0.77102  0.61722  0.49888  Biso   1.000  O
  O30      1.0000 0.76936  0.63493  0.99957  Biso   1.000  O
  O31      1.0000 0.73245  0.88517  0.99367  Biso   1.000  O
  O32      1.0000 0.73447  0.86664  0.49336  Biso   1.000  O
