data_image0
_cell_length_a       10.002
_cell_length_b       5.08263
_cell_length_c       10.435
_cell_angle_alpha    90.1309
_cell_angle_beta     90.795
_cell_angle_gamma    89.3257

_symmetry_space_group_name_H-M    "P 1"
_symmetry_int_tables_number       1

loop_
  _symmetry_equiv_pos_as_xyz
  'x, y, z'

loop_
  _atom_site_label
  _atom_site_occupancy
  _atom_site_fract_x
  _atom_site_fract_y
  _atom_site_fract_z
  _atom_site_thermal_displace_type
  _atom_site_B_iso_or_equiv
  _atom_site_type_symbol
  Ge1      1.0000 0.12184  0.02190  0.18575  Biso   1.000  Ge
  Hf1      1.0000 0.13602  0.45572  0.41653  Biso   1.000  Hf
  Hf2      1.0000 0.35603  0.55283  0.16804  Biso   1.000  Hf
  Hf3      1.0000 0.35757  0.95999  0.41842  Biso   1.000  Hf
  Hf4      1.0000 0.64014  0.04175  0.07823  Biso   1.000  Hf
  Hf5      1.0000 0.63529  0.45463  0.32804  Biso   1.000  Hf
  Hf6      1.0000 0.86876  0.52984  0.08347  Biso   1.000  Hf
  Hf7      1.0000 0.85573  0.95317  0.33279  Biso   1.000  Hf
  O1       1.0000 0.05170  0.30637  0.08982  Biso   1.000  O
  O2       1.0000 0.03234  0.15609  0.33254  Biso   1.000  O
  O3       1.0000 0.46820  0.83573  0.08360  Biso   1.000  O
  O4       1.0000 0.46045  0.65997  0.33637  Biso   1.000  O
  O5       1.0000 0.26601  0.23422  0.27675  Biso   1.000  O
  O6       1.0000 0.30327  0.31867  0.02061  Biso   1.000  O
  O7       1.0000 0.21403  0.75114  0.29360  Biso   1.000  O
  O8       1.0000 0.21493  0.81856  0.05598  Biso   1.000  O
  O9       1.0000 0.53409  0.33757  0.16407  Biso   1.000  O
  O10      1.0000 0.53143  0.16169  0.41249  Biso   1.000  O
  O11      1.0000 0.96930  0.82584  0.17152  Biso   1.000  O
  O12      1.0000 0.96263  0.66236  0.41830  Biso   1.000  O
  O13      1.0000 0.77404  0.24287  0.45679  Biso   1.000  O
  O14      1.0000 0.77791  0.24743  0.20668  Biso   1.000  O
  O15      1.0000 0.71985  0.74305  0.45750  Biso   1.000  O
  O16      1.0000 0.72707  0.74614  0.20683  Biso   1.000  O
  Hf8      1.0000 0.13810  0.03913  0.66870  Biso   1.000  Hf
  Hf9      1.0000 0.14205  0.45548  0.91987  Biso   1.000  Hf
  Hf10     1.0000 0.36093  0.54541  0.67133  Biso   1.000  Hf
  Hf11     1.0000 0.36130  0.96955  0.92382  Biso   1.000  Hf
  Hf12     1.0000 0.63604  0.04032  0.58021  Biso   1.000  Hf
  Hf13     1.0000 0.63971  0.46041  0.83039  Biso   1.000  Hf
  Hf14     1.0000 0.85941  0.53720  0.58133  Biso   1.000  Hf
  Hf15     1.0000 0.86414  0.95441  0.83227  Biso   1.000  Hf
  O17      1.0000 0.03152  0.32206  0.57928  Biso   1.000  O
  O18      1.0000 0.03469  0.17220  0.83257  Biso   1.000  O
  O19      1.0000 0.46323  0.83823  0.58378  Biso   1.000  O
  O20      1.0000 0.46844  0.67464  0.83248  Biso   1.000  O
  O21      1.0000 0.27588  0.24312  0.78512  Biso   1.000  O
  O22      1.0000 0.27588  0.25624  0.53684  Biso   1.000  O
  O23      1.0000 0.22439  0.74671  0.79900  Biso   1.000  O
  O24      1.0000 0.22100  0.75171  0.54343  Biso   1.000  O
  O25      1.0000 0.53427  0.33857  0.66376  Biso   1.000  O
  O26      1.0000 0.53971  0.16172  0.91196  Biso   1.000  O
  O27      1.0000 0.96854  0.81958  0.67134  Biso   1.000  O
  O28      1.0000 0.97017  0.66651  0.92560  Biso   1.000  O
  O29      1.0000 0.78196  0.24399  0.95833  Biso   1.000  O
  O30      1.0000 0.77740  0.25026  0.70721  Biso   1.000  O
  O31      1.0000 0.72826  0.74156  0.95894  Biso   1.000  O
  O32      1.0000 0.72433  0.75349  0.70775  Biso   1.000  O
