data_image0
_cell_length_a       10.0246
_cell_length_b       5.227
_cell_length_c       10.0307
_cell_angle_alpha    91.9722
_cell_angle_beta     89.2961
_cell_angle_gamma    90.0475

_symmetry_space_group_name_H-M    "P 1"
_symmetry_int_tables_number       1

loop_
  _symmetry_equiv_pos_as_xyz
  'x, y, z'

loop_
  _atom_site_label
  _atom_site_occupancy
  _atom_site_fract_x
  _atom_site_fract_y
  _atom_site_fract_z
  _atom_site_thermal_displace_type
  _atom_site_B_iso_or_equiv
  _atom_site_type_symbol
  Ge1      1.0000 0.11551  0.05685  0.11058  Biso   1.000  Ge
  Zr1      1.0000 0.13646  0.03680  0.62890  Biso   1.000  Zr
  Zr2      1.0000 0.63802  0.04237  0.12674  Biso   1.000  Zr
  Zr3      1.0000 0.62440  0.02503  0.61485  Biso   1.000  Zr
  Zr4      1.0000 0.13764  0.44231  0.37133  Biso   1.000  Zr
  Zr5      1.0000 0.13089  0.48735  0.88299  Biso   1.000  Zr
  Zr6      1.0000 0.63842  0.47254  0.37873  Biso   1.000  Zr
  Zr7      1.0000 0.63511  0.47458  0.86700  Biso   1.000  Zr
  Zr8      1.0000 0.38859  0.52475  0.10832  Biso   1.000  Zr
  Zr9      1.0000 0.36425  0.54070  0.62926  Biso   1.000  Zr
  Zr10     1.0000 0.86983  0.53683  0.11993  Biso   1.000  Zr
  Zr11     1.0000 0.87331  0.52725  0.61754  Biso   1.000  Zr
  Zr12     1.0000 0.36374  0.94414  0.37023  Biso   1.000  Zr
  Zr13     1.0000 0.35738  0.99018  0.88449  Biso   1.000  Zr
  Zr14     1.0000 0.87216  0.97135  0.37231  Biso   1.000  Zr
  Zr15     1.0000 0.86173  0.97448  0.86760  Biso   1.000  Zr
  O1       1.0000 0.03710  0.36608  0.18549  Biso   1.000  O
  O2       1.0000 0.03221  0.36805  0.70563  Biso   1.000  O
  O3       1.0000 0.53848  0.37207  0.20523  Biso   1.000  O
  O4       1.0000 0.53158  0.36913  0.69389  Biso   1.000  O
  O5       1.0000 0.02890  0.13995  0.46003  Biso   1.000  O
  O6       1.0000 0.03009  0.13558  0.95054  Biso   1.000  O
  O7       1.0000 0.53533  0.13571  0.43818  Biso   1.000  O
  O8       1.0000 0.51714  0.18259  0.96316  Biso   1.000  O
  O9       1.0000 0.47124  0.87206  0.18970  Biso   1.000  O
  O10      1.0000 0.46022  0.88153  0.70246  Biso   1.000  O
  O11      1.0000 0.98057  0.87096  0.18762  Biso   1.000  O
  O12      1.0000 0.96731  0.86603  0.69288  Biso   1.000  O
  O13      1.0000 0.47733  0.65019  0.46244  Biso   1.000  O
  O14      1.0000 0.46204  0.66362  0.93327  Biso   1.000  O
  O15      1.0000 0.96815  0.63058  0.43622  Biso   1.000  O
  O16      1.0000 0.95664  0.63934  0.93916  Biso   1.000  O
  O17      1.0000 0.22576  0.11431  0.25330  Biso   1.000  O
  O18      1.0000 0.26812  0.24948  0.75562  Biso   1.000  O
  O19      1.0000 0.77692  0.23740  0.24608  Biso   1.000  O
  O20      1.0000 0.76214  0.22414  0.74361  Biso   1.000  O
  O21      1.0000 0.27413  0.25841  0.49844  Biso   1.000  O
  O22      1.0000 0.25504  0.28221  0.00998  Biso   1.000  O
  O23      1.0000 0.76746  0.26758  0.49617  Biso   1.000  O
  O24      1.0000 0.76448  0.27581  0.99424  Biso   1.000  O
  O25      1.0000 0.22792  0.75774  0.50327  Biso   1.000  O
  O26      1.0000 0.22021  0.79646  0.01807  Biso   1.000  O
  O27      1.0000 0.73973  0.77181  0.49466  Biso   1.000  O
  O28      1.0000 0.72499  0.77839  0.99201  Biso   1.000  O
  O29      1.0000 0.27785  0.62024  0.26673  Biso   1.000  O
  O30      1.0000 0.22670  0.74672  0.75869  Biso   1.000  O
  O31      1.0000 0.73694  0.73804  0.24446  Biso   1.000  O
  O32      1.0000 0.73205  0.72592  0.74090  Biso   1.000  O
