data_image0
_cell_length_a       10.0108
_cell_length_b       10.4404
_cell_length_c       5.02585
_cell_angle_alpha    90.9106
_cell_angle_beta     89.4893
_cell_angle_gamma    90.0637

_symmetry_space_group_name_H-M    "P 1"
_symmetry_int_tables_number       1

loop_
  _symmetry_equiv_pos_as_xyz
  'x, y, z'

loop_
  _atom_site_label
  _atom_site_occupancy
  _atom_site_fract_x
  _atom_site_fract_y
  _atom_site_fract_z
  _atom_site_thermal_displace_type
  _atom_site_B_iso_or_equiv
  _atom_site_type_symbol
  Ge1      1.0000 0.11741  0.02537  0.23068  Biso   1.000  Ge
  Zr1      1.0000 0.13439  0.51285  0.24733  Biso   1.000  Zr
  Zr2      1.0000 0.63059  0.01401  0.24538  Biso   1.000  Zr
  Zr3      1.0000 0.63250  0.51769  0.24951  Biso   1.000  Zr
  Zr4      1.0000 0.13161  0.23544  0.73240  Biso   1.000  Zr
  Zr5      1.0000 0.13140  0.73317  0.75787  Biso   1.000  Zr
  Zr6      1.0000 0.63381  0.23395  0.74791  Biso   1.000  Zr
  Zr7      1.0000 0.63237  0.73986  0.75180  Biso   1.000  Zr
  Zr8      1.0000 0.36841  0.26239  0.23112  Biso   1.000  Zr
  Zr9      1.0000 0.36585  0.76686  0.26259  Biso   1.000  Zr
  Zr10     1.0000 0.86444  0.26586  0.24319  Biso   1.000  Zr
  Zr11     1.0000 0.87263  0.76503  0.24380  Biso   1.000  Zr
  Zr12     1.0000 0.36872  0.48644  0.74546  Biso   1.000  Zr
  Zr13     1.0000 0.36024  0.98632  0.75471  Biso   1.000  Zr
  Zr14     1.0000 0.86457  0.48603  0.74715  Biso   1.000  Zr
  Zr15     1.0000 0.86964  0.98770  0.74323  Biso   1.000  Zr
  O1       1.0000 0.02795  0.17585  0.38866  Biso   1.000  O
  O2       1.0000 0.03396  0.68063  0.39969  Biso   1.000  O
  O3       1.0000 0.52665  0.18037  0.40415  Biso   1.000  O
  O4       1.0000 0.53215  0.68255  0.40447  Biso   1.000  O
  O5       1.0000 0.03555  0.06854  0.91502  Biso   1.000  O
  O6       1.0000 0.02952  0.56769  0.90318  Biso   1.000  O
  O7       1.0000 0.53054  0.07316  0.90486  Biso   1.000  O
  O8       1.0000 0.53331  0.57332  0.89584  Biso   1.000  O
  O9       1.0000 0.46636  0.43199  0.38751  Biso   1.000  O
  O10      1.0000 0.47417  0.92986  0.41673  Biso   1.000  O
  O11      1.0000 0.96908  0.42809  0.39778  Biso   1.000  O
  O12      1.0000 0.98585  0.93352  0.38970  Biso   1.000  O
  O13      1.0000 0.47059  0.32398  0.89300  Biso   1.000  O
  O14      1.0000 0.46603  0.82573  0.91474  Biso   1.000  O
  O15      1.0000 0.96539  0.31706  0.88848  Biso   1.000  O
  O16      1.0000 0.96404  0.82051  0.88759  Biso   1.000  O
  O17      1.0000 0.24981  0.09542  0.45601  Biso   1.000  O
  O18      1.0000 0.26588  0.60787  0.49712  Biso   1.000  O
  O19      1.0000 0.76652  0.11464  0.48918  Biso   1.000  O
  O20      1.0000 0.76891  0.61586  0.49554  Biso   1.000  O
  O21      1.0000 0.27302  0.14520  0.95504  Biso   1.000  O
  O22      1.0000 0.26774  0.63907  0.99986  Biso   1.000  O
  O23      1.0000 0.76961  0.13465  0.98863  Biso   1.000  O
  O24      1.0000 0.76685  0.63816  0.99612  Biso   1.000  O
  O25      1.0000 0.23120  0.38773  0.98452  Biso   1.000  O
  O26      1.0000 0.22306  0.90117  0.05156  Biso   1.000  O
  O27      1.0000 0.73192  0.38580  0.99468  Biso   1.000  O
  O28      1.0000 0.73351  0.88807  0.99012  Biso   1.000  O
  O29      1.0000 0.23484  0.35800  0.48464  Biso   1.000  O
  O30      1.0000 0.24924  0.84907  0.54913  Biso   1.000  O
  O31      1.0000 0.72974  0.36579  0.49294  Biso   1.000  O
  O32      1.0000 0.74178  0.86586  0.49145  Biso   1.000  O
