data_image0
_cell_length_a       10.1545
_cell_length_b       10.2647
_cell_length_c       5.22624
_cell_angle_alpha    90.4718
_cell_angle_beta     79.9753
_cell_angle_gamma    89.5511

_symmetry_space_group_name_H-M    "P 1"
_symmetry_int_tables_number       1

loop_
  _symmetry_equiv_pos_as_xyz
  'x, y, z'

loop_
  _atom_site_label
  _atom_site_occupancy
  _atom_site_fract_x
  _atom_site_fract_y
  _atom_site_fract_z
  _atom_site_thermal_displace_type
  _atom_site_B_iso_or_equiv
  _atom_site_type_symbol
  H1       1.0000 0.06732  0.92432  0.28310  Biso   1.000  H
  Hf1      1.0000 0.15854  0.23999  0.78492  Biso   1.000  Hf
  Hf2      1.0000 0.36033  0.26874  0.21046  Biso   1.000  Hf
  Hf3      1.0000 0.36507  0.48415  0.70388  Biso   1.000  Hf
  O1       1.0000 0.01748  0.13289  0.07907  Biso   1.000  O
  O2       1.0000 0.02863  0.08157  0.82507  Biso   1.000  O
  O3       1.0000 0.46812  0.41994  0.33859  Biso   1.000  O
  O4       1.0000 0.46870  0.33968  0.84173  Biso   1.000  O
  O5       1.0000 0.28037  0.13851  0.49425  Biso   1.000  O
  O6       1.0000 0.28913  0.13647  0.96640  Biso   1.000  O
  O7       1.0000 0.22479  0.38202  0.01704  Biso   1.000  O
  O8       1.0000 0.22725  0.37917  0.51424  Biso   1.000  O
  Hf4      1.0000 0.14151  0.52603  0.28990  Biso   1.000  Hf
  Hf5      1.0000 0.14507  0.73451  0.78838  Biso   1.000  Hf
  Hf6      1.0000 0.35587  0.78264  0.20779  Biso   1.000  Hf
  Hf7      1.0000 0.35182  0.98202  0.71014  Biso   1.000  Hf
  O9       1.0000 0.03381  0.66747  0.15661  Biso   1.000  O
  O10      1.0000 0.03401  0.58540  0.65147  Biso   1.000  O
  O11      1.0000 0.46837  0.92047  0.34555  Biso   1.000  O
  O12      1.0000 0.47079  0.84321  0.84555  Biso   1.000  O
  O13      1.0000 0.27745  0.63006  0.47546  Biso   1.000  O
  O14      1.0000 0.27788  0.62267  0.97960  Biso   1.000  O
  O15      1.0000 0.22570  0.87571  0.00930  Biso   1.000  O
  O16      1.0000 0.22941  0.86810  0.52454  Biso   1.000  O
  Hf8      1.0000 0.63636  0.02450  0.29611  Biso   1.000  Hf
  Hf9      1.0000 0.63774  0.23126  0.78613  Biso   1.000  Hf
  Hf10     1.0000 0.85573  0.27431  0.19650  Biso   1.000  Hf
  Hf11     1.0000 0.86543  0.47870  0.69998  Biso   1.000  Hf
  O17      1.0000 0.53849  0.17331  0.15941  Biso   1.000  O
  O18      1.0000 0.53752  0.08538  0.65757  Biso   1.000  O
  O19      1.0000 0.97386  0.40463  0.33945  Biso   1.000  O
  O20      1.0000 0.96989  0.33287  0.83878  Biso   1.000  O
  O21      1.0000 0.78454  0.13035  0.47794  Biso   1.000  O
  O22      1.0000 0.77248  0.12263  0.97795  Biso   1.000  O
  O23      1.0000 0.72709  0.38152  0.01318  Biso   1.000  O
  O24      1.0000 0.72508  0.37336  0.51213  Biso   1.000  O
  Hf12     1.0000 0.63710  0.52595  0.28633  Biso   1.000  Hf
  Hf13     1.0000 0.63700  0.73224  0.79316  Biso   1.000  Hf
  Hf14     1.0000 0.86132  0.76908  0.20639  Biso   1.000  Hf
  Hf15     1.0000 0.85701  0.97744  0.71915  Biso   1.000  Hf
  O25      1.0000 0.53457  0.67147  0.15328  Biso   1.000  O
  O26      1.0000 0.53548  0.58862  0.65191  Biso   1.000  O
  O27      1.0000 0.97034  0.91698  0.35644  Biso   1.000  O
  O28      1.0000 0.96491  0.83355  0.84547  Biso   1.000  O
  O29      1.0000 0.77736  0.62857  0.47636  Biso   1.000  O
  O30      1.0000 0.77770  0.62304  0.97689  Biso   1.000  O
  O31      1.0000 0.72551  0.88137  0.01897  Biso   1.000  O
  O32      1.0000 0.73002  0.87313  0.51748  Biso   1.000  O
