data_image0
_cell_length_a       10.073
_cell_length_b       5.10978
_cell_length_c       10.073
_cell_angle_alpha    89.9998
_cell_angle_beta     90
_cell_angle_gamma    89.9998

_symmetry_space_group_name_H-M    "P 1"
_symmetry_int_tables_number       1

loop_
  _symmetry_equiv_pos_as_xyz
  'x, y, z'

loop_
  _atom_site_label
  _atom_site_occupancy
  _atom_site_fract_x
  _atom_site_fract_y
  _atom_site_fract_z
  _atom_site_thermal_displace_type
  _atom_site_B_iso_or_equiv
  _atom_site_type_symbol
  Zr1      1.0000 0.12540  0.00015  0.12540  Biso   1.000  Zr
  Zr2      1.0000 0.12540  0.50015  0.37355  Biso   1.000  Zr
  Zr3      1.0000 0.37355  0.50015  0.12540  Biso   1.000  Zr
  Zr4      1.0000 0.37709  0.99958  0.37709  Biso   1.000  Zr
  O1       1.0000 0.99348  0.28710  0.99348  Biso   1.000  O
  O2       1.0000 0.00185  0.20676  0.24895  Biso   1.000  O
  O3       1.0000 0.99348  0.71320  0.25731  Biso   1.000  O
  O4       1.0000 0.00185  0.79354  0.00185  Biso   1.000  O
  O5       1.0000 0.25732  0.28710  0.25731  Biso   1.000  O
  O6       1.0000 0.24894  0.20676  0.00184  Biso   1.000  O
  O7       1.0000 0.25732  0.71320  0.99348  Biso   1.000  O
  O8       1.0000 0.24894  0.79353  0.24895  Biso   1.000  O
  Zr5      1.0000 0.12540  0.00015  0.62540  Biso   1.000  Zr
  Zr6      1.0000 0.12540  0.50015  0.87724  Biso   1.000  Zr
  Zr7      1.0000 0.37466  0.50015  0.62540  Biso   1.000  Zr
  Zr8      1.0000 0.37709  0.00072  0.87371  Biso   1.000  Zr
  O9       1.0000 0.99821  0.29382  0.49672  Biso   1.000  O
  O10      1.0000 0.00092  0.20728  0.74736  Biso   1.000  O
  O11      1.0000 0.99821  0.70648  0.75407  Biso   1.000  O
  O12      1.0000 0.00092  0.79301  0.50344  Biso   1.000  O
  O13      1.0000 0.25258  0.29382  0.75407  Biso   1.000  O
  O14      1.0000 0.24987  0.20729  0.50343  Biso   1.000  O
  O15      1.0000 0.25258  0.70648  0.49672  Biso   1.000  O
  O16      1.0000 0.24987  0.79302  0.74736  Biso   1.000  O
  Zr9      1.0000 0.62540  0.00015  0.12540  Biso   1.000  Zr
  Zr10     1.0000 0.62540  0.50015  0.37466  Biso   1.000  Zr
  Zr11     1.0000 0.87724  0.50015  0.12540  Biso   1.000  Zr
  Zr12     1.0000 0.87371  0.00072  0.37709  Biso   1.000  Zr
  O17      1.0000 0.49672  0.29383  0.99821  Biso   1.000  O
  O18      1.0000 0.50344  0.20729  0.24988  Biso   1.000  O
  O19      1.0000 0.49672  0.70648  0.25258  Biso   1.000  O
  O20      1.0000 0.50344  0.79301  0.00092  Biso   1.000  O
  O21      1.0000 0.75407  0.29382  0.25258  Biso   1.000  O
  O22      1.0000 0.74735  0.20729  0.00092  Biso   1.000  O
  O23      1.0000 0.75407  0.70648  0.99821  Biso   1.000  O
  O24      1.0000 0.74735  0.79302  0.24988  Biso   1.000  O
  Zr13     1.0000 0.62540  0.00015  0.62540  Biso   1.000  Zr
  Zr14     1.0000 0.62540  0.50015  0.87613  Biso   1.000  Zr
  Zr15     1.0000 0.87613  0.50015  0.62540  Biso   1.000  Zr
  Zr16     1.0000 0.87370  0.99958  0.87370  Biso   1.000  Zr
  O25      1.0000 0.49810  0.29087  0.49810  Biso   1.000  O
  O26      1.0000 0.50230  0.21053  0.74849  Biso   1.000  O
  O27      1.0000 0.49810  0.70943  0.75269  Biso   1.000  O
  O28      1.0000 0.50230  0.78977  0.50230  Biso   1.000  O
  O29      1.0000 0.75269  0.29087  0.75269  Biso   1.000  O
  O30      1.0000 0.74849  0.21053  0.50230  Biso   1.000  O
  O31      1.0000 0.75269  0.70943  0.49810  Biso   1.000  O
  O32      1.0000 0.74849  0.78977  0.74849  Biso   1.000  O
  H1       1.0000 0.12540  0.50016  0.12540  Biso   1.000  H
