data_image0
_cell_length_a       10.0278
_cell_length_b       10.4218
_cell_length_c       5.0291
_cell_angle_alpha    89.9815
_cell_angle_beta     89.9638
_cell_angle_gamma    89.9985

_symmetry_space_group_name_H-M    "P 1"
_symmetry_int_tables_number       1

loop_
  _symmetry_equiv_pos_as_xyz
  'x, y, z'

loop_
  _atom_site_label
  _atom_site_occupancy
  _atom_site_fract_x
  _atom_site_fract_y
  _atom_site_fract_z
  _atom_site_thermal_displace_type
  _atom_site_B_iso_or_equiv
  _atom_site_type_symbol
  Hf1      1.0000 0.13437  0.01623  0.25143  Biso   1.000  Hf
  Zr1      1.0000 0.13390  0.51574  0.25161  Biso   1.000  Zr
  Zr2      1.0000 0.63387  0.01567  0.25132  Biso   1.000  Zr
  Zr3      1.0000 0.63394  0.51584  0.25147  Biso   1.000  Zr
  Zr4      1.0000 0.13377  0.23399  0.75188  Biso   1.000  Zr
  Zr5      1.0000 0.13374  0.73450  0.75134  Biso   1.000  Zr
  Zr6      1.0000 0.63386  0.23427  0.75159  Biso   1.000  Zr
  Zr7      1.0000 0.63386  0.73443  0.75126  Biso   1.000  Zr
  Zr8      1.0000 0.36619  0.26578  0.25185  Biso   1.000  Zr
  Zr9      1.0000 0.36589  0.76594  0.25178  Biso   1.000  Zr
  Zr10     1.0000 0.86632  0.26539  0.25154  Biso   1.000  Zr
  Zr11     1.0000 0.86650  0.76601  0.25116  Biso   1.000  Zr
  Zr12     1.0000 0.36611  0.48437  0.75166  Biso   1.000  Zr
  Zr13     1.0000 0.36585  0.98434  0.75190  Biso   1.000  Zr
  Zr14     1.0000 0.86613  0.48432  0.75139  Biso   1.000  Zr
  Zr15     1.0000 0.86680  0.98439  0.75075  Biso   1.000  Zr
  O1       1.0000 0.03589  0.18281  0.38916  Biso   1.000  O
  O2       1.0000 0.03575  0.68361  0.38843  Biso   1.000  O
  O3       1.0000 0.53572  0.18392  0.38871  Biso   1.000  O
  O4       1.0000 0.53575  0.68411  0.38825  Biso   1.000  O
  O5       1.0000 0.03584  0.06557  0.89231  Biso   1.000  O
  O6       1.0000 0.03585  0.56589  0.88842  Biso   1.000  O
  O7       1.0000 0.53550  0.06611  0.88869  Biso   1.000  O
  O8       1.0000 0.53584  0.56608  0.88825  Biso   1.000  O
  O9       1.0000 0.46409  0.43403  0.38845  Biso   1.000  O
  O10      1.0000 0.46410  0.93392  0.38871  Biso   1.000  O
  O11      1.0000 0.96434  0.43347  0.38840  Biso   1.000  O
  O12      1.0000 0.96543  0.93381  0.38764  Biso   1.000  O
  O13      1.0000 0.46401  0.31599  0.88859  Biso   1.000  O
  O14      1.0000 0.46357  0.81596  0.88808  Biso   1.000  O
  O15      1.0000 0.96411  0.31574  0.88819  Biso   1.000  O
  O16      1.0000 0.96368  0.81561  0.88714  Biso   1.000  O
  O17      1.0000 0.26913  0.11663  0.49838  Biso   1.000  O
  O18      1.0000 0.26970  0.61735  0.49853  Biso   1.000  O
  O19      1.0000 0.76963  0.11702  0.49819  Biso   1.000  O
  O20      1.0000 0.76967  0.61713  0.49832  Biso   1.000  O
  O21      1.0000 0.26918  0.13259  0.99965  Biso   1.000  O
  O22      1.0000 0.26957  0.63307  0.99843  Biso   1.000  O
  O23      1.0000 0.76961  0.13290  0.99813  Biso   1.000  O
  O24      1.0000 0.76961  0.63300  0.99832  Biso   1.000  O
  O25      1.0000 0.23025  0.38278  0.99854  Biso   1.000  O
  O26      1.0000 0.22933  0.88344  0.99947  Biso   1.000  O
  O27      1.0000 0.73036  0.38288  0.99840  Biso   1.000  O
  O28      1.0000 0.73030  0.88314  0.99753  Biso   1.000  O
  O29      1.0000 0.23030  0.36700  0.49876  Biso   1.000  O
  O30      1.0000 0.22947  0.86789  0.49772  Biso   1.000  O
  O31      1.0000 0.73037  0.36701  0.49825  Biso   1.000  O
  O32      1.0000 0.73065  0.86719  0.49771  Biso   1.000  O
