data_image0
_cell_length_a       9.94359
_cell_length_b       10.3761
_cell_length_c       10.0217
_cell_angle_alpha    90.0788
_cell_angle_beta     89.4275
_cell_angle_gamma    89.908

_symmetry_space_group_name_H-M    "P 1"
_symmetry_int_tables_number       1

loop_
  _symmetry_equiv_pos_as_xyz
  'x, y, z'

loop_
  _atom_site_label
  _atom_site_occupancy
  _atom_site_fract_x
  _atom_site_fract_y
  _atom_site_fract_z
  _atom_site_thermal_displace_type
  _atom_site_B_iso_or_equiv
  _atom_site_type_symbol
  Hg1      1.0000 0.12012  0.02322  0.11024  Biso   1.000  Hg
  Hf1      1.0000 0.14085  0.23015  0.38205  Biso   1.000  Hf
  Hf2      1.0000 0.36633  0.26793  0.13169  Biso   1.000  Hf
  Hf3      1.0000 0.36551  0.48388  0.37855  Biso   1.000  Hf
  O1       1.0000 0.03893  0.18521  0.19242  Biso   1.000  O
  O2       1.0000 0.03985  0.06395  0.44400  Biso   1.000  O
  O3       1.0000 0.46341  0.43403  0.19639  Biso   1.000  O
  O4       1.0000 0.46426  0.31614  0.44540  Biso   1.000  O
  O5       1.0000 0.28812  0.13194  0.26287  Biso   1.000  O
  O6       1.0000 0.27129  0.12904  0.50904  Biso   1.000  O
  O7       1.0000 0.23003  0.38107  0.50226  Biso   1.000  O
  O8       1.0000 0.22619  0.37073  0.25275  Biso   1.000  O
  Hf4      1.0000 0.13222  0.01937  0.63680  Biso   1.000  Hf
  Hf5      1.0000 0.13131  0.23824  0.86951  Biso   1.000  Hf
  Hf6      1.0000 0.36743  0.26683  0.62820  Biso   1.000  Hf
  Hf7      1.0000 0.36561  0.48366  0.87769  Biso   1.000  Hf
  O9       1.0000 0.04551  0.19821  0.67569  Biso   1.000  O
  O10      1.0000 0.04050  0.06382  0.88463  Biso   1.000  O
  O11      1.0000 0.46388  0.43472  0.69609  Biso   1.000  O
  O12      1.0000 0.46023  0.31182  0.94253  Biso   1.000  O
  O13      1.0000 0.27780  0.12305  0.75598  Biso   1.000  O
  O14      1.0000 0.26186  0.13016  0.00591  Biso   1.000  O
  O15      1.0000 0.22961  0.38160  0.00165  Biso   1.000  O
  O16      1.0000 0.22931  0.37172  0.75037  Biso   1.000  O
  Hf8      1.0000 0.13517  0.51574  0.12822  Biso   1.000  Hf
  Hf9      1.0000 0.13589  0.73425  0.37869  Biso   1.000  Hf
  Hf10     1.0000 0.36657  0.76512  0.13174  Biso   1.000  Hf
  Hf11     1.0000 0.36212  0.98339  0.37775  Biso   1.000  Hf
  O17      1.0000 0.03740  0.68449  0.19415  Biso   1.000  O
  O18      1.0000 0.03673  0.56395  0.44561  Biso   1.000  O
  O19      1.0000 0.46893  0.93305  0.19681  Biso   1.000  O
  O20      1.0000 0.46600  0.81709  0.45081  Biso   1.000  O
  O21      1.0000 0.27118  0.61453  0.25151  Biso   1.000  O
  O22      1.0000 0.27130  0.63241  0.50236  Biso   1.000  O
  O23      1.0000 0.22611  0.88273  0.50877  Biso   1.000  O
  O24      1.0000 0.24244  0.85834  0.26245  Biso   1.000  O
  Hf12     1.0000 0.13391  0.51759  0.62689  Biso   1.000  Hf
  Hf13     1.0000 0.13243  0.73107  0.87826  Biso   1.000  Hf
  Hf14     1.0000 0.36453  0.76815  0.62889  Biso   1.000  Hf
  Hf15     1.0000 0.36611  0.98356  0.87905  Biso   1.000  Hf
  O25      1.0000 0.03604  0.68586  0.69561  Biso   1.000  O
  O26      1.0000 0.03452  0.56424  0.94505  Biso   1.000  O
  O27      1.0000 0.46287  0.93508  0.69806  Biso   1.000  O
  O28      1.0000 0.45756  0.81467  0.94480  Biso   1.000  O
  O29      1.0000 0.26957  0.61825  0.75214  Biso   1.000  O
  O30      1.0000 0.26945  0.63280  0.00233  Biso   1.000  O
  O31      1.0000 0.22557  0.88144  0.00934  Biso   1.000  O
  O32      1.0000 0.22830  0.86938  0.75774  Biso   1.000  O
  Hf16     1.0000 0.63663  0.01559  0.12674  Biso   1.000  Hf
  Hf17     1.0000 0.63334  0.23242  0.37541  Biso   1.000  Hf
  Hf18     1.0000 0.86046  0.26668  0.12533  Biso   1.000  Hf
  Hf19     1.0000 0.86726  0.48307  0.37548  Biso   1.000  Hf
  O33      1.0000 0.54344  0.18737  0.18928  Biso   1.000  O
  O34      1.0000 0.53667  0.06563  0.44351  Biso   1.000  O
  O35      1.0000 0.96329  0.43001  0.19188  Biso   1.000  O
  O36      1.0000 0.96253  0.31468  0.43726  Biso   1.000  O
  O37      1.0000 0.77333  0.11763  0.25003  Biso   1.000  O
  O38      1.0000 0.77079  0.13235  0.49845  Biso   1.000  O
  O39      1.0000 0.72992  0.38254  0.49988  Biso   1.000  O
  O40      1.0000 0.72806  0.36903  0.25055  Biso   1.000  O
  Hf20     1.0000 0.63219  0.01628  0.62382  Biso   1.000  Hf
  Hf21     1.0000 0.63430  0.23197  0.87543  Biso   1.000  Hf
  Hf22     1.0000 0.86606  0.26764  0.62167  Biso   1.000  Hf
  Hf23     1.0000 0.86441  0.48269  0.87503  Biso   1.000  Hf
  O41      1.0000 0.53861  0.18530  0.69354  Biso   1.000  O
  O42      1.0000 0.53634  0.06478  0.94528  Biso   1.000  O
  O43      1.0000 0.96188  0.43651  0.69366  Biso   1.000  O
  O44      1.0000 0.96132  0.31390  0.94350  Biso   1.000  O
  O45      1.0000 0.77061  0.11834  0.74615  Biso   1.000  O
  O46      1.0000 0.77534  0.12878  0.99707  Biso   1.000  O
  O47      1.0000 0.72718  0.37967  0.00083  Biso   1.000  O
  O48      1.0000 0.72885  0.36781  0.75037  Biso   1.000  O
  Hf24     1.0000 0.63404  0.51645  0.12826  Biso   1.000  Hf
  Hf25     1.0000 0.63428  0.73479  0.37697  Biso   1.000  Hf
  Hf26     1.0000 0.86687  0.76273  0.12273  Biso   1.000  Hf
  Hf27     1.0000 0.86922  0.98511  0.37981  Biso   1.000  Hf
  O49      1.0000 0.53817  0.68435  0.19709  Biso   1.000  O
  O50      1.0000 0.53646  0.56635  0.44490  Biso   1.000  O
  O51      1.0000 0.95995  0.93577  0.19030  Biso   1.000  O
  O52      1.0000 0.96172  0.81319  0.43971  Biso   1.000  O
  O53      1.0000 0.77219  0.61654  0.24880  Biso   1.000  O
  O54      1.0000 0.76931  0.63192  0.49887  Biso   1.000  O
  O55      1.0000 0.72909  0.88228  0.49886  Biso   1.000  O
  O56      1.0000 0.73739  0.86754  0.24941  Biso   1.000  O
  Hf28     1.0000 0.63337  0.51679  0.62630  Biso   1.000  Hf
  Hf29     1.0000 0.63150  0.73276  0.87679  Biso   1.000  Hf
  Hf30     1.0000 0.86533  0.76437  0.62287  Biso   1.000  Hf
  Hf31     1.0000 0.86261  0.98061  0.86728  Biso   1.000  Hf
  O57      1.0000 0.53443  0.68374  0.69671  Biso   1.000  O
  O58      1.0000 0.53529  0.56464  0.94753  Biso   1.000  O
  O59      1.0000 0.95497  0.93470  0.67902  Biso   1.000  O
  O60      1.0000 0.96216  0.81689  0.94196  Biso   1.000  O
  O61      1.0000 0.76885  0.61745  0.75029  Biso   1.000  O
  O62      1.0000 0.76959  0.63024  0.99923  Biso   1.000  O
  O63      1.0000 0.72537  0.87840  0.99945  Biso   1.000  O
  O64      1.0000 0.72683  0.86615  0.74849  Biso   1.000  O
