data_image0
_cell_length_a       10.108
_cell_length_b       5.15957
_cell_length_c       10.6174
_cell_angle_alpha    89.2722
_cell_angle_beta     90.9524
_cell_angle_gamma    89.9283

_symmetry_space_group_name_H-M    "P 1"
_symmetry_int_tables_number       1

loop_
  _symmetry_equiv_pos_as_xyz
  'x, y, z'

loop_
  _atom_site_label
  _atom_site_occupancy
  _atom_site_fract_x
  _atom_site_fract_y
  _atom_site_fract_z
  _atom_site_thermal_displace_type
  _atom_site_B_iso_or_equiv
  _atom_site_type_symbol
  Hf1      1.0000 0.13625  0.03937  0.17198  Biso   1.000  Hf
  Hf2      1.0000 0.13387  0.45187  0.42431  Biso   1.000  Hf
  Hf3      1.0000 0.34997  0.53823  0.18799  Biso   1.000  Hf
  Hf4      1.0000 0.36259  0.95506  0.42681  Biso   1.000  Hf
  Hf5      1.0000 0.64410  0.07105  0.07777  Biso   1.000  Hf
  Hf6      1.0000 0.63837  0.45552  0.33474  Biso   1.000  Hf
  Hf7      1.0000 0.86666  0.54798  0.07578  Biso   1.000  Hf
  Hf8      1.0000 0.86107  0.95665  0.32975  Biso   1.000  Hf
  O1       1.0000 0.03462  0.32150  0.07913  Biso   1.000  O
  O2       1.0000 0.02909  0.17629  0.32914  Biso   1.000  O
  O3       1.0000 0.45390  0.87530  0.09875  Biso   1.000  O
  O4       1.0000 0.46696  0.67722  0.33624  Biso   1.000  O
  O5       1.0000 0.26770  0.24784  0.29941  Biso   1.000  O
  O6       1.0000 0.27829  0.25095  0.04587  Biso   1.000  O
  O7       1.0000 0.22113  0.74774  0.30129  Biso   1.000  O
  O8       1.0000 0.22440  0.74744  0.04949  Biso   1.000  O
  O9       1.0000 0.51490  0.29112  0.20366  Biso   1.000  O
  O10      1.0000 0.52905  0.17800  0.43126  Biso   1.000  O
  O11      1.0000 0.96993  0.82066  0.17459  Biso   1.000  O
  O12      1.0000 0.96669  0.67303  0.42182  Biso   1.000  O
  O13      1.0000 0.77544  0.24258  0.45208  Biso   1.000  O
  O14      1.0000 0.77596  0.26504  0.20302  Biso   1.000  O
  O15      1.0000 0.72569  0.74279  0.46227  Biso   1.000  O
  O16      1.0000 0.72138  0.76462  0.21595  Biso   1.000  O
  Hf9      1.0000 0.14105  0.03519  0.67202  Biso   1.000  Hf
  Hf10     1.0000 0.14286  0.45745  0.92275  Biso   1.000  Hf
  Hf11     1.0000 0.35975  0.53549  0.67164  Biso   1.000  Hf
  Hf12     1.0000 0.36008  0.95938  0.92116  Biso   1.000  Hf
  Hf13     1.0000 0.64048  0.02945  0.57676  Biso   1.000  Hf
  Hf14     1.0000 0.64033  0.43377  0.80915  Biso   1.000  Hf
  Hf15     1.0000 0.86521  0.54011  0.58098  Biso   1.000  Hf
  Hf16     1.0000 0.87210  0.96721  0.82960  Biso   1.000  Hf
  O17      1.0000 0.03176  0.31837  0.58052  Biso   1.000  O
  O18      1.0000 0.04083  0.17494  0.82833  Biso   1.000  O
  O19      1.0000 0.47078  0.81005  0.58094  Biso   1.000  O
  O20      1.0000 0.46590  0.66228  0.82459  Biso   1.000  O
  O21      1.0000 0.27997  0.24192  0.79561  Biso   1.000  O
  O22      1.0000 0.27323  0.24434  0.54632  Biso   1.000  O
  O23      1.0000 0.22618  0.74334  0.79625  Biso   1.000  O
  O24      1.0000 0.22507  0.74624  0.54722  Biso   1.000  O
  O25      1.0000 0.52764  0.30568  0.66652  Biso   1.000  O
  O26      1.0000 0.54120  0.11869  0.90515  Biso   1.000  O
  O27      1.0000 0.97231  0.82050  0.66815  Biso   1.000  O
  O28      1.0000 0.97994  0.67699  0.91835  Biso   1.000  O
  O29      1.0000 0.79207  0.28242  0.93511  Biso   1.000  O
  O30      1.0000 0.77802  0.23558  0.69399  Biso   1.000  O
  O31      1.0000 0.76328  0.82555  0.97464  Biso   1.000  O
  O32      1.0000 0.73009  0.73908  0.71267  Biso   1.000  O
  Hg1      1.0000 0.57073  0.55875  0.03376  Biso   1.000  Hg
