data_image0
_cell_length_a       5.11803
_cell_length_b       10.3345
_cell_length_c       10.5896
_cell_angle_alpha    90.2024
_cell_angle_beta     79.3171
_cell_angle_gamma    89.7119

_symmetry_space_group_name_H-M    "P 1"
_symmetry_int_tables_number       1

loop_
  _symmetry_equiv_pos_as_xyz
  'x, y, z'

loop_
  _atom_site_label
  _atom_site_occupancy
  _atom_site_fract_x
  _atom_site_fract_y
  _atom_site_fract_z
  _atom_site_thermal_displace_type
  _atom_site_B_iso_or_equiv
  _atom_site_type_symbol
  Hf1      1.0000 0.26223  0.01694  0.14446  Biso   1.000  Hf
  Hf2      1.0000 0.31585  0.23973  0.40731  Biso   1.000  Hf
  Hf3      1.0000 0.69937  0.27750  0.09758  Biso   1.000  Hf
  Hf4      1.0000 0.73352  0.47935  0.34899  Biso   1.000  Hf
  O1       1.0000 0.05001  0.16024  0.07110  Biso   1.000  O
  O2       1.0000 0.08481  0.04919  0.34632  Biso   1.000  O
  O3       1.0000 0.91542  0.43621  0.15569  Biso   1.000  O
  O4       1.0000 0.99415  0.37597  0.45781  Biso   1.000  O
  O5       1.0000 0.49291  0.13471  0.23132  Biso   1.000  O
  O6       1.0000 0.55526  0.10957  0.49300  Biso   1.000  O
  O7       1.0000 0.43304  0.38265  0.00779  Biso   1.000  O
  O8       1.0000 0.42311  0.38306  0.25809  Biso   1.000  O
  Hf5      1.0000 0.27503  0.01949  0.64559  Biso   1.000  Hf
  Hf6      1.0000 0.26818  0.22799  0.89391  Biso   1.000  Hf
  Hf7      1.0000 0.74401  0.27791  0.61387  Biso   1.000  Hf
  Hf8      1.0000 0.71796  0.48104  0.85912  Biso   1.000  Hf
  O9       1.0000 0.07729  0.16679  0.57578  Biso   1.000  O
  O10      1.0000 0.05988  0.08683  0.82231  Biso   1.000  O
  O11      1.0000 0.94556  0.40974  0.69193  Biso   1.000  O
  O12      1.0000 0.92391  0.33524  0.92393  Biso   1.000  O
  O13      1.0000 0.54647  0.12946  0.73867  Biso   1.000  O
  O14      1.0000 0.54046  0.12492  0.98519  Biso   1.000  O
  O15      1.0000 0.48232  0.37359  0.51488  Biso   1.000  O
  O16      1.0000 0.45440  0.37324  0.76281  Biso   1.000  O
  Hf9      1.0000 0.27000  0.52674  0.14391  Biso   1.000  Hf
  Hf10     1.0000 0.27652  0.72199  0.39689  Biso   1.000  Hf
  Hf11     1.0000 0.71365  0.77196  0.10399  Biso   1.000  Hf
  Hf12     1.0000 0.71420  0.95986  0.36086  Biso   1.000  Hf
  O17      1.0000 0.06741  0.67722  0.07700  Biso   1.000  O
  O18      1.0000 0.06061  0.59106  0.32055  Biso   1.000  O
  O19      1.0000 0.91137  0.91846  0.17536  Biso   1.000  O
  O20      1.0000 0.91769  0.81994  0.42481  Biso   1.000  O
  O21      1.0000 0.55078  0.63025  0.24144  Biso   1.000  O
  O22      1.0000 0.54349  0.61496  0.49034  Biso   1.000  O
  O23      1.0000 0.44501  0.88163  0.01016  Biso   1.000  O
  O24      1.0000 0.43966  0.86599  0.26138  Biso   1.000  O
  Hf13     1.0000 0.27598  0.52055  0.64833  Biso   1.000  Hf
  Hf14     1.0000 0.26829  0.73180  0.89666  Biso   1.000  Hf
  Hf15     1.0000 0.72017  0.76727  0.60759  Biso   1.000  Hf
  Hf16     1.0000 0.71737  0.98076  0.85275  Biso   1.000  Hf
  O25      1.0000 0.06071  0.65920  0.57873  Biso   1.000  O
  O26      1.0000 0.06314  0.58883  0.82859  Biso   1.000  O
  O27      1.0000 0.92834  0.91405  0.67095  Biso   1.000  O
  O28      1.0000 0.92749  0.83930  0.92267  Biso   1.000  O
  O29      1.0000 0.54659  0.62695  0.74060  Biso   1.000  O
  O30      1.0000 0.54608  0.62594  0.99100  Biso   1.000  O
  O31      1.0000 0.43949  0.86955  0.51388  Biso   1.000  O
  O32      1.0000 0.44586  0.87235  0.76137  Biso   1.000  O
  Hg1      1.0000 0.87756  0.22200  0.30773  Biso   1.000  Hg
