data_image0
_cell_length_a       10.4235
_cell_length_b       5.42494
_cell_length_c       10.4236
_cell_angle_alpha    102.952
_cell_angle_beta     81.7501
_cell_angle_gamma    102.952

_symmetry_space_group_name_H-M    "P 1"
_symmetry_int_tables_number       1

loop_
  _symmetry_equiv_pos_as_xyz
  'x, y, z'

loop_
  _atom_site_label
  _atom_site_occupancy
  _atom_site_fract_x
  _atom_site_fract_y
  _atom_site_fract_z
  _atom_site_thermal_displace_type
  _atom_site_B_iso_or_equiv
  _atom_site_type_symbol
  Hf1      1.0000 0.16471  0.94485  0.16471  Biso   1.000  Hf
  Hf2      1.0000 0.11224  0.51682  0.36445  Biso   1.000  Hf
  Hf3      1.0000 0.36445  0.51682  0.11226  Biso   1.000  Hf
  Hf4      1.0000 0.40551  0.98022  0.40553  Biso   1.000  Hf
  O1       1.0000 0.90005  0.42064  0.90006  Biso   1.000  O
  O2       1.0000 0.01874  0.15331  0.26358  Biso   1.000  O
  O3       1.0000 0.00740  0.67251  0.25628  Biso   1.000  O
  O4       1.0000 0.02654  0.79021  0.02655  Biso   1.000  O
  O5       1.0000 0.25530  0.32293  0.25532  Biso   1.000  O
  O6       1.0000 0.26359  0.15331  0.01876  Biso   1.000  O
  O7       1.0000 0.25626  0.67250  0.00742  Biso   1.000  O
  O8       1.0000 0.26760  0.79770  0.26761  Biso   1.000  O
  Hf5      1.0000 0.15224  0.98410  0.65327  Biso   1.000  Hf
  Hf6      1.0000 0.09525  0.54903  0.84922  Biso   1.000  Hf
  Hf7      1.0000 0.35439  0.52062  0.60986  Biso   1.000  Hf
  Hf8      1.0000 0.40159  0.96772  0.90306  Biso   1.000  Hf
  O9       1.0000 0.99748  0.33039  0.50131  Biso   1.000  O
  O10      1.0000 0.01136  0.18585  0.73497  Biso   1.000  O
  O11      1.0000 0.99534  0.72318  0.74399  Biso   1.000  O
  O12      1.0000 0.01058  0.81342  0.50609  Biso   1.000  O
  O13      1.0000 0.24550  0.34190  0.75164  Biso   1.000  O
  O14      1.0000 0.26127  0.16694  0.50750  Biso   1.000  O
  O15      1.0000 0.25056  0.68593  0.50658  Biso   1.000  O
  O16      1.0000 0.25292  0.82196  0.76409  Biso   1.000  O
  Hf9      1.0000 0.65326  0.98408  0.15224  Biso   1.000  Hf
  Hf10     1.0000 0.60985  0.52061  0.35440  Biso   1.000  Hf
  Hf11     1.0000 0.84922  0.54901  0.09526  Biso   1.000  Hf
  Hf12     1.0000 0.90305  0.96773  0.40159  Biso   1.000  Hf
  O17      1.0000 0.50131  0.33039  0.99749  Biso   1.000  O
  O18      1.0000 0.50749  0.16693  0.26128  Biso   1.000  O
  O19      1.0000 0.50657  0.68591  0.25057  Biso   1.000  O
  O20      1.0000 0.50609  0.81341  0.01059  Biso   1.000  O
  O21      1.0000 0.75164  0.34188  0.24552  Biso   1.000  O
  O22      1.0000 0.73498  0.18582  0.01138  Biso   1.000  O
  O23      1.0000 0.74397  0.72314  0.99536  Biso   1.000  O
  O24      1.0000 0.76407  0.82193  0.25293  Biso   1.000  O
  Hf13     1.0000 0.64149  0.99070  0.64150  Biso   1.000  Hf
  Hf14     1.0000 0.59938  0.52892  0.85684  Biso   1.000  Hf
  Hf15     1.0000 0.85683  0.52893  0.59938  Biso   1.000  Hf
  Hf16     1.0000 0.86944  0.03670  0.86944  Biso   1.000  Hf
  O25      1.0000 0.50273  0.33803  0.50274  Biso   1.000  O
  O26      1.0000 0.50048  0.16577  0.75922  Biso   1.000  O
  O27      1.0000 0.49283  0.68610  0.75222  Biso   1.000  O
  O28      1.0000 0.50665  0.81274  0.50666  Biso   1.000  O
  O29      1.0000 0.73699  0.34883  0.73700  Biso   1.000  O
  O30      1.0000 0.75921  0.16577  0.50049  Biso   1.000  O
  O31      1.0000 0.75221  0.68611  0.49284  Biso   1.000  O
  O32      1.0000 0.74317  0.82496  0.74319  Biso   1.000  O
  Hg1      1.0000 0.05035  0.25830  0.05031  Biso   1.000  Hg
