data_image0
_cell_length_a       5.0785
_cell_length_b       10.3693
_cell_length_c       10.5036
_cell_angle_alpha    89.3928
_cell_angle_beta     81.653
_cell_angle_gamma    89.9757

_symmetry_space_group_name_H-M    "P 1"
_symmetry_int_tables_number       1

loop_
  _symmetry_equiv_pos_as_xyz
  'x, y, z'

loop_
  _atom_site_label
  _atom_site_occupancy
  _atom_site_fract_x
  _atom_site_fract_y
  _atom_site_fract_z
  _atom_site_thermal_displace_type
  _atom_site_B_iso_or_equiv
  _atom_site_type_symbol
  Hg1      1.0000 0.25653  0.01571  0.15912  Biso   1.000  Hg
  Zr1      1.0000 0.26554  0.23333  0.40068  Biso   1.000  Zr
  Zr2      1.0000 0.71764  0.26857  0.10380  Biso   1.000  Zr
  Zr3      1.0000 0.71760  0.48061  0.35425  Biso   1.000  Zr
  O1       1.0000 0.08997  0.17075  0.08495  Biso   1.000  O
  O2       1.0000 0.04476  0.08081  0.36717  Biso   1.000  O
  O3       1.0000 0.92478  0.41955  0.16891  Biso   1.000  O
  O4       1.0000 0.91970  0.33310  0.42273  Biso   1.000  O
  O5       1.0000 0.53835  0.12715  0.24157  Biso   1.000  O
  O6       1.0000 0.54292  0.12412  0.49177  Biso   1.000  O
  O7       1.0000 0.45336  0.37820  0.00996  Biso   1.000  O
  O8       1.0000 0.44936  0.36909  0.25945  Biso   1.000  O
  Zr4      1.0000 0.27264  0.02165  0.64331  Biso   1.000  Zr
  Zr5      1.0000 0.28913  0.22354  0.89321  Biso   1.000  Zr
  Zr6      1.0000 0.71999  0.27244  0.60744  Biso   1.000  Zr
  Zr7      1.0000 0.73167  0.47708  0.85587  Biso   1.000  Zr
  O9       1.0000 0.07797  0.18265  0.59308  Biso   1.000  O
  O10      1.0000 0.08254  0.07484  0.83139  Biso   1.000  O
  O11      1.0000 0.92534  0.42328  0.67089  Biso   1.000  O
  O12      1.0000 0.93941  0.32820  0.92483  Biso   1.000  O
  O13      1.0000 0.55416  0.12738  0.73694  Biso   1.000  O
  O14      1.0000 0.58087  0.12791  0.97908  Biso   1.000  O
  O15      1.0000 0.44373  0.38226  0.51004  Biso   1.000  O
  O16      1.0000 0.45320  0.36912  0.76048  Biso   1.000  O
  Zr8      1.0000 0.27586  0.51907  0.14355  Biso   1.000  Zr
  Zr9      1.0000 0.26901  0.72696  0.39392  Biso   1.000  Zr
  Zr10     1.0000 0.72680  0.76759  0.09510  Biso   1.000  Zr
  Zr11     1.0000 0.71379  0.98287  0.36156  Biso   1.000  Zr
  O17      1.0000 0.08231  0.67275  0.08013  Biso   1.000  O
  O18      1.0000 0.07463  0.57634  0.32990  Biso   1.000  O
  O19      1.0000 0.89909  0.92748  0.16900  Biso   1.000  O
  O20      1.0000 0.91807  0.82489  0.41389  Biso   1.000  O
  O21      1.0000 0.55023  0.63151  0.23937  Biso   1.000  O
  O22      1.0000 0.54932  0.62148  0.48968  Biso   1.000  O
  O23      1.0000 0.46994  0.87146  0.99525  Biso   1.000  O
  O24      1.0000 0.44087  0.86942  0.24987  Biso   1.000  O
  Zr12     1.0000 0.27799  0.52108  0.64651  Biso   1.000  Zr
  Zr13     1.0000 0.28839  0.73082  0.89143  Biso   1.000  Zr
  Zr14     1.0000 0.72052  0.77084  0.60266  Biso   1.000  Zr
  Zr15     1.0000 0.72448  0.97941  0.85272  Biso   1.000  Zr
  O25      1.0000 0.07384  0.67150  0.57968  Biso   1.000  O
  O26      1.0000 0.08059  0.57668  0.83171  Biso   1.000  O
  O27      1.0000 0.92394  0.92279  0.66328  Biso   1.000  O
  O28      1.0000 0.93966  0.82773  0.91394  Biso   1.000  O
  O29      1.0000 0.55757  0.62874  0.73961  Biso   1.000  O
  O30      1.0000 0.55884  0.61678  0.98979  Biso   1.000  O
  O31      1.0000 0.44339  0.88030  0.50470  Biso   1.000  O
  O32      1.0000 0.44971  0.87019  0.75180  Biso   1.000  O
