data_image0
_cell_length_a       5.05294
_cell_length_b       10.4129
_cell_length_c       10.1392
_cell_angle_alpha    89.2569
_cell_angle_beta     91.7708
_cell_angle_gamma    91.1213

_symmetry_space_group_name_H-M    "P 1"
_symmetry_int_tables_number       1

loop_
  _symmetry_equiv_pos_as_xyz
  'x, y, z'

loop_
  _atom_site_label
  _atom_site_occupancy
  _atom_site_fract_x
  _atom_site_fract_y
  _atom_site_fract_z
  _atom_site_thermal_displace_type
  _atom_site_B_iso_or_equiv
  _atom_site_type_symbol
  Hf1      1.0000 0.27415  0.98622  0.10101  Biso   1.000  Hf
  Hf2      1.0000 0.24250  0.22903  0.40908  Biso   1.000  Hf
  Hf3      1.0000 0.58590  0.25143  0.15093  Biso   1.000  Hf
  Hf4      1.0000 0.73839  0.48430  0.38025  Biso   1.000  Hf
  O1       1.0000 0.88063  0.18322  0.28255  Biso   1.000  O
  O2       1.0000 0.07601  0.05753  0.46411  Biso   1.000  O
  O3       1.0000 0.91196  0.43584  0.19276  Biso   1.000  O
  O4       1.0000 0.95614  0.33733  0.47217  Biso   1.000  O
  O5       1.0000 0.41143  0.10052  0.25972  Biso   1.000  O
  O6       1.0000 0.56114  0.13844  0.50573  Biso   1.000  O
  O7       1.0000 0.48256  0.38422  0.50748  Biso   1.000  O
  O8       1.0000 0.40412  0.37745  0.26944  Biso   1.000  O
  Hf5      1.0000 0.29893  0.01035  0.62682  Biso   1.000  Hf
  Hf6      1.0000 0.30039  0.22837  0.85760  Biso   1.000  Hf
  Hf7      1.0000 0.76411  0.27627  0.64088  Biso   1.000  Hf
  Hf8      1.0000 0.74128  0.48396  0.87196  Biso   1.000  Hf
  O9       1.0000 0.12071  0.18535  0.67335  Biso   1.000  O
  O10      1.0000 0.10886  0.05624  0.92041  Biso   1.000  O
  O11      1.0000 0.92498  0.45691  0.68570  Biso   1.000  O
  O12      1.0000 0.93168  0.30710  0.86802  Biso   1.000  O
  O13      1.0000 0.57216  0.11644  0.75307  Biso   1.000  O
  O14      1.0000 0.57268  0.11445  0.00532  Biso   1.000  O
  O15      1.0000 0.47938  0.38244  0.00059  Biso   1.000  O
  O16      1.0000 0.46327  0.37372  0.74824  Biso   1.000  O
  Hf9      1.0000 0.26830  0.52726  0.13109  Biso   1.000  Hf
  Hf10     1.0000 0.27955  0.74167  0.37701  Biso   1.000  Hf
  Hf11     1.0000 0.74522  0.76289  0.12764  Biso   1.000  Hf
  Hf12     1.0000 0.74495  0.00119  0.36389  Biso   1.000  Hf
  O17      1.0000 0.08782  0.68732  0.19547  Biso   1.000  O
  O18      1.0000 0.07769  0.57614  0.44036  Biso   1.000  O
  O19      1.0000 0.93120  0.94286  0.18795  Biso   1.000  O
  O20      1.0000 0.94057  0.82181  0.43779  Biso   1.000  O
  O21      1.0000 0.55444  0.62005  0.25115  Biso   1.000  O
  O22      1.0000 0.54798  0.63570  0.49793  Biso   1.000  O
  O23      1.0000 0.48102  0.88852  0.49392  Biso   1.000  O
  O24      1.0000 0.47807  0.86245  0.24094  Biso   1.000  O
  Hf13     1.0000 0.27486  0.51728  0.61902  Biso   1.000  Hf
  Hf14     1.0000 0.28536  0.72862  0.86946  Biso   1.000  Hf
  Hf15     1.0000 0.75669  0.76939  0.61685  Biso   1.000  Hf
  Hf16     1.0000 0.75862  0.97631  0.87096  Biso   1.000  Hf
  O25      1.0000 0.09068  0.68851  0.69109  Biso   1.000  O
  O26      1.0000 0.07898  0.56507  0.94795  Biso   1.000  O
  O27      1.0000 0.95715  0.93016  0.69827  Biso   1.000  O
  O28      1.0000 0.97753  0.81897  0.95935  Biso   1.000  O
  O29      1.0000 0.55011  0.61765  0.74964  Biso   1.000  O
  O30      1.0000 0.54949  0.63036  0.00138  Biso   1.000  O
  O31      1.0000 0.49588  0.86965  0.99028  Biso   1.000  O
  O32      1.0000 0.49241  0.86289  0.74549  Biso   1.000  O
  In1      1.0000 0.06266  0.25127  0.09465  Biso   1.000  In
