data_image0
_cell_length_a       5.03249
_cell_length_b       10.4118
_cell_length_c       10.1026
_cell_angle_alpha    90.1052
_cell_angle_beta     89.9731
_cell_angle_gamma    90.0175

_symmetry_space_group_name_H-M    "P 1"
_symmetry_int_tables_number       1

loop_
  _symmetry_equiv_pos_as_xyz
  'x, y, z'

loop_
  _atom_site_label
  _atom_site_occupancy
  _atom_site_fract_x
  _atom_site_fract_y
  _atom_site_fract_z
  _atom_site_thermal_displace_type
  _atom_site_B_iso_or_equiv
  _atom_site_type_symbol
  In1      1.0000 0.26153  0.01562  0.11987  Biso   1.000  In
  Zr1      1.0000 0.26701  0.01619  0.62557  Biso   1.000  Zr
  Zr2      1.0000 0.26923  0.51489  0.12562  Biso   1.000  Zr
  Zr3      1.0000 0.26831  0.51627  0.62560  Biso   1.000  Zr
  Zr4      1.0000 0.26854  0.23256  0.37462  Biso   1.000  Zr
  Zr5      1.0000 0.26956  0.23464  0.87435  Biso   1.000  Zr
  Zr6      1.0000 0.26925  0.73552  0.37550  Biso   1.000  Zr
  Zr7      1.0000 0.26941  0.73533  0.87686  Biso   1.000  Zr
  Zr8      1.0000 0.72759  0.26427  0.12596  Biso   1.000  Zr
  Zr9      1.0000 0.73164  0.26585  0.62419  Biso   1.000  Zr
  Zr10     1.0000 0.73178  0.76568  0.12562  Biso   1.000  Zr
  Zr11     1.0000 0.73216  0.76633  0.62570  Biso   1.000  Zr
  Zr12     1.0000 0.73123  0.48454  0.37569  Biso   1.000  Zr
  Zr13     1.0000 0.73194  0.48453  0.87576  Biso   1.000  Zr
  Zr14     1.0000 0.72941  0.98461  0.37299  Biso   1.000  Zr
  Zr15     1.0000 0.72868  0.98428  0.87525  Biso   1.000  Zr
  O1       1.0000 0.06315  0.18695  0.19813  Biso   1.000  O
  O2       1.0000 0.07311  0.18622  0.69142  Biso   1.000  O
  O3       1.0000 0.06945  0.68125  0.19665  Biso   1.000  O
  O4       1.0000 0.06943  0.68344  0.69581  Biso   1.000  O
  O5       1.0000 0.06687  0.06682  0.44656  Biso   1.000  O
  O6       1.0000 0.07043  0.06797  0.93152  Biso   1.000  O
  O7       1.0000 0.06844  0.56651  0.44644  Biso   1.000  O
  O8       1.0000 0.06865  0.56772  0.94610  Biso   1.000  O
  O9       1.0000 0.93030  0.43351  0.19592  Biso   1.000  O
  O10      1.0000 0.93114  0.43388  0.69560  Biso   1.000  O
  O11      1.0000 0.92770  0.92937  0.19818  Biso   1.000  O
  O12      1.0000 0.92847  0.93353  0.69384  Biso   1.000  O
  O13      1.0000 0.93018  0.31751  0.44509  Biso   1.000  O
  O14      1.0000 0.93288  0.31839  0.94554  Biso   1.000  O
  O15      1.0000 0.93273  0.81667  0.44780  Biso   1.000  O
  O16      1.0000 0.92957  0.81688  0.94434  Biso   1.000  O
  O17      1.0000 0.54109  0.11913  0.25021  Biso   1.000  O
  O18      1.0000 0.54127  0.11759  0.74657  Biso   1.000  O
  O19      1.0000 0.53873  0.61445  0.24852  Biso   1.000  O
  O20      1.0000 0.53893  0.61736  0.74893  Biso   1.000  O
  O21      1.0000 0.53734  0.13358  0.49875  Biso   1.000  O
  O22      1.0000 0.54669  0.13502  0.99454  Biso   1.000  O
  O23      1.0000 0.53813  0.63391  0.49876  Biso   1.000  O
  O24      1.0000 0.53883  0.63146  0.99874  Biso   1.000  O
  O25      1.0000 0.46120  0.38379  0.49860  Biso   1.000  O
  O26      1.0000 0.46118  0.38327  0.99825  Biso   1.000  O
  O27      1.0000 0.46171  0.88417  0.49965  Biso   1.000  O
  O28      1.0000 0.46292  0.87961  0.99881  Biso   1.000  O
  O29      1.0000 0.45981  0.36729  0.24891  Biso   1.000  O
  O30      1.0000 0.46263  0.36779  0.74811  Biso   1.000  O
  O31      1.0000 0.47078  0.86029  0.25252  Biso   1.000  O
  O32      1.0000 0.45945  0.86715  0.74847  Biso   1.000  O
