data_image0
_cell_length_a       10.3121
_cell_length_b       10.4538
_cell_length_c       5.31904
_cell_angle_alpha    90.1684
_cell_angle_beta     78.656
_cell_angle_gamma    89.9997

_symmetry_space_group_name_H-M    "P 1"
_symmetry_int_tables_number       1

loop_
  _symmetry_equiv_pos_as_xyz
  'x, y, z'

loop_
  _atom_site_label
  _atom_site_occupancy
  _atom_site_fract_x
  _atom_site_fract_y
  _atom_site_fract_z
  _atom_site_thermal_displace_type
  _atom_site_B_iso_or_equiv
  _atom_site_type_symbol
  Zr1      1.0000 0.13173  0.02091  0.28194  Biso   1.000  Zr
  Zr2      1.0000 0.13688  0.22929  0.77245  Biso   1.000  Zr
  Zr3      1.0000 0.34760  0.27805  0.19408  Biso   1.000  Zr
  Zr4      1.0000 0.35557  0.48473  0.69833  Biso   1.000  Zr
  O1       1.0000 0.03859  0.17057  0.15019  Biso   1.000  O
  O2       1.0000 0.02824  0.08370  0.65307  Biso   1.000  O
  O3       1.0000 0.46234  0.43299  0.33861  Biso   1.000  O
  O4       1.0000 0.48268  0.35752  0.89061  Biso   1.000  O
  O5       1.0000 0.26316  0.11683  0.45791  Biso   1.000  O
  O6       1.0000 0.27972  0.12287  0.95803  Biso   1.000  O
  O7       1.0000 0.21881  0.38297  0.99708  Biso   1.000  O
  O8       1.0000 0.20641  0.37618  0.49438  Biso   1.000  O
  Zr5      1.0000 0.13605  0.52413  0.28426  Biso   1.000  Zr
  Zr6      1.0000 0.13334  0.72721  0.79241  Biso   1.000  Zr
  Zr7      1.0000 0.35909  0.77005  0.20980  Biso   1.000  Zr
  Zr8      1.0000 0.35484  0.96360  0.70970  Biso   1.000  Zr
  O9       1.0000 0.02773  0.66664  0.15398  Biso   1.000  O
  O10      1.0000 0.03058  0.58680  0.65210  Biso   1.000  O
  O11      1.0000 0.46447  0.91463  0.34519  Biso   1.000  O
  O12      1.0000 0.46123  0.82679  0.84561  Biso   1.000  O
  O13      1.0000 0.27193  0.62752  0.47968  Biso   1.000  O
  O14      1.0000 0.27092  0.62472  0.97961  Biso   1.000  O
  O15      1.0000 0.22088  0.87692  0.02066  Biso   1.000  O
  O16      1.0000 0.22056  0.86620  0.51832  Biso   1.000  O
  Zr9      1.0000 0.64106  0.01522  0.30196  Biso   1.000  Zr
  Zr10     1.0000 0.66237  0.23317  0.83252  Biso   1.000  Zr
  Zr11     1.0000 0.86431  0.27229  0.22627  Biso   1.000  Zr
  Zr12     1.0000 0.86232  0.48038  0.71525  Biso   1.000  Zr
  O17      1.0000 0.53411  0.16585  0.16904  Biso   1.000  O
  O18      1.0000 0.53691  0.06290  0.68164  Biso   1.000  O
  O19      1.0000 0.96373  0.42080  0.34303  Biso   1.000  O
  O20      1.0000 0.96121  0.33097  0.84241  Biso   1.000  O
  O21      1.0000 0.77604  0.12945  0.50045  Biso   1.000  O
  O22      1.0000 0.78382  0.11516  0.00758  Biso   1.000  O
  O23      1.0000 0.72929  0.38061  0.04484  Biso   1.000  O
  O24      1.0000 0.72685  0.37279  0.54063  Biso   1.000  O
  Zr13     1.0000 0.63639  0.52622  0.30105  Biso   1.000  Zr
  Zr14     1.0000 0.63689  0.72686  0.79747  Biso   1.000  Zr
  Zr15     1.0000 0.85769  0.77118  0.21241  Biso   1.000  Zr
  Zr16     1.0000 0.85933  0.97635  0.71388  Biso   1.000  Zr
  O25      1.0000 0.53342  0.67076  0.16270  Biso   1.000  O
  O26      1.0000 0.52991  0.58748  0.66116  Biso   1.000  O
  O27      1.0000 0.96161  0.91432  0.34882  Biso   1.000  O
  O28      1.0000 0.96413  0.83466  0.84885  Biso   1.000  O
  O29      1.0000 0.77337  0.63011  0.48719  Biso   1.000  O
  O30      1.0000 0.77269  0.62172  0.98496  Biso   1.000  O
  O31      1.0000 0.72161  0.87651  0.02542  Biso   1.000  O
  O32      1.0000 0.72162  0.87112  0.52568  Biso   1.000  O
  In1      1.0000 0.44730  0.23135  0.59678  Biso   1.000  In
