data_image0
_cell_length_a       5.04299
_cell_length_b       10.2445
_cell_length_c       10.0746
_cell_angle_alpha    90.0397
_cell_angle_beta     88.9882
_cell_angle_gamma    89.9994

_symmetry_space_group_name_H-M    "P 1"
_symmetry_int_tables_number       1

loop_
  _symmetry_equiv_pos_as_xyz
  'x, y, z'

loop_
  _atom_site_label
  _atom_site_occupancy
  _atom_site_fract_x
  _atom_site_fract_y
  _atom_site_fract_z
  _atom_site_thermal_displace_type
  _atom_site_B_iso_or_equiv
  _atom_site_type_symbol
  Ir1      1.0000 0.25022  0.96674  0.12494  Biso   1.000  Ir
  Zr1      1.0000 0.25002  0.00010  0.62482  Biso   1.000  Zr
  Zr2      1.0000 0.24987  0.50963  0.12500  Biso   1.000  Zr
  Zr3      1.0000 0.25005  0.49060  0.62513  Biso   1.000  Zr
  Zr4      1.0000 0.26157  0.24954  0.36780  Biso   1.000  Zr
  Zr5      1.0000 0.23814  0.24941  0.88209  Biso   1.000  Zr
  Zr6      1.0000 0.24662  0.74330  0.38612  Biso   1.000  Zr
  Zr7      1.0000 0.25209  0.74363  0.86395  Biso   1.000  Zr
  Zr8      1.0000 0.74959  0.25811  0.12489  Biso   1.000  Zr
  Zr9      1.0000 0.75000  0.24339  0.62503  Biso   1.000  Zr
  Zr10     1.0000 0.74978  0.75422  0.12499  Biso   1.000  Zr
  Zr11     1.0000 0.74930  0.75213  0.62491  Biso   1.000  Zr
  Zr12     1.0000 0.77713  0.00548  0.37282  Biso   1.000  Zr
  Zr13     1.0000 0.72316  0.00538  0.87705  Biso   1.000  Zr
  Zr14     1.0000 0.75277  0.49460  0.37858  Biso   1.000  Zr
  Zr15     1.0000 0.74726  0.49484  0.87161  Biso   1.000  Zr
  O1       1.0000 0.92114  0.16414  0.97163  Biso   1.000  O
  O2       1.0000 0.01261  0.14363  0.49082  Biso   1.000  O
  O3       1.0000 0.01747  0.65773  0.00454  Biso   1.000  O
  O4       1.0000 0.99368  0.63863  0.50342  Biso   1.000  O
  O5       1.0000 0.06232  0.09566  0.23789  Biso   1.000  O
  O6       1.0000 0.97945  0.09784  0.73708  Biso   1.000  O
  O7       1.0000 0.98233  0.60438  0.25106  Biso   1.000  O
  O8       1.0000 0.00745  0.60005  0.75225  Biso   1.000  O
  O9       1.0000 0.00671  0.35397  0.24984  Biso   1.000  O
  O10      1.0000 0.00130  0.34984  0.74967  Biso   1.000  O
  O11      1.0000 0.02963  0.85065  0.25142  Biso   1.000  O
  O12      1.0000 0.97956  0.85008  0.76072  Biso   1.000  O
  O13      1.0000 0.99960  0.40565  0.00211  Biso   1.000  O
  O14      1.0000 0.99703  0.39081  0.50119  Biso   1.000  O
  O15      1.0000 0.95287  0.91752  0.01544  Biso   1.000  O
  O16      1.0000 0.01222  0.88969  0.50503  Biso   1.000  O
  O17      1.0000 0.57934  0.16443  0.27858  Biso   1.000  O
  O18      1.0000 0.48785  0.14367  0.75925  Biso   1.000  O
  O19      1.0000 0.48191  0.65803  0.24533  Biso   1.000  O
  O20      1.0000 0.50536  0.63882  0.74664  Biso   1.000  O
  O21      1.0000 0.43840  0.09580  0.01226  Biso   1.000  O
  O22      1.0000 0.52102  0.09778  0.51300  Biso   1.000  O
  O23      1.0000 0.51710  0.60443  0.99902  Biso   1.000  O
  O24      1.0000 0.49180  0.60003  0.49771  Biso   1.000  O
  O25      1.0000 0.49277  0.35405  0.00014  Biso   1.000  O
  O26      1.0000 0.49897  0.34981  0.50037  Biso   1.000  O
  O27      1.0000 0.47100  0.85073  0.99828  Biso   1.000  O
  O28      1.0000 0.51945  0.85010  0.48905  Biso   1.000  O
  O29      1.0000 0.49975  0.40578  0.24797  Biso   1.000  O
  O30      1.0000 0.50324  0.39091  0.74879  Biso   1.000  O
  O31      1.0000 0.54838  0.91800  0.23395  Biso   1.000  O
  O32      1.0000 0.48694  0.88981  0.74488  Biso   1.000  O
