data_image0
_cell_length_a       5.10808
_cell_length_b       10.3211
_cell_length_c       10.5996
_cell_angle_alpha    89.1925
_cell_angle_beta     80.3303
_cell_angle_gamma    90.4782

_symmetry_space_group_name_H-M    "P 1"
_symmetry_int_tables_number       1

loop_
  _symmetry_equiv_pos_as_xyz
  'x, y, z'

loop_
  _atom_site_label
  _atom_site_occupancy
  _atom_site_fract_x
  _atom_site_fract_y
  _atom_site_fract_z
  _atom_site_thermal_displace_type
  _atom_site_B_iso_or_equiv
  _atom_site_type_symbol
  K1       1.0000 0.20254  0.98560  0.13125  Biso   1.000  K
  Hf1      1.0000 0.27852  0.02427  0.65209  Biso   1.000  Hf
  Hf2      1.0000 0.27291  0.51179  0.14534  Biso   1.000  Hf
  Hf3      1.0000 0.28535  0.52325  0.64396  Biso   1.000  Hf
  Hf4      1.0000 0.27434  0.23110  0.39799  Biso   1.000  Hf
  Hf5      1.0000 0.28434  0.22822  0.90009  Biso   1.000  Hf
  Hf6      1.0000 0.27398  0.72427  0.39622  Biso   1.000  Hf
  Hf7      1.0000 0.29767  0.72992  0.88549  Biso   1.000  Hf
  Hf8      1.0000 0.70766  0.26189  0.10639  Biso   1.000  Hf
  Hf9      1.0000 0.72292  0.27446  0.60623  Biso   1.000  Hf
  Hf10     1.0000 0.73894  0.74034  0.07473  Biso   1.000  Hf
  Hf11     1.0000 0.73133  0.77626  0.60153  Biso   1.000  Hf
  Hf12     1.0000 0.71817  0.47938  0.35213  Biso   1.000  Hf
  Hf13     1.0000 0.73308  0.47254  0.84919  Biso   1.000  Hf
  Hf14     1.0000 0.71485  0.99811  0.37472  Biso   1.000  Hf
  Hf15     1.0000 0.72603  0.98143  0.85675  Biso   1.000  Hf
  O1       1.0000 0.06704  0.19062  0.07628  Biso   1.000  O
  O2       1.0000 0.06441  0.17060  0.58442  Biso   1.000  O
  O3       1.0000 0.09658  0.66783  0.07196  Biso   1.000  O
  O4       1.0000 0.07129  0.66509  0.57336  Biso   1.000  O
  O5       1.0000 0.06024  0.08784  0.34794  Biso   1.000  O
  O6       1.0000 0.07862  0.08327  0.83094  Biso   1.000  O
  O7       1.0000 0.06283  0.58609  0.32463  Biso   1.000  O
  O8       1.0000 0.06907  0.58773  0.82234  Biso   1.000  O
  O9       1.0000 0.91371  0.42229  0.17020  Biso   1.000  O
  O10      1.0000 0.93943  0.41810  0.66964  Biso   1.000  O
  O11      1.0000 0.73452  0.88689  0.20395  Biso   1.000  O
  O12      1.0000 0.93948  0.91453  0.67611  Biso   1.000  O
  O13      1.0000 0.92861  0.33844  0.42358  Biso   1.000  O
  O14      1.0000 0.93996  0.33570  0.91540  Biso   1.000  O
  O15      1.0000 0.94847  0.84126  0.42111  Biso   1.000  O
  O16      1.0000 0.97598  0.84528  0.92761  Biso   1.000  O
  O17      1.0000 0.57919  0.14210  0.26037  Biso   1.000  O
  O18      1.0000 0.55887  0.12942  0.74190  Biso   1.000  O
  O19      1.0000 0.54108  0.63195  0.23454  Biso   1.000  O
  O20      1.0000 0.55974  0.63102  0.73341  Biso   1.000  O
  O21      1.0000 0.53934  0.12937  0.50355  Biso   1.000  O
  O22      1.0000 0.57353  0.12514  0.98283  Biso   1.000  O
  O23      1.0000 0.55415  0.62467  0.48535  Biso   1.000  O
  O24      1.0000 0.55437  0.60701  0.98147  Biso   1.000  O
  O25      1.0000 0.45078  0.37637  0.00962  Biso   1.000  O
  O26      1.0000 0.44968  0.38331  0.51051  Biso   1.000  O
  O27      1.0000 0.49795  0.85548  0.98761  Biso   1.000  O
  O28      1.0000 0.45673  0.88375  0.51591  Biso   1.000  O
  O29      1.0000 0.43304  0.37625  0.26192  Biso   1.000  O
  O30      1.0000 0.45345  0.37262  0.75844  Biso   1.000  O
  O31      1.0000 0.46755  0.88077  0.27535  Biso   1.000  O
  O32      1.0000 0.45836  0.87405  0.75437  Biso   1.000  O
