data_image0
_cell_length_a       10.0958
_cell_length_b       10.4035
_cell_length_c       5.03527
_cell_angle_alpha    89.2999
_cell_angle_beta     90.377
_cell_angle_gamma    89.0961

_symmetry_space_group_name_H-M    "P 1"
_symmetry_int_tables_number       1

loop_
  _symmetry_equiv_pos_as_xyz
  'x, y, z'

loop_
  _atom_site_label
  _atom_site_occupancy
  _atom_site_fract_x
  _atom_site_fract_y
  _atom_site_fract_z
  _atom_site_thermal_displace_type
  _atom_site_B_iso_or_equiv
  _atom_site_type_symbol
  K1       1.0000 0.11398  0.01474  0.22533  Biso   1.000  K
  Hf1      1.0000 0.13220  0.51880  0.25512  Biso   1.000  Hf
  Hf2      1.0000 0.62999  0.01318  0.24398  Biso   1.000  Hf
  Hf3      1.0000 0.63465  0.51589  0.25986  Biso   1.000  Hf
  Hf4      1.0000 0.15474  0.25039  0.76460  Biso   1.000  Hf
  Hf5      1.0000 0.13964  0.73662  0.75164  Biso   1.000  Hf
  Hf6      1.0000 0.63208  0.22940  0.74938  Biso   1.000  Hf
  Hf7      1.0000 0.63155  0.72780  0.75581  Biso   1.000  Hf
  Hf8      1.0000 0.37076  0.26748  0.25529  Biso   1.000  Hf
  Hf9      1.0000 0.36536  0.76717  0.24625  Biso   1.000  Hf
  Hf10     1.0000 0.85414  0.26585  0.25714  Biso   1.000  Hf
  Hf11     1.0000 0.86459  0.75931  0.24932  Biso   1.000  Hf
  Hf12     1.0000 0.37118  0.48768  0.75112  Biso   1.000  Hf
  Hf13     1.0000 0.36398  0.98239  0.74037  Biso   1.000  Hf
  Hf14     1.0000 0.87139  0.47873  0.76296  Biso   1.000  Hf
  Hf15     1.0000 0.84844  0.97028  0.73837  Biso   1.000  Hf
  O1       1.0000 0.01123  0.18515  0.49644  Biso   1.000  O
  O2       1.0000 0.03605  0.68279  0.39369  Biso   1.000  O
  O3       1.0000 0.54237  0.18570  0.37748  Biso   1.000  O
  O4       1.0000 0.53528  0.67914  0.39726  Biso   1.000  O
  O5       1.0000 0.02284  0.09070  0.70571  Biso   1.000  O
  O6       1.0000 0.03308  0.56983  0.89870  Biso   1.000  O
  O7       1.0000 0.53879  0.06380  0.87860  Biso   1.000  O
  O8       1.0000 0.53601  0.56425  0.90084  Biso   1.000  O
  O9       1.0000 0.46828  0.43276  0.39475  Biso   1.000  O
  O10      1.0000 0.46315  0.93618  0.38237  Biso   1.000  O
  O11      1.0000 0.96937  0.42612  0.41537  Biso   1.000  O
  O12      1.0000 0.92833  0.92156  0.39395  Biso   1.000  O
  O13      1.0000 0.46790  0.31715  0.88594  Biso   1.000  O
  O14      1.0000 0.47267  0.81808  0.89588  Biso   1.000  O
  O15      1.0000 0.97984  0.31519  0.94649  Biso   1.000  O
  O16      1.0000 0.97180  0.82761  0.90055  Biso   1.000  O
  O17      1.0000 0.28487  0.13694  0.51691  Biso   1.000  O
  O18      1.0000 0.26925  0.61468  0.49706  Biso   1.000  O
  O19      1.0000 0.76368  0.11532  0.49471  Biso   1.000  O
  O20      1.0000 0.77354  0.61329  0.50315  Biso   1.000  O
  O21      1.0000 0.27914  0.13960  0.99396  Biso   1.000  O
  O22      1.0000 0.27101  0.63087  0.99979  Biso   1.000  O
  O23      1.0000 0.77476  0.12855  0.99689  Biso   1.000  O
  O24      1.0000 0.76963  0.62541  0.99881  Biso   1.000  O
  O25      1.0000 0.23890  0.39032  0.00440  Biso   1.000  O
  O26      1.0000 0.24182  0.87260  0.97845  Biso   1.000  O
  O27      1.0000 0.73239  0.37845  0.00661  Biso   1.000  O
  O28      1.0000 0.72588  0.87287  0.00302  Biso   1.000  O
  O29      1.0000 0.23223  0.37358  0.49730  Biso   1.000  O
  O30      1.0000 0.24309  0.85754  0.50599  Biso   1.000  O
  O31      1.0000 0.73129  0.36741  0.51010  Biso   1.000  O
  O32      1.0000 0.71374  0.86415  0.50393  Biso   1.000  O
