data_image0
_cell_length_a       10.1096
_cell_length_b       10.2399
_cell_length_c       10.1095
_cell_angle_alpha    89.9999
_cell_angle_beta     90.0007
_cell_angle_gamma    90.0007

_symmetry_space_group_name_H-M    "P 1"
_symmetry_int_tables_number       1

loop_
  _symmetry_equiv_pos_as_xyz
  'x, y, z'

loop_
  _atom_site_label
  _atom_site_occupancy
  _atom_site_fract_x
  _atom_site_fract_y
  _atom_site_fract_z
  _atom_site_thermal_displace_type
  _atom_site_B_iso_or_equiv
  _atom_site_type_symbol
  La1      1.0000 0.12549  0.00046  0.12548  Biso   1.000  La
  Zr1      1.0000 0.12549  0.00046  0.62548  Biso   1.000  Zr
  Zr2      1.0000 0.12549  0.50046  0.12548  Biso   1.000  Zr
  Zr3      1.0000 0.12549  0.50047  0.62548  Biso   1.000  Zr
  Zr4      1.0000 0.62549  0.00046  0.12548  Biso   1.000  Zr
  Zr5      1.0000 0.62549  0.00046  0.62548  Biso   1.000  Zr
  Zr6      1.0000 0.62549  0.50047  0.12548  Biso   1.000  Zr
  Zr7      1.0000 0.62549  0.50047  0.62548  Biso   1.000  Zr
  Zr8      1.0000 0.12363  0.25230  0.37804  Biso   1.000  Zr
  Zr9      1.0000 0.12734  0.25229  0.87291  Biso   1.000  Zr
  Zr10     1.0000 0.12734  0.74863  0.37804  Biso   1.000  Zr
  Zr11     1.0000 0.12363  0.74863  0.87292  Biso   1.000  Zr
  Zr12     1.0000 0.62519  0.25040  0.37548  Biso   1.000  Zr
  Zr13     1.0000 0.62579  0.25040  0.87547  Biso   1.000  Zr
  Zr14     1.0000 0.62578  0.75052  0.37548  Biso   1.000  Zr
  Zr15     1.0000 0.62519  0.75052  0.87547  Biso   1.000  Zr
  Zr16     1.0000 0.37805  0.25229  0.12362  Biso   1.000  Zr
  Zr17     1.0000 0.37550  0.25040  0.62518  Biso   1.000  Zr
  Zr18     1.0000 0.37805  0.74863  0.12733  Biso   1.000  Zr
  Zr19     1.0000 0.37549  0.75052  0.62577  Biso   1.000  Zr
  Zr20     1.0000 0.87293  0.25229  0.12733  Biso   1.000  Zr
  Zr21     1.0000 0.87548  0.25040  0.62577  Biso   1.000  Zr
  Zr22     1.0000 0.87293  0.74863  0.12362  Biso   1.000  Zr
  Zr23     1.0000 0.87548  0.75052  0.62518  Biso   1.000  Zr
  Zr24     1.0000 0.37764  0.00216  0.37763  Biso   1.000  Zr
  Zr25     1.0000 0.37765  0.99877  0.87332  Biso   1.000  Zr
  Zr26     1.0000 0.37596  0.49989  0.37595  Biso   1.000  Zr
  Zr27     1.0000 0.37596  0.50103  0.87500  Biso   1.000  Zr
  Zr28     1.0000 0.87333  0.99877  0.37764  Biso   1.000  Zr
  Zr29     1.0000 0.87333  0.00216  0.87332  Biso   1.000  Zr
  Zr30     1.0000 0.87501  0.50103  0.37595  Biso   1.000  Zr
  Zr31     1.0000 0.87501  0.49989  0.87501  Biso   1.000  Zr
  O1       1.0000 0.99692  0.15363  0.99691  Biso   1.000  O
  O2       1.0000 0.00643  0.14815  0.50983  Biso   1.000  O
  O3       1.0000 0.00409  0.64372  0.00408  Biso   1.000  O
  O4       1.0000 0.00167  0.64585  0.50405  Biso   1.000  O
  O5       1.0000 0.50984  0.14815  0.00642  Biso   1.000  O
  O6       1.0000 0.50395  0.14724  0.50394  Biso   1.000  O
  O7       1.0000 0.50407  0.64585  0.00166  Biso   1.000  O
  O8       1.0000 0.50133  0.64716  0.50132  Biso   1.000  O
  O9       1.0000 0.98701  0.11814  0.26396  Biso   1.000  O
  O10      1.0000 0.99846  0.10332  0.75311  Biso   1.000  O
  O11      1.0000 0.99852  0.60254  0.25244  Biso   1.000  O
  O12      1.0000 0.00040  0.60389  0.75314  Biso   1.000  O
  O13      1.0000 0.49786  0.10332  0.25250  Biso   1.000  O
  O14      1.0000 0.49918  0.10440  0.75179  Biso   1.000  O
  O15      1.0000 0.49783  0.60389  0.25057  Biso   1.000  O
  O16      1.0000 0.50002  0.60381  0.75095  Biso   1.000  O
  O17      1.0000 0.00409  0.35721  0.24688  Biso   1.000  O
  O18      1.0000 0.00166  0.35508  0.74690  Biso   1.000  O
  O19      1.0000 0.99692  0.84730  0.25404  Biso   1.000  O
  O20      1.0000 0.00643  0.85278  0.74113  Biso   1.000  O
  O21      1.0000 0.50406  0.35508  0.24930  Biso   1.000  O
  O22      1.0000 0.50132  0.35377  0.74964  Biso   1.000  O
  O23      1.0000 0.50984  0.85278  0.24453  Biso   1.000  O
  O24      1.0000 0.50395  0.85369  0.74701  Biso   1.000  O
  O25      1.0000 0.99852  0.39838  0.99851  Biso   1.000  O
  O26      1.0000 0.00040  0.39704  0.49782  Biso   1.000  O
  O27      1.0000 0.98700  0.88278  0.98699  Biso   1.000  O
  O28      1.0000 0.99846  0.89760  0.49784  Biso   1.000  O
  O29      1.0000 0.49783  0.39704  0.00039  Biso   1.000  O
  O30      1.0000 0.50002  0.39711  0.50000  Biso   1.000  O
  O31      1.0000 0.49786  0.89760  0.99844  Biso   1.000  O
  O32      1.0000 0.49917  0.89652  0.49916  Biso   1.000  O
  O33      1.0000 0.25406  0.15363  0.25405  Biso   1.000  O
  O34      1.0000 0.24455  0.14815  0.74113  Biso   1.000  O
  O35      1.0000 0.24689  0.64372  0.24688  Biso   1.000  O
  O36      1.0000 0.24931  0.64585  0.74691  Biso   1.000  O
  O37      1.0000 0.74114  0.14815  0.24454  Biso   1.000  O
  O38      1.0000 0.74703  0.14724  0.74702  Biso   1.000  O
  O39      1.0000 0.74692  0.64585  0.24930  Biso   1.000  O
  O40      1.0000 0.74965  0.64716  0.74964  Biso   1.000  O
  O41      1.0000 0.26397  0.11814  0.98699  Biso   1.000  O
  O42      1.0000 0.25252  0.10333  0.49784  Biso   1.000  O
  O43      1.0000 0.25246  0.60254  0.99851  Biso   1.000  O
  O44      1.0000 0.25058  0.60389  0.49782  Biso   1.000  O
  O45      1.0000 0.75312  0.10332  0.99845  Biso   1.000  O
  O46      1.0000 0.75180  0.10441  0.49916  Biso   1.000  O
  O47      1.0000 0.75315  0.60389  0.00039  Biso   1.000  O
  O48      1.0000 0.75097  0.60381  0.50001  Biso   1.000  O
  O49      1.0000 0.24689  0.35721  0.00408  Biso   1.000  O
  O50      1.0000 0.24932  0.35508  0.50405  Biso   1.000  O
  O51      1.0000 0.25406  0.84730  0.99691  Biso   1.000  O
  O52      1.0000 0.24455  0.85278  0.50983  Biso   1.000  O
  O53      1.0000 0.74692  0.35508  0.00165  Biso   1.000  O
  O54      1.0000 0.74965  0.35377  0.50131  Biso   1.000  O
  O55      1.0000 0.74114  0.85278  0.00642  Biso   1.000  O
  O56      1.0000 0.74702  0.85369  0.50394  Biso   1.000  O
  O57      1.0000 0.25245  0.39838  0.25244  Biso   1.000  O
  O58      1.0000 0.25057  0.39704  0.75314  Biso   1.000  O
  O59      1.0000 0.26397  0.88278  0.26396  Biso   1.000  O
  O60      1.0000 0.25252  0.89760  0.75311  Biso   1.000  O
  O61      1.0000 0.75315  0.39704  0.25056  Biso   1.000  O
  O62      1.0000 0.75096  0.39711  0.75095  Biso   1.000  O
  O63      1.0000 0.75312  0.89760  0.25251  Biso   1.000  O
  O64      1.0000 0.75180  0.89652  0.75179  Biso   1.000  O
