data_image0
_cell_length_a       10.1303
_cell_length_b       10.4777
_cell_length_c       5.06986
_cell_angle_alpha    90.2555
_cell_angle_beta     90.4347
_cell_angle_gamma    90.0305

_symmetry_space_group_name_H-M    "P 1"
_symmetry_int_tables_number       1

loop_
  _symmetry_equiv_pos_as_xyz
  'x, y, z'

loop_
  _atom_site_label
  _atom_site_occupancy
  _atom_site_fract_x
  _atom_site_fract_y
  _atom_site_fract_z
  _atom_site_thermal_displace_type
  _atom_site_B_iso_or_equiv
  _atom_site_type_symbol
  La1      1.0000 0.12214  0.00624  0.23902  Biso   1.000  La
  Zr1      1.0000 0.13410  0.51572  0.24920  Biso   1.000  Zr
  Zr2      1.0000 0.63368  0.01565  0.25044  Biso   1.000  Zr
  Zr3      1.0000 0.63192  0.51379  0.25173  Biso   1.000  Zr
  Zr4      1.0000 0.13451  0.23854  0.74299  Biso   1.000  Zr
  Zr5      1.0000 0.13695  0.73287  0.75321  Biso   1.000  Zr
  Zr6      1.0000 0.63341  0.23427  0.74819  Biso   1.000  Zr
  Zr7      1.0000 0.63342  0.73163  0.75422  Biso   1.000  Zr
  Zr8      1.0000 0.36573  0.26477  0.24966  Biso   1.000  Zr
  Zr9      1.0000 0.37012  0.76217  0.24665  Biso   1.000  Zr
  Zr10     1.0000 0.86149  0.26966  0.24930  Biso   1.000  Zr
  Zr11     1.0000 0.86206  0.76138  0.25518  Biso   1.000  Zr
  Zr12     1.0000 0.36564  0.48275  0.74996  Biso   1.000  Zr
  Zr13     1.0000 0.36991  0.98445  0.74268  Biso   1.000  Zr
  Zr14     1.0000 0.86647  0.48457  0.75393  Biso   1.000  Zr
  Zr15     1.0000 0.85812  0.98205  0.75396  Biso   1.000  Zr
  O1       1.0000 0.03269  0.20338  0.38252  Biso   1.000  O
  O2       1.0000 0.03556  0.68561  0.39447  Biso   1.000  O
  O3       1.0000 0.53745  0.18404  0.38431  Biso   1.000  O
  O4       1.0000 0.53504  0.67959  0.39551  Biso   1.000  O
  O5       1.0000 0.03136  0.07267  0.82291  Biso   1.000  O
  O6       1.0000 0.03334  0.57024  0.89392  Biso   1.000  O
  O7       1.0000 0.53866  0.06634  0.88522  Biso   1.000  O
  O8       1.0000 0.53208  0.56677  0.89716  Biso   1.000  O
  O9       1.0000 0.46634  0.43140  0.39345  Biso   1.000  O
  O10      1.0000 0.46582  0.93421  0.38524  Biso   1.000  O
  O11      1.0000 0.96302  0.43991  0.39200  Biso   1.000  O
  O12      1.0000 0.93861  0.92603  0.40689  Biso   1.000  O
  O13      1.0000 0.46709  0.31732  0.88961  Biso   1.000  O
  O14      1.0000 0.47424  0.81895  0.89715  Biso   1.000  O
  O15      1.0000 0.96563  0.32160  0.89368  Biso   1.000  O
  O16      1.0000 0.97506  0.82470  0.91656  Biso   1.000  O
  O17      1.0000 0.28023  0.12597  0.50408  Biso   1.000  O
  O18      1.0000 0.26881  0.61263  0.49651  Biso   1.000  O
  O19      1.0000 0.76755  0.11795  0.49900  Biso   1.000  O
  O20      1.0000 0.76891  0.61569  0.49732  Biso   1.000  O
  O21      1.0000 0.27403  0.13659  0.98516  Biso   1.000  O
  O22      1.0000 0.26983  0.62996  0.99793  Biso   1.000  O
  O23      1.0000 0.76966  0.13378  0.99969  Biso   1.000  O
  O24      1.0000 0.76826  0.63074  0.99588  Biso   1.000  O
  O25      1.0000 0.23187  0.38435  0.99565  Biso   1.000  O
  O26      1.0000 0.24510  0.87336  0.97989  Biso   1.000  O
  O27      1.0000 0.72961  0.38396  0.99645  Biso   1.000  O
  O28      1.0000 0.73187  0.87927  0.00576  Biso   1.000  O
  O29      1.0000 0.23047  0.36929  0.49286  Biso   1.000  O
  O30      1.0000 0.24329  0.85537  0.50261  Biso   1.000  O
  O31      1.0000 0.73028  0.36816  0.49920  Biso   1.000  O
  O32      1.0000 0.71928  0.86537  0.50451  Biso   1.000  O
