data_image0
_cell_length_a       5.05309
_cell_length_b       10.4766
_cell_length_c       10.1643
_cell_angle_alpha    90.3694
_cell_angle_beta     90.4998
_cell_angle_gamma    89.991

_symmetry_space_group_name_H-M    "P 1"
_symmetry_int_tables_number       1

loop_
  _symmetry_equiv_pos_as_xyz
  'x, y, z'

loop_
  _atom_site_label
  _atom_site_occupancy
  _atom_site_fract_x
  _atom_site_fract_y
  _atom_site_fract_z
  _atom_site_thermal_displace_type
  _atom_site_B_iso_or_equiv
  _atom_site_type_symbol
  La1      1.0000 0.24951  0.00530  0.11657  Biso   1.000  La
  Zr1      1.0000 0.26592  0.01727  0.62520  Biso   1.000  Zr
  Zr2      1.0000 0.26493  0.51358  0.12524  Biso   1.000  Zr
  Zr3      1.0000 0.26776  0.51528  0.62625  Biso   1.000  Zr
  Zr4      1.0000 0.26652  0.23416  0.37547  Biso   1.000  Zr
  Zr5      1.0000 0.27299  0.23816  0.86940  Biso   1.000  Zr
  Zr6      1.0000 0.26285  0.73177  0.38033  Biso   1.000  Zr
  Zr7      1.0000 0.27723  0.73230  0.87496  Biso   1.000  Zr
  Zr8      1.0000 0.72183  0.26647  0.12814  Biso   1.000  Zr
  Zr9      1.0000 0.73399  0.26676  0.62206  Biso   1.000  Zr
  Zr10     1.0000 0.73003  0.75869  0.12917  Biso   1.000  Zr
  Zr11     1.0000 0.73256  0.76474  0.62425  Biso   1.000  Zr
  Zr12     1.0000 0.72778  0.48365  0.37609  Biso   1.000  Zr
  Zr13     1.0000 0.73540  0.48273  0.87693  Biso   1.000  Zr
  Zr14     1.0000 0.72079  0.98377  0.37943  Biso   1.000  Zr
  Zr15     1.0000 0.73565  0.98456  0.86757  Biso   1.000  Zr
  O1       1.0000 0.06090  0.19609  0.19919  Biso   1.000  O
  O2       1.0000 0.07984  0.18956  0.68249  Biso   1.000  O
  O3       1.0000 0.07010  0.68159  0.19903  Biso   1.000  O
  O4       1.0000 0.06983  0.68309  0.69717  Biso   1.000  O
  O5       1.0000 0.06671  0.06543  0.44187  Biso   1.000  O
  O6       1.0000 0.07543  0.07379  0.91068  Biso   1.000  O
  O7       1.0000 0.06440  0.56562  0.44901  Biso   1.000  O
  O8       1.0000 0.06561  0.57172  0.94770  Biso   1.000  O
  O9       1.0000 0.92358  0.43673  0.19570  Biso   1.000  O
  O10      1.0000 0.93693  0.43324  0.69870  Biso   1.000  O
  O11      1.0000 0.88116  0.92931  0.20366  Biso   1.000  O
  O12      1.0000 0.92767  0.93262  0.69032  Biso   1.000  O
  O13      1.0000 0.92639  0.31850  0.44486  Biso   1.000  O
  O14      1.0000 0.93967  0.32055  0.94750  Biso   1.000  O
  O15      1.0000 0.92824  0.81538  0.44909  Biso   1.000  O
  O16      1.0000 0.97188  0.82938  0.95861  Biso   1.000  O
  O17      1.0000 0.54968  0.12614  0.25665  Biso   1.000  O
  O18      1.0000 0.54501  0.11864  0.74466  Biso   1.000  O
  O19      1.0000 0.53413  0.61208  0.24930  Biso   1.000  O
  O20      1.0000 0.54217  0.61608  0.74904  Biso   1.000  O
  O21      1.0000 0.53202  0.13295  0.50125  Biso   1.000  O
  O22      1.0000 0.55676  0.13724  0.99028  Biso   1.000  O
  O23      1.0000 0.53598  0.63206  0.49986  Biso   1.000  O
  O24      1.0000 0.53968  0.62777  0.99936  Biso   1.000  O
  O25      1.0000 0.46012  0.38390  0.49879  Biso   1.000  O
  O26      1.0000 0.46220  0.38380  0.99790  Biso   1.000  O
  O27      1.0000 0.45566  0.88258  0.50137  Biso   1.000  O
  O28      1.0000 0.50171  0.86868  0.98905  Biso   1.000  O
  O29      1.0000 0.45300  0.36926  0.24934  Biso   1.000  O
  O30      1.0000 0.46898  0.36855  0.74691  Biso   1.000  O
  O31      1.0000 0.46234  0.85178  0.25652  Biso   1.000  O
  O32      1.0000 0.46220  0.86701  0.74623  Biso   1.000  O
