data_image0
_cell_length_a       10.1563
_cell_length_b       5.12933
_cell_length_c       10.4928
_cell_angle_alpha    89.8991
_cell_angle_beta     89.7811
_cell_angle_gamma    89.9845

_symmetry_space_group_name_H-M    "P 1"
_symmetry_int_tables_number       1

loop_
  _symmetry_equiv_pos_as_xyz
  'x, y, z'

loop_
  _atom_site_label
  _atom_site_occupancy
  _atom_site_fract_x
  _atom_site_fract_y
  _atom_site_fract_z
  _atom_site_thermal_displace_type
  _atom_site_B_iso_or_equiv
  _atom_site_type_symbol
  Li1      1.0000 0.13024  0.01256  0.17107  Biso   1.000  Li
  Zr1      1.0000 0.14059  0.04082  0.67301  Biso   1.000  Zr
  Zr2      1.0000 0.14395  0.46097  0.41812  Biso   1.000  Zr
  Zr3      1.0000 0.14327  0.45488  0.92954  Biso   1.000  Zr
  Zr4      1.0000 0.35240  0.53985  0.17227  Biso   1.000  Zr
  Zr5      1.0000 0.36004  0.54336  0.67288  Biso   1.000  Zr
  Zr6      1.0000 0.35682  0.96030  0.41821  Biso   1.000  Zr
  Zr7      1.0000 0.35669  0.95705  0.92692  Biso   1.000  Zr
  Zr8      1.0000 0.63808  0.04121  0.07803  Biso   1.000  Zr
  Zr9      1.0000 0.63780  0.04146  0.57618  Biso   1.000  Zr
  Zr10     1.0000 0.63798  0.46062  0.32606  Biso   1.000  Zr
  Zr11     1.0000 0.63818  0.45812  0.82821  Biso   1.000  Zr
  Zr12     1.0000 0.86379  0.54096  0.07857  Biso   1.000  Zr
  Zr13     1.0000 0.85908  0.54098  0.57620  Biso   1.000  Zr
  Zr14     1.0000 0.86391  0.96061  0.32430  Biso   1.000  Zr
  Zr15     1.0000 0.85959  0.95774  0.82788  Biso   1.000  Zr
  O1       1.0000 0.02929  0.31946  0.08143  Biso   1.000  O
  O2       1.0000 0.02884  0.31921  0.57991  Biso   1.000  O
  O3       1.0000 0.02294  0.19735  0.33741  Biso   1.000  O
  O4       1.0000 0.02777  0.18187  0.82989  Biso   1.000  O
  O5       1.0000 0.47124  0.82053  0.08270  Biso   1.000  O
  O6       1.0000 0.46847  0.82563  0.58147  Biso   1.000  O
  O7       1.0000 0.47136  0.68127  0.33111  Biso   1.000  O
  O8       1.0000 0.46928  0.67448  0.83198  Biso   1.000  O
  O9       1.0000 0.28083  0.25606  0.30334  Biso   1.000  O
  O10      1.0000 0.27330  0.24671  0.79608  Biso   1.000  O
  O11      1.0000 0.28591  0.26100  0.04098  Biso   1.000  O
  O12      1.0000 0.27449  0.25316  0.54825  Biso   1.000  O
  O13      1.0000 0.22768  0.74529  0.29909  Biso   1.000  O
  O14      1.0000 0.22500  0.74852  0.79573  Biso   1.000  O
  O15      1.0000 0.22974  0.74352  0.04288  Biso   1.000  O
  O16      1.0000 0.22475  0.75336  0.54740  Biso   1.000  O
  O17      1.0000 0.53095  0.32640  0.16691  Biso   1.000  O
  O18      1.0000 0.53101  0.32679  0.66672  Biso   1.000  O
  O19      1.0000 0.53107  0.17486  0.41621  Biso   1.000  O
  O20      1.0000 0.53195  0.17133  0.91658  Biso   1.000  O
  O21      1.0000 0.97109  0.80987  0.17365  Biso   1.000  O
  O22      1.0000 0.97025  0.81952  0.66917  Biso   1.000  O
  O23      1.0000 0.97183  0.68641  0.42134  Biso   1.000  O
  O24      1.0000 0.97155  0.68243  0.91985  Biso   1.000  O
  O25      1.0000 0.77489  0.24648  0.95301  Biso   1.000  O
  O26      1.0000 0.77301  0.25279  0.45351  Biso   1.000  O
  O27      1.0000 0.77381  0.25199  0.20312  Biso   1.000  O
  O28      1.0000 0.77388  0.25018  0.70312  Biso   1.000  O
  O29      1.0000 0.72551  0.74644  0.95240  Biso   1.000  O
  O30      1.0000 0.72643  0.75101  0.45235  Biso   1.000  O
  O31      1.0000 0.72410  0.75372  0.20253  Biso   1.000  O
  O32      1.0000 0.72535  0.75087  0.70242  Biso   1.000  O
