data_image0
_cell_length_a       5.12713
_cell_length_b       10.3062
_cell_length_c       10.51
_cell_angle_alpha    89.8957
_cell_angle_beta     79.8233
_cell_angle_gamma    90.0224

_symmetry_space_group_name_H-M    "P 1"
_symmetry_int_tables_number       1

loop_
  _symmetry_equiv_pos_as_xyz
  'x, y, z'

loop_
  _atom_site_label
  _atom_site_occupancy
  _atom_site_fract_x
  _atom_site_fract_y
  _atom_site_fract_z
  _atom_site_thermal_displace_type
  _atom_site_B_iso_or_equiv
  _atom_site_type_symbol
  Li1      1.0000 0.25703  0.00911  0.15081  Biso   1.000  Li
  Zr1      1.0000 0.27939  0.01974  0.64461  Biso   1.000  Zr
  Zr2      1.0000 0.27786  0.52076  0.14457  Biso   1.000  Zr
  Zr3      1.0000 0.27891  0.52195  0.64662  Biso   1.000  Zr
  Zr4      1.0000 0.28115  0.22798  0.39248  Biso   1.000  Zr
  Zr5      1.0000 0.27963  0.22513  0.90062  Biso   1.000  Zr
  Zr6      1.0000 0.28102  0.72968  0.39301  Biso   1.000  Zr
  Zr7      1.0000 0.28329  0.73163  0.89757  Biso   1.000  Zr
  Zr8      1.0000 0.71558  0.26345  0.10593  Biso   1.000  Zr
  Zr9      1.0000 0.71708  0.27140  0.60439  Biso   1.000  Zr
  Zr10     1.0000 0.71468  0.77727  0.10554  Biso   1.000  Zr
  Zr11     1.0000 0.72149  0.77169  0.60289  Biso   1.000  Zr
  Zr12     1.0000 0.71961  0.47893  0.35323  Biso   1.000  Zr
  Zr13     1.0000 0.72098  0.47789  0.85613  Biso   1.000  Zr
  Zr14     1.0000 0.71751  0.98003  0.34756  Biso   1.000  Zr
  Zr15     1.0000 0.71502  0.97959  0.85660  Biso   1.000  Zr
  O1       1.0000 0.06801  0.16653  0.07890  Biso   1.000  O
  O2       1.0000 0.06092  0.16289  0.57677  Biso   1.000  O
  O3       1.0000 0.06224  0.66459  0.07743  Biso   1.000  O
  O4       1.0000 0.06489  0.66408  0.57753  Biso   1.000  O
  O5       1.0000 0.05593  0.08984  0.33498  Biso   1.000  O
  O6       1.0000 0.06594  0.08583  0.82580  Biso   1.000  O
  O7       1.0000 0.06265  0.58628  0.32643  Biso   1.000  O
  O8       1.0000 0.06432  0.58679  0.82757  Biso   1.000  O
  O9       1.0000 0.93361  0.41243  0.17258  Biso   1.000  O
  O10      1.0000 0.93635  0.41277  0.67358  Biso   1.000  O
  O11      1.0000 0.93483  0.91395  0.17196  Biso   1.000  O
  O12      1.0000 0.93427  0.91359  0.67301  Biso   1.000  O
  O13      1.0000 0.93404  0.33786  0.42380  Biso   1.000  O
  O14      1.0000 0.94033  0.33795  0.92359  Biso   1.000  O
  O15      1.0000 0.93679  0.83642  0.42188  Biso   1.000  O
  O16      1.0000 0.94325  0.84002  0.92307  Biso   1.000  O
  O17      1.0000 0.56082  0.13288  0.24817  Biso   1.000  O
  O18      1.0000 0.54871  0.12681  0.73879  Biso   1.000  O
  O19      1.0000 0.54933  0.62611  0.23917  Biso   1.000  O
  O20      1.0000 0.55159  0.62848  0.74028  Biso   1.000  O
  O21      1.0000 0.54685  0.12235  0.49249  Biso   1.000  O
  O22      1.0000 0.57504  0.13001  0.98069  Biso   1.000  O
  O23      1.0000 0.55010  0.62210  0.49013  Biso   1.000  O
  O24      1.0000 0.54966  0.62003  0.99027  Biso   1.000  O
  O25      1.0000 0.44995  0.37834  0.01011  Biso   1.000  O
  O26      1.0000 0.44814  0.37896  0.51018  Biso   1.000  O
  O27      1.0000 0.46065  0.87442  0.00212  Biso   1.000  O
  O28      1.0000 0.44997  0.87803  0.50854  Biso   1.000  O
  O29      1.0000 0.44525  0.37357  0.25962  Biso   1.000  O
  O30      1.0000 0.45075  0.37117  0.76042  Biso   1.000  O
  O31      1.0000 0.45532  0.86671  0.26130  Biso   1.000  O
  O32      1.0000 0.44927  0.87196  0.75625  Biso   1.000  O
