data_image0
_cell_length_a       10.2371
_cell_length_b       10.3354
_cell_length_c       5.29149
_cell_angle_alpha    90.1175
_cell_angle_beta     79.1596
_cell_angle_gamma    90.3158

_symmetry_space_group_name_H-M    "P 1"
_symmetry_int_tables_number       1

loop_
  _symmetry_equiv_pos_as_xyz
  'x, y, z'

loop_
  _atom_site_label
  _atom_site_occupancy
  _atom_site_fract_x
  _atom_site_fract_y
  _atom_site_fract_z
  _atom_site_thermal_displace_type
  _atom_site_B_iso_or_equiv
  _atom_site_type_symbol
  Zr1      1.0000 0.13751  0.02281  0.29446  Biso   1.000  Zr
  Zr2      1.0000 0.13491  0.22929  0.78853  Biso   1.000  Zr
  Zr3      1.0000 0.34873  0.27589  0.18326  Biso   1.000  Zr
  Zr4      1.0000 0.35490  0.48273  0.70356  Biso   1.000  Zr
  O1       1.0000 0.03600  0.17126  0.16318  Biso   1.000  O
  O2       1.0000 0.03414  0.08177  0.65896  Biso   1.000  O
  O3       1.0000 0.46446  0.40759  0.35054  Biso   1.000  O
  O4       1.0000 0.46324  0.32938  0.83073  Biso   1.000  O
  O5       1.0000 0.28261  0.13498  0.48120  Biso   1.000  O
  O6       1.0000 0.27451  0.12159  0.97885  Biso   1.000  O
  O7       1.0000 0.21606  0.38381  0.00493  Biso   1.000  O
  O8       1.0000 0.21891  0.37353  0.50916  Biso   1.000  O
  Zr5      1.0000 0.13552  0.52499  0.29310  Biso   1.000  Zr
  Zr6      1.0000 0.13620  0.72976  0.79639  Biso   1.000  Zr
  Zr7      1.0000 0.35994  0.77292  0.21203  Biso   1.000  Zr
  Zr8      1.0000 0.35853  0.97511  0.71363  Biso   1.000  Zr
  O9       1.0000 0.03117  0.66942  0.16204  Biso   1.000  O
  O10      1.0000 0.03209  0.58409  0.66140  Biso   1.000  O
  O11      1.0000 0.46611  0.91598  0.35129  Biso   1.000  O
  O12      1.0000 0.46594  0.83448  0.85016  Biso   1.000  O
  O13      1.0000 0.27406  0.62953  0.48331  Biso   1.000  O
  O14      1.0000 0.27341  0.62455  0.98329  Biso   1.000  O
  O15      1.0000 0.22267  0.87870  0.02451  Biso   1.000  O
  O16      1.0000 0.22182  0.87327  0.52257  Biso   1.000  O
  Zr9      1.0000 0.63979  0.02039  0.30102  Biso   1.000  Zr
  Zr10     1.0000 0.64704  0.22777  0.81718  Biso   1.000  Zr
  Zr11     1.0000 0.86050  0.27225  0.22031  Biso   1.000  Zr
  Zr12     1.0000 0.85933  0.47903  0.71578  Biso   1.000  Zr
  O17      1.0000 0.53115  0.17045  0.17575  Biso   1.000  O
  O18      1.0000 0.53215  0.08701  0.66573  Biso   1.000  O
  O19      1.0000 0.96360  0.41950  0.34721  Biso   1.000  O
  O20      1.0000 0.95984  0.33016  0.84463  Biso   1.000  O
  O21      1.0000 0.77608  0.12849  0.49593  Biso   1.000  O
  O22      1.0000 0.77888  0.11856  0.99784  Biso   1.000  O
  O23      1.0000 0.72140  0.37864  0.03127  Biso   1.000  O
  O24      1.0000 0.72143  0.37021  0.53244  Biso   1.000  O
  Zr13     1.0000 0.63624  0.52115  0.30005  Biso   1.000  Zr
  Zr14     1.0000 0.63698  0.72683  0.79872  Biso   1.000  Zr
  Zr15     1.0000 0.85806  0.77207  0.21437  Biso   1.000  Zr
  Zr16     1.0000 0.85964  0.97664  0.71403  Biso   1.000  Zr
  O25      1.0000 0.53004  0.66325  0.16084  Biso   1.000  O
  O26      1.0000 0.52916  0.58371  0.65987  Biso   1.000  O
  O27      1.0000 0.96397  0.91872  0.34487  Biso   1.000  O
  O28      1.0000 0.96383  0.83281  0.84729  Biso   1.000  O
  O29      1.0000 0.77282  0.62799  0.48766  Biso   1.000  O
  O30      1.0000 0.77335  0.62153  0.98770  Biso   1.000  O
  O31      1.0000 0.72174  0.87707  0.02608  Biso   1.000  O
  O32      1.0000 0.72141  0.87169  0.52604  Biso   1.000  O
  Li1      1.0000 0.46453  0.22848  0.53583  Biso   1.000  Li
