data_image0
_cell_length_a       10.2796
_cell_length_b       10.311
_cell_length_c       5.23979
_cell_angle_alpha    90.0113
_cell_angle_beta     79.8691
_cell_angle_gamma    89.9317

_symmetry_space_group_name_H-M    "P 1"
_symmetry_int_tables_number       1

loop_
  _symmetry_equiv_pos_as_xyz
  'x, y, z'

loop_
  _atom_site_label
  _atom_site_occupancy
  _atom_site_fract_x
  _atom_site_fract_y
  _atom_site_fract_z
  _atom_site_thermal_displace_type
  _atom_site_B_iso_or_equiv
  _atom_site_type_symbol
  Li1      1.0000 0.12601  0.00313  0.28474  Biso   1.000  Li
  Zr1      1.0000 0.14048  0.52225  0.29127  Biso   1.000  Zr
  Zr2      1.0000 0.63902  0.02084  0.29106  Biso   1.000  Zr
  Zr3      1.0000 0.63826  0.52115  0.29056  Biso   1.000  Zr
  Zr4      1.0000 0.14260  0.22663  0.79320  Biso   1.000  Zr
  Zr5      1.0000 0.14312  0.73278  0.78906  Biso   1.000  Zr
  Zr6      1.0000 0.63831  0.22879  0.79070  Biso   1.000  Zr
  Zr7      1.0000 0.63846  0.72932  0.79344  Biso   1.000  Zr
  Zr8      1.0000 0.35663  0.26729  0.21243  Biso   1.000  Zr
  Zr9      1.0000 0.35639  0.77648  0.20819  Biso   1.000  Zr
  Zr10     1.0000 0.86173  0.26896  0.20580  Biso   1.000  Zr
  Zr11     1.0000 0.86151  0.77262  0.21107  Biso   1.000  Zr
  Zr12     1.0000 0.36005  0.47872  0.70867  Biso   1.000  Zr
  Zr13     1.0000 0.35478  0.97882  0.70739  Biso   1.000  Zr
  Zr14     1.0000 0.86107  0.47937  0.70912  Biso   1.000  Zr
  Zr15     1.0000 0.86253  0.97859  0.70237  Biso   1.000  Zr
  O1       1.0000 0.03118  0.15914  0.14618  Biso   1.000  O
  O2       1.0000 0.03219  0.66311  0.15364  Biso   1.000  O
  O3       1.0000 0.53361  0.16653  0.15841  Biso   1.000  O
  O4       1.0000 0.53169  0.66526  0.15734  Biso   1.000  O
  O5       1.0000 0.02552  0.09320  0.67213  Biso   1.000  O
  O6       1.0000 0.03124  0.58823  0.65217  Biso   1.000  O
  O7       1.0000 0.53391  0.08418  0.65726  Biso   1.000  O
  O8       1.0000 0.53249  0.58495  0.65657  Biso   1.000  O
  O9       1.0000 0.46711  0.41413  0.34399  Biso   1.000  O
  O10      1.0000 0.46933  0.91468  0.34414  Biso   1.000  O
  O11      1.0000 0.97019  0.41022  0.34770  Biso   1.000  O
  O12      1.0000 0.96230  0.91296  0.34902  Biso   1.000  O
  O13      1.0000 0.46805  0.33668  0.84518  Biso   1.000  O
  O14      1.0000 0.47060  0.83864  0.84604  Biso   1.000  O
  O15      1.0000 0.96983  0.34028  0.84882  Biso   1.000  O
  O16      1.0000 0.96824  0.83628  0.84525  Biso   1.000  O
  O17      1.0000 0.28211  0.13255  0.49603  Biso   1.000  O
  O18      1.0000 0.27537  0.62653  0.47941  Biso   1.000  O
  O19      1.0000 0.77403  0.12847  0.47998  Biso   1.000  O
  O20      1.0000 0.77456  0.62807  0.48074  Biso   1.000  O
  O21      1.0000 0.28578  0.12984  0.96924  Biso   1.000  O
  O22      1.0000 0.27567  0.62165  0.98062  Biso   1.000  O
  O23      1.0000 0.77353  0.12235  0.97985  Biso   1.000  O
  O24      1.0000 0.77392  0.62096  0.98089  Biso   1.000  O
  O25      1.0000 0.22475  0.37948  0.01996  Biso   1.000  O
  O26      1.0000 0.22868  0.87562  0.00801  Biso   1.000  O
  O27      1.0000 0.72566  0.37803  0.01841  Biso   1.000  O
  O28      1.0000 0.72629  0.87801  0.01770  Biso   1.000  O
  O29      1.0000 0.22407  0.37311  0.51936  Biso   1.000  O
  O30      1.0000 0.22985  0.86743  0.51854  Biso   1.000  O
  O31      1.0000 0.72609  0.37211  0.51827  Biso   1.000  O
  O32      1.0000 0.72121  0.87161  0.52007  Biso   1.000  O
