data_image0
_cell_length_a       10.0467
_cell_length_b       10.2114
_cell_length_c       10.4404
_cell_angle_alpha    89.929
_cell_angle_beta     90.0165
_cell_angle_gamma    89.9685

_symmetry_space_group_name_H-M    "P 1"
_symmetry_int_tables_number       1

loop_
  _symmetry_equiv_pos_as_xyz
  'x, y, z'

loop_
  _atom_site_label
  _atom_site_occupancy
  _atom_site_fract_x
  _atom_site_fract_y
  _atom_site_fract_z
  _atom_site_thermal_displace_type
  _atom_site_B_iso_or_equiv
  _atom_site_type_symbol
  Mg1      1.0000 0.13412  0.01478  0.17798  Biso   1.000  Mg
  Hf1      1.0000 0.13942  0.02102  0.67121  Biso   1.000  Hf
  Hf2      1.0000 0.14047  0.52095  0.17218  Biso   1.000  Hf
  Hf3      1.0000 0.13963  0.52106  0.67259  Biso   1.000  Hf
  Hf4      1.0000 0.13965  0.22703  0.41916  Biso   1.000  Hf
  Hf5      1.0000 0.14049  0.22547  0.92580  Biso   1.000  Hf
  Hf6      1.0000 0.14123  0.73049  0.42049  Biso   1.000  Hf
  Hf7      1.0000 0.14142  0.73147  0.92323  Biso   1.000  Hf
  Hf8      1.0000 0.35668  0.26569  0.17208  Biso   1.000  Hf
  Hf9      1.0000 0.35992  0.27073  0.67215  Biso   1.000  Hf
  Hf10     1.0000 0.35782  0.77413  0.17155  Biso   1.000  Hf
  Hf11     1.0000 0.36116  0.77199  0.67163  Biso   1.000  Hf
  Hf12     1.0000 0.36075  0.47840  0.42166  Biso   1.000  Hf
  Hf13     1.0000 0.35997  0.47803  0.92300  Biso   1.000  Hf
  Hf14     1.0000 0.35761  0.98056  0.41835  Biso   1.000  Hf
  Hf15     1.0000 0.35873  0.98008  0.92430  Biso   1.000  Hf
  Hf16     1.0000 0.63957  0.02112  0.07800  Biso   1.000  Hf
  Hf17     1.0000 0.63811  0.02078  0.57681  Biso   1.000  Hf
  Hf18     1.0000 0.63818  0.51979  0.07842  Biso   1.000  Hf
  Hf19     1.0000 0.63888  0.52107  0.57818  Biso   1.000  Hf
  Hf20     1.0000 0.63879  0.22956  0.32767  Biso   1.000  Hf
  Hf21     1.0000 0.63919  0.22898  0.82830  Biso   1.000  Hf
  Hf22     1.0000 0.63831  0.73038  0.32703  Biso   1.000  Hf
  Hf23     1.0000 0.63854  0.72908  0.82849  Biso   1.000  Hf
  Hf24     1.0000 0.86489  0.26820  0.07845  Biso   1.000  Hf
  Hf25     1.0000 0.86046  0.27097  0.57756  Biso   1.000  Hf
  Hf26     1.0000 0.86102  0.77236  0.07887  Biso   1.000  Hf
  Hf27     1.0000 0.86065  0.77069  0.57788  Biso   1.000  Hf
  Hf28     1.0000 0.86045  0.47996  0.32796  Biso   1.000  Hf
  Hf29     1.0000 0.86114  0.47896  0.82912  Biso   1.000  Hf
  Hf30     1.0000 0.86380  0.97985  0.32598  Biso   1.000  Hf
  Hf31     1.0000 0.86033  0.97902  0.82782  Biso   1.000  Hf
  O1       1.0000 0.03436  0.16403  0.08491  Biso   1.000  O
  O2       1.0000 0.03281  0.16700  0.58560  Biso   1.000  O
  O3       1.0000 0.03246  0.66513  0.08455  Biso   1.000  O
  O4       1.0000 0.03313  0.66597  0.58511  Biso   1.000  O
  O5       1.0000 0.02927  0.08648  0.34021  Biso   1.000  O
  O6       1.0000 0.03211  0.08414  0.83391  Biso   1.000  O
  O7       1.0000 0.03257  0.58576  0.33423  Biso   1.000  O
  O8       1.0000 0.03304  0.58429  0.83542  Biso   1.000  O
  O9       1.0000 0.46696  0.41277  0.08389  Biso   1.000  O
  O10      1.0000 0.46759  0.41500  0.58409  Biso   1.000  O
  O11      1.0000 0.46991  0.91432  0.08344  Biso   1.000  O
  O12      1.0000 0.46686  0.91505  0.58262  Biso   1.000  O
  O13      1.0000 0.46792  0.33585  0.33397  Biso   1.000  O
  O14      1.0000 0.46786  0.33514  0.83354  Biso   1.000  O
  O15      1.0000 0.46860  0.83750  0.33239  Biso   1.000  O
  O16      1.0000 0.46754  0.83547  0.83346  Biso   1.000  O
  O17      1.0000 0.27874  0.12579  0.29842  Biso   1.000  O
  O18      1.0000 0.27516  0.12317  0.79384  Biso   1.000  O
  O19      1.0000 0.27698  0.62282  0.29547  Biso   1.000  O
  O20      1.0000 0.27627  0.62445  0.79618  Biso   1.000  O
  O21      1.0000 0.28515  0.13170  0.03956  Biso   1.000  O
  O22      1.0000 0.27558  0.12602  0.54588  Biso   1.000  O
  O23      1.0000 0.27603  0.62460  0.04645  Biso   1.000  O
  O24      1.0000 0.27656  0.62669  0.54567  Biso   1.000  O
  O25      1.0000 0.22291  0.37427  0.29587  Biso   1.000  O
  O26      1.0000 0.22435  0.37377  0.79636  Biso   1.000  O
  O27      1.0000 0.22476  0.87149  0.29628  Biso   1.000  O
  O28      1.0000 0.22351  0.87422  0.79401  Biso   1.000  O
  O29      1.0000 0.22190  0.37722  0.04644  Biso   1.000  O
  O30      1.0000 0.22400  0.37651  0.54594  Biso   1.000  O
  O31      1.0000 0.22850  0.87318  0.04239  Biso   1.000  O
  O32      1.0000 0.22307  0.87678  0.54532  Biso   1.000  O
  O33      1.0000 0.53314  0.16509  0.16609  Biso   1.000  O
  O34      1.0000 0.53246  0.16541  0.66562  Biso   1.000  O
  O35      1.0000 0.53118  0.66390  0.16654  Biso   1.000  O
  O36      1.0000 0.53255  0.66497  0.66644  Biso   1.000  O
  O37      1.0000 0.53229  0.08492  0.41514  Biso   1.000  O
  O38      1.0000 0.53425  0.08413  0.91527  Biso   1.000  O
  O39      1.0000 0.53203  0.58608  0.41672  Biso   1.000  O
  O40      1.0000 0.53159  0.58476  0.91658  Biso   1.000  O
  O41      1.0000 0.96771  0.41590  0.16583  Biso   1.000  O
  O42      1.0000 0.96722  0.41603  0.66563  Biso   1.000  O
  O43      1.0000 0.96420  0.91326  0.16621  Biso   1.000  O
  O44      1.0000 0.96657  0.91616  0.66461  Biso   1.000  O
  O45      1.0000 0.96730  0.33629  0.41578  Biso   1.000  O
  O46      1.0000 0.96819  0.33445  0.91580  Biso   1.000  O
  O47      1.0000 0.96768  0.83388  0.41575  Biso   1.000  O
  O48      1.0000 0.96711  0.83387  0.91459  Biso   1.000  O
  O49      1.0000 0.77735  0.12353  0.95411  Biso   1.000  O
  O50      1.0000 0.77459  0.12572  0.45483  Biso   1.000  O
  O51      1.0000 0.77505  0.62286  0.95419  Biso   1.000  O
  O52      1.0000 0.77588  0.62448  0.45439  Biso   1.000  O
  O53      1.0000 0.77575  0.12615  0.20440  Biso   1.000  O
  O54      1.0000 0.77585  0.12595  0.70427  Biso   1.000  O
  O55      1.0000 0.77576  0.62642  0.20428  Biso   1.000  O
  O56      1.0000 0.77609  0.62597  0.70445  Biso   1.000  O
  O57      1.0000 0.72418  0.37306  0.95443  Biso   1.000  O
  O58      1.0000 0.72372  0.37534  0.45432  Biso   1.000  O
  O59      1.0000 0.72416  0.87386  0.95372  Biso   1.000  O
  O60      1.0000 0.72474  0.87448  0.45403  Biso   1.000  O
  O61      1.0000 0.72486  0.37617  0.20476  Biso   1.000  O
  O62      1.0000 0.72425  0.37609  0.70426  Biso   1.000  O
  O63      1.0000 0.72081  0.87591  0.20356  Biso   1.000  O
  O64      1.0000 0.72365  0.87566  0.70408  Biso   1.000  O
