data_image0
_cell_length_a       10.0666
_cell_length_b       10.2654
_cell_length_c       5.27217
_cell_angle_alpha    89.6122
_cell_angle_beta     92.0144
_cell_angle_gamma    90.6311

_symmetry_space_group_name_H-M    "P 1"
_symmetry_int_tables_number       1

loop_
  _symmetry_equiv_pos_as_xyz
  'x, y, z'

loop_
  _atom_site_label
  _atom_site_occupancy
  _atom_site_fract_x
  _atom_site_fract_y
  _atom_site_fract_z
  _atom_site_thermal_displace_type
  _atom_site_B_iso_or_equiv
  _atom_site_type_symbol
  Hf1      1.0000 0.14011  0.02160  0.35011  Biso   1.000  Hf
  Hf2      1.0000 0.13420  0.22676  0.86180  Biso   1.000  Hf
  Hf3      1.0000 0.35022  0.27115  0.39212  Biso   1.000  Hf
  Hf4      1.0000 0.35720  0.48527  0.86149  Biso   1.000  Hf
  Hf5      1.0000 0.65067  0.02292  0.13799  Biso   1.000  Hf
  Hf6      1.0000 0.65840  0.22070  0.63561  Biso   1.000  Hf
  Hf7      1.0000 0.85251  0.26676  0.14140  Biso   1.000  Hf
  Hf8      1.0000 0.86373  0.47810  0.65196  Biso   1.000  Hf
  O1       1.0000 0.03284  0.16349  0.17095  Biso   1.000  O
  O2       1.0000 0.03905  0.08153  0.66801  Biso   1.000  O
  O3       1.0000 0.46933  0.41470  0.18578  Biso   1.000  O
  O4       1.0000 0.46946  0.33040  0.70488  Biso   1.000  O
  O5       1.0000 0.27450  0.12548  0.61212  Biso   1.000  O
  O6       1.0000 0.27970  0.12860  0.10772  Biso   1.000  O
  O7       1.0000 0.22185  0.37641  0.61811  Biso   1.000  O
  O8       1.0000 0.22438  0.37708  0.11677  Biso   1.000  O
  O9       1.0000 0.52253  0.16358  0.34757  Biso   1.000  O
  O10      1.0000 0.53208  0.08555  0.83166  Biso   1.000  O
  O11      1.0000 0.96331  0.41332  0.33525  Biso   1.000  O
  O12      1.0000 0.96740  0.33535  0.83546  Biso   1.000  O
  O13      1.0000 0.79921  0.11385  0.88189  Biso   1.000  O
  O14      1.0000 0.78727  0.12097  0.40003  Biso   1.000  O
  O15      1.0000 0.72339  0.38389  0.89118  Biso   1.000  O
  O16      1.0000 0.71988  0.37554  0.39626  Biso   1.000  O
  Hf9      1.0000 0.13490  0.52025  0.34899  Biso   1.000  Hf
  Hf10     1.0000 0.14086  0.72938  0.84684  Biso   1.000  Hf
  Hf11     1.0000 0.36422  0.77467  0.35208  Biso   1.000  Hf
  Hf12     1.0000 0.36341  0.97719  0.85706  Biso   1.000  Hf
  Hf13     1.0000 0.64395  0.53110  0.15715  Biso   1.000  Hf
  Hf14     1.0000 0.64096  0.73073  0.65547  Biso   1.000  Hf
  Hf15     1.0000 0.86583  0.77078  0.15646  Biso   1.000  Hf
  Hf16     1.0000 0.86662  0.97236  0.65092  Biso   1.000  Hf
  O17      1.0000 0.03566  0.66349  0.16681  Biso   1.000  O
  O18      1.0000 0.03462  0.58493  0.66863  Biso   1.000  O
  O19      1.0000 0.47293  0.91473  0.16998  Biso   1.000  O
  O20      1.0000 0.47218  0.83778  0.66985  Biso   1.000  O
  O21      1.0000 0.27681  0.62484  0.59576  Biso   1.000  O
  O22      1.0000 0.27692  0.62598  0.09722  Biso   1.000  O
  O23      1.0000 0.22780  0.87357  0.59898  Biso   1.000  O
  O24      1.0000 0.22556  0.87622  0.09998  Biso   1.000  O
  O25      1.0000 0.53259  0.66349  0.33965  Biso   1.000  O
  O26      1.0000 0.52995  0.58946  0.84328  Biso   1.000  O
  O27      1.0000 0.97328  0.91169  0.33308  Biso   1.000  O
  O28      1.0000 0.97123  0.83194  0.83730  Biso   1.000  O
  O29      1.0000 0.77804  0.62601  0.90725  Biso   1.000  O
  O30      1.0000 0.77941  0.62767  0.40845  Biso   1.000  O
  O31      1.0000 0.72815  0.87281  0.90929  Biso   1.000  O
  O32      1.0000 0.72881  0.87202  0.40468  Biso   1.000  O
  Mg1      1.0000 0.54096  0.26421  0.03928  Biso   1.000  Mg
