data_image0
_cell_length_a       4.97941
_cell_length_b       10.1586
_cell_length_c       10.0182
_cell_angle_alpha    89.9987
_cell_angle_beta     89.9987
_cell_angle_gamma    89.9993

_symmetry_space_group_name_H-M    "P 1"
_symmetry_int_tables_number       1

loop_
  _symmetry_equiv_pos_as_xyz
  'x, y, z'

loop_
  _atom_site_label
  _atom_site_occupancy
  _atom_site_fract_x
  _atom_site_fract_y
  _atom_site_fract_z
  _atom_site_thermal_displace_type
  _atom_site_B_iso_or_equiv
  _atom_site_type_symbol
  Mg1      1.0000 0.25051  0.99976  0.12481  Biso   1.000  Mg
  Hf1      1.0000 0.25052  0.99976  0.62481  Biso   1.000  Hf
  Hf2      1.0000 0.25052  0.49977  0.12481  Biso   1.000  Hf
  Hf3      1.0000 0.25053  0.49976  0.62481  Biso   1.000  Hf
  Hf4      1.0000 0.24968  0.24836  0.37300  Biso   1.000  Hf
  Hf5      1.0000 0.25139  0.24836  0.87662  Biso   1.000  Hf
  Hf6      1.0000 0.25139  0.75118  0.37300  Biso   1.000  Hf
  Hf7      1.0000 0.24967  0.75118  0.87661  Biso   1.000  Hf
  Hf8      1.0000 0.75054  0.24744  0.12481  Biso   1.000  Hf
  Hf9      1.0000 0.75054  0.24850  0.62481  Biso   1.000  Hf
  Hf10     1.0000 0.75053  0.75210  0.12481  Biso   1.000  Hf
  Hf11     1.0000 0.75053  0.75103  0.62481  Biso   1.000  Hf
  Hf12     1.0000 0.75053  0.99977  0.36861  Biso   1.000  Hf
  Hf13     1.0000 0.75050  0.99977  0.88100  Biso   1.000  Hf
  Hf14     1.0000 0.75053  0.49977  0.37512  Biso   1.000  Hf
  Hf15     1.0000 0.75052  0.49977  0.87449  Biso   1.000  Hf
  O1       1.0000 0.99025  0.14252  0.99511  Biso   1.000  O
  O2       1.0000 0.00521  0.14490  0.50117  Biso   1.000  O
  O3       1.0000 0.00335  0.64051  0.00085  Biso   1.000  O
  O4       1.0000 0.00013  0.64472  0.50020  Biso   1.000  O
  O5       1.0000 0.00318  0.11199  0.25053  Biso   1.000  O
  O6       1.0000 0.99641  0.10432  0.74895  Biso   1.000  O
  O7       1.0000 0.99872  0.60746  0.24996  Biso   1.000  O
  O8       1.0000 0.00106  0.60476  0.75047  Biso   1.000  O
  O9       1.0000 0.00336  0.35902  0.24877  Biso   1.000  O
  O10      1.0000 0.00014  0.35481  0.74941  Biso   1.000  O
  O11      1.0000 0.99028  0.85702  0.25449  Biso   1.000  O
  O12      1.0000 0.00519  0.85463  0.74844  Biso   1.000  O
  O13      1.0000 0.99873  0.39208  0.99965  Biso   1.000  O
  O14      1.0000 0.00107  0.39477  0.49914  Biso   1.000  O
  O15      1.0000 0.00314  0.88754  0.99908  Biso   1.000  O
  O16      1.0000 0.99642  0.89521  0.50066  Biso   1.000  O
  O17      1.0000 0.51082  0.14253  0.25451  Biso   1.000  O
  O18      1.0000 0.49586  0.14490  0.74846  Biso   1.000  O
  O19      1.0000 0.49770  0.64052  0.24877  Biso   1.000  O
  O20      1.0000 0.50092  0.64472  0.74941  Biso   1.000  O
  O21      1.0000 0.49788  0.11199  0.99910  Biso   1.000  O
  O22      1.0000 0.50466  0.10432  0.50067  Biso   1.000  O
  O23      1.0000 0.50233  0.60745  0.99965  Biso   1.000  O
  O24      1.0000 0.49999  0.60476  0.49914  Biso   1.000  O
  O25      1.0000 0.49770  0.35902  0.00084  Biso   1.000  O
  O26      1.0000 0.50094  0.35481  0.50020  Biso   1.000  O
  O27      1.0000 0.51077  0.85701  0.99512  Biso   1.000  O
  O28      1.0000 0.49587  0.85463  0.50117  Biso   1.000  O
  O29      1.0000 0.50234  0.39209  0.24996  Biso   1.000  O
  O30      1.0000 0.50001  0.39477  0.75047  Biso   1.000  O
  O31      1.0000 0.49791  0.88755  0.25053  Biso   1.000  O
  O32      1.0000 0.50464  0.89521  0.74895  Biso   1.000  O
