data_image0
_cell_length_a       5.10397
_cell_length_b       10.5925
_cell_length_c       10.1396
_cell_angle_alpha    84.7032
_cell_angle_beta     89.4535
_cell_angle_gamma    90.153

_symmetry_space_group_name_H-M    "P 1"
_symmetry_int_tables_number       1

loop_
  _symmetry_equiv_pos_as_xyz
  'x, y, z'

loop_
  _atom_site_label
  _atom_site_occupancy
  _atom_site_fract_x
  _atom_site_fract_y
  _atom_site_fract_z
  _atom_site_thermal_displace_type
  _atom_site_B_iso_or_equiv
  _atom_site_type_symbol
  Zr1      1.0000 0.21815  0.93504  0.10612  Biso   1.000  Zr
  Zr2      1.0000 0.29386  0.27910  0.40792  Biso   1.000  Zr
  Zr3      1.0000 0.78320  0.22653  0.10341  Biso   1.000  Zr
  Zr4      1.0000 0.72531  0.02249  0.37974  Biso   1.000  Zr
  O1       1.0000 0.04425  0.13018  0.98869  Biso   1.000  O
  O2       1.0000 0.98386  0.05531  0.22378  Biso   1.000  O
  O3       1.0000 0.06200  0.29730  0.22463  Biso   1.000  O
  O4       1.0000 0.96289  0.37897  0.98448  Biso   1.000  O
  O5       1.0000 0.55350  0.18452  0.27771  Biso   1.000  O
  O6       1.0000 0.53981  0.06518  0.04058  Biso   1.000  O
  O7       1.0000 0.44349  0.30979  0.02957  Biso   1.000  O
  O8       1.0000 0.44977  0.43212  0.27932  Biso   1.000  O
  Zr5      1.0000 0.22160  0.00628  0.61117  Biso   1.000  Zr
  Zr6      1.0000 0.23075  0.27139  0.84502  Biso   1.000  Zr
  Zr7      1.0000 0.80568  0.25326  0.61439  Biso   1.000  Zr
  Zr8      1.0000 0.73699  0.01818  0.86872  Biso   1.000  Zr
  O9       1.0000 0.00636  0.14130  0.47846  Biso   1.000  O
  O10      1.0000 0.02297  0.11903  0.74402  Biso   1.000  O
  O11      1.0000 0.92431  0.38674  0.73966  Biso   1.000  O
  O12      1.0000 0.00552  0.40110  0.47143  Biso   1.000  O
  O13      1.0000 0.56634  0.18758  0.78477  Biso   1.000  O
  O14      1.0000 0.51660  0.12866  0.52361  Biso   1.000  O
  O15      1.0000 0.52998  0.38803  0.52283  Biso   1.000  O
  O16      1.0000 0.41983  0.44286  0.78662  Biso   1.000  O
  Zr9      1.0000 0.22579  0.46904  0.11104  Biso   1.000  Zr
  Zr10     1.0000 0.28779  0.77155  0.38860  Biso   1.000  Zr
  Zr11     1.0000 0.77157  0.70899  0.10680  Biso   1.000  Zr
  Zr12     1.0000 0.71359  0.52644  0.38395  Biso   1.000  Zr
  O17      1.0000 0.03887  0.62554  0.98017  Biso   1.000  O
  O18      1.0000 0.95037  0.55060  0.22145  Biso   1.000  O
  O19      1.0000 0.04042  0.79573  0.22744  Biso   1.000  O
  O20      1.0000 0.94871  0.86955  0.98011  Biso   1.000  O
  O21      1.0000 0.54075  0.68192  0.27391  Biso   1.000  O
  O22      1.0000 0.55213  0.56209  0.02722  Biso   1.000  O
  O23      1.0000 0.44748  0.80858  0.01855  Biso   1.000  O
  O24      1.0000 0.45502  0.92966  0.27540  Biso   1.000  O
  Zr13     1.0000 0.22070  0.49196  0.61507  Biso   1.000  Zr
  Zr14     1.0000 0.23306  0.76351  0.85296  Biso   1.000  Zr
  Zr15     1.0000 0.78184  0.75214  0.60905  Biso   1.000  Zr
  Zr16     1.0000 0.75790  0.52027  0.86091  Biso   1.000  Zr
  O25      1.0000 0.99471  0.64707  0.48088  Biso   1.000  O
  O26      1.0000 0.03445  0.62960  0.73148  Biso   1.000  O
  O27      1.0000 0.96855  0.87551  0.73045  Biso   1.000  O
  O28      1.0000 0.00658  0.89660  0.48065  Biso   1.000  O
  O29      1.0000 0.56209  0.69010  0.77622  Biso   1.000  O
  O30      1.0000 0.49360  0.63215  0.52327  Biso   1.000  O
  O31      1.0000 0.50308  0.88075  0.52343  Biso   1.000  O
  O32      1.0000 0.43296  0.94000  0.77974  Biso   1.000  O
  Mg1      1.0000 0.28185  0.17258  0.14883  Biso   1.000  Mg
