data_image0
_cell_length_a       9.99991
_cell_length_b       5.25095
_cell_length_c       10.0627
_cell_angle_alpha    88.755
_cell_angle_beta     89.2377
_cell_angle_gamma    90.0359

_symmetry_space_group_name_H-M    "P 1"
_symmetry_int_tables_number       1

loop_
  _symmetry_equiv_pos_as_xyz
  'x, y, z'

loop_
  _atom_site_label
  _atom_site_occupancy
  _atom_site_fract_x
  _atom_site_fract_y
  _atom_site_fract_z
  _atom_site_thermal_displace_type
  _atom_site_B_iso_or_equiv
  _atom_site_type_symbol
  Hf1      1.0000 0.13466  0.07912  0.12237  Biso   1.000  Hf
  Hf2      1.0000 0.13922  0.45962  0.38215  Biso   1.000  Hf
  Hf3      1.0000 0.37533  0.54972  0.12939  Biso   1.000  Hf
  Hf4      1.0000 0.36733  0.96237  0.37819  Biso   1.000  Hf
  O1       1.0000 0.02136  0.36640  0.21689  Biso   1.000  O
  O2       1.0000 0.04060  0.11783  0.44541  Biso   1.000  O
  O3       1.0000 0.47214  0.86570  0.20523  Biso   1.000  O
  O4       1.0000 0.46751  0.62416  0.44868  Biso   1.000  O
  O5       1.0000 0.27707  0.23961  0.25321  Biso   1.000  O
  O6       1.0000 0.27321  0.25333  0.50488  Biso   1.000  O
  O7       1.0000 0.23236  0.75389  0.50377  Biso   1.000  O
  O8       1.0000 0.23239  0.73501  0.25385  Biso   1.000  O
  Hf5      1.0000 0.13461  0.01452  0.62659  Biso   1.000  Hf
  Hf6      1.0000 0.11673  0.45524  0.85619  Biso   1.000  Hf
  Hf7      1.0000 0.36770  0.51730  0.62700  Biso   1.000  Hf
  Hf8      1.0000 0.38021  0.95632  0.86359  Biso   1.000  Hf
  O9       1.0000 0.02933  0.34261  0.68087  Biso   1.000  O
  O10      1.0000 0.02865  0.12814  0.94077  Biso   1.000  O
  O11      1.0000 0.46920  0.84677  0.68947  Biso   1.000  O
  O12      1.0000 0.46881  0.63008  0.94405  Biso   1.000  O
  O13      1.0000 0.26432  0.21634  0.75514  Biso   1.000  O
  O14      1.0000 0.23832  0.36811  0.01088  Biso   1.000  O
  O15      1.0000 0.25093  0.84172  0.00998  Biso   1.000  O
  O16      1.0000 0.23486  0.71883  0.75261  Biso   1.000  O
  Hf9      1.0000 0.63643  0.03083  0.12791  Biso   1.000  Hf
  Hf10     1.0000 0.63409  0.46146  0.37364  Biso   1.000  Hf
  Hf11     1.0000 0.85801  0.52538  0.12256  Biso   1.000  Hf
  Hf12     1.0000 0.87427  0.95968  0.37026  Biso   1.000  Hf
  O17      1.0000 0.54059  0.36565  0.19710  Biso   1.000  O
  O18      1.0000 0.53544  0.12846  0.44734  Biso   1.000  O
  O19      1.0000 0.97393  0.85239  0.18831  Biso   1.000  O
  O20      1.0000 0.96946  0.63111  0.44701  Biso   1.000  O
  O21      1.0000 0.76984  0.22213  0.24878  Biso   1.000  O
  O22      1.0000 0.77169  0.26296  0.49609  Biso   1.000  O
  O23      1.0000 0.73421  0.76529  0.49634  Biso   1.000  O
  O24      1.0000 0.73466  0.73031  0.24985  Biso   1.000  O
  Hf13     1.0000 0.63852  0.02753  0.62124  Biso   1.000  Hf
  Hf14     1.0000 0.63450  0.45889  0.87432  Biso   1.000  Hf
  Hf15     1.0000 0.86274  0.52897  0.62058  Biso   1.000  Hf
  Hf16     1.0000 0.86222  0.95899  0.87354  Biso   1.000  Hf
  O25      1.0000 0.53033  0.34198  0.70259  Biso   1.000  O
  O26      1.0000 0.52776  0.13742  0.95466  Biso   1.000  O
  O27      1.0000 0.96842  0.84143  0.70048  Biso   1.000  O
  O28      1.0000 0.96163  0.63618  0.94741  Biso   1.000  O
  O29      1.0000 0.76933  0.22880  0.74655  Biso   1.000  O
  O30      1.0000 0.76820  0.25946  0.99643  Biso   1.000  O
  O31      1.0000 0.72332  0.76081  0.99877  Biso   1.000  O
  O32      1.0000 0.72662  0.72899  0.74588  Biso   1.000  O
  Mn1      1.0000 0.11224  0.61445  0.09793  Biso   1.000  Mn
