data_image0
_cell_length_a       5.05605
_cell_length_b       10.3437
_cell_length_c       10.0763
_cell_angle_alpha    90.6919
_cell_angle_beta     87.4065
_cell_angle_gamma    88.5352

_symmetry_space_group_name_H-M    "P 1"
_symmetry_int_tables_number       1

loop_
  _symmetry_equiv_pos_as_xyz
  'x, y, z'

loop_
  _atom_site_label
  _atom_site_occupancy
  _atom_site_fract_x
  _atom_site_fract_y
  _atom_site_fract_z
  _atom_site_thermal_displace_type
  _atom_site_B_iso_or_equiv
  _atom_site_type_symbol
  Hf1      1.0000 0.21720  0.96147  0.11477  Biso   1.000  Hf
  Hf2      1.0000 0.28958  0.26541  0.38775  Biso   1.000  Hf
  Hf3      1.0000 0.75730  0.28208  0.13748  Biso   1.000  Hf
  Hf4      1.0000 0.75446  0.99884  0.35675  Biso   1.000  Hf
  O1       1.0000 0.97548  0.14537  0.02557  Biso   1.000  O
  O2       1.0000 0.07508  0.08973  0.27155  Biso   1.000  O
  O3       1.0000 0.00881  0.35534  0.26946  Biso   1.000  O
  O4       1.0000 0.97500  0.39834  0.99851  Biso   1.000  O
  O5       1.0000 0.56449  0.15825  0.26220  Biso   1.000  O
  O6       1.0000 0.45140  0.08385  0.99343  Biso   1.000  O
  O7       1.0000 0.43889  0.32841  0.02985  Biso   1.000  O
  O8       1.0000 0.50230  0.41614  0.26587  Biso   1.000  O
  Hf5      1.0000 0.25341  0.01657  0.61547  Biso   1.000  Hf
  Hf6      1.0000 0.22001  0.24075  0.88736  Biso   1.000  Hf
  Hf7      1.0000 0.75371  0.24484  0.64505  Biso   1.000  Hf
  Hf8      1.0000 0.70914  0.98974  0.86813  Biso   1.000  Hf
  O9       1.0000 0.06092  0.17385  0.52953  Biso   1.000  O
  O10      1.0000 0.98137  0.10372  0.76719  Biso   1.000  O
  O11      1.0000 0.02439  0.35897  0.74829  Biso   1.000  O
  O12      1.0000 0.06974  0.42537  0.49640  Biso   1.000  O
  O13      1.0000 0.48098  0.14366  0.75146  Biso   1.000  O
  O14      1.0000 0.55155  0.10947  0.50689  Biso   1.000  O
  O15      1.0000 0.56276  0.36243  0.51333  Biso   1.000  O
  O16      1.0000 0.52307  0.39122  0.76956  Biso   1.000  O
  Hf9      1.0000 0.24925  0.49953  0.12732  Biso   1.000  Hf
  Hf10     1.0000 0.25417  0.76782  0.37878  Biso   1.000  Hf
  Hf11     1.0000 0.72510  0.73296  0.11618  Biso   1.000  Hf
  Hf12     1.0000 0.77870  0.50387  0.38751  Biso   1.000  Hf
  O17      1.0000 0.01768  0.64271  0.98115  Biso   1.000  O
  O18      1.0000 0.91422  0.58634  0.21866  Biso   1.000  O
  O19      1.0000 0.98098  0.83937  0.24309  Biso   1.000  O
  O20      1.0000 0.95395  0.88553  0.98666  Biso   1.000  O
  O21      1.0000 0.41107  0.65943  0.22932  Biso   1.000  O
  O22      1.0000 0.53430  0.57665  0.00523  Biso   1.000  O
  O23      1.0000 0.46638  0.83058  0.98783  Biso   1.000  O
  O24      1.0000 0.50214  0.89704  0.23980  Biso   1.000  O
  Hf13     1.0000 0.30220  0.49188  0.63587  Biso   1.000  Hf
  Hf14     1.0000 0.21845  0.75628  0.85214  Biso   1.000  Hf
  Hf15     1.0000 0.73441  0.75695  0.61462  Biso   1.000  Hf
  Hf16     1.0000 0.78993  0.50971  0.86149  Biso   1.000  Hf
  O25      1.0000 0.95527  0.67063  0.46646  Biso   1.000  O
  O26      1.0000 0.01766  0.61331  0.72620  Biso   1.000  O
  O27      1.0000 0.97288  0.85801  0.73572  Biso   1.000  O
  O28      1.0000 0.01419  0.91851  0.49045  Biso   1.000  O
  O29      1.0000 0.51879  0.64453  0.75004  Biso   1.000  O
  O30      1.0000 0.47618  0.61676  0.49805  Biso   1.000  O
  O31      1.0000 0.50931  0.86757  0.49203  Biso   1.000  O
  O32      1.0000 0.47137  0.89570  0.74181  Biso   1.000  O
  Mn1      1.0000 0.27150  0.18859  0.14190  Biso   1.000  Mn
