data_image0
_cell_length_a       10.0652
_cell_length_b       10.5023
_cell_length_c       5.06
_cell_angle_alpha    89.7584
_cell_angle_beta     90.1859
_cell_angle_gamma    90.002

_symmetry_space_group_name_H-M    "P 1"
_symmetry_int_tables_number       1

loop_
  _symmetry_equiv_pos_as_xyz
  'x, y, z'

loop_
  _atom_site_label
  _atom_site_occupancy
  _atom_site_fract_x
  _atom_site_fract_y
  _atom_site_fract_z
  _atom_site_thermal_displace_type
  _atom_site_B_iso_or_equiv
  _atom_site_type_symbol
  Zr1      1.0000 0.13506  0.01850  0.24450  Biso   1.000  Zr
  Zr2      1.0000 0.14035  0.22536  0.74695  Biso   1.000  Zr
  Zr3      1.0000 0.36672  0.26282  0.24305  Biso   1.000  Zr
  Zr4      1.0000 0.36788  0.48344  0.74578  Biso   1.000  Zr
  O1       1.0000 0.01740  0.17286  0.42209  Biso   1.000  O
  O2       1.0000 0.03622  0.06324  0.89596  Biso   1.000  O
  O3       1.0000 0.46492  0.43217  0.39183  Biso   1.000  O
  O4       1.0000 0.46593  0.31702  0.88887  Biso   1.000  O
  O5       1.0000 0.27041  0.11315  0.49334  Biso   1.000  O
  O6       1.0000 0.28324  0.12419  0.98396  Biso   1.000  O
  O7       1.0000 0.22878  0.38318  0.99705  Biso   1.000  O
  O8       1.0000 0.22782  0.36623  0.48773  Biso   1.000  O
  Zr5      1.0000 0.13637  0.53378  0.24618  Biso   1.000  Zr
  Zr6      1.0000 0.13546  0.73931  0.74987  Biso   1.000  Zr
  Zr7      1.0000 0.36924  0.76643  0.24969  Biso   1.000  Zr
  Zr8      1.0000 0.36849  0.98040  0.74786  Biso   1.000  Zr
  O9       1.0000 0.03226  0.68625  0.40190  Biso   1.000  O
  O10      1.0000 0.03320  0.57207  0.89357  Biso   1.000  O
  O11      1.0000 0.46792  0.93033  0.38765  Biso   1.000  O
  O12      1.0000 0.46918  0.81536  0.89005  Biso   1.000  O
  O13      1.0000 0.27518  0.62207  0.49977  Biso   1.000  O
  O14      1.0000 0.27225  0.63630  0.99211  Biso   1.000  O
  O15      1.0000 0.23264  0.88188  0.99797  Biso   1.000  O
  O16      1.0000 0.23335  0.86686  0.49529  Biso   1.000  O
  Zr9      1.0000 0.63361  0.01234  0.24514  Biso   1.000  Zr
  Zr10     1.0000 0.62999  0.23019  0.74681  Biso   1.000  Zr
  Zr11     1.0000 0.85221  0.26192  0.25384  Biso   1.000  Zr
  Zr12     1.0000 0.86833  0.48232  0.75357  Biso   1.000  Zr
  O17      1.0000 0.53448  0.17922  0.39042  Biso   1.000  O
  O18      1.0000 0.53775  0.06400  0.88745  Biso   1.000  O
  O19      1.0000 0.97142  0.42521  0.40362  Biso   1.000  O
  O20      1.0000 0.97536  0.31644  0.92360  Biso   1.000  O
  O21      1.0000 0.76383  0.11181  0.49652  Biso   1.000  O
  O22      1.0000 0.76973  0.13182  0.99151  Biso   1.000  O
  O23      1.0000 0.73076  0.38275  0.99768  Biso   1.000  O
  O24      1.0000 0.72852  0.36681  0.50360  Biso   1.000  O
  Zr13     1.0000 0.63350  0.51479  0.25126  Biso   1.000  Zr
  Zr14     1.0000 0.63582  0.73221  0.74851  Biso   1.000  Zr
  Zr15     1.0000 0.86615  0.76617  0.24840  Biso   1.000  Zr
  Zr16     1.0000 0.86861  0.98309  0.74561  Biso   1.000  Zr
  O25      1.0000 0.53847  0.68161  0.38774  Biso   1.000  O
  O26      1.0000 0.53364  0.56545  0.88895  Biso   1.000  O
  O27      1.0000 0.96754  0.93072  0.39299  Biso   1.000  O
  O28      1.0000 0.96680  0.81756  0.89526  Biso   1.000  O
  O29      1.0000 0.77204  0.61248  0.49815  Biso   1.000  O
  O30      1.0000 0.76902  0.63175  0.99768  Biso   1.000  O
  O31      1.0000 0.73296  0.88235  0.99380  Biso   1.000  O
  O32      1.0000 0.73250  0.86336  0.49525  Biso   1.000  O
  Mn1      1.0000 0.09885  0.30909  0.22142  Biso   1.000  Mn
