data_image0
_cell_length_a       10.3298
_cell_length_b       5.18076
_cell_length_c       10.6297
_cell_angle_alpha    89.7203
_cell_angle_beta     79.091
_cell_angle_gamma    90.4096

_symmetry_space_group_name_H-M    "P 1"
_symmetry_int_tables_number       1

loop_
  _symmetry_equiv_pos_as_xyz
  'x, y, z'

loop_
  _atom_site_label
  _atom_site_occupancy
  _atom_site_fract_x
  _atom_site_fract_y
  _atom_site_fract_z
  _atom_site_thermal_displace_type
  _atom_site_B_iso_or_equiv
  _atom_site_type_symbol
  Zr1      1.0000 0.13345  0.04155  0.14275  Biso   1.000  Zr
  Zr2      1.0000 0.12325  0.45675  0.39495  Biso   1.000  Zr
  Zr3      1.0000 0.35715  0.54423  0.10174  Biso   1.000  Zr
  Zr4      1.0000 0.35479  0.96426  0.34791  Biso   1.000  Zr
  O1       1.0000 0.02752  0.32490  0.06917  Biso   1.000  O
  O2       1.0000 0.02492  0.17788  0.31710  Biso   1.000  O
  O3       1.0000 0.47957  0.75723  0.20183  Biso   1.000  O
  O4       1.0000 0.48830  0.74791  0.45078  Biso   1.000  O
  O5       1.0000 0.27189  0.26211  0.24556  Biso   1.000  O
  O6       1.0000 0.27376  0.23408  0.49493  Biso   1.000  O
  O7       1.0000 0.22435  0.75664  0.00353  Biso   1.000  O
  O8       1.0000 0.21225  0.75821  0.24831  Biso   1.000  O
  Zr5      1.0000 0.13908  0.04446  0.64700  Biso   1.000  Zr
  Zr6      1.0000 0.13679  0.45927  0.89432  Biso   1.000  Zr
  Zr7      1.0000 0.37001  0.54547  0.61138  Biso   1.000  Zr
  Zr8      1.0000 0.36158  0.96123  0.85620  Biso   1.000  Zr
  O9       1.0000 0.02817  0.32043  0.57232  Biso   1.000  O
  O10      1.0000 0.03072  0.17929  0.81872  Biso   1.000  O
  O11      1.0000 0.47584  0.80807  0.69453  Biso   1.000  O
  O12      1.0000 0.47487  0.70318  0.94089  Biso   1.000  O
  O13      1.0000 0.27375  0.25592  0.74560  Biso   1.000  O
  O14      1.0000 0.27117  0.24847  0.99279  Biso   1.000  O
  O15      1.0000 0.24104  0.72466  0.49321  Biso   1.000  O
  O16      1.0000 0.22504  0.75139  0.75587  Biso   1.000  O
  Zr9      1.0000 0.64030  0.03780  0.14324  Biso   1.000  Zr
  Zr10     1.0000 0.63704  0.46537  0.40108  Biso   1.000  Zr
  Zr11     1.0000 0.86003  0.54231  0.10367  Biso   1.000  Zr
  Zr12     1.0000 0.85617  0.95956  0.35311  Biso   1.000  Zr
  O17      1.0000 0.52249  0.29104  0.06759  Biso   1.000  O
  O18      1.0000 0.52864  0.19514  0.30774  Biso   1.000  O
  O19      1.0000 0.96475  0.82621  0.17036  Biso   1.000  O
  O20      1.0000 0.96456  0.68454  0.42455  Biso   1.000  O
  O21      1.0000 0.77251  0.25225  0.23610  Biso   1.000  O
  O22      1.0000 0.77556  0.24360  0.48968  Biso   1.000  O
  O23      1.0000 0.72629  0.75022  0.01067  Biso   1.000  O
  O24      1.0000 0.72569  0.74576  0.26086  Biso   1.000  O
  Zr13     1.0000 0.63987  0.04196  0.64747  Biso   1.000  Zr
  Zr14     1.0000 0.63542  0.45317  0.89833  Biso   1.000  Zr
  Zr15     1.0000 0.85944  0.54358  0.60602  Biso   1.000  Zr
  Zr16     1.0000 0.86135  0.95403  0.85317  Biso   1.000  Zr
  O25      1.0000 0.53405  0.31660  0.57784  Biso   1.000  O
  O26      1.0000 0.52692  0.19501  0.82107  Biso   1.000  O
  O27      1.0000 0.97183  0.82105  0.67308  Biso   1.000  O
  O28      1.0000 0.96789  0.67627  0.92193  Biso   1.000  O
  O29      1.0000 0.77326  0.25366  0.74048  Biso   1.000  O
  O30      1.0000 0.77154  0.24074  0.98813  Biso   1.000  O
  O31      1.0000 0.72807  0.75501  0.51421  Biso   1.000  O
  O32      1.0000 0.72801  0.74285  0.76235  Biso   1.000  O
  Mo1      1.0000 0.39036  0.48487  0.36086  Biso   1.000  Mo
