data_image0
_cell_length_a       10.1687
_cell_length_b       10.2159
_cell_length_c       5.22702
_cell_angle_alpha    89.9881
_cell_angle_beta     80.3511
_cell_angle_gamma    89.6365

_symmetry_space_group_name_H-M    "P 1"
_symmetry_int_tables_number       1

loop_
  _symmetry_equiv_pos_as_xyz
  'x, y, z'

loop_
  _atom_site_label
  _atom_site_occupancy
  _atom_site_fract_x
  _atom_site_fract_y
  _atom_site_fract_z
  _atom_site_thermal_displace_type
  _atom_site_B_iso_or_equiv
  _atom_site_type_symbol
  N1       1.0000 0.04269  0.04923  0.33182  Biso   1.000  N
  Hf1      1.0000 0.15720  0.22840  0.78102  Biso   1.000  Hf
  Hf2      1.0000 0.35762  0.26186  0.21031  Biso   1.000  Hf
  Hf3      1.0000 0.36196  0.47804  0.70644  Biso   1.000  Hf
  O1       1.0000 0.02674  0.13575  0.15192  Biso   1.000  O
  O2       1.0000 0.02684  0.09888  0.57532  Biso   1.000  O
  O3       1.0000 0.46526  0.41482  0.34282  Biso   1.000  O
  O4       1.0000 0.46768  0.33458  0.84384  Biso   1.000  O
  O5       1.0000 0.28689  0.13495  0.49694  Biso   1.000  O
  O6       1.0000 0.28484  0.12976  0.96937  Biso   1.000  O
  O7       1.0000 0.22142  0.37582  0.01533  Biso   1.000  O
  O8       1.0000 0.22352  0.37203  0.51605  Biso   1.000  O
  Hf4      1.0000 0.14193  0.52241  0.29163  Biso   1.000  Hf
  Hf5      1.0000 0.14790  0.73529  0.78769  Biso   1.000  Hf
  Hf6      1.0000 0.35700  0.77903  0.20764  Biso   1.000  Hf
  Hf7      1.0000 0.35582  0.97837  0.71042  Biso   1.000  Hf
  O9       1.0000 0.03630  0.67312  0.16850  Biso   1.000  O
  O10      1.0000 0.03668  0.58066  0.66213  Biso   1.000  O
  O11      1.0000 0.47103  0.91512  0.34695  Biso   1.000  O
  O12      1.0000 0.47502  0.83836  0.84560  Biso   1.000  O
  O13      1.0000 0.27759  0.62565  0.47634  Biso   1.000  O
  O14      1.0000 0.27692  0.61753  0.98114  Biso   1.000  O
  O15      1.0000 0.23261  0.87145  0.00078  Biso   1.000  O
  O16      1.0000 0.23307  0.86512  0.52136  Biso   1.000  O
  Hf8      1.0000 0.63546  0.02074  0.29898  Biso   1.000  Hf
  Hf9      1.0000 0.63577  0.22897  0.79331  Biso   1.000  Hf
  Hf10     1.0000 0.85408  0.27384  0.21356  Biso   1.000  Hf
  Hf11     1.0000 0.86971  0.47419  0.70848  Biso   1.000  Hf
  O17      1.0000 0.53958  0.16977  0.16185  Biso   1.000  O
  O18      1.0000 0.54167  0.07858  0.66384  Biso   1.000  O
  O19      1.0000 0.97070  0.40785  0.34830  Biso   1.000  O
  O20      1.0000 0.96952  0.32127  0.85654  Biso   1.000  O
  O21      1.0000 0.77923  0.12817  0.48218  Biso   1.000  O
  O22      1.0000 0.77762  0.12063  0.98453  Biso   1.000  O
  O23      1.0000 0.72746  0.38008  0.02046  Biso   1.000  O
  O24      1.0000 0.72560  0.37042  0.52144  Biso   1.000  O
  Hf12     1.0000 0.63369  0.52042  0.29499  Biso   1.000  Hf
  Hf13     1.0000 0.63577  0.72648  0.79461  Biso   1.000  Hf
  Hf14     1.0000 0.86078  0.76098  0.19794  Biso   1.000  Hf
  Hf15     1.0000 0.85008  0.97677  0.72655  Biso   1.000  Hf
  O25      1.0000 0.53665  0.66653  0.15417  Biso   1.000  O
  O26      1.0000 0.53441  0.58234  0.65648  Biso   1.000  O
  O27      1.0000 0.96744  0.94459  0.33698  Biso   1.000  O
  O28      1.0000 0.96832  0.84008  0.84125  Biso   1.000  O
  O29      1.0000 0.77773  0.62411  0.48103  Biso   1.000  O
  O30      1.0000 0.78188  0.62192  0.98265  Biso   1.000  O
  O31      1.0000 0.72389  0.87742  0.02280  Biso   1.000  O
  O32      1.0000 0.73845  0.86758  0.51570  Biso   1.000  O
