data_image0
_cell_length_a       9.96255
_cell_length_b       10.4064
_cell_length_c       5.03906
_cell_angle_alpha    89.5575
_cell_angle_beta     89.0213
_cell_angle_gamma    90.6683

_symmetry_space_group_name_H-M    "P 1"
_symmetry_int_tables_number       1

loop_
  _symmetry_equiv_pos_as_xyz
  'x, y, z'

loop_
  _atom_site_label
  _atom_site_occupancy
  _atom_site_fract_x
  _atom_site_fract_y
  _atom_site_fract_z
  _atom_site_thermal_displace_type
  _atom_site_B_iso_or_equiv
  _atom_site_type_symbol
  Hf1      1.0000 0.14848  0.00364  0.24312  Biso   1.000  Hf
  Hf2      1.0000 0.13855  0.23334  0.80767  Biso   1.000  Hf
  Hf3      1.0000 0.36435  0.26621  0.26955  Biso   1.000  Hf
  Hf4      1.0000 0.36786  0.48292  0.75698  Biso   1.000  Hf
  O1       1.0000 0.01034  0.20794  0.48690  Biso   1.000  O
  O2       1.0000 0.04747  0.05333  0.87021  Biso   1.000  O
  O3       1.0000 0.46349  0.43402  0.39373  Biso   1.000  O
  O4       1.0000 0.46415  0.31573  0.89259  Biso   1.000  O
  O5       1.0000 0.26045  0.11848  0.51246  Biso   1.000  O
  O6       1.0000 0.28764  0.12500  0.01048  Biso   1.000  O
  O7       1.0000 0.23424  0.38322  0.02376  Biso   1.000  O
  O8       1.0000 0.22579  0.36497  0.52398  Biso   1.000  O
  Hf5      1.0000 0.13509  0.51884  0.25831  Biso   1.000  Hf
  Hf6      1.0000 0.13652  0.73209  0.75075  Biso   1.000  Hf
  Hf7      1.0000 0.37220  0.76300  0.24674  Biso   1.000  Hf
  Hf8      1.0000 0.37220  0.98405  0.74359  Biso   1.000  Hf
  O9       1.0000 0.03960  0.68853  0.38593  Biso   1.000  O
  O10      1.0000 0.03878  0.56757  0.88828  Biso   1.000  O
  O11      1.0000 0.46665  0.93478  0.38068  Biso   1.000  O
  O12      1.0000 0.46968  0.81756  0.88633  Biso   1.000  O
  O13      1.0000 0.27256  0.61560  0.50127  Biso   1.000  O
  O14      1.0000 0.27255  0.63187  0.00004  Biso   1.000  O
  O15      1.0000 0.23637  0.87725  0.99103  Biso   1.000  O
  O16      1.0000 0.23761  0.86317  0.49562  Biso   1.000  O
  Hf9      1.0000 0.63791  0.01746  0.24210  Biso   1.000  Hf
  Hf10     1.0000 0.63270  0.23465  0.74297  Biso   1.000  Hf
  Hf11     1.0000 0.85799  0.27633  0.22747  Biso   1.000  Hf
  Hf12     1.0000 0.86762  0.48866  0.74187  Biso   1.000  Hf
  O17      1.0000 0.53421  0.18288  0.38894  Biso   1.000  O
  O18      1.0000 0.54196  0.06426  0.88047  Biso   1.000  O
  O19      1.0000 0.95956  0.44226  0.37356  Biso   1.000  O
  O20      1.0000 0.96390  0.32861  0.87575  Biso   1.000  O
  O21      1.0000 0.76901  0.11890  0.48417  Biso   1.000  O
  O22      1.0000 0.77311  0.13654  0.98188  Biso   1.000  O
  O23      1.0000 0.72706  0.38646  0.99361  Biso   1.000  O
  O24      1.0000 0.72540  0.37373  0.49764  Biso   1.000  O
  Hf13     1.0000 0.63469  0.51948  0.25182  Biso   1.000  Hf
  Hf14     1.0000 0.63896  0.73561  0.74962  Biso   1.000  Hf
  Hf15     1.0000 0.87016  0.76944  0.24382  Biso   1.000  Hf
  Hf16     1.0000 0.87028  0.98775  0.73856  Biso   1.000  Hf
  O25      1.0000 0.53857  0.68493  0.39204  Biso   1.000  O
  O26      1.0000 0.53634  0.56860  0.89287  Biso   1.000  O
  O27      1.0000 0.96873  0.93892  0.37915  Biso   1.000  O
  O28      1.0000 0.96630  0.81655  0.87973  Biso   1.000  O
  O29      1.0000 0.77177  0.62211  0.49343  Biso   1.000  O
  O30      1.0000 0.77223  0.63541  0.99601  Biso   1.000  O
  O31      1.0000 0.73481  0.88510  0.99367  Biso   1.000  O
  O32      1.0000 0.73350  0.86976  0.49241  Biso   1.000  O
  N1       1.0000 0.04589  0.18368  0.23995  Biso   1.000  N
