data_image0
_cell_length_a       10.1445
_cell_length_b       10.2397
_cell_length_c       10.4676
_cell_angle_alpha    90.0297
_cell_angle_beta     80.2625
_cell_angle_gamma    89.876

_symmetry_space_group_name_H-M    "P 1"
_symmetry_int_tables_number       1

loop_
  _symmetry_equiv_pos_as_xyz
  'x, y, z'

loop_
  _atom_site_label
  _atom_site_occupancy
  _atom_site_fract_x
  _atom_site_fract_y
  _atom_site_fract_z
  _atom_site_thermal_displace_type
  _atom_site_B_iso_or_equiv
  _atom_site_type_symbol
  N1       1.0000 0.04183  0.05530  0.17068  Biso   1.000  N
  Hf1      1.0000 0.14888  0.23123  0.39414  Biso   1.000  Hf
  Hf2      1.0000 0.35599  0.26315  0.10538  Biso   1.000  Hf
  Hf3      1.0000 0.36004  0.47799  0.35163  Biso   1.000  Hf
  O1       1.0000 0.02962  0.14967  0.08955  Biso   1.000  O
  O2       1.0000 0.02738  0.09470  0.29563  Biso   1.000  O
  O3       1.0000 0.46305  0.41492  0.17138  Biso   1.000  O
  O4       1.0000 0.46410  0.33122  0.42135  Biso   1.000  O
  O5       1.0000 0.28775  0.13852  0.25417  Biso   1.000  O
  O6       1.0000 0.27686  0.12009  0.49469  Biso   1.000  O
  O7       1.0000 0.22097  0.37669  0.00998  Biso   1.000  O
  O8       1.0000 0.21955  0.37421  0.25804  Biso   1.000  O
  Hf4      1.0000 0.13989  0.01911  0.64426  Biso   1.000  Hf
  Hf5      1.0000 0.14798  0.22621  0.89281  Biso   1.000  Hf
  Hf6      1.0000 0.36319  0.27036  0.60448  Biso   1.000  Hf
  Hf7      1.0000 0.36305  0.47794  0.85564  Biso   1.000  Hf
  O9       1.0000 0.02969  0.15090  0.55950  Biso   1.000  O
  O10      1.0000 0.03462  0.08657  0.82544  Biso   1.000  O
  O11      1.0000 0.46689  0.41736  0.67119  Biso   1.000  O
  O12      1.0000 0.46839  0.33563  0.92227  Biso   1.000  O
  O13      1.0000 0.27604  0.12733  0.73744  Biso   1.000  O
  O14      1.0000 0.28594  0.13178  0.97909  Biso   1.000  O
  O15      1.0000 0.22291  0.37646  0.50831  Biso   1.000  O
  O16      1.0000 0.22677  0.36890  0.75956  Biso   1.000  O
  Hf8      1.0000 0.13950  0.52097  0.14466  Biso   1.000  Hf
  Hf9      1.0000 0.14226  0.72859  0.39312  Biso   1.000  Hf
  Hf10     1.0000 0.35615  0.77761  0.10451  Biso   1.000  Hf
  Hf11     1.0000 0.35876  0.97885  0.35012  Biso   1.000  Hf
  O17      1.0000 0.03627  0.67455  0.08346  Biso   1.000  O
  O18      1.0000 0.03313  0.58428  0.32751  Biso   1.000  O
  O19      1.0000 0.47008  0.91722  0.17111  Biso   1.000  O
  O20      1.0000 0.46861  0.83302  0.42218  Biso   1.000  O
  O21      1.0000 0.27598  0.62476  0.23839  Biso   1.000  O
  O22      1.0000 0.27680  0.61993  0.48971  Biso   1.000  O
  O23      1.0000 0.23253  0.87060  0.99888  Biso   1.000  O
  O24      1.0000 0.23401  0.86239  0.26517  Biso   1.000  O
  Hf12     1.0000 0.14053  0.52275  0.64705  Biso   1.000  Hf
  Hf13     1.0000 0.14406  0.73349  0.89675  Biso   1.000  Hf
  Hf14     1.0000 0.36319  0.77225  0.60304  Biso   1.000  Hf
  Hf15     1.0000 0.35772  0.97848  0.85891  Biso   1.000  Hf
  O25      1.0000 0.03441  0.66475  0.57824  Biso   1.000  O
  O26      1.0000 0.03744  0.58024  0.83028  Biso   1.000  O
  O27      1.0000 0.46542  0.91592  0.67408  Biso   1.000  O
  O28      1.0000 0.47299  0.83869  0.92328  Biso   1.000  O
  O29      1.0000 0.27801  0.62907  0.73976  Biso   1.000  O
  O30      1.0000 0.27632  0.61759  0.99098  Biso   1.000  O
  O31      1.0000 0.22462  0.87769  0.50983  Biso   1.000  O
  O32      1.0000 0.22333  0.87173  0.75633  Biso   1.000  O
  Hf16     1.0000 0.63861  0.02206  0.14532  Biso   1.000  Hf
  Hf17     1.0000 0.63640  0.22823  0.39668  Biso   1.000  Hf
  Hf18     1.0000 0.85051  0.27624  0.10681  Biso   1.000  Hf
  Hf19     1.0000 0.86309  0.47763  0.35373  Biso   1.000  Hf
  O33      1.0000 0.53775  0.16894  0.07968  Biso   1.000  O
  O34      1.0000 0.54142  0.07738  0.33077  Biso   1.000  O
  O35      1.0000 0.96451  0.41435  0.17150  Biso   1.000  O
  O36      1.0000 0.96776  0.33134  0.41995  Biso   1.000  O
  O37      1.0000 0.77846  0.12987  0.24150  Biso   1.000  O
  O38      1.0000 0.77452  0.11906  0.49149  Biso   1.000  O
  O39      1.0000 0.72382  0.38167  0.00960  Biso   1.000  O
  O40      1.0000 0.72065  0.37132  0.26044  Biso   1.000  O
  Hf20     1.0000 0.63621  0.02016  0.65013  Biso   1.000  Hf
  Hf21     1.0000 0.63784  0.22864  0.89517  Biso   1.000  Hf
  Hf22     1.0000 0.86404  0.26914  0.60176  Biso   1.000  Hf
  Hf23     1.0000 0.86725  0.47475  0.85432  Biso   1.000  Hf
  O41      1.0000 0.53630  0.16816  0.58042  Biso   1.000  O
  O42      1.0000 0.53647  0.08234  0.82988  Biso   1.000  O
  O43      1.0000 0.97223  0.40786  0.67516  Biso   1.000  O
  O44      1.0000 0.96825  0.32794  0.93114  Biso   1.000  O
  O45      1.0000 0.77785  0.12797  0.73932  Biso   1.000  O
  O46      1.0000 0.77788  0.12294  0.99050  Biso   1.000  O
  O47      1.0000 0.72661  0.37694  0.51023  Biso   1.000  O
  O48      1.0000 0.72773  0.37044  0.75969  Biso   1.000  O
  Hf24     1.0000 0.63205  0.52207  0.14627  Biso   1.000  Hf
  Hf25     1.0000 0.63726  0.72559  0.39649  Biso   1.000  Hf
  Hf26     1.0000 0.85942  0.76339  0.09754  Biso   1.000  Hf
  Hf27     1.0000 0.84943  0.97606  0.36388  Biso   1.000  Hf
  O49      1.0000 0.53468  0.66853  0.07811  Biso   1.000  O
  O50      1.0000 0.53305  0.58118  0.32913  Biso   1.000  O
  O51      1.0000 0.96548  0.95214  0.16578  Biso   1.000  O
  O52      1.0000 0.96780  0.83952  0.41920  Biso   1.000  O
  O53      1.0000 0.77403  0.62641  0.23938  Biso   1.000  O
  O54      1.0000 0.77769  0.62038  0.49011  Biso   1.000  O
  O55      1.0000 0.72625  0.87984  0.00982  Biso   1.000  O
  O56      1.0000 0.73684  0.86864  0.25782  Biso   1.000  O
  Hf28     1.0000 0.64066  0.52009  0.64706  Biso   1.000  Hf
  Hf29     1.0000 0.63756  0.72951  0.89656  Biso   1.000  Hf
  Hf30     1.0000 0.86247  0.76916  0.60538  Biso   1.000  Hf
  Hf31     1.0000 0.86294  0.97941  0.85342  Biso   1.000  Hf
  O57      1.0000 0.53661  0.66542  0.57792  Biso   1.000  O
  O58      1.0000 0.53607  0.58354  0.82786  Biso   1.000  O
  O59      1.0000 0.96625  0.91375  0.67286  Biso   1.000  O
  O60      1.0000 0.96634  0.83304  0.92244  Biso   1.000  O
  O61      1.0000 0.77974  0.62651  0.74110  Biso   1.000  O
  O62      1.0000 0.77997  0.62242  0.99156  Biso   1.000  O
  O63      1.0000 0.72182  0.87633  0.51155  Biso   1.000  O
  O64      1.0000 0.72591  0.87004  0.75962  Biso   1.000  O
