data_image0
_cell_length_a       10.1871
_cell_length_b       5.19
_cell_length_c       10.5345
_cell_angle_alpha    90.2229
_cell_angle_beta     80.555
_cell_angle_gamma    90.2971

_symmetry_space_group_name_H-M    "P 1"
_symmetry_int_tables_number       1

loop_
  _symmetry_equiv_pos_as_xyz
  'x, y, z'

loop_
  _atom_site_label
  _atom_site_occupancy
  _atom_site_fract_x
  _atom_site_fract_y
  _atom_site_fract_z
  _atom_site_thermal_displace_type
  _atom_site_B_iso_or_equiv
  _atom_site_type_symbol
  Zr1      1.0000 0.13503  0.04032  0.14449  Biso   1.000  Zr
  Zr2      1.0000 0.13865  0.45821  0.39551  Biso   1.000  Zr
  Zr3      1.0000 0.35973  0.54192  0.10537  Biso   1.000  Zr
  Zr4      1.0000 0.35564  0.96515  0.34801  Biso   1.000  Zr
  O1       1.0000 0.03245  0.33618  0.07920  Biso   1.000  O
  O2       1.0000 0.03385  0.16035  0.32973  Biso   1.000  O
  O3       1.0000 0.45950  0.85007  0.16214  Biso   1.000  O
  O4       1.0000 0.48920  0.76029  0.44977  Biso   1.000  O
  O5       1.0000 0.27307  0.25691  0.24066  Biso   1.000  O
  O6       1.0000 0.27011  0.23358  0.49246  Biso   1.000  O
  O7       1.0000 0.22182  0.75484  0.00951  Biso   1.000  O
  O8       1.0000 0.21706  0.74337  0.25693  Biso   1.000  O
  Zr5      1.0000 0.13562  0.03770  0.64520  Biso   1.000  Zr
  Zr6      1.0000 0.13572  0.45442  0.89643  Biso   1.000  Zr
  Zr7      1.0000 0.35574  0.53276  0.60886  Biso   1.000  Zr
  Zr8      1.0000 0.35866  0.95186  0.85712  Biso   1.000  Zr
  O9       1.0000 0.03340  0.33369  0.57956  Biso   1.000  O
  O10      1.0000 0.03323  0.15902  0.82915  Biso   1.000  O
  O11      1.0000 0.46420  0.81892  0.67978  Biso   1.000  O
  O12      1.0000 0.46231  0.65994  0.92198  Biso   1.000  O
  O13      1.0000 0.27398  0.25433  0.74139  Biso   1.000  O
  O14      1.0000 0.27300  0.24060  0.99132  Biso   1.000  O
  O15      1.0000 0.22516  0.75210  0.51124  Biso   1.000  O
  O16      1.0000 0.22104  0.73858  0.76056  Biso   1.000  O
  Zr9      1.0000 0.63843  0.04082  0.14199  Biso   1.000  Zr
  Zr10     1.0000 0.63879  0.44872  0.39194  Biso   1.000  Zr
  Zr11     1.0000 0.85871  0.53971  0.10380  Biso   1.000  Zr
  Zr12     1.0000 0.86023  0.95165  0.35476  Biso   1.000  Zr
  O17      1.0000 0.53437  0.33917  0.07874  Biso   1.000  O
  O18      1.0000 0.54026  0.14322  0.32216  Biso   1.000  O
  O19      1.0000 0.96130  0.83636  0.16922  Biso   1.000  O
  O20      1.0000 0.96464  0.65872  0.41967  Biso   1.000  O
  O21      1.0000 0.77674  0.25395  0.23926  Biso   1.000  O
  O22      1.0000 0.77229  0.23401  0.48961  Biso   1.000  O
  O23      1.0000 0.72294  0.75423  0.00809  Biso   1.000  O
  O24      1.0000 0.72193  0.73562  0.25823  Biso   1.000  O
  Zr13     1.0000 0.63568  0.03662  0.64447  Biso   1.000  Zr
  Zr14     1.0000 0.63608  0.45503  0.89430  Biso   1.000  Zr
  Zr15     1.0000 0.85959  0.53677  0.60409  Biso   1.000  Zr
  Zr16     1.0000 0.85894  0.95311  0.85389  Biso   1.000  Zr
  O25      1.0000 0.52953  0.32744  0.57360  Biso   1.000  O
  O26      1.0000 0.53177  0.16334  0.82740  Biso   1.000  O
  O27      1.0000 0.96257  0.83264  0.67009  Biso   1.000  O
  O28      1.0000 0.96273  0.66021  0.91965  Biso   1.000  O
  O29      1.0000 0.77250  0.25215  0.73877  Biso   1.000  O
  O30      1.0000 0.77391  0.24008  0.98824  Biso   1.000  O
  O31      1.0000 0.72728  0.75112  0.51054  Biso   1.000  O
  O32      1.0000 0.72201  0.73825  0.75924  Biso   1.000  O
  N1       1.0000 0.44058  0.58195  0.37425  Biso   1.000  N
