data_image0
_cell_length_a       10.2406
_cell_length_b       5.18694
_cell_length_c       10.6175
_cell_angle_alpha    90.0234
_cell_angle_beta     79.0634
_cell_angle_gamma    90.389

_symmetry_space_group_name_H-M    "P 1"
_symmetry_int_tables_number       1

loop_
  _symmetry_equiv_pos_as_xyz
  'x, y, z'

loop_
  _atom_site_label
  _atom_site_occupancy
  _atom_site_fract_x
  _atom_site_fract_y
  _atom_site_fract_z
  _atom_site_thermal_displace_type
  _atom_site_B_iso_or_equiv
  _atom_site_type_symbol
  Zr1      1.0000 0.13506  0.05006  0.14826  Biso   1.000  Zr
  Zr2      1.0000 0.13568  0.45757  0.39619  Biso   1.000  Zr
  Zr3      1.0000 0.34551  0.55374  0.08877  Biso   1.000  Zr
  Zr4      1.0000 0.35681  0.95667  0.35807  Biso   1.000  Zr
  O1       1.0000 0.03188  0.33969  0.08018  Biso   1.000  O
  O2       1.0000 0.03316  0.16354  0.33077  Biso   1.000  O
  O3       1.0000 0.46035  0.83377  0.17320  Biso   1.000  O
  O4       1.0000 0.47096  0.67442  0.43019  Biso   1.000  O
  O5       1.0000 0.27737  0.26402  0.23942  Biso   1.000  O
  O6       1.0000 0.27818  0.25007  0.48833  Biso   1.000  O
  O7       1.0000 0.21476  0.76912  0.00465  Biso   1.000  O
  O8       1.0000 0.21991  0.74381  0.25789  Biso   1.000  O
  Zr5      1.0000 0.13780  0.04470  0.64505  Biso   1.000  Zr
  Zr6      1.0000 0.13170  0.45791  0.89326  Biso   1.000  Zr
  Zr7      1.0000 0.36164  0.54594  0.60623  Biso   1.000  Zr
  Zr8      1.0000 0.35665  0.96311  0.85134  Biso   1.000  Zr
  O9       1.0000 0.03525  0.33791  0.58105  Biso   1.000  O
  O10      1.0000 0.03134  0.16374  0.82934  Biso   1.000  O
  O11      1.0000 0.46537  0.83594  0.67432  Biso   1.000  O
  O12      1.0000 0.46201  0.67180  0.91990  Biso   1.000  O
  O13      1.0000 0.27329  0.25651  0.73918  Biso   1.000  O
  O14      1.0000 0.27019  0.25039  0.98721  Biso   1.000  O
  O15      1.0000 0.22430  0.75884  0.50976  Biso   1.000  O
  O16      1.0000 0.22134  0.74263  0.75770  Biso   1.000  O
  Zr9      1.0000 0.63754  0.03760  0.14905  Biso   1.000  Zr
  Zr10     1.0000 0.65086  0.45142  0.40938  Biso   1.000  Zr
  Zr11     1.0000 0.85754  0.54252  0.10829  Biso   1.000  Zr
  Zr12     1.0000 0.85950  0.95227  0.35601  Biso   1.000  Zr
  O17      1.0000 0.52665  0.33186  0.07973  Biso   1.000  O
  O18      1.0000 0.53902  0.15139  0.33753  Biso   1.000  O
  O19      1.0000 0.96249  0.83665  0.17318  Biso   1.000  O
  O20      1.0000 0.96374  0.66289  0.42376  Biso   1.000  O
  O21      1.0000 0.77659  0.25394  0.24536  Biso   1.000  O
  O22      1.0000 0.78126  0.23658  0.49800  Biso   1.000  O
  O23      1.0000 0.71922  0.75356  0.01433  Biso   1.000  O
  O24      1.0000 0.71882  0.73503  0.26389  Biso   1.000  O
  Zr13     1.0000 0.63916  0.04253  0.65164  Biso   1.000  Zr
  Zr14     1.0000 0.63559  0.45514  0.90056  Biso   1.000  Zr
  Zr15     1.0000 0.86208  0.54415  0.61048  Biso   1.000  Zr
  Zr16     1.0000 0.85712  0.95651  0.85871  Biso   1.000  Zr
  O25      1.0000 0.53549  0.33430  0.58464  Biso   1.000  O
  O26      1.0000 0.53029  0.16936  0.83093  Biso   1.000  O
  O27      1.0000 0.96427  0.83687  0.67437  Biso   1.000  O
  O28      1.0000 0.95987  0.66310  0.92279  Biso   1.000  O
  O29      1.0000 0.77452  0.25867  0.74667  Biso   1.000  O
  O30      1.0000 0.77125  0.24105  0.99510  Biso   1.000  O
  O31      1.0000 0.72566  0.75432  0.51623  Biso   1.000  O
  O32      1.0000 0.72195  0.74403  0.76498  Biso   1.000  O
  Na1      1.0000 0.46033  0.46853  0.26912  Biso   1.000  Na
