data_image0
_cell_length_a       10.0537
_cell_length_b       10.1684
_cell_length_c       10.0537
_cell_angle_alpha    89.9999
_cell_angle_beta     90
_cell_angle_gamma    90

_symmetry_space_group_name_H-M    "P 1"
_symmetry_int_tables_number       1

loop_
  _symmetry_equiv_pos_as_xyz
  'x, y, z'

loop_
  _atom_site_label
  _atom_site_occupancy
  _atom_site_fract_x
  _atom_site_fract_y
  _atom_site_fract_z
  _atom_site_thermal_displace_type
  _atom_site_B_iso_or_equiv
  _atom_site_type_symbol
  Hf1      1.0000 0.12491  0.98373  0.12491  Biso   1.000  Hf
  Hf2      1.0000 0.12491  0.25005  0.39300  Biso   1.000  Hf
  Hf3      1.0000 0.39299  0.25005  0.12491  Biso   1.000  Hf
  Hf4      1.0000 0.37412  0.00110  0.37412  Biso   1.000  Hf
  O1       1.0000 0.99306  0.14449  0.99306  Biso   1.000  O
  O2       1.0000 0.00610  0.10885  0.24373  Biso   1.000  O
  O3       1.0000 0.99305  0.35561  0.25676  Biso   1.000  O
  O4       1.0000 0.00610  0.39127  0.00609  Biso   1.000  O
  O5       1.0000 0.25677  0.14450  0.25676  Biso   1.000  O
  O6       1.0000 0.24372  0.10884  0.00610  Biso   1.000  O
  O7       1.0000 0.25677  0.35561  0.99306  Biso   1.000  O
  O8       1.0000 0.24372  0.39127  0.24373  Biso   1.000  O
  Hf5      1.0000 0.12491  0.99693  0.62491  Biso   1.000  Hf
  Hf6      1.0000 0.12491  0.25006  0.85683  Biso   1.000  Hf
  Hf7      1.0000 0.37826  0.25005  0.62491  Biso   1.000  Hf
  Hf8      1.0000 0.37344  0.00143  0.87638  Biso   1.000  Hf
  O9       1.0000 0.98874  0.14107  0.49589  Biso   1.000  O
  O10      1.0000 0.00489  0.10543  0.74652  Biso   1.000  O
  O11      1.0000 0.98874  0.35904  0.75393  Biso   1.000  O
  O12      1.0000 0.00489  0.39468  0.50330  Biso   1.000  O
  O13      1.0000 0.26108  0.14107  0.75393  Biso   1.000  O
  O14      1.0000 0.24493  0.10543  0.50330  Biso   1.000  O
  O15      1.0000 0.26108  0.35904  0.49589  Biso   1.000  O
  O16      1.0000 0.24493  0.39468  0.74652  Biso   1.000  O
  Hf9      1.0000 0.12491  0.51638  0.12491  Biso   1.000  Hf
  Hf10     1.0000 0.12491  0.75005  0.37828  Biso   1.000  Hf
  Hf11     1.0000 0.37828  0.75006  0.12491  Biso   1.000  Hf
  Hf12     1.0000 0.37344  0.49868  0.37344  Biso   1.000  Hf
  O17      1.0000 0.99720  0.64385  0.99721  Biso   1.000  O
  O18      1.0000 0.99939  0.61044  0.25044  Biso   1.000  O
  O19      1.0000 0.99720  0.85626  0.25261  Biso   1.000  O
  O20      1.0000 0.99939  0.88967  0.99937  Biso   1.000  O
  O21      1.0000 0.25262  0.64385  0.25261  Biso   1.000  O
  O22      1.0000 0.25042  0.61044  0.99938  Biso   1.000  O
  O23      1.0000 0.25262  0.85626  0.99721  Biso   1.000  O
  O24      1.0000 0.25042  0.88967  0.25044  Biso   1.000  O
  Hf13     1.0000 0.12491  0.50317  0.62491  Biso   1.000  Hf
  Hf14     1.0000 0.12491  0.75005  0.87154  Biso   1.000  Hf
  Hf15     1.0000 0.37619  0.75006  0.62491  Biso   1.000  Hf
  Hf16     1.0000 0.37412  0.49901  0.87570  Biso   1.000  Hf
  O25      1.0000 0.99434  0.64412  0.49764  Biso   1.000  O
  O26      1.0000 0.00502  0.60666  0.75009  Biso   1.000  O
  O27      1.0000 0.99434  0.85598  0.75218  Biso   1.000  O
  O28      1.0000 0.00503  0.89345  0.49973  Biso   1.000  O
  O29      1.0000 0.25548  0.64413  0.75218  Biso   1.000  O
  O30      1.0000 0.24479  0.60666  0.49973  Biso   1.000  O
  O31      1.0000 0.25548  0.85598  0.49764  Biso   1.000  O
  O32      1.0000 0.24479  0.89345  0.75009  Biso   1.000  O
  Hf17     1.0000 0.62491  0.99693  0.12490  Biso   1.000  Hf
  Hf18     1.0000 0.62491  0.25005  0.37826  Biso   1.000  Hf
  Hf19     1.0000 0.85683  0.25005  0.12491  Biso   1.000  Hf
  Hf20     1.0000 0.87638  0.00143  0.37343  Biso   1.000  Hf
  O33      1.0000 0.49589  0.14107  0.98874  Biso   1.000  O
  O34      1.0000 0.50331  0.10542  0.24493  Biso   1.000  O
  O35      1.0000 0.49589  0.35904  0.26107  Biso   1.000  O
  O36      1.0000 0.50331  0.39468  0.00488  Biso   1.000  O
  O37      1.0000 0.75393  0.14107  0.26107  Biso   1.000  O
  O38      1.0000 0.74651  0.10543  0.00488  Biso   1.000  O
  O39      1.0000 0.75393  0.35904  0.98874  Biso   1.000  O
  O40      1.0000 0.74651  0.39468  0.24493  Biso   1.000  O
  Hf21     1.0000 0.62491  0.99893  0.62490  Biso   1.000  Hf
  Hf22     1.0000 0.62491  0.25006  0.87155  Biso   1.000  Hf
  Hf23     1.0000 0.87155  0.25005  0.62491  Biso   1.000  Hf
  Hf24     1.0000 0.87569  0.00110  0.87569  Biso   1.000  Hf
  O41      1.0000 0.49161  0.14492  0.49161  Biso   1.000  O
  O42      1.0000 0.50483  0.10490  0.74500  Biso   1.000  O
  O43      1.0000 0.49161  0.35520  0.75820  Biso   1.000  O
  O44      1.0000 0.50483  0.39520  0.50482  Biso   1.000  O
  O45      1.0000 0.75821  0.14492  0.75820  Biso   1.000  O
  O46      1.0000 0.74499  0.10491  0.50482  Biso   1.000  O
  O47      1.0000 0.75821  0.35519  0.49161  Biso   1.000  O
  O48      1.0000 0.74499  0.39520  0.74500  Biso   1.000  O
  Hf25     1.0000 0.62491  0.50317  0.12491  Biso   1.000  Hf
  Hf26     1.0000 0.62491  0.75005  0.37619  Biso   1.000  Hf
  Hf27     1.0000 0.87154  0.75005  0.12491  Biso   1.000  Hf
  Hf28     1.0000 0.87569  0.49901  0.37412  Biso   1.000  Hf
  O49      1.0000 0.49762  0.64413  0.99435  Biso   1.000  O
  O50      1.0000 0.49974  0.60665  0.24481  Biso   1.000  O
  O51      1.0000 0.49762  0.85598  0.25547  Biso   1.000  O
  O52      1.0000 0.49975  0.89345  0.00501  Biso   1.000  O
  O53      1.0000 0.75219  0.64413  0.25547  Biso   1.000  O
  O54      1.0000 0.75007  0.60666  0.00501  Biso   1.000  O
  O55      1.0000 0.75219  0.85598  0.99434  Biso   1.000  O
  O56      1.0000 0.75007  0.89345  0.24481  Biso   1.000  O
  Hf29     1.0000 0.62491  0.50117  0.62491  Biso   1.000  Hf
  Hf30     1.0000 0.62491  0.75005  0.87363  Biso   1.000  Hf
  Hf31     1.0000 0.87363  0.75005  0.62491  Biso   1.000  Hf
  Hf32     1.0000 0.87638  0.49868  0.87638  Biso   1.000  Hf
  O57      1.0000 0.49311  0.64503  0.49312  Biso   1.000  O
  O58      1.0000 0.50310  0.60502  0.74672  Biso   1.000  O
  O59      1.0000 0.49311  0.85508  0.75670  Biso   1.000  O
  O60      1.0000 0.50311  0.89508  0.50309  Biso   1.000  O
  O61      1.0000 0.75671  0.64503  0.75670  Biso   1.000  O
  O62      1.0000 0.74671  0.60502  0.50309  Biso   1.000  O
  O63      1.0000 0.75671  0.85507  0.49311  Biso   1.000  O
  O64      1.0000 0.74671  0.89508  0.74672  Biso   1.000  O
  Nb1      1.0000 0.12491  0.25005  0.12491  Biso   1.000  Nb
