data_image0
_cell_length_a       10.0605
_cell_length_b       10.2833
_cell_length_c       5.28249
_cell_angle_alpha    89.7885
_cell_angle_beta     91.8277
_cell_angle_gamma    90.6804

_symmetry_space_group_name_H-M    "P 1"
_symmetry_int_tables_number       1

loop_
  _symmetry_equiv_pos_as_xyz
  'x, y, z'

loop_
  _atom_site_label
  _atom_site_occupancy
  _atom_site_fract_x
  _atom_site_fract_y
  _atom_site_fract_z
  _atom_site_thermal_displace_type
  _atom_site_B_iso_or_equiv
  _atom_site_type_symbol
  Hf1      1.0000 0.13991  0.02141  0.35328  Biso   1.000  Hf
  Hf2      1.0000 0.13903  0.22736  0.86060  Biso   1.000  Hf
  Hf3      1.0000 0.35270  0.27195  0.37619  Biso   1.000  Hf
  Hf4      1.0000 0.35908  0.47974  0.86485  Biso   1.000  Hf
  Hf5      1.0000 0.65072  0.01499  0.14882  Biso   1.000  Hf
  Hf6      1.0000 0.65413  0.22058  0.61824  Biso   1.000  Hf
  Hf7      1.0000 0.85829  0.26606  0.13702  Biso   1.000  Hf
  Hf8      1.0000 0.86474  0.47847  0.65096  Biso   1.000  Hf
  O1       1.0000 0.03126  0.16143  0.16896  Biso   1.000  O
  O2       1.0000 0.03779  0.08371  0.66871  Biso   1.000  O
  O3       1.0000 0.46077  0.43951  0.21285  Biso   1.000  O
  O4       1.0000 0.47888  0.33374  0.68689  Biso   1.000  O
  O5       1.0000 0.27654  0.12531  0.61092  Biso   1.000  O
  O6       1.0000 0.27224  0.12122  0.10888  Biso   1.000  O
  O7       1.0000 0.22142  0.37581  0.61735  Biso   1.000  O
  O8       1.0000 0.21775  0.37674  0.11551  Biso   1.000  O
  O9       1.0000 0.51958  0.14613  0.35001  Biso   1.000  O
  O10      1.0000 0.53323  0.09833  0.85441  Biso   1.000  O
  O11      1.0000 0.95984  0.41331  0.33837  Biso   1.000  O
  O12      1.0000 0.96953  0.33575  0.83731  Biso   1.000  O
  O13      1.0000 0.78817  0.11603  0.88198  Biso   1.000  O
  O14      1.0000 0.78920  0.11715  0.39698  Biso   1.000  O
  O15      1.0000 0.72247  0.37736  0.87950  Biso   1.000  O
  O16      1.0000 0.70566  0.36583  0.35722  Biso   1.000  O
  Hf9      1.0000 0.13851  0.51906  0.35248  Biso   1.000  Hf
  Hf10     1.0000 0.14210  0.72750  0.84975  Biso   1.000  Hf
  Hf11     1.0000 0.36369  0.77424  0.35383  Biso   1.000  Hf
  Hf12     1.0000 0.36165  0.97831  0.85819  Biso   1.000  Hf
  Hf13     1.0000 0.63884  0.53567  0.15064  Biso   1.000  Hf
  Hf14     1.0000 0.64135  0.73143  0.65595  Biso   1.000  Hf
  Hf15     1.0000 0.86771  0.76787  0.15910  Biso   1.000  Hf
  Hf16     1.0000 0.86894  0.97331  0.65697  Biso   1.000  Hf
  O17      1.0000 0.03592  0.66112  0.16958  Biso   1.000  O
  O18      1.0000 0.03325  0.58362  0.67250  Biso   1.000  O
  O19      1.0000 0.47405  0.91078  0.16088  Biso   1.000  O
  O20      1.0000 0.47422  0.84496  0.66637  Biso   1.000  O
  O21      1.0000 0.27616  0.62498  0.59761  Biso   1.000  O
  O22      1.0000 0.27649  0.62587  0.09717  Biso   1.000  O
  O23      1.0000 0.22770  0.87351  0.60227  Biso   1.000  O
  O24      1.0000 0.22724  0.87496  0.10031  Biso   1.000  O
  O25      1.0000 0.53541  0.67363  0.33777  Biso   1.000  O
  O26      1.0000 0.52910  0.59063  0.83577  Biso   1.000  O
  O27      1.0000 0.97410  0.90926  0.33943  Biso   1.000  O
  O28      1.0000 0.97267  0.83265  0.84278  Biso   1.000  O
  O29      1.0000 0.77987  0.62727  0.90260  Biso   1.000  O
  O30      1.0000 0.77862  0.62374  0.40936  Biso   1.000  O
  O31      1.0000 0.72988  0.87266  0.91353  Biso   1.000  O
  O32      1.0000 0.73217  0.87017  0.41181  Biso   1.000  O
  Nb1      1.0000 0.55626  0.27518  0.05809  Biso   1.000  Nb
