data_image0
_cell_length_a       10.0004
_cell_length_b       10.2185
_cell_length_c       5.22475
_cell_angle_alpha    90.005
_cell_angle_beta     89.9132
_cell_angle_gamma    89.935

_symmetry_space_group_name_H-M    "P 1"
_symmetry_int_tables_number       1

loop_
  _symmetry_equiv_pos_as_xyz
  'x, y, z'

loop_
  _atom_site_label
  _atom_site_occupancy
  _atom_site_fract_x
  _atom_site_fract_y
  _atom_site_fract_z
  _atom_site_thermal_displace_type
  _atom_site_B_iso_or_equiv
  _atom_site_type_symbol
  Nb1      1.0000 0.13835  0.02368  0.34496  Biso   1.000  Nb
  Hf1      1.0000 0.13982  0.22893  0.84247  Biso   1.000  Hf
  Hf2      1.0000 0.36104  0.27115  0.34403  Biso   1.000  Hf
  Hf3      1.0000 0.36117  0.47953  0.84346  Biso   1.000  Hf
  Hf4      1.0000 0.63868  0.02120  0.15514  Biso   1.000  Hf
  Hf5      1.0000 0.63878  0.22878  0.65715  Biso   1.000  Hf
  Hf6      1.0000 0.86095  0.27100  0.15692  Biso   1.000  Hf
  Hf7      1.0000 0.86111  0.47868  0.65725  Biso   1.000  Hf
  O1       1.0000 0.03375  0.16306  0.16739  Biso   1.000  O
  O2       1.0000 0.03706  0.08157  0.66190  Biso   1.000  O
  O3       1.0000 0.46621  0.41641  0.16949  Biso   1.000  O
  O4       1.0000 0.46644  0.33397  0.66956  Biso   1.000  O
  O5       1.0000 0.27742  0.12293  0.59333  Biso   1.000  O
  O6       1.0000 0.27566  0.12555  0.09561  Biso   1.000  O
  O7       1.0000 0.22360  0.37387  0.59056  Biso   1.000  O
  O8       1.0000 0.22321  0.37573  0.08969  Biso   1.000  O
  O9       1.0000 0.53361  0.16609  0.33223  Biso   1.000  O
  O10      1.0000 0.53259  0.08464  0.83246  Biso   1.000  O
  O11      1.0000 0.96724  0.41474  0.33193  Biso   1.000  O
  O12      1.0000 0.96641  0.33182  0.83042  Biso   1.000  O
  O13      1.0000 0.77749  0.12319  0.90773  Biso   1.000  O
  O14      1.0000 0.77748  0.12611  0.40886  Biso   1.000  O
  O15      1.0000 0.72333  0.37368  0.91076  Biso   1.000  O
  O16      1.0000 0.72322  0.37624  0.41014  Biso   1.000  O
  Hf8      1.0000 0.13892  0.52134  0.34323  Biso   1.000  Hf
  Hf9      1.0000 0.13876  0.72911  0.84341  Biso   1.000  Hf
  Hf10     1.0000 0.35939  0.77366  0.34371  Biso   1.000  Hf
  Hf11     1.0000 0.35980  0.97838  0.84446  Biso   1.000  Hf
  Hf12     1.0000 0.63839  0.52187  0.15815  Biso   1.000  Hf
  Hf13     1.0000 0.63831  0.72897  0.65640  Biso   1.000  Hf
  Hf14     1.0000 0.86170  0.77156  0.15582  Biso   1.000  Hf
  Hf15     1.0000 0.86126  0.97838  0.65468  Biso   1.000  Hf
  O17      1.0000 0.03273  0.66490  0.16787  Biso   1.000  O
  O18      1.0000 0.03318  0.58359  0.66862  Biso   1.000  O
  O19      1.0000 0.46710  0.91564  0.16622  Biso   1.000  O
  O20      1.0000 0.46629  0.83535  0.66686  Biso   1.000  O
  O21      1.0000 0.27660  0.62429  0.59024  Biso   1.000  O
  O22      1.0000 0.27669  0.62695  0.09080  Biso   1.000  O
  O23      1.0000 0.22017  0.87439  0.59124  Biso   1.000  O
  O24      1.0000 0.22037  0.87724  0.09317  Biso   1.000  O
  O25      1.0000 0.53271  0.66711  0.33144  Biso   1.000  O
  O26      1.0000 0.53348  0.58416  0.83167  Biso   1.000  O
  O27      1.0000 0.97149  0.91578  0.33046  Biso   1.000  O
  O28      1.0000 0.96641  0.83422  0.83103  Biso   1.000  O
  O29      1.0000 0.77681  0.62398  0.91064  Biso   1.000  O
  O30      1.0000 0.77656  0.62609  0.41046  Biso   1.000  O
  O31      1.0000 0.72301  0.87395  0.90755  Biso   1.000  O
  O32      1.0000 0.72524  0.87655  0.40844  Biso   1.000  O
