data_image0
_cell_length_a       5.07935
_cell_length_b       10.3311
_cell_length_c       10.4989
_cell_angle_alpha    89.9979
_cell_angle_beta     80.1333
_cell_angle_gamma    89.8478

_symmetry_space_group_name_H-M    "P 1"
_symmetry_int_tables_number       1

loop_
  _symmetry_equiv_pos_as_xyz
  'x, y, z'

loop_
  _atom_site_label
  _atom_site_occupancy
  _atom_site_fract_x
  _atom_site_fract_y
  _atom_site_fract_z
  _atom_site_thermal_displace_type
  _atom_site_B_iso_or_equiv
  _atom_site_type_symbol
  Nb1      1.0000 0.28097  0.02280  0.14705  Biso   1.000  Nb
  Zr1      1.0000 0.27718  0.02092  0.64511  Biso   1.000  Zr
  Zr2      1.0000 0.27757  0.52274  0.14515  Biso   1.000  Zr
  Zr3      1.0000 0.27803  0.52146  0.64580  Biso   1.000  Zr
  Zr4      1.0000 0.28099  0.22913  0.39455  Biso   1.000  Zr
  Zr5      1.0000 0.27727  0.22791  0.89507  Biso   1.000  Zr
  Zr6      1.0000 0.27975  0.72879  0.39524  Biso   1.000  Zr
  Zr7      1.0000 0.27498  0.72881  0.89656  Biso   1.000  Zr
  Zr8      1.0000 0.72267  0.27110  0.10518  Biso   1.000  Zr
  Zr9      1.0000 0.72249  0.27119  0.60419  Biso   1.000  Zr
  Zr10     1.0000 0.71968  0.77608  0.10470  Biso   1.000  Zr
  Zr11     1.0000 0.72212  0.77129  0.60504  Biso   1.000  Zr
  Zr12     1.0000 0.72317  0.47913  0.35411  Biso   1.000  Zr
  Zr13     1.0000 0.72063  0.47852  0.85525  Biso   1.000  Zr
  Zr14     1.0000 0.72406  0.97835  0.35354  Biso   1.000  Zr
  Zr15     1.0000 0.71877  0.97896  0.85528  Biso   1.000  Zr
  O1       1.0000 0.07368  0.16454  0.08149  Biso   1.000  O
  O2       1.0000 0.07149  0.16806  0.57790  Biso   1.000  O
  O3       1.0000 0.06776  0.66987  0.08123  Biso   1.000  O
  O4       1.0000 0.07197  0.66930  0.58030  Biso   1.000  O
  O5       1.0000 0.08391  0.07746  0.32522  Biso   1.000  O
  O6       1.0000 0.06757  0.08137  0.82945  Biso   1.000  O
  O7       1.0000 0.07202  0.58006  0.33102  Biso   1.000  O
  O8       1.0000 0.06930  0.58043  0.83091  Biso   1.000  O
  O9       1.0000 0.93012  0.41890  0.16905  Biso   1.000  O
  O10      1.0000 0.92951  0.41848  0.66986  Biso   1.000  O
  O11      1.0000 0.94401  0.92023  0.16818  Biso   1.000  O
  O12      1.0000 0.92802  0.91921  0.67010  Biso   1.000  O
  O13      1.0000 0.92824  0.32872  0.41785  Biso   1.000  O
  O14      1.0000 0.92774  0.32914  0.92087  Biso   1.000  O
  O15      1.0000 0.93160  0.83153  0.41989  Biso   1.000  O
  O16      1.0000 0.92150  0.83063  0.92006  Biso   1.000  O
  O17      1.0000 0.55605  0.12742  0.24035  Biso   1.000  O
  O18      1.0000 0.55121  0.12873  0.74067  Biso   1.000  O
  O19      1.0000 0.55202  0.63075  0.24052  Biso   1.000  O
  O20      1.0000 0.55160  0.62868  0.74120  Biso   1.000  O
  O21      1.0000 0.55653  0.12073  0.49000  Biso   1.000  O
  O22      1.0000 0.54574  0.12025  0.99290  Biso   1.000  O
  O23      1.0000 0.55430  0.62110  0.49096  Biso   1.000  O
  O24      1.0000 0.55097  0.62209  0.99101  Biso   1.000  O
  O25      1.0000 0.44688  0.37842  0.00987  Biso   1.000  O
  O26      1.0000 0.44794  0.37872  0.50927  Biso   1.000  O
  O27      1.0000 0.42948  0.88182  0.01101  Biso   1.000  O
  O28      1.0000 0.44932  0.87861  0.50917  Biso   1.000  O
  O29      1.0000 0.44966  0.37108  0.25919  Biso   1.000  O
  O30      1.0000 0.44723  0.37095  0.75968  Biso   1.000  O
  O31      1.0000 0.44663  0.87439  0.25917  Biso   1.000  O
  O32      1.0000 0.44567  0.87116  0.75983  Biso   1.000  O
