data_image0
_cell_length_a       10.0003
_cell_length_b       10.4194
_cell_length_c       5.02268
_cell_angle_alpha    89.8693
_cell_angle_beta     89.4235
_cell_angle_gamma    90.0549

_symmetry_space_group_name_H-M    "P 1"
_symmetry_int_tables_number       1

loop_
  _symmetry_equiv_pos_as_xyz
  'x, y, z'

loop_
  _atom_site_label
  _atom_site_occupancy
  _atom_site_fract_x
  _atom_site_fract_y
  _atom_site_fract_z
  _atom_site_thermal_displace_type
  _atom_site_B_iso_or_equiv
  _atom_site_type_symbol
  Hf1      1.0000 0.13665  0.01706  0.25300  Biso   1.000  Hf
  Hf2      1.0000 0.13523  0.22574  0.76796  Biso   1.000  Hf
  Hf3      1.0000 0.36890  0.26449  0.25527  Biso   1.000  Hf
  Hf4      1.0000 0.36743  0.48308  0.75424  Biso   1.000  Hf
  O1       1.0000 0.01839  0.16844  0.42589  Biso   1.000  O
  O2       1.0000 0.03642  0.06081  0.90072  Biso   1.000  O
  O3       1.0000 0.46563  0.43357  0.39295  Biso   1.000  O
  O4       1.0000 0.46435  0.31638  0.89201  Biso   1.000  O
  O5       1.0000 0.26919  0.11565  0.50501  Biso   1.000  O
  O6       1.0000 0.28335  0.12421  0.99701  Biso   1.000  O
  O7       1.0000 0.22823  0.38177  0.01727  Biso   1.000  O
  O8       1.0000 0.23529  0.36911  0.52082  Biso   1.000  O
  Hf5      1.0000 0.13525  0.53066  0.25233  Biso   1.000  Hf
  Hf6      1.0000 0.13565  0.73683  0.75297  Biso   1.000  Hf
  Hf7      1.0000 0.36931  0.76716  0.25162  Biso   1.000  Hf
  Hf8      1.0000 0.36888  0.98148  0.75182  Biso   1.000  Hf
  O9       1.0000 0.03513  0.68716  0.39414  Biso   1.000  O
  O10      1.0000 0.03777  0.56766  0.88865  Biso   1.000  O
  O11      1.0000 0.46542  0.93311  0.38558  Biso   1.000  O
  O12      1.0000 0.46708  0.81547  0.88908  Biso   1.000  O
  O13      1.0000 0.27365  0.62100  0.50217  Biso   1.000  O
  O14      1.0000 0.27219  0.63403  0.99882  Biso   1.000  O
  O15      1.0000 0.23060  0.88034  0.00086  Biso   1.000  O
  O16      1.0000 0.23195  0.86786  0.49939  Biso   1.000  O
  Hf9      1.0000 0.63442  0.01443  0.24634  Biso   1.000  Hf
  Hf10     1.0000 0.63297  0.23216  0.74744  Biso   1.000  Hf
  Hf11     1.0000 0.85714  0.26498  0.24136  Biso   1.000  Hf
  Hf12     1.0000 0.86811  0.48241  0.74677  Biso   1.000  Hf
  O17      1.0000 0.53595  0.18151  0.38988  Biso   1.000  O
  O18      1.0000 0.53932  0.06424  0.88487  Biso   1.000  O
  O19      1.0000 0.96506  0.43370  0.37657  Biso   1.000  O
  O20      1.0000 0.95627  0.31512  0.86409  Biso   1.000  O
  O21      1.0000 0.76614  0.11473  0.49392  Biso   1.000  O
  O22      1.0000 0.77006  0.13188  0.99218  Biso   1.000  O
  O23      1.0000 0.72695  0.38204  0.99537  Biso   1.000  O
  O24      1.0000 0.72856  0.36776  0.49500  Biso   1.000  O
  Hf13     1.0000 0.63454  0.51666  0.24993  Biso   1.000  Hf
  Hf14     1.0000 0.63620  0.73203  0.74917  Biso   1.000  Hf
  Hf15     1.0000 0.86554  0.76660  0.24704  Biso   1.000  Hf
  Hf16     1.0000 0.86822  0.98326  0.74326  Biso   1.000  Hf
  O25      1.0000 0.53785  0.68380  0.38818  Biso   1.000  O
  O26      1.0000 0.53661  0.56602  0.88839  Biso   1.000  O
  O27      1.0000 0.96634  0.92934  0.38998  Biso   1.000  O
  O28      1.0000 0.96449  0.81579  0.88762  Biso   1.000  O
  O29      1.0000 0.77137  0.61630  0.49454  Biso   1.000  O
  O30      1.0000 0.77112  0.63178  0.99536  Biso   1.000  O
  O31      1.0000 0.73207  0.88221  0.99463  Biso   1.000  O
  O32      1.0000 0.73029  0.86626  0.49527  Biso   1.000  O
  Ni1      1.0000 0.10774  0.29310  0.24672  Biso   1.000  Ni
