data_image0
_cell_length_a       10.1625
_cell_length_b       10.3154
_cell_length_c       5.23724
_cell_angle_alpha    89.7999
_cell_angle_beta     80.1138
_cell_angle_gamma    90.0068

_symmetry_space_group_name_H-M    "P 1"
_symmetry_int_tables_number       1

loop_
  _symmetry_equiv_pos_as_xyz
  'x, y, z'

loop_
  _atom_site_label
  _atom_site_occupancy
  _atom_site_fract_x
  _atom_site_fract_y
  _atom_site_fract_z
  _atom_site_thermal_displace_type
  _atom_site_B_iso_or_equiv
  _atom_site_type_symbol
  Os1      1.0000 0.14114  0.02117  0.30052  Biso   1.000  Os
  Zr1      1.0000 0.13907  0.52160  0.29166  Biso   1.000  Zr
  Zr2      1.0000 0.63790  0.02167  0.29122  Biso   1.000  Zr
  Zr3      1.0000 0.63941  0.52192  0.29093  Biso   1.000  Zr
  Zr4      1.0000 0.13827  0.22694  0.79497  Biso   1.000  Zr
  Zr5      1.0000 0.13842  0.73029  0.78966  Biso   1.000  Zr
  Zr6      1.0000 0.63794  0.22923  0.79160  Biso   1.000  Zr
  Zr7      1.0000 0.63923  0.72860  0.79287  Biso   1.000  Zr
  Zr8      1.0000 0.35928  0.27113  0.21449  Biso   1.000  Zr
  Zr9      1.0000 0.35887  0.77467  0.20784  Biso   1.000  Zr
  Zr10     1.0000 0.86412  0.26894  0.20949  Biso   1.000  Zr
  Zr11     1.0000 0.86403  0.77367  0.20727  Biso   1.000  Zr
  Zr12     1.0000 0.36079  0.47924  0.71020  Biso   1.000  Zr
  Zr13     1.0000 0.35914  0.97797  0.71052  Biso   1.000  Zr
  Zr14     1.0000 0.86079  0.47862  0.70947  Biso   1.000  Zr
  Zr15     1.0000 0.86108  0.98052  0.70573  Biso   1.000  Zr
  O1       1.0000 0.03405  0.16059  0.15005  Biso   1.000  O
  O2       1.0000 0.03458  0.66695  0.15597  Biso   1.000  O
  O3       1.0000 0.53603  0.17121  0.16572  Biso   1.000  O
  O4       1.0000 0.53497  0.67029  0.16218  Biso   1.000  O
  O5       1.0000 0.03801  0.08476  0.62945  Biso   1.000  O
  O6       1.0000 0.03482  0.58201  0.65909  Biso   1.000  O
  O7       1.0000 0.53454  0.07939  0.66613  Biso   1.000  O
  O8       1.0000 0.53661  0.57883  0.66452  Biso   1.000  O
  O9       1.0000 0.46370  0.42054  0.33816  Biso   1.000  O
  O10      1.0000 0.46513  0.91817  0.34265  Biso   1.000  O
  O11      1.0000 0.96558  0.41757  0.34166  Biso   1.000  O
  O12      1.0000 0.97532  0.92039  0.33035  Biso   1.000  O
  O13      1.0000 0.46064  0.32698  0.83861  Biso   1.000  O
  O14      1.0000 0.46309  0.82921  0.83731  Biso   1.000  O
  O15      1.0000 0.96581  0.33012  0.84084  Biso   1.000  O
  O16      1.0000 0.96501  0.83393  0.83746  Biso   1.000  O
  O17      1.0000 0.27754  0.12575  0.48771  Biso   1.000  O
  O18      1.0000 0.27621  0.63119  0.48227  Biso   1.000  O
  O19      1.0000 0.77481  0.12865  0.48100  Biso   1.000  O
  O20      1.0000 0.77643  0.62996  0.48183  Biso   1.000  O
  O21      1.0000 0.27179  0.11544  0.00323  Biso   1.000  O
  O22      1.0000 0.27596  0.62200  0.98150  Biso   1.000  O
  O23      1.0000 0.77605  0.12083  0.97786  Biso   1.000  O
  O24      1.0000 0.77721  0.62233  0.98234  Biso   1.000  O
  O25      1.0000 0.22310  0.37783  0.02084  Biso   1.000  O
  O26      1.0000 0.21940  0.88132  0.01678  Biso   1.000  O
  O27      1.0000 0.72450  0.37883  0.01906  Biso   1.000  O
  O28      1.0000 0.72337  0.87938  0.01876  Biso   1.000  O
  O29      1.0000 0.22382  0.37096  0.52087  Biso   1.000  O
  O30      1.0000 0.21881  0.87472  0.51064  Biso   1.000  O
  O31      1.0000 0.72409  0.37099  0.51906  Biso   1.000  O
  O32      1.0000 0.72955  0.87273  0.51766  Biso   1.000  O
