data_image0
_cell_length_a       10.1658
_cell_length_b       5.15707
_cell_length_c       10.4758
_cell_angle_alpha    89.7842
_cell_angle_beta     80.0725
_cell_angle_gamma    89.9913

_symmetry_space_group_name_H-M    "P 1"
_symmetry_int_tables_number       1

loop_
  _symmetry_equiv_pos_as_xyz
  'x, y, z'

loop_
  _atom_site_label
  _atom_site_occupancy
  _atom_site_fract_x
  _atom_site_fract_y
  _atom_site_fract_z
  _atom_site_thermal_displace_type
  _atom_site_B_iso_or_equiv
  _atom_site_type_symbol
  Os1      1.0000 0.14187  0.04429  0.15132  Biso   1.000  Os
  Zr1      1.0000 0.13871  0.04200  0.64569  Biso   1.000  Zr
  Zr2      1.0000 0.63919  0.04520  0.14468  Biso   1.000  Zr
  Zr3      1.0000 0.63821  0.04189  0.64616  Biso   1.000  Zr
  Zr4      1.0000 0.13967  0.46170  0.39419  Biso   1.000  Zr
  Zr5      1.0000 0.13712  0.45273  0.89838  Biso   1.000  Zr
  Zr6      1.0000 0.63968  0.45881  0.39490  Biso   1.000  Zr
  Zr7      1.0000 0.63741  0.45636  0.89712  Biso   1.000  Zr
  Zr8      1.0000 0.35714  0.54981  0.10573  Biso   1.000  Zr
  Zr9      1.0000 0.36138  0.54260  0.60535  Biso   1.000  Zr
  Zr10     1.0000 0.86801  0.54177  0.10435  Biso   1.000  Zr
  Zr11     1.0000 0.86041  0.54312  0.60400  Biso   1.000  Zr
  Zr12     1.0000 0.36149  0.95937  0.35408  Biso   1.000  Zr
  Zr13     1.0000 0.35818  0.95549  0.85626  Biso   1.000  Zr
  Zr14     1.0000 0.86179  0.96069  0.35198  Biso   1.000  Zr
  Zr15     1.0000 0.85995  0.95678  0.85516  Biso   1.000  Zr
  O1       1.0000 0.03499  0.32474  0.07903  Biso   1.000  O
  O2       1.0000 0.03231  0.32644  0.57269  Biso   1.000  O
  O3       1.0000 0.53396  0.34110  0.08214  Biso   1.000  O
  O4       1.0000 0.53708  0.34187  0.58172  Biso   1.000  O
  O5       1.0000 0.03959  0.16946  0.31724  Biso   1.000  O
  O6       1.0000 0.03260  0.16740  0.82572  Biso   1.000  O
  O7       1.0000 0.53676  0.15937  0.33218  Biso   1.000  O
  O8       1.0000 0.53429  0.15665  0.83315  Biso   1.000  O
  O9       1.0000 0.46537  0.83735  0.17073  Biso   1.000  O
  O10      1.0000 0.46347  0.84036  0.66962  Biso   1.000  O
  O11      1.0000 0.97563  0.84257  0.16654  Biso   1.000  O
  O12      1.0000 0.96598  0.83025  0.67116  Biso   1.000  O
  O13      1.0000 0.46465  0.65967  0.41901  Biso   1.000  O
  O14      1.0000 0.45885  0.65262  0.91889  Biso   1.000  O
  O15      1.0000 0.96628  0.67020  0.41984  Biso   1.000  O
  O16      1.0000 0.96562  0.66188  0.92069  Biso   1.000  O
  O17      1.0000 0.27802  0.25676  0.24154  Biso   1.000  O
  O18      1.0000 0.27624  0.25639  0.74395  Biso   1.000  O
  O19      1.0000 0.77601  0.25964  0.24029  Biso   1.000  O
  O20      1.0000 0.77491  0.25706  0.74072  Biso   1.000  O
  O21      1.0000 0.27680  0.24392  0.49168  Biso   1.000  O
  O22      1.0000 0.27098  0.23176  0.00117  Biso   1.000  O
  O23      1.0000 0.77765  0.24197  0.48907  Biso   1.000  O
  O24      1.0000 0.77563  0.24416  0.99045  Biso   1.000  O
  O25      1.0000 0.21822  0.76283  0.01069  Biso   1.000  O
  O26      1.0000 0.22410  0.75687  0.50827  Biso   1.000  O
  O27      1.0000 0.72365  0.75792  0.00968  Biso   1.000  O
  O28      1.0000 0.72409  0.75806  0.50900  Biso   1.000  O
  O29      1.0000 0.21921  0.75064  0.25659  Biso   1.000  O
  O30      1.0000 0.22317  0.74039  0.75912  Biso   1.000  O
  O31      1.0000 0.73065  0.74501  0.25834  Biso   1.000  O
  O32      1.0000 0.72304  0.74207  0.75976  Biso   1.000  O
