data_image0
_cell_length_a       5.14726
_cell_length_b       10.3319
_cell_length_c       10.6529
_cell_angle_alpha    89.8297
_cell_angle_beta     79.5793
_cell_angle_gamma    90.904

_symmetry_space_group_name_H-M    "P 1"
_symmetry_int_tables_number       1

loop_
  _symmetry_equiv_pos_as_xyz
  'x, y, z'

loop_
  _atom_site_label
  _atom_site_occupancy
  _atom_site_fract_x
  _atom_site_fract_y
  _atom_site_fract_z
  _atom_site_thermal_displace_type
  _atom_site_B_iso_or_equiv
  _atom_site_type_symbol
  Zr1      1.0000 0.27595  0.02085  0.14528  Biso   1.000  Zr
  Zr2      1.0000 0.29346  0.23923  0.40111  Biso   1.000  Zr
  Zr3      1.0000 0.71409  0.27110  0.09771  Biso   1.000  Zr
  Zr4      1.0000 0.69959  0.48362  0.35479  Biso   1.000  Zr
  O1       1.0000 0.05731  0.15376  0.06650  Biso   1.000  O
  O2       1.0000 0.10065  0.06815  0.33001  Biso   1.000  O
  O3       1.0000 0.94756  0.38453  0.19730  Biso   1.000  O
  O4       1.0000 0.97019  0.36550  0.44217  Biso   1.000  O
  O5       1.0000 0.57568  0.12579  0.23687  Biso   1.000  O
  O6       1.0000 0.59228  0.12334  0.48016  Biso   1.000  O
  O7       1.0000 0.44561  0.37863  0.00745  Biso   1.000  O
  O8       1.0000 0.42158  0.38295  0.25244  Biso   1.000  O
  Zr5      1.0000 0.27278  0.02235  0.64484  Biso   1.000  Zr
  Zr6      1.0000 0.27075  0.22779  0.89457  Biso   1.000  Zr
  Zr7      1.0000 0.72791  0.27722  0.60798  Biso   1.000  Zr
  Zr8      1.0000 0.71513  0.47997  0.85725  Biso   1.000  Zr
  O9       1.0000 0.07825  0.16626  0.57573  Biso   1.000  O
  O10      1.0000 0.05631  0.09058  0.82002  Biso   1.000  O
  O11      1.0000 0.93904  0.40852  0.68714  Biso   1.000  O
  O12      1.0000 0.94295  0.34747  0.93186  Biso   1.000  O
  O13      1.0000 0.54671  0.12843  0.73780  Biso   1.000  O
  O14      1.0000 0.54506  0.12302  0.98625  Biso   1.000  O
  O15      1.0000 0.44932  0.38331  0.52144  Biso   1.000  O
  O16      1.0000 0.45086  0.37328  0.76199  Biso   1.000  O
  Zr9      1.0000 0.26922  0.52093  0.14629  Biso   1.000  Zr
  Zr10     1.0000 0.26459  0.72567  0.39561  Biso   1.000  Zr
  Zr11     1.0000 0.71664  0.77080  0.10305  Biso   1.000  Zr
  Zr12     1.0000 0.72740  0.96696  0.35386  Biso   1.000  Zr
  O17      1.0000 0.04006  0.65312  0.06949  Biso   1.000  O
  O18      1.0000 0.04608  0.59619  0.31603  Biso   1.000  O
  O19      1.0000 0.94142  0.90692  0.17583  Biso   1.000  O
  O20      1.0000 0.93060  0.83326  0.42934  Biso   1.000  O
  O21      1.0000 0.53839  0.62732  0.23939  Biso   1.000  O
  O22      1.0000 0.53194  0.62629  0.49253  Biso   1.000  O
  O23      1.0000 0.44669  0.87821  0.01145  Biso   1.000  O
  O24      1.0000 0.45227  0.86737  0.25924  Biso   1.000  O
  Zr13     1.0000 0.27002  0.52509  0.64873  Biso   1.000  Zr
  Zr14     1.0000 0.26656  0.72860  0.89745  Biso   1.000  Zr
  Zr15     1.0000 0.71562  0.77126  0.60657  Biso   1.000  Zr
  Zr16     1.0000 0.71805  0.97846  0.85408  Biso   1.000  Zr
  O25      1.0000 0.04710  0.65757  0.57355  Biso   1.000  O
  O26      1.0000 0.05129  0.59513  0.82215  Biso   1.000  O
  O27      1.0000 0.93508  0.91113  0.67679  Biso   1.000  O
  O28      1.0000 0.93317  0.84168  0.92712  Biso   1.000  O
  O29      1.0000 0.54258  0.62868  0.74250  Biso   1.000  O
  O30      1.0000 0.53564  0.62375  0.99103  Biso   1.000  O
  O31      1.0000 0.44676  0.87992  0.51129  Biso   1.000  O
  O32      1.0000 0.44548  0.87274  0.76114  Biso   1.000  O
  Os1      1.0000 0.82098  0.23740  0.33183  Biso   1.000  Os
