data_image0
_cell_length_a       10.019
_cell_length_b       5.0879
_cell_length_c       10.465
_cell_angle_alpha    89.605
_cell_angle_beta     90.5954
_cell_angle_gamma    89.4411

_symmetry_space_group_name_H-M    "P 1"
_symmetry_int_tables_number       1

loop_
  _symmetry_equiv_pos_as_xyz
  'x, y, z'

loop_
  _atom_site_label
  _atom_site_occupancy
  _atom_site_fract_x
  _atom_site_fract_y
  _atom_site_fract_z
  _atom_site_thermal_displace_type
  _atom_site_B_iso_or_equiv
  _atom_site_type_symbol
  P1       1.0000 0.09087  0.05447  0.18737  Biso   1.000  P
  Hf1      1.0000 0.14301  0.46946  0.41954  Biso   1.000  Hf
  Hf2      1.0000 0.35109  0.54862  0.16852  Biso   1.000  Hf
  Hf3      1.0000 0.35687  0.96754  0.41559  Biso   1.000  Hf
  Hf4      1.0000 0.63582  0.04435  0.07848  Biso   1.000  Hf
  Hf5      1.0000 0.63182  0.45824  0.32702  Biso   1.000  Hf
  Hf6      1.0000 0.86133  0.53484  0.07835  Biso   1.000  Hf
  Hf7      1.0000 0.84984  0.95555  0.33496  Biso   1.000  Hf
  O1       1.0000 0.04091  0.29480  0.09326  Biso   1.000  O
  O2       1.0000 0.03210  0.16772  0.32126  Biso   1.000  O
  O3       1.0000 0.47083  0.82708  0.08319  Biso   1.000  O
  O4       1.0000 0.46622  0.68190  0.33036  Biso   1.000  O
  O5       1.0000 0.27508  0.26875  0.29879  Biso   1.000  O
  O6       1.0000 0.29403  0.27434  0.03277  Biso   1.000  O
  O7       1.0000 0.21671  0.76147  0.29366  Biso   1.000  O
  O8       1.0000 0.22566  0.75102  0.03886  Biso   1.000  O
  O9       1.0000 0.53254  0.33418  0.16594  Biso   1.000  O
  O10      1.0000 0.53233  0.17131  0.41639  Biso   1.000  O
  O11      1.0000 0.97245  0.84559  0.16906  Biso   1.000  O
  O12      1.0000 0.96409  0.67133  0.41539  Biso   1.000  O
  O13      1.0000 0.77509  0.24334  0.45645  Biso   1.000  O
  O14      1.0000 0.77709  0.25037  0.20662  Biso   1.000  O
  O15      1.0000 0.72017  0.74363  0.45701  Biso   1.000  O
  O16      1.0000 0.73112  0.74967  0.20571  Biso   1.000  O
  Hf8      1.0000 0.13975  0.04206  0.67080  Biso   1.000  Hf
  Hf9      1.0000 0.15114  0.45432  0.92129  Biso   1.000  Hf
  Hf10     1.0000 0.36290  0.54452  0.67035  Biso   1.000  Hf
  Hf11     1.0000 0.36009  0.95665  0.92509  Biso   1.000  Hf
  Hf12     1.0000 0.63593  0.03973  0.58106  Biso   1.000  Hf
  Hf13     1.0000 0.63998  0.45735  0.82929  Biso   1.000  Hf
  Hf14     1.0000 0.86138  0.53669  0.57987  Biso   1.000  Hf
  Hf15     1.0000 0.86720  0.95208  0.83052  Biso   1.000  Hf
  O17      1.0000 0.02988  0.31401  0.57322  Biso   1.000  O
  O18      1.0000 0.03492  0.17087  0.83219  Biso   1.000  O
  O19      1.0000 0.46486  0.83449  0.58184  Biso   1.000  O
  O20      1.0000 0.46979  0.67046  0.83156  Biso   1.000  O
  O21      1.0000 0.27789  0.24157  0.78969  Biso   1.000  O
  O22      1.0000 0.27615  0.25655  0.54474  Biso   1.000  O
  O23      1.0000 0.22508  0.74120  0.79260  Biso   1.000  O
  O24      1.0000 0.22215  0.75594  0.54218  Biso   1.000  O
  O25      1.0000 0.53555  0.33378  0.66592  Biso   1.000  O
  O26      1.0000 0.53903  0.16276  0.91402  Biso   1.000  O
  O27      1.0000 0.97069  0.81466  0.67134  Biso   1.000  O
  O28      1.0000 0.97258  0.66189  0.92776  Biso   1.000  O
  O29      1.0000 0.78260  0.24608  0.95889  Biso   1.000  O
  O30      1.0000 0.77884  0.24814  0.70691  Biso   1.000  O
  O31      1.0000 0.72818  0.74376  0.95770  Biso   1.000  O
  O32      1.0000 0.72635  0.75086  0.70667  Biso   1.000  O
