data_image0
_cell_length_a       10.1447
_cell_length_b       10.3499
_cell_length_c       10.4752
_cell_angle_alpha    89.7885
_cell_angle_beta     90.7055
_cell_angle_gamma    90.0816

_symmetry_space_group_name_H-M    "P 1"
_symmetry_int_tables_number       1

loop_
  _symmetry_equiv_pos_as_xyz
  'x, y, z'

loop_
  _atom_site_label
  _atom_site_occupancy
  _atom_site_fract_x
  _atom_site_fract_y
  _atom_site_fract_z
  _atom_site_thermal_displace_type
  _atom_site_B_iso_or_equiv
  _atom_site_type_symbol
  Zr1      1.0000 0.13656  0.01815  0.17232  Biso   1.000  Zr
  Zr2      1.0000 0.13913  0.22781  0.42240  Biso   1.000  Zr
  Zr3      1.0000 0.35028  0.27161  0.17825  Biso   1.000  Zr
  Zr4      1.0000 0.36396  0.47821  0.41987  Biso   1.000  Zr
  Zr5      1.0000 0.64101  0.01958  0.07721  Biso   1.000  Zr
  Zr6      1.0000 0.63751  0.22884  0.33019  Biso   1.000  Zr
  Zr7      1.0000 0.86444  0.27198  0.07778  Biso   1.000  Zr
  Zr8      1.0000 0.86027  0.47903  0.32861  Biso   1.000  Zr
  O1       1.0000 0.03380  0.16786  0.08732  Biso   1.000  O
  O2       1.0000 0.03293  0.08206  0.33629  Biso   1.000  O
  O3       1.0000 0.44512  0.45131  0.13318  Biso   1.000  O
  O4       1.0000 0.46090  0.32110  0.34814  Biso   1.000  O
  O5       1.0000 0.27295  0.12341  0.29777  Biso   1.000  O
  O6       1.0000 0.26914  0.11901  0.04827  Biso   1.000  O
  O7       1.0000 0.21873  0.37564  0.30063  Biso   1.000  O
  O8       1.0000 0.21451  0.37796  0.05044  Biso   1.000  O
  O9       1.0000 0.52974  0.17045  0.16487  Biso   1.000  O
  O10      1.0000 0.53647  0.07603  0.41211  Biso   1.000  O
  O11      1.0000 0.96437  0.41848  0.16611  Biso   1.000  O
  O12      1.0000 0.96742  0.33151  0.41409  Biso   1.000  O
  O13      1.0000 0.77637  0.12488  0.45341  Biso   1.000  O
  O14      1.0000 0.77293  0.12505  0.20297  Biso   1.000  O
  O15      1.0000 0.72576  0.37460  0.45428  Biso   1.000  O
  O16      1.0000 0.72215  0.37259  0.20456  Biso   1.000  O
  Zr9      1.0000 0.14142  0.01931  0.67270  Biso   1.000  Zr
  Zr10     1.0000 0.14135  0.22818  0.92238  Biso   1.000  Zr
  Zr11     1.0000 0.36450  0.26791  0.66752  Biso   1.000  Zr
  Zr12     1.0000 0.35397  0.48573  0.93401  Biso   1.000  Zr
  Zr13     1.0000 0.64156  0.01789  0.57755  Biso   1.000  Zr
  Zr14     1.0000 0.66002  0.22785  0.81842  Biso   1.000  Zr
  Zr15     1.0000 0.86703  0.27116  0.57612  Biso   1.000  Zr
  Zr16     1.0000 0.86862  0.48263  0.82853  Biso   1.000  Zr
  O17      1.0000 0.03734  0.16637  0.58635  Biso   1.000  O
  O18      1.0000 0.03918  0.07879  0.83720  Biso   1.000  O
  O19      1.0000 0.46904  0.41823  0.58801  Biso   1.000  O
  O20      1.0000 0.47917  0.33321  0.83009  Biso   1.000  O
  O21      1.0000 0.28048  0.12498  0.79543  Biso   1.000  O
  O22      1.0000 0.27865  0.12388  0.54612  Biso   1.000  O
  O23      1.0000 0.23481  0.37284  0.79895  Biso   1.000  O
  O24      1.0000 0.22772  0.37338  0.54738  Biso   1.000  O
  O25      1.0000 0.54153  0.16836  0.66121  Biso   1.000  O
  O26      1.0000 0.53495  0.07587  0.90782  Biso   1.000  O
  O27      1.0000 0.97255  0.41694  0.66423  Biso   1.000  O
  O28      1.0000 0.97166  0.32894  0.91148  Biso   1.000  O
  O29      1.0000 0.78112  0.12287  0.95229  Biso   1.000  O
  O30      1.0000 0.78593  0.12063  0.70052  Biso   1.000  O
  O31      1.0000 0.74371  0.38506  0.95157  Biso   1.000  O
  O32      1.0000 0.73269  0.37455  0.70159  Biso   1.000  O
  Zr17     1.0000 0.13645  0.52261  0.17468  Biso   1.000  Zr
  Zr18     1.0000 0.13942  0.72857  0.42324  Biso   1.000  Zr
  Zr19     1.0000 0.36375  0.77125  0.17412  Biso   1.000  Zr
  Zr20     1.0000 0.36268  0.97738  0.42291  Biso   1.000  Zr
  Zr21     1.0000 0.63256  0.51681  0.08103  Biso   1.000  Zr
  Zr22     1.0000 0.64019  0.72964  0.32854  Biso   1.000  Zr
  Zr23     1.0000 0.85917  0.76794  0.08023  Biso   1.000  Zr
  Zr24     1.0000 0.86171  0.97936  0.32885  Biso   1.000  Zr
  O33      1.0000 0.03256  0.66788  0.08684  Biso   1.000  O
  O34      1.0000 0.03204  0.58286  0.33821  Biso   1.000  O
  O35      1.0000 0.46647  0.92243  0.08974  Biso   1.000  O
  O36      1.0000 0.46664  0.82922  0.33982  Biso   1.000  O
  O37      1.0000 0.27372  0.62651  0.29721  Biso   1.000  O
  O38      1.0000 0.27217  0.62818  0.04706  Biso   1.000  O
  O39      1.0000 0.22572  0.87468  0.29753  Biso   1.000  O
  O40      1.0000 0.22546  0.87300  0.04779  Biso   1.000  O
  O41      1.0000 0.54004  0.67914  0.16035  Biso   1.000  O
  O42      1.0000 0.53602  0.57998  0.41225  Biso   1.000  O
  O43      1.0000 0.96444  0.91696  0.16430  Biso   1.000  O
  O44      1.0000 0.96758  0.83228  0.41583  Biso   1.000  O
  O45      1.0000 0.77692  0.62433  0.45560  Biso   1.000  O
  O46      1.0000 0.77474  0.62290  0.20556  Biso   1.000  O
  O47      1.0000 0.72744  0.87386  0.45606  Biso   1.000  O
  O48      1.0000 0.72507  0.87538  0.20608  Biso   1.000  O
  Zr25     1.0000 0.14453  0.51878  0.67256  Biso   1.000  Zr
  Zr26     1.0000 0.13880  0.73105  0.92238  Biso   1.000  Zr
  Zr27     1.0000 0.36370  0.76916  0.67344  Biso   1.000  Zr
  Zr28     1.0000 0.36118  0.97770  0.92352  Biso   1.000  Zr
  Zr29     1.0000 0.64066  0.52068  0.57813  Biso   1.000  Zr
  Zr30     1.0000 0.63952  0.72735  0.83028  Biso   1.000  Zr
  Zr31     1.0000 0.86466  0.76936  0.58006  Biso   1.000  Zr
  Zr32     1.0000 0.86593  0.97627  0.83001  Biso   1.000  Zr
  O49      1.0000 0.03740  0.66659  0.58850  Biso   1.000  O
  O50      1.0000 0.04110  0.57984  0.83865  Biso   1.000  O
  O51      1.0000 0.46870  0.91684  0.58850  Biso   1.000  O
  O52      1.0000 0.46685  0.82806  0.84028  Biso   1.000  O
  O53      1.0000 0.27771  0.62553  0.79749  Biso   1.000  O
  O54      1.0000 0.27826  0.62341  0.54628  Biso   1.000  O
  O55      1.0000 0.22650  0.87405  0.79694  Biso   1.000  O
  O56      1.0000 0.22680  0.87425  0.54737  Biso   1.000  O
  O57      1.0000 0.53565  0.66634  0.66561  Biso   1.000  O
  O58      1.0000 0.53062  0.57752  0.91799  Biso   1.000  O
  O59      1.0000 0.97005  0.91528  0.66601  Biso   1.000  O
  O60      1.0000 0.96592  0.82940  0.91532  Biso   1.000  O
  O61      1.0000 0.77415  0.62815  0.95445  Biso   1.000  O
  O62      1.0000 0.77755  0.62441  0.70496  Biso   1.000  O
  O63      1.0000 0.72541  0.87597  0.95635  Biso   1.000  O
  O64      1.0000 0.72755  0.87297  0.70691  Biso   1.000  O
  P1       1.0000 0.50185  0.28295  0.98605  Biso   1.000  P
