data_image0
_cell_length_a       10.4103
_cell_length_b       5.33053
_cell_length_c       10.326
_cell_angle_alpha    102.159
_cell_angle_beta     91.864
_cell_angle_gamma    88.2615

_symmetry_space_group_name_H-M    "P 1"
_symmetry_int_tables_number       1

loop_
  _symmetry_equiv_pos_as_xyz
  'x, y, z'

loop_
  _atom_site_label
  _atom_site_occupancy
  _atom_site_fract_x
  _atom_site_fract_y
  _atom_site_fract_z
  _atom_site_thermal_displace_type
  _atom_site_B_iso_or_equiv
  _atom_site_type_symbol
  Hf1      1.0000 0.13693  0.01464  0.10422  Biso   1.000  Hf
  Hf2      1.0000 0.08164  0.40065  0.42504  Biso   1.000  Hf
  Hf3      1.0000 0.38080  0.59780  0.08277  Biso   1.000  Hf
  Hf4      1.0000 0.40289  0.01788  0.37389  Biso   1.000  Hf
  O1       1.0000 0.00458  0.28993  0.03632  Biso   1.000  O
  O2       1.0000 0.03599  0.05506  0.28975  Biso   1.000  O
  O3       1.0000 0.95190  0.56666  0.28704  Biso   1.000  O
  O4       1.0000 0.99297  0.77372  0.01178  Biso   1.000  O
  O5       1.0000 0.38105  0.39840  0.37765  Biso   1.000  O
  O6       1.0000 0.25664  0.26543  0.98861  Biso   1.000  O
  O7       1.0000 0.24582  0.75699  0.95336  Biso   1.000  O
  O8       1.0000 0.30480  0.96417  0.19892  Biso   1.000  O
  Hf5      1.0000 0.13524  0.00906  0.61584  Biso   1.000  Hf
  Hf6      1.0000 0.10557  0.46089  0.87881  Biso   1.000  Hf
  Hf7      1.0000 0.35061  0.52997  0.58820  Biso   1.000  Hf
  Hf8      1.0000 0.39414  0.98143  0.87441  Biso   1.000  Hf
  O9       1.0000 0.97629  0.22369  0.53816  Biso   1.000  O
  O10      1.0000 0.03818  0.09217  0.79176  Biso   1.000  O
  O11      1.0000 0.95551  0.58607  0.77508  Biso   1.000  O
  O12      1.0000 0.97993  0.73529  0.53396  Biso   1.000  O
  O13      1.0000 0.20457  0.39162  0.71163  Biso   1.000  O
  O14      1.0000 0.23320  0.17967  0.48345  Biso   1.000  O
  O15      1.0000 0.20778  0.69273  0.47950  Biso   1.000  O
  O16      1.0000 0.28721  0.89269  0.70800  Biso   1.000  O
  Hf9      1.0000 0.65415  0.05550  0.10474  Biso   1.000  Hf
  Hf10     1.0000 0.57930  0.47031  0.37402  Biso   1.000  Hf
  Hf11     1.0000 0.84383  0.53642  0.10425  Biso   1.000  Hf
  Hf12     1.0000 0.88119  0.93287  0.39205  Biso   1.000  Hf
  O17      1.0000 0.50491  0.29885  0.01020  Biso   1.000  O
  O18      1.0000 0.55463  0.10676  0.27097  Biso   1.000  O
  O19      1.0000 0.48119  0.66385  0.24989  Biso   1.000  O
  O20      1.0000 0.50529  0.80584  0.00689  Biso   1.000  O
  O21      1.0000 0.70909  0.41148  0.20850  Biso   1.000  O
  O22      1.0000 0.75868  0.22539  0.96893  Biso   1.000  O
  O23      1.0000 0.74258  0.72540  0.96926  Biso   1.000  O
  O24      1.0000 0.79173  0.89883  0.21113  Biso   1.000  O
  Hf13     1.0000 0.63773  0.03280  0.60185  Biso   1.000  Hf
  Hf14     1.0000 0.60168  0.46311  0.87118  Biso   1.000  Hf
  Hf15     1.0000 0.83508  0.52595  0.60818  Biso   1.000  Hf
  Hf16     1.0000 0.89238  0.94927  0.87699  Biso   1.000  Hf
  O25      1.0000 0.50918  0.27897  0.53742  Biso   1.000  O
  O26      1.0000 0.53384  0.10288  0.77328  Biso   1.000  O
  O27      1.0000 0.45948  0.60804  0.77199  Biso   1.000  O
  O28      1.0000 0.48723  0.79222  0.51445  Biso   1.000  O
  O29      1.0000 0.71495  0.37536  0.71699  Biso   1.000  O
  O30      1.0000 0.74552  0.21818  0.46887  Biso   1.000  O
  O31      1.0000 0.73284  0.72070  0.46868  Biso   1.000  O
  O32      1.0000 0.77364  0.87776  0.71679  Biso   1.000  O
  Pb1      1.0000 0.14747  0.55974  0.20445  Biso   1.000  Pb
