data_image0
_cell_length_a       5.15279
_cell_length_b       10.4199
_cell_length_c       10.559
_cell_angle_alpha    89.1666
_cell_angle_beta     78.3608
_cell_angle_gamma    89.4474

_symmetry_space_group_name_H-M    "P 1"
_symmetry_int_tables_number       1

loop_
  _symmetry_equiv_pos_as_xyz
  'x, y, z'

loop_
  _atom_site_label
  _atom_site_occupancy
  _atom_site_fract_x
  _atom_site_fract_y
  _atom_site_fract_z
  _atom_site_thermal_displace_type
  _atom_site_B_iso_or_equiv
  _atom_site_type_symbol
  Hf1      1.0000 0.26012  0.00900  0.14703  Biso   1.000  Hf
  Hf2      1.0000 0.36298  0.24334  0.40788  Biso   1.000  Hf
  Hf3      1.0000 0.67749  0.26872  0.09996  Biso   1.000  Hf
  Hf4      1.0000 0.72139  0.49221  0.35560  Biso   1.000  Hf
  O1       1.0000 0.03452  0.15678  0.07317  Biso   1.000  O
  O2       1.0000 0.05927  0.03326  0.33553  Biso   1.000  O
  O3       1.0000 0.92507  0.43078  0.16424  Biso   1.000  O
  O4       1.0000 0.97630  0.37724  0.45490  Biso   1.000  O
  O5       1.0000 0.52412  0.11359  0.23968  Biso   1.000  O
  O6       1.0000 0.58468  0.11206  0.49424  Biso   1.000  O
  O7       1.0000 0.42394  0.38001  0.01135  Biso   1.000  O
  O8       1.0000 0.44490  0.38828  0.26066  Biso   1.000  O
  Hf5      1.0000 0.27817  0.02251  0.64430  Biso   1.000  Hf
  Hf6      1.0000 0.25915  0.22733  0.89529  Biso   1.000  Hf
  Hf7      1.0000 0.75183  0.27982  0.61439  Biso   1.000  Hf
  Hf8      1.0000 0.71476  0.47929  0.86066  Biso   1.000  Hf
  O9       1.0000 0.09348  0.17055  0.56986  Biso   1.000  O
  O10      1.0000 0.05345  0.08899  0.82212  Biso   1.000  O
  O11      1.0000 0.95060  0.40892  0.69295  Biso   1.000  O
  O12      1.0000 0.91433  0.33386  0.92976  Biso   1.000  O
  O13      1.0000 0.54226  0.13073  0.74120  Biso   1.000  O
  O14      1.0000 0.52659  0.12340  0.99002  Biso   1.000  O
  O15      1.0000 0.47985  0.38209  0.52055  Biso   1.000  O
  O16      1.0000 0.45645  0.37361  0.76558  Biso   1.000  O
  Hf9      1.0000 0.27118  0.52708  0.14600  Biso   1.000  Hf
  Hf10     1.0000 0.26387  0.72632  0.39831  Biso   1.000  Hf
  Hf11     1.0000 0.71243  0.76957  0.10070  Biso   1.000  Hf
  Hf12     1.0000 0.70079  0.96289  0.35270  Biso   1.000  Hf
  O17      1.0000 0.06318  0.67212  0.07551  Biso   1.000  O
  O18      1.0000 0.06046  0.59312  0.32198  Biso   1.000  O
  O19      1.0000 0.91134  0.91054  0.16588  Biso   1.000  O
  O20      1.0000 0.90421  0.81623  0.42305  Biso   1.000  O
  O21      1.0000 0.54738  0.63094  0.24287  Biso   1.000  O
  O22      1.0000 0.53389  0.62285  0.49378  Biso   1.000  O
  O23      1.0000 0.44262  0.87819  0.00648  Biso   1.000  O
  O24      1.0000 0.43237  0.86162  0.25562  Biso   1.000  O
  Hf13     1.0000 0.27497  0.52467  0.65282  Biso   1.000  Hf
  Hf14     1.0000 0.26654  0.73029  0.89576  Biso   1.000  Hf
  Hf15     1.0000 0.71803  0.77264  0.60678  Biso   1.000  Hf
  Hf16     1.0000 0.71507  0.98015  0.85066  Biso   1.000  Hf
  O25      1.0000 0.05277  0.66160  0.58308  Biso   1.000  O
  O26      1.0000 0.05963  0.58640  0.83201  Biso   1.000  O
  O27      1.0000 0.92723  0.91903  0.66890  Biso   1.000  O
  O28      1.0000 0.92592  0.83578  0.91654  Biso   1.000  O
  O29      1.0000 0.54308  0.62867  0.74225  Biso   1.000  O
  O30      1.0000 0.54416  0.62272  0.99126  Biso   1.000  O
  O31      1.0000 0.42942  0.87497  0.51148  Biso   1.000  O
  O32      1.0000 0.44476  0.87440  0.75959  Biso   1.000  O
  Pb1      1.0000 0.96163  0.24080  0.29004  Biso   1.000  Pb
