data_image0
_cell_length_a       10.0081
_cell_length_b       5.19447
_cell_length_c       9.94138
_cell_angle_alpha    90.3873
_cell_angle_beta     90.8087
_cell_angle_gamma    89.3396

_symmetry_space_group_name_H-M    "P 1"
_symmetry_int_tables_number       1

loop_
  _symmetry_equiv_pos_as_xyz
  'x, y, z'

loop_
  _atom_site_label
  _atom_site_occupancy
  _atom_site_fract_x
  _atom_site_fract_y
  _atom_site_fract_z
  _atom_site_thermal_displace_type
  _atom_site_B_iso_or_equiv
  _atom_site_type_symbol
  Pd1      1.0000 0.12856  0.07760  0.12471  Biso   1.000  Pd
  Hf1      1.0000 0.10316  0.03771  0.63673  Biso   1.000  Hf
  Hf2      1.0000 0.60219  0.03587  0.13491  Biso   1.000  Hf
  Hf3      1.0000 0.61093  0.03043  0.63045  Biso   1.000  Hf
  Hf4      1.0000 0.10564  0.52915  0.37169  Biso   1.000  Hf
  Hf5      1.0000 0.10971  0.54193  0.86734  Biso   1.000  Hf
  Hf6      1.0000 0.60307  0.53507  0.36572  Biso   1.000  Hf
  Hf7      1.0000 0.61018  0.53269  0.86743  Biso   1.000  Hf
  Hf8      1.0000 0.35533  0.48250  0.12984  Biso   1.000  Hf
  Hf9      1.0000 0.35790  0.46615  0.63136  Biso   1.000  Hf
  Hf10     1.0000 0.85441  0.45284  0.13623  Biso   1.000  Hf
  Hf11     1.0000 0.85383  0.46833  0.63647  Biso   1.000  Hf
  Hf12     1.0000 0.35193  0.97261  0.36304  Biso   1.000  Hf
  Hf13     1.0000 0.36119  0.96673  0.85803  Biso   1.000  Hf
  Hf14     1.0000 0.85652  0.95374  0.36418  Biso   1.000  Hf
  Hf15     1.0000 0.85898  0.97100  0.87159  Biso   1.000  Hf
  O1       1.0000 0.04391  0.37789  0.03806  Biso   1.000  O
  O2       1.0000 0.03014  0.36532  0.53442  Biso   1.000  O
  O3       1.0000 0.53587  0.37483  0.03596  Biso   1.000  O
  O4       1.0000 0.53630  0.36625  0.53416  Biso   1.000  O
  O5       1.0000 0.98091  0.17900  0.25150  Biso   1.000  O
  O6       1.0000 0.98306  0.24055  0.77373  Biso   1.000  O
  O7       1.0000 0.47777  0.24237  0.27019  Biso   1.000  O
  O8       1.0000 0.48469  0.23271  0.76644  Biso   1.000  O
  O9       1.0000 0.96541  0.67621  0.25533  Biso   1.000  O
  O10      1.0000 0.98396  0.73927  0.73462  Biso   1.000  O
  O11      1.0000 0.47628  0.74224  0.22763  Biso   1.000  O
  O12      1.0000 0.48516  0.73141  0.72735  Biso   1.000  O
  O13      1.0000 0.04250  0.87821  0.97241  Biso   1.000  O
  O14      1.0000 0.03694  0.86297  0.47051  Biso   1.000  O
  O15      1.0000 0.53979  0.86889  0.96247  Biso   1.000  O
  O16      1.0000 0.53213  0.87059  0.46254  Biso   1.000  O
  O17      1.0000 0.22941  0.27543  0.26211  Biso   1.000  O
  O18      1.0000 0.23412  0.26846  0.76932  Biso   1.000  O
  O19      1.0000 0.73154  0.26109  0.27442  Biso   1.000  O
  O20      1.0000 0.73358  0.26620  0.77009  Biso   1.000  O
  O21      1.0000 0.30156  0.12948  0.03298  Biso   1.000  O
  O22      1.0000 0.27971  0.14098  0.53043  Biso   1.000  O
  O23      1.0000 0.77902  0.12860  0.03483  Biso   1.000  O
  O24      1.0000 0.78916  0.13101  0.53719  Biso   1.000  O
  O25      1.0000 0.29199  0.63611  0.95766  Biso   1.000  O
  O26      1.0000 0.29120  0.63295  0.45646  Biso   1.000  O
  O27      1.0000 0.79335  0.62768  0.96422  Biso   1.000  O
  O28      1.0000 0.77719  0.63635  0.47046  Biso   1.000  O
  O29      1.0000 0.22010  0.78352  0.22531  Biso   1.000  O
  O30      1.0000 0.23396  0.76556  0.72352  Biso   1.000  O
  O31      1.0000 0.72536  0.76020  0.22772  Biso   1.000  O
  O32      1.0000 0.73409  0.76790  0.73426  Biso   1.000  O
