data_image0
_cell_length_a       10.0656
_cell_length_b       5.1493
_cell_length_c       10.5155
_cell_angle_alpha    89.5107
_cell_angle_beta     90.5241
_cell_angle_gamma    90.0441

_symmetry_space_group_name_H-M    "P 1"
_symmetry_int_tables_number       1

loop_
  _symmetry_equiv_pos_as_xyz
  'x, y, z'

loop_
  _atom_site_label
  _atom_site_occupancy
  _atom_site_fract_x
  _atom_site_fract_y
  _atom_site_fract_z
  _atom_site_thermal_displace_type
  _atom_site_B_iso_or_equiv
  _atom_site_type_symbol
  Hf1      1.0000 0.13774  0.04182  0.17166  Biso   1.000  Hf
  Hf2      1.0000 0.13861  0.45551  0.42453  Biso   1.000  Hf
  Hf3      1.0000 0.35154  0.54339  0.18015  Biso   1.000  Hf
  Hf4      1.0000 0.36370  0.95720  0.42421  Biso   1.000  Hf
  Hf5      1.0000 0.64225  0.05746  0.07895  Biso   1.000  Hf
  Hf6      1.0000 0.64085  0.45995  0.33210  Biso   1.000  Hf
  Hf7      1.0000 0.86235  0.54267  0.07888  Biso   1.000  Hf
  Hf8      1.0000 0.86396  0.96015  0.33081  Biso   1.000  Hf
  O1       1.0000 0.03293  0.32802  0.08318  Biso   1.000  O
  O2       1.0000 0.03350  0.17338  0.33262  Biso   1.000  O
  O3       1.0000 0.44968  0.88068  0.09877  Biso   1.000  O
  O4       1.0000 0.46783  0.67095  0.33516  Biso   1.000  O
  O5       1.0000 0.27326  0.25036  0.29842  Biso   1.000  O
  O6       1.0000 0.27440  0.25291  0.04545  Biso   1.000  O
  O7       1.0000 0.22215  0.75125  0.29950  Biso   1.000  O
  O8       1.0000 0.22050  0.74896  0.04683  Biso   1.000  O
  O9       1.0000 0.52220  0.30183  0.18611  Biso   1.000  O
  O10      1.0000 0.53353  0.17297  0.42207  Biso   1.000  O
  O11      1.0000 0.96826  0.82898  0.16880  Biso   1.000  O
  O12      1.0000 0.96868  0.67021  0.41920  Biso   1.000  O
  O13      1.0000 0.77732  0.24816  0.45503  Biso   1.000  O
  O14      1.0000 0.77709  0.26020  0.20707  Biso   1.000  O
  O15      1.0000 0.72610  0.74757  0.45796  Biso   1.000  O
  O16      1.0000 0.72892  0.76661  0.21175  Biso   1.000  O
  Hf9      1.0000 0.14202  0.03806  0.67272  Biso   1.000  Hf
  Hf10     1.0000 0.14001  0.45586  0.92246  Biso   1.000  Hf
  Hf11     1.0000 0.36352  0.53848  0.67354  Biso   1.000  Hf
  Hf12     1.0000 0.36140  0.95828  0.92279  Biso   1.000  Hf
  Hf13     1.0000 0.64121  0.03685  0.57828  Biso   1.000  Hf
  Hf14     1.0000 0.64420  0.44348  0.82051  Biso   1.000  Hf
  Hf15     1.0000 0.86482  0.54030  0.57927  Biso   1.000  Hf
  Hf16     1.0000 0.86706  0.95441  0.82820  Biso   1.000  Hf
  O17      1.0000 0.03467  0.32499  0.58363  Biso   1.000  O
  O18      1.0000 0.03731  0.16677  0.83222  Biso   1.000  O
  O19      1.0000 0.47018  0.82458  0.58409  Biso   1.000  O
  O20      1.0000 0.47010  0.66126  0.83316  Biso   1.000  O
  O21      1.0000 0.27896  0.24448  0.79624  Biso   1.000  O
  O22      1.0000 0.27763  0.24830  0.54688  Biso   1.000  O
  O23      1.0000 0.22708  0.74400  0.79666  Biso   1.000  O
  O24      1.0000 0.22682  0.74882  0.54728  Biso   1.000  O
  O25      1.0000 0.53447  0.32384  0.66592  Biso   1.000  O
  O26      1.0000 0.53888  0.14018  0.90850  Biso   1.000  O
  O27      1.0000 0.97156  0.82517  0.66707  Biso   1.000  O
  O28      1.0000 0.97062  0.66848  0.91784  Biso   1.000  O
  O29      1.0000 0.78691  0.24209  0.94977  Biso   1.000  O
  O30      1.0000 0.78010  0.24172  0.70103  Biso   1.000  O
  O31      1.0000 0.73123  0.75350  0.95496  Biso   1.000  O
  O32      1.0000 0.72880  0.74302  0.70552  Biso   1.000  O
  Pd1      1.0000 0.57194  0.56251  0.04753  Biso   1.000  Pd
