data_image0
_cell_length_a       10.0227
_cell_length_b       10.4332
_cell_length_c       10.0648
_cell_angle_alpha    90.2099
_cell_angle_beta     89.5402
_cell_angle_gamma    90.1771

_symmetry_space_group_name_H-M    "P 1"
_symmetry_int_tables_number       1

loop_
  _symmetry_equiv_pos_as_xyz
  'x, y, z'

loop_
  _atom_site_label
  _atom_site_occupancy
  _atom_site_fract_x
  _atom_site_fract_y
  _atom_site_fract_z
  _atom_site_thermal_displace_type
  _atom_site_B_iso_or_equiv
  _atom_site_type_symbol
  Pd1      1.0000 0.12646  0.03930  0.10230  Biso   1.000  Pd
  Zr1      1.0000 0.13457  0.01633  0.62887  Biso   1.000  Zr
  Zr2      1.0000 0.13334  0.51398  0.12606  Biso   1.000  Zr
  Zr3      1.0000 0.13395  0.51647  0.62567  Biso   1.000  Zr
  Zr4      1.0000 0.63468  0.01567  0.12668  Biso   1.000  Zr
  Zr5      1.0000 0.63143  0.01370  0.62137  Biso   1.000  Zr
  Zr6      1.0000 0.63542  0.51766  0.12821  Biso   1.000  Zr
  Zr7      1.0000 0.63325  0.51625  0.62512  Biso   1.000  Zr
  Zr8      1.0000 0.13521  0.23063  0.37509  Biso   1.000  Zr
  Zr9      1.0000 0.13128  0.24015  0.87288  Biso   1.000  Zr
  Zr10     1.0000 0.13620  0.73307  0.37672  Biso   1.000  Zr
  Zr11     1.0000 0.13189  0.73579  0.87856  Biso   1.000  Zr
  Zr12     1.0000 0.63394  0.23319  0.37706  Biso   1.000  Zr
  Zr13     1.0000 0.63195  0.23389  0.87385  Biso   1.000  Zr
  Zr14     1.0000 0.63622  0.73625  0.37563  Biso   1.000  Zr
  Zr15     1.0000 0.63195  0.73382  0.87661  Biso   1.000  Zr
  Zr16     1.0000 0.36802  0.26559  0.12661  Biso   1.000  Zr
  Zr17     1.0000 0.36637  0.26555  0.62557  Biso   1.000  Zr
  Zr18     1.0000 0.36647  0.76358  0.12835  Biso   1.000  Zr
  Zr19     1.0000 0.36607  0.76660  0.62874  Biso   1.000  Zr
  Zr20     1.0000 0.86155  0.26697  0.12373  Biso   1.000  Zr
  Zr21     1.0000 0.86532  0.26506  0.62385  Biso   1.000  Zr
  Zr22     1.0000 0.87317  0.76816  0.12339  Biso   1.000  Zr
  Zr23     1.0000 0.86765  0.76594  0.62344  Biso   1.000  Zr
  Zr24     1.0000 0.36707  0.48348  0.37635  Biso   1.000  Zr
  Zr25     1.0000 0.36577  0.48661  0.87580  Biso   1.000  Zr
  Zr26     1.0000 0.36360  0.98013  0.37455  Biso   1.000  Zr
  Zr27     1.0000 0.36411  0.98429  0.87941  Biso   1.000  Zr
  Zr28     1.0000 0.86655  0.48427  0.37580  Biso   1.000  Zr
  Zr29     1.0000 0.86448  0.48582  0.87455  Biso   1.000  Zr
  Zr30     1.0000 0.87262  0.98628  0.37190  Biso   1.000  Zr
  Zr31     1.0000 0.85936  0.98244  0.87164  Biso   1.000  Zr
  O1       1.0000 0.03702  0.18682  0.18633  Biso   1.000  O
  O2       1.0000 0.03443  0.18483  0.69582  Biso   1.000  O
  O3       1.0000 0.03741  0.68326  0.19455  Biso   1.000  O
  O4       1.0000 0.03532  0.68440  0.69578  Biso   1.000  O
  O5       1.0000 0.53295  0.18233  0.19793  Biso   1.000  O
  O6       1.0000 0.53526  0.18379  0.69358  Biso   1.000  O
  O7       1.0000 0.53653  0.68347  0.19808  Biso   1.000  O
  O8       1.0000 0.53356  0.68206  0.69779  Biso   1.000  O
  O9       1.0000 0.03629  0.06679  0.44899  Biso   1.000  O
  O10      1.0000 0.03442  0.06293  0.93212  Biso   1.000  O
  O11      1.0000 0.03533  0.56413  0.44624  Biso   1.000  O
  O12      1.0000 0.03346  0.56656  0.94572  Biso   1.000  O
  O13      1.0000 0.53530  0.06588  0.44389  Biso   1.000  O
  O14      1.0000 0.53168  0.06845  0.94882  Biso   1.000  O
  O15      1.0000 0.53692  0.56658  0.44448  Biso   1.000  O
  O16      1.0000 0.53402  0.56686  0.94807  Biso   1.000  O
  O17      1.0000 0.46564  0.43233  0.19439  Biso   1.000  O
  O18      1.0000 0.46423  0.43354  0.69583  Biso   1.000  O
  O19      1.0000 0.47140  0.93036  0.19806  Biso   1.000  O
  O20      1.0000 0.46371  0.93424  0.69874  Biso   1.000  O
  O21      1.0000 0.96445  0.43075  0.19534  Biso   1.000  O
  O22      1.0000 0.96426  0.43330  0.69412  Biso   1.000  O
  O23      1.0000 0.97499  0.94066  0.18837  Biso   1.000  O
  O24      1.0000 0.96317  0.93405  0.69252  Biso   1.000  O
  O25      1.0000 0.46523  0.31668  0.44578  Biso   1.000  O
  O26      1.0000 0.46095  0.31486  0.94380  Biso   1.000  O
  O27      1.0000 0.46979  0.81777  0.45291  Biso   1.000  O
  O28      1.0000 0.45917  0.81662  0.94350  Biso   1.000  O
  O29      1.0000 0.96408  0.31376  0.44140  Biso   1.000  O
  O30      1.0000 0.96192  0.31703  0.94333  Biso   1.000  O
  O31      1.0000 0.96583  0.81640  0.44236  Biso   1.000  O
  O32      1.0000 0.96030  0.81647  0.94037  Biso   1.000  O
  O33      1.0000 0.26052  0.10561  0.24739  Biso   1.000  O
  O34      1.0000 0.27022  0.11913  0.75114  Biso   1.000  O
  O35      1.0000 0.26881  0.60807  0.24869  Biso   1.000  O
  O36      1.0000 0.26806  0.61776  0.75079  Biso   1.000  O
  O37      1.0000 0.76982  0.11867  0.24786  Biso   1.000  O
  O38      1.0000 0.76656  0.11560  0.74647  Biso   1.000  O
  O39      1.0000 0.77250  0.61731  0.24935  Biso   1.000  O
  O40      1.0000 0.76817  0.61691  0.74914  Biso   1.000  O
  O41      1.0000 0.27126  0.13240  0.49842  Biso   1.000  O
  O42      1.0000 0.26317  0.13583  1.00000  Biso   1.000  O
  O43      1.0000 0.27157  0.63255  0.50023  Biso   1.000  O
  O44      1.0000 0.26709  0.63569  0.99975  Biso   1.000  O
  O45      1.0000 0.77013  0.13300  0.49728  Biso   1.000  O
  O46      1.0000 0.76867  0.13313  0.99637  Biso   1.000  O
  O47      1.0000 0.76916  0.63377  0.49916  Biso   1.000  O
  O48      1.0000 0.76918  0.63435  0.99975  Biso   1.000  O
  O49      1.0000 0.22973  0.38156  0.49909  Biso   1.000  O
  O50      1.0000 0.23007  0.38493  0.99859  Biso   1.000  O
  O51      1.0000 0.23017  0.88251  0.50559  Biso   1.000  O
  O52      1.0000 0.22574  0.89164  0.01144  Biso   1.000  O
  O53      1.0000 0.73126  0.38296  0.49953  Biso   1.000  O
  O54      1.0000 0.72837  0.38304  0.99899  Biso   1.000  O
  O55      1.0000 0.73430  0.88454  0.49632  Biso   1.000  O
  O56      1.0000 0.72637  0.88289  0.99729  Biso   1.000  O
  O57      1.0000 0.23250  0.36198  0.24930  Biso   1.000  O
  O58      1.0000 0.22971  0.36868  0.74854  Biso   1.000  O
  O59      1.0000 0.24865  0.84957  0.26295  Biso   1.000  O
  O60      1.0000 0.22928  0.86814  0.75519  Biso   1.000  O
  O61      1.0000 0.72860  0.36782  0.24937  Biso   1.000  O
  O62      1.0000 0.72983  0.36661  0.74869  Biso   1.000  O
  O63      1.0000 0.73940  0.86773  0.24671  Biso   1.000  O
  O64      1.0000 0.72854  0.86525  0.74670  Biso   1.000  O
