data_image0
_cell_length_a       9.97746
_cell_length_b       10.435
_cell_length_c       10.0555
_cell_angle_alpha    89.5504
_cell_angle_beta     90.2267
_cell_angle_gamma    90.1627

_symmetry_space_group_name_H-M    "P 1"
_symmetry_int_tables_number       1

loop_
  _symmetry_equiv_pos_as_xyz
  'x, y, z'

loop_
  _atom_site_label
  _atom_site_occupancy
  _atom_site_fract_x
  _atom_site_fract_y
  _atom_site_fract_z
  _atom_site_thermal_displace_type
  _atom_site_B_iso_or_equiv
  _atom_site_type_symbol
  Hf1      1.0000 0.13776  0.01386  0.12113  Biso   1.000  Hf
  Hf2      1.0000 0.13586  0.23200  0.38600  Biso   1.000  Hf
  Hf3      1.0000 0.37246  0.26645  0.12556  Biso   1.000  Hf
  Hf4      1.0000 0.36709  0.48304  0.37933  Biso   1.000  Hf
  O1       1.0000 0.01231  0.17076  0.20840  Biso   1.000  O
  O2       1.0000 0.04290  0.05782  0.43629  Biso   1.000  O
  O3       1.0000 0.46641  0.43447  0.19831  Biso   1.000  O
  O4       1.0000 0.46404  0.31644  0.45103  Biso   1.000  O
  O5       1.0000 0.26505  0.11794  0.24898  Biso   1.000  O
  O6       1.0000 0.27565  0.13062  0.49871  Biso   1.000  O
  O7       1.0000 0.22943  0.38101  0.50639  Biso   1.000  O
  O8       1.0000 0.23703  0.36918  0.26282  Biso   1.000  O
  Hf5      1.0000 0.13473  0.00568  0.61856  Biso   1.000  Hf
  Hf6      1.0000 0.12425  0.21572  0.84763  Biso   1.000  Hf
  Hf7      1.0000 0.36671  0.26546  0.62927  Biso   1.000  Hf
  Hf8      1.0000 0.36932  0.48594  0.87446  Biso   1.000  Hf
  O9       1.0000 0.04387  0.17706  0.66172  Biso   1.000  O
  O10      1.0000 0.03998  0.05387  0.93569  Biso   1.000  O
  O11      1.0000 0.45935  0.43521  0.69365  Biso   1.000  O
  O12      1.0000 0.47069  0.31742  0.94667  Biso   1.000  O
  O13      1.0000 0.26930  0.10878  0.74269  Biso   1.000  O
  O14      1.0000 0.28810  0.12450  0.99278  Biso   1.000  O
  O15      1.0000 0.24195  0.40071  0.00868  Biso   1.000  O
  O16      1.0000 0.22751  0.36502  0.75499  Biso   1.000  O
  Hf9      1.0000 0.13164  0.52953  0.13217  Biso   1.000  Hf
  Hf10     1.0000 0.13655  0.73604  0.37698  Biso   1.000  Hf
  Hf11     1.0000 0.36733  0.76701  0.12677  Biso   1.000  Hf
  Hf12     1.0000 0.36802  0.98496  0.37437  Biso   1.000  Hf
  O17      1.0000 0.03718  0.69068  0.19597  Biso   1.000  O
  O18      1.0000 0.04224  0.56816  0.43940  Biso   1.000  O
  O19      1.0000 0.46429  0.93517  0.19544  Biso   1.000  O
  O20      1.0000 0.46601  0.81645  0.44470  Biso   1.000  O
  O21      1.0000 0.27409  0.62132  0.25326  Biso   1.000  O
  O22      1.0000 0.27222  0.63229  0.50226  Biso   1.000  O
  O23      1.0000 0.23475  0.88005  0.49693  Biso   1.000  O
  O24      1.0000 0.23089  0.86901  0.24807  Biso   1.000  O
  Hf13     1.0000 0.13537  0.51853  0.62450  Biso   1.000  Hf
  Hf14     1.0000 0.13356  0.73436  0.87536  Biso   1.000  Hf
  Hf15     1.0000 0.36981  0.76549  0.62686  Biso   1.000  Hf
  Hf16     1.0000 0.37049  0.98204  0.87561  Biso   1.000  Hf
  O25      1.0000 0.03827  0.68607  0.69474  Biso   1.000  O
  O26      1.0000 0.03514  0.56053  0.94548  Biso   1.000  O
  O27      1.0000 0.46774  0.93139  0.69438  Biso   1.000  O
  O28      1.0000 0.46679  0.81627  0.94792  Biso   1.000  O
  O29      1.0000 0.27019  0.61672  0.75209  Biso   1.000  O
  O30      1.0000 0.26801  0.63924  0.00162  Biso   1.000  O
  O31      1.0000 0.23046  0.88173  0.99878  Biso   1.000  O
  O32      1.0000 0.23318  0.86336  0.74901  Biso   1.000  O
  Hf17     1.0000 0.63345  0.01532  0.12781  Biso   1.000  Hf
  Hf18     1.0000 0.63283  0.23226  0.38780  Biso   1.000  Hf
  Hf19     1.0000 0.84292  0.26677  0.14380  Biso   1.000  Hf
  Hf20     1.0000 0.86825  0.48383  0.38563  Biso   1.000  Hf
  O33      1.0000 0.53634  0.18260  0.19979  Biso   1.000  O
  O34      1.0000 0.53673  0.06516  0.44906  Biso   1.000  O
  O35      1.0000 0.95405  0.44241  0.20269  Biso   1.000  O
  O36      1.0000 0.96306  0.31391  0.44329  Biso   1.000  O
  O37      1.0000 0.76260  0.11697  0.25921  Biso   1.000  O
  O38      1.0000 0.77438  0.13239  0.50690  Biso   1.000  O
  O39      1.0000 0.72892  0.37976  0.50643  Biso   1.000  O
  O40      1.0000 0.72000  0.37118  0.26068  Biso   1.000  O
  Hf21     1.0000 0.63735  0.01582  0.62870  Biso   1.000  Hf
  Hf22     1.0000 0.63855  0.23285  0.87775  Biso   1.000  Hf
  Hf23     1.0000 0.86778  0.27191  0.63659  Biso   1.000  Hf
  Hf24     1.0000 0.86727  0.48311  0.86744  Biso   1.000  Hf
  O41      1.0000 0.53618  0.18242  0.69800  Biso   1.000  O
  O42      1.0000 0.54392  0.06375  0.94408  Biso   1.000  O
  O43      1.0000 0.95174  0.45305  0.66636  Biso   1.000  O
  O44      1.0000 0.94048  0.30069  0.84758  Biso   1.000  O
  O45      1.0000 0.77028  0.11604  0.75490  Biso   1.000  O
  O46      1.0000 0.77458  0.13374  0.00790  Biso   1.000  O
  O47      1.0000 0.74120  0.38270  0.00516  Biso   1.000  O
  O48      1.0000 0.71608  0.37434  0.75210  Biso   1.000  O
  Hf25     1.0000 0.63551  0.51941  0.12997  Biso   1.000  Hf
  Hf26     1.0000 0.63556  0.73385  0.37796  Biso   1.000  Hf
  Hf27     1.0000 0.86390  0.76655  0.12791  Biso   1.000  Hf
  Hf28     1.0000 0.86819  0.98291  0.37687  Biso   1.000  Hf
  O49      1.0000 0.53832  0.68529  0.19568  Biso   1.000  O
  O50      1.0000 0.53776  0.56687  0.44597  Biso   1.000  O
  O51      1.0000 0.96407  0.93351  0.19219  Biso   1.000  O
  O52      1.0000 0.96677  0.81606  0.44830  Biso   1.000  O
  O53      1.0000 0.77116  0.61939  0.25503  Biso   1.000  O
  O54      1.0000 0.77077  0.63340  0.50369  Biso   1.000  O
  O55      1.0000 0.73194  0.88266  0.50204  Biso   1.000  O
  O56      1.0000 0.73052  0.86862  0.25211  Biso   1.000  O
  Hf29     1.0000 0.63298  0.51677  0.62739  Biso   1.000  Hf
  Hf30     1.0000 0.63513  0.73283  0.87936  Biso   1.000  Hf
  Hf31     1.0000 0.86662  0.76627  0.62837  Biso   1.000  Hf
  Hf32     1.0000 0.86432  0.98001  0.87803  Biso   1.000  Hf
  O57      1.0000 0.53566  0.68166  0.69978  Biso   1.000  O
  O58      1.0000 0.53598  0.56649  0.94924  Biso   1.000  O
  O59      1.0000 0.96419  0.93313  0.69659  Biso   1.000  O
  O60      1.0000 0.96196  0.81087  0.94479  Biso   1.000  O
  O61      1.0000 0.77001  0.61930  0.75258  Biso   1.000  O
  O62      1.0000 0.76943  0.63285  0.00276  Biso   1.000  O
  O63      1.0000 0.72968  0.88191  0.00305  Biso   1.000  O
  O64      1.0000 0.73074  0.86622  0.75236  Biso   1.000  O
  Pt1      1.0000 0.10050  0.28704  0.08339  Biso   1.000  Pt
