data_image0
_cell_length_a       10.1172
_cell_length_b       10.3491
_cell_length_c       10.537
_cell_angle_alpha    89.667
_cell_angle_beta     90.0999
_cell_angle_gamma    90.0731

_symmetry_space_group_name_H-M    "P 1"
_symmetry_int_tables_number       1

loop_
  _symmetry_equiv_pos_as_xyz
  'x, y, z'

loop_
  _atom_site_label
  _atom_site_occupancy
  _atom_site_fract_x
  _atom_site_fract_y
  _atom_site_fract_z
  _atom_site_thermal_displace_type
  _atom_site_B_iso_or_equiv
  _atom_site_type_symbol
  Zr1      1.0000 0.13796  0.02032  0.17119  Biso   1.000  Zr
  Zr2      1.0000 0.13672  0.22807  0.42443  Biso   1.000  Zr
  Zr3      1.0000 0.34826  0.27104  0.17803  Biso   1.000  Zr
  Zr4      1.0000 0.36343  0.47921  0.42065  Biso   1.000  Zr
  Zr5      1.0000 0.64314  0.01908  0.07171  Biso   1.000  Zr
  Zr6      1.0000 0.64061  0.22881  0.33111  Biso   1.000  Zr
  Zr7      1.0000 0.86168  0.26963  0.08111  Biso   1.000  Zr
  Zr8      1.0000 0.86505  0.48131  0.33314  Biso   1.000  Zr
  O1       1.0000 0.03299  0.16487  0.08414  Biso   1.000  O
  O2       1.0000 0.03141  0.08551  0.33374  Biso   1.000  O
  O3       1.0000 0.44966  0.44256  0.10163  Biso   1.000  O
  O4       1.0000 0.46693  0.33226  0.33318  Biso   1.000  O
  O5       1.0000 0.27084  0.12559  0.29777  Biso   1.000  O
  O6       1.0000 0.27438  0.12463  0.04442  Biso   1.000  O
  O7       1.0000 0.22143  0.37595  0.29832  Biso   1.000  O
  O8       1.0000 0.22181  0.37495  0.04453  Biso   1.000  O
  O9       1.0000 0.51402  0.14326  0.17972  Biso   1.000  O
  O10      1.0000 0.53321  0.08548  0.41949  Biso   1.000  O
  O11      1.0000 0.97008  0.41420  0.16881  Biso   1.000  O
  O12      1.0000 0.96838  0.33640  0.42061  Biso   1.000  O
  O13      1.0000 0.77591  0.12480  0.45528  Biso   1.000  O
  O14      1.0000 0.77536  0.12537  0.20833  Biso   1.000  O
  O15      1.0000 0.72465  0.37294  0.45888  Biso   1.000  O
  O16      1.0000 0.73311  0.38607  0.21547  Biso   1.000  O
  Zr9      1.0000 0.14098  0.02016  0.67175  Biso   1.000  Zr
  Zr10     1.0000 0.13841  0.22764  0.92088  Biso   1.000  Zr
  Zr11     1.0000 0.36144  0.27170  0.67185  Biso   1.000  Zr
  Zr12     1.0000 0.36077  0.48086  0.92184  Biso   1.000  Zr
  Zr13     1.0000 0.63964  0.01986  0.57898  Biso   1.000  Zr
  Zr14     1.0000 0.63991  0.22168  0.82223  Biso   1.000  Zr
  Zr15     1.0000 0.86171  0.27072  0.58067  Biso   1.000  Zr
  Zr16     1.0000 0.86312  0.47936  0.82963  Biso   1.000  Zr
  O17      1.0000 0.03267  0.16411  0.58467  Biso   1.000  O
  O18      1.0000 0.03583  0.08323  0.83229  Biso   1.000  O
  O19      1.0000 0.46832  0.41558  0.58227  Biso   1.000  O
  O20      1.0000 0.46881  0.33616  0.83133  Biso   1.000  O
  O21      1.0000 0.27771  0.12404  0.79493  Biso   1.000  O
  O22      1.0000 0.27574  0.12526  0.54580  Biso   1.000  O
  O23      1.0000 0.22452  0.37342  0.79591  Biso   1.000  O
  O24      1.0000 0.22572  0.37524  0.54614  Biso   1.000  O
  O25      1.0000 0.53302  0.16631  0.66282  Biso   1.000  O
  O26      1.0000 0.54054  0.06366  0.89830  Biso   1.000  O
  O27      1.0000 0.96826  0.41471  0.66850  Biso   1.000  O
  O28      1.0000 0.96561  0.33439  0.91798  Biso   1.000  O
  O29      1.0000 0.78957  0.11763  0.94863  Biso   1.000  O
  O30      1.0000 0.77724  0.12202  0.70142  Biso   1.000  O
  O31      1.0000 0.72036  0.37538  0.95769  Biso   1.000  O
  O32      1.0000 0.72696  0.37387  0.70690  Biso   1.000  O
  Zr17     1.0000 0.13903  0.52229  0.17066  Biso   1.000  Zr
  Zr18     1.0000 0.14053  0.72939  0.42117  Biso   1.000  Zr
  Zr19     1.0000 0.36109  0.77394  0.17124  Biso   1.000  Zr
  Zr20     1.0000 0.36223  0.97943  0.42277  Biso   1.000  Zr
  Zr21     1.0000 0.63915  0.53230  0.08579  Biso   1.000  Zr
  Zr22     1.0000 0.63999  0.73291  0.33101  Biso   1.000  Zr
  Zr23     1.0000 0.86319  0.77205  0.08011  Biso   1.000  Zr
  Zr24     1.0000 0.86163  0.97945  0.32965  Biso   1.000  Zr
  O33      1.0000 0.03282  0.66462  0.08260  Biso   1.000  O
  O34      1.0000 0.03539  0.58742  0.33187  Biso   1.000  O
  O35      1.0000 0.46808  0.91463  0.08002  Biso   1.000  O
  O36      1.0000 0.46765  0.83672  0.33462  Biso   1.000  O
  O37      1.0000 0.27751  0.62546  0.29429  Biso   1.000  O
  O38      1.0000 0.27490  0.62825  0.04331  Biso   1.000  O
  O39      1.0000 0.22586  0.87590  0.29549  Biso   1.000  O
  O40      1.0000 0.22366  0.87552  0.04555  Biso   1.000  O
  O41      1.0000 0.53694  0.67630  0.16646  Biso   1.000  O
  O42      1.0000 0.53476  0.58439  0.41487  Biso   1.000  O
  O43      1.0000 0.96839  0.91514  0.16777  Biso   1.000  O
  O44      1.0000 0.96833  0.83397  0.41695  Biso   1.000  O
  O45      1.0000 0.77620  0.62481  0.45700  Biso   1.000  O
  O46      1.0000 0.77768  0.63088  0.20816  Biso   1.000  O
  O47      1.0000 0.72587  0.87507  0.45625  Biso   1.000  O
  O48      1.0000 0.72646  0.87787  0.20553  Biso   1.000  O
  Zr25     1.0000 0.13966  0.51980  0.67103  Biso   1.000  Zr
  Zr26     1.0000 0.13949  0.72888  0.92098  Biso   1.000  Zr
  Zr27     1.0000 0.36278  0.76886  0.67103  Biso   1.000  Zr
  Zr28     1.0000 0.36269  0.97657  0.91947  Biso   1.000  Zr
  Zr29     1.0000 0.63992  0.51994  0.57925  Biso   1.000  Zr
  Zr30     1.0000 0.63934  0.72746  0.82866  Biso   1.000  Zr
  Zr31     1.0000 0.86362  0.77034  0.57941  Biso   1.000  Zr
  Zr32     1.0000 0.86410  0.97613  0.82782  Biso   1.000  Zr
  O49      1.0000 0.03395  0.66357  0.58260  Biso   1.000  O
  O50      1.0000 0.03289  0.58502  0.83255  Biso   1.000  O
  O51      1.0000 0.46825  0.91455  0.58479  Biso   1.000  O
  O52      1.0000 0.46490  0.82571  0.83461  Biso   1.000  O
  O53      1.0000 0.27575  0.62217  0.79474  Biso   1.000  O
  O54      1.0000 0.27670  0.62453  0.54438  Biso   1.000  O
  O55      1.0000 0.22603  0.87315  0.79459  Biso   1.000  O
  O56      1.0000 0.22627  0.87491  0.54501  Biso   1.000  O
  O57      1.0000 0.53398  0.66380  0.66588  Biso   1.000  O
  O58      1.0000 0.53530  0.58164  0.91841  Biso   1.000  O
  O59      1.0000 0.97075  0.91319  0.66561  Biso   1.000  O
  O60      1.0000 0.96958  0.83462  0.91785  Biso   1.000  O
  O61      1.0000 0.77702  0.62413  0.95713  Biso   1.000  O
  O62      1.0000 0.77642  0.62395  0.70601  Biso   1.000  O
  O63      1.0000 0.72640  0.87053  0.95530  Biso   1.000  O
  O64      1.0000 0.72627  0.87313  0.70516  Biso   1.000  O
  Pt1      1.0000 0.58148  0.27560  0.06075  Biso   1.000  Pt
