data_image0
_cell_length_a       10.1074
_cell_length_b       10.2627
_cell_length_c       5.2482
_cell_angle_alpha    90.0527
_cell_angle_beta     90.5445
_cell_angle_gamma    89.381

_symmetry_space_group_name_H-M    "P 1"
_symmetry_int_tables_number       1

loop_
  _symmetry_equiv_pos_as_xyz
  'x, y, z'

loop_
  _atom_site_label
  _atom_site_occupancy
  _atom_site_fract_x
  _atom_site_fract_y
  _atom_site_fract_z
  _atom_site_thermal_displace_type
  _atom_site_B_iso_or_equiv
  _atom_site_type_symbol
  Pt1      1.0000 0.12477  0.00819  0.37717  Biso   1.000  Pt
  Zr1      1.0000 0.14486  0.22871  0.83724  Biso   1.000  Zr
  Zr2      1.0000 0.35998  0.27133  0.33225  Biso   1.000  Zr
  Zr3      1.0000 0.36128  0.47983  0.84214  Biso   1.000  Zr
  Zr4      1.0000 0.63819  0.02200  0.15725  Biso   1.000  Zr
  Zr5      1.0000 0.63889  0.23014  0.65847  Biso   1.000  Zr
  Zr6      1.0000 0.86915  0.26505  0.16771  Biso   1.000  Zr
  Zr7      1.0000 0.86331  0.47604  0.66503  Biso   1.000  Zr
  O1       1.0000 0.04445  0.15341  0.16655  Biso   1.000  O
  O2       1.0000 0.02969  0.08757  0.65984  Biso   1.000  O
  O3       1.0000 0.46701  0.41789  0.16803  Biso   1.000  O
  O4       1.0000 0.46751  0.33403  0.66680  Biso   1.000  O
  O5       1.0000 0.27159  0.11485  0.54984  Biso   1.000  O
  O6       1.0000 0.30142  0.14956  0.03592  Biso   1.000  O
  O7       1.0000 0.22644  0.37328  0.58994  Biso   1.000  O
  O8       1.0000 0.22133  0.38370  0.08910  Biso   1.000  O
  O9       1.0000 0.53594  0.16938  0.32571  Biso   1.000  O
  O10      1.0000 0.53807  0.07950  0.82034  Biso   1.000  O
  O11      1.0000 0.97114  0.41107  0.34594  Biso   1.000  O
  O12      1.0000 0.97079  0.33234  0.84968  Biso   1.000  O
  O13      1.0000 0.77809  0.12242  0.91376  Biso   1.000  O
  O14      1.0000 0.77640  0.12433  0.41245  Biso   1.000  O
  O15      1.0000 0.72804  0.37171  0.91636  Biso   1.000  O
  O16      1.0000 0.72841  0.37378  0.41409  Biso   1.000  O
  Zr8      1.0000 0.13927  0.52287  0.34640  Biso   1.000  Zr
  Zr9      1.0000 0.13572  0.73043  0.84835  Biso   1.000  Zr
  Zr10     1.0000 0.35973  0.77596  0.34068  Biso   1.000  Zr
  Zr11     1.0000 0.36093  0.98386  0.84297  Biso   1.000  Zr
  Zr12     1.0000 0.63946  0.51866  0.15970  Biso   1.000  Zr
  Zr13     1.0000 0.63577  0.72699  0.65749  Biso   1.000  Zr
  Zr14     1.0000 0.85757  0.76833  0.15835  Biso   1.000  Zr
  Zr15     1.0000 0.85439  0.97698  0.66279  Biso   1.000  Zr
  O17      1.0000 0.03146  0.66595  0.17159  Biso   1.000  O
  O18      1.0000 0.03301  0.58435  0.67496  Biso   1.000  O
  O19      1.0000 0.46710  0.91727  0.16574  Biso   1.000  O
  O20      1.0000 0.46220  0.83287  0.66845  Biso   1.000  O
  O21      1.0000 0.27447  0.62644  0.59151  Biso   1.000  O
  O22      1.0000 0.27592  0.63254  0.09107  Biso   1.000  O
  O23      1.0000 0.21605  0.87333  0.59211  Biso   1.000  O
  O24      1.0000 0.21914  0.89083  0.09744  Biso   1.000  O
  O25      1.0000 0.53194  0.66705  0.32890  Biso   1.000  O
  O26      1.0000 0.53351  0.58242  0.83059  Biso   1.000  O
  O27      1.0000 0.95843  0.91602  0.32604  Biso   1.000  O
  O28      1.0000 0.96371  0.83414  0.83279  Biso   1.000  O
  O29      1.0000 0.77524  0.62221  0.91272  Biso   1.000  O
  O30      1.0000 0.77499  0.62360  0.41388  Biso   1.000  O
  O31      1.0000 0.72071  0.87180  0.91089  Biso   1.000  O
  O32      1.0000 0.72255  0.87497  0.41295  Biso   1.000  O
