data_image0
_cell_length_a       10.0999
_cell_length_b       5.13055
_cell_length_c       10.0997
_cell_angle_alpha    90.0016
_cell_angle_beta     89.9889
_cell_angle_gamma    90.0014

_symmetry_space_group_name_H-M    "P 1"
_symmetry_int_tables_number       1

loop_
  _symmetry_equiv_pos_as_xyz
  'x, y, z'

loop_
  _atom_site_label
  _atom_site_occupancy
  _atom_site_fract_x
  _atom_site_fract_y
  _atom_site_fract_z
  _atom_site_thermal_displace_type
  _atom_site_B_iso_or_equiv
  _atom_site_type_symbol
  Rb1      1.0000 0.12569  0.00334  0.12568  Biso   1.000  Rb
  Hf1      1.0000 0.12568  0.00327  0.62568  Biso   1.000  Hf
  Hf2      1.0000 0.62568  0.00326  0.12568  Biso   1.000  Hf
  Hf3      1.0000 0.62568  0.00335  0.62567  Biso   1.000  Hf
  Hf4      1.0000 0.12588  0.50340  0.37816  Biso   1.000  Hf
  Hf5      1.0000 0.12548  0.50340  0.87320  Biso   1.000  Hf
  Hf6      1.0000 0.62574  0.50331  0.37556  Biso   1.000  Hf
  Hf7      1.0000 0.62561  0.50331  0.87579  Biso   1.000  Hf
  Hf8      1.0000 0.37816  0.50338  0.12587  Biso   1.000  Hf
  Hf9      1.0000 0.37557  0.50333  0.62575  Biso   1.000  Hf
  Hf10     1.0000 0.87320  0.50342  0.12548  Biso   1.000  Hf
  Hf11     1.0000 0.87578  0.50331  0.62561  Biso   1.000  Hf
  Hf12     1.0000 0.37803  0.00882  0.37804  Biso   1.000  Hf
  Hf13     1.0000 0.37800  0.99803  0.87338  Biso   1.000  Hf
  Hf14     1.0000 0.87339  0.99803  0.37799  Biso   1.000  Hf
  Hf15     1.0000 0.87331  0.00880  0.87333  Biso   1.000  Hf
  O1       1.0000 0.99212  0.30368  0.99212  Biso   1.000  O
  O2       1.0000 0.00681  0.29987  0.51084  Biso   1.000  O
  O3       1.0000 0.51083  0.29986  0.00680  Biso   1.000  O
  O4       1.0000 0.50366  0.30145  0.50366  Biso   1.000  O
  O5       1.0000 0.98449  0.24711  0.26686  Biso   1.000  O
  O6       1.0000 0.99803  0.20544  0.75194  Biso   1.000  O
  O7       1.0000 0.49940  0.20543  0.25330  Biso   1.000  O
  O8       1.0000 0.49962  0.20682  0.75170  Biso   1.000  O
  O9       1.0000 0.99248  0.70254  0.25888  Biso   1.000  O
  O10      1.0000 0.00686  0.70676  0.74018  Biso   1.000  O
  O11      1.0000 0.51118  0.70675  0.24448  Biso   1.000  O
  O12      1.0000 0.50354  0.70540  0.74781  Biso   1.000  O
  O13      1.0000 0.98420  0.75965  0.98417  Biso   1.000  O
  O14      1.0000 0.99822  0.80132  0.49908  Biso   1.000  O
  O15      1.0000 0.49912  0.80131  0.99818  Biso   1.000  O
  O16      1.0000 0.49970  0.79985  0.49967  Biso   1.000  O
  O17      1.0000 0.25924  0.30368  0.25923  Biso   1.000  O
  O18      1.0000 0.24452  0.29993  0.74049  Biso   1.000  O
  O19      1.0000 0.74049  0.29992  0.24451  Biso   1.000  O
  O20      1.0000 0.74767  0.30144  0.74766  Biso   1.000  O
  O21      1.0000 0.26686  0.24709  0.98448  Biso   1.000  O
  O22      1.0000 0.25330  0.20549  0.49939  Biso   1.000  O
  O23      1.0000 0.75193  0.20549  0.99802  Biso   1.000  O
  O24      1.0000 0.75171  0.20682  0.49961  Biso   1.000  O
  O25      1.0000 0.25890  0.70253  0.99246  Biso   1.000  O
  O26      1.0000 0.24453  0.70681  0.51115  Biso   1.000  O
  O27      1.0000 0.74023  0.70682  0.00681  Biso   1.000  O
  O28      1.0000 0.74785  0.70539  0.50351  Biso   1.000  O
  O29      1.0000 0.26719  0.75962  0.26716  Biso   1.000  O
  O30      1.0000 0.25316  0.80136  0.75226  Biso   1.000  O
  O31      1.0000 0.75229  0.80137  0.25312  Biso   1.000  O
  O32      1.0000 0.75168  0.79985  0.75164  Biso   1.000  O
