data_image0
_cell_length_a       9.99492
_cell_length_b       10.4015
_cell_length_c       10.082
_cell_angle_alpha    90.0479
_cell_angle_beta     89.7013
_cell_angle_gamma    89.8879

_symmetry_space_group_name_H-M    "P 1"
_symmetry_int_tables_number       1

loop_
  _symmetry_equiv_pos_as_xyz
  'x, y, z'

loop_
  _atom_site_label
  _atom_site_occupancy
  _atom_site_fract_x
  _atom_site_fract_y
  _atom_site_fract_z
  _atom_site_thermal_displace_type
  _atom_site_B_iso_or_equiv
  _atom_site_type_symbol
  Rb1      1.0000 0.08612  0.99141  0.13650  Biso   1.000  Rb
  Hf1      1.0000 0.13453  0.01957  0.63035  Biso   1.000  Hf
  Hf2      1.0000 0.14029  0.51657  0.13102  Biso   1.000  Hf
  Hf3      1.0000 0.13641  0.51786  0.62580  Biso   1.000  Hf
  Hf4      1.0000 0.63523  0.01975  0.11692  Biso   1.000  Hf
  Hf5      1.0000 0.62873  0.01693  0.62528  Biso   1.000  Hf
  Hf6      1.0000 0.62910  0.51351  0.12603  Biso   1.000  Hf
  Hf7      1.0000 0.63421  0.51621  0.62551  Biso   1.000  Hf
  Hf8      1.0000 0.13816  0.23532  0.37771  Biso   1.000  Hf
  Hf9      1.0000 0.13780  0.23309  0.87424  Biso   1.000  Hf
  Hf10     1.0000 0.14077  0.73485  0.38201  Biso   1.000  Hf
  Hf11     1.0000 0.14477  0.73448  0.87595  Biso   1.000  Hf
  Hf12     1.0000 0.63308  0.23320  0.37220  Biso   1.000  Hf
  Hf13     1.0000 0.63405  0.23323  0.87364  Biso   1.000  Hf
  Hf14     1.0000 0.63143  0.72893  0.37662  Biso   1.000  Hf
  Hf15     1.0000 0.63108  0.73422  0.87198  Biso   1.000  Hf
  Hf16     1.0000 0.36157  0.26155  0.12703  Biso   1.000  Hf
  Hf17     1.0000 0.36655  0.26630  0.62584  Biso   1.000  Hf
  Hf18     1.0000 0.36853  0.76533  0.12603  Biso   1.000  Hf
  Hf19     1.0000 0.36784  0.77074  0.62614  Biso   1.000  Hf
  Hf20     1.0000 0.86359  0.26983  0.12518  Biso   1.000  Hf
  Hf21     1.0000 0.86783  0.27094  0.62243  Biso   1.000  Hf
  Hf22     1.0000 0.88705  0.72767  0.08746  Biso   1.000  Hf
  Hf23     1.0000 0.86916  0.76421  0.62348  Biso   1.000  Hf
  Hf24     1.0000 0.36775  0.48205  0.37657  Biso   1.000  Hf
  Hf25     1.0000 0.36688  0.48060  0.87695  Biso   1.000  Hf
  Hf26     1.0000 0.36545  0.98568  0.37244  Biso   1.000  Hf
  Hf27     1.0000 0.36136  0.98574  0.88110  Biso   1.000  Hf
  Hf28     1.0000 0.86689  0.48689  0.37500  Biso   1.000  Hf
  Hf29     1.0000 0.86443  0.47838  0.87325  Biso   1.000  Hf
  Hf30     1.0000 0.86396  0.99060  0.39618  Biso   1.000  Hf
  Hf31     1.0000 0.86213  0.98390  0.86497  Biso   1.000  Hf
  O1       1.0000 0.02801  0.21130  0.20879  Biso   1.000  O
  O2       1.0000 0.04237  0.19408  0.67960  Biso   1.000  O
  O3       1.0000 0.04777  0.69426  0.19909  Biso   1.000  O
  O4       1.0000 0.03791  0.68432  0.69817  Biso   1.000  O
  O5       1.0000 0.54246  0.18551  0.18861  Biso   1.000  O
  O6       1.0000 0.53671  0.18547  0.69340  Biso   1.000  O
  O7       1.0000 0.53594  0.68005  0.19967  Biso   1.000  O
  O8       1.0000 0.53563  0.68347  0.69402  Biso   1.000  O
  O9       1.0000 0.03766  0.06739  0.44161  Biso   1.000  O
  O10      1.0000 0.03637  0.06885  0.89140  Biso   1.000  O
  O11      1.0000 0.03650  0.56825  0.44764  Biso   1.000  O
  O12      1.0000 0.01517  0.58640  0.96648  Biso   1.000  O
  O13      1.0000 0.53792  0.06624  0.44419  Biso   1.000  O
  O14      1.0000 0.54013  0.06562  0.93946  Biso   1.000  O
  O15      1.0000 0.53736  0.56557  0.44535  Biso   1.000  O
  O16      1.0000 0.52921  0.56886  0.94843  Biso   1.000  O
  O17      1.0000 0.46418  0.42946  0.19717  Biso   1.000  O
  O18      1.0000 0.46600  0.43405  0.69526  Biso   1.000  O
  O19      1.0000 0.47364  0.93252  0.19574  Biso   1.000  O
  O20      1.0000 0.46460  0.93435  0.69949  Biso   1.000  O
  O21      1.0000 0.96095  0.44527  0.19245  Biso   1.000  O
  O22      1.0000 0.96720  0.43628  0.69839  Biso   1.000  O
  O23      1.0000 0.85939  0.87642  0.22406  Biso   1.000  O
  O24      1.0000 0.95607  0.93757  0.67856  Biso   1.000  O
  O25      1.0000 0.46653  0.31553  0.44539  Biso   1.000  O
  O26      1.0000 0.46581  0.31658  0.94330  Biso   1.000  O
  O27      1.0000 0.47022  0.81819  0.45173  Biso   1.000  O
  O28      1.0000 0.47179  0.82086  0.94791  Biso   1.000  O
  O29      1.0000 0.96614  0.32321  0.44717  Biso   1.000  O
  O30      1.0000 0.96778  0.32099  0.94633  Biso   1.000  O
  O31      1.0000 0.97135  0.82051  0.44831  Biso   1.000  O
  O32      1.0000 0.97461  0.82668  0.93769  Biso   1.000  O
  O33      1.0000 0.28447  0.13051  0.26013  Biso   1.000  O
  O34      1.0000 0.27496  0.12008  0.74855  Biso   1.000  O
  O35      1.0000 0.27398  0.61262  0.25211  Biso   1.000  O
  O36      1.0000 0.27184  0.61847  0.75179  Biso   1.000  O
  O37      1.0000 0.77649  0.11387  0.24928  Biso   1.000  O
  O38      1.0000 0.76897  0.11920  0.74501  Biso   1.000  O
  O39      1.0000 0.77055  0.61780  0.24279  Biso   1.000  O
  O40      1.0000 0.77195  0.61623  0.74543  Biso   1.000  O
  O41      1.0000 0.27062  0.13135  0.50426  Biso   1.000  O
  O42      1.0000 0.27546  0.13685  0.99346  Biso   1.000  O
  O43      1.0000 0.27430  0.63280  0.50289  Biso   1.000  O
  O44      1.0000 0.26877  0.62593  0.00163  Biso   1.000  O
  O45      1.0000 0.76829  0.13696  0.50063  Biso   1.000  O
  O46      1.0000 0.77718  0.13130  0.99625  Biso   1.000  O
  O47      1.0000 0.77108  0.63382  0.49572  Biso   1.000  O
  O48      1.0000 0.75885  0.61974  0.98888  Biso   1.000  O
  O49      1.0000 0.23266  0.38388  0.50070  Biso   1.000  O
  O50      1.0000 0.22869  0.38356  0.00178  Biso   1.000  O
  O51      1.0000 0.23187  0.88594  0.50416  Biso   1.000  O
  O52      1.0000 0.24169  0.86805  0.99456  Biso   1.000  O
  O53      1.0000 0.73053  0.38485  0.49844  Biso   1.000  O
  O54      1.0000 0.72693  0.38007  0.99770  Biso   1.000  O
  O55      1.0000 0.73015  0.88114  0.50055  Biso   1.000  O
  O56      1.0000 0.73681  0.87239  0.99848  Biso   1.000  O
  O57      1.0000 0.22837  0.37131  0.25174  Biso   1.000  O
  O58      1.0000 0.23072  0.36949  0.74960  Biso   1.000  O
  O59      1.0000 0.25245  0.85299  0.26370  Biso   1.000  O
  O60      1.0000 0.22872  0.87136  0.74985  Biso   1.000  O
  O61      1.0000 0.73044  0.36861  0.24995  Biso   1.000  O
  O62      1.0000 0.73086  0.36829  0.74859  Biso   1.000  O
  O63      1.0000 0.71641  0.87742  0.24632  Biso   1.000  O
  O64      1.0000 0.72951  0.86608  0.74680  Biso   1.000  O
