data_image0
_cell_length_a       10.1571
_cell_length_b       10.3094
_cell_length_c       10.5459
_cell_angle_alpha    89.9269
_cell_angle_beta     79.7371
_cell_angle_gamma    90.092

_symmetry_space_group_name_H-M    "P 1"
_symmetry_int_tables_number       1

loop_
  _symmetry_equiv_pos_as_xyz
  'x, y, z'

loop_
  _atom_site_label
  _atom_site_occupancy
  _atom_site_fract_x
  _atom_site_fract_y
  _atom_site_fract_z
  _atom_site_thermal_displace_type
  _atom_site_B_iso_or_equiv
  _atom_site_type_symbol
  Hf1      1.0000 0.13223  0.02050  0.14442  Biso   1.000  Hf
  Hf2      1.0000 0.13298  0.22573  0.39310  Biso   1.000  Hf
  Hf3      1.0000 0.34752  0.27291  0.08532  Biso   1.000  Hf
  Hf4      1.0000 0.35932  0.49013  0.35691  Biso   1.000  Hf
  O1       1.0000 0.03210  0.16697  0.07481  Biso   1.000  O
  O2       1.0000 0.02684  0.08210  0.32835  Biso   1.000  O
  O3       1.0000 0.45699  0.43226  0.15985  Biso   1.000  O
  O4       1.0000 0.48218  0.37391  0.45302  Biso   1.000  O
  O5       1.0000 0.26196  0.12584  0.23161  Biso   1.000  O
  O6       1.0000 0.28196  0.12170  0.48233  Biso   1.000  O
  O7       1.0000 0.21551  0.38331  0.00441  Biso   1.000  O
  O8       1.0000 0.22355  0.37083  0.25790  Biso   1.000  O
  Hf5      1.0000 0.14080  0.02197  0.64328  Biso   1.000  Hf
  Hf6      1.0000 0.13312  0.22822  0.89041  Biso   1.000  Hf
  Hf7      1.0000 0.36381  0.27996  0.60672  Biso   1.000  Hf
  Hf8      1.0000 0.35931  0.48202  0.85582  Biso   1.000  Hf
  O9       1.0000 0.03830  0.16749  0.57784  Biso   1.000  O
  O10      1.0000 0.03277  0.08295  0.82503  Biso   1.000  O
  O11      1.0000 0.46819  0.41374  0.68718  Biso   1.000  O
  O12      1.0000 0.46438  0.33407  0.92031  Biso   1.000  O
  O13      1.0000 0.27500  0.12920  0.73652  Biso   1.000  O
  O14      1.0000 0.27123  0.12308  0.98280  Biso   1.000  O
  O15      1.0000 0.22574  0.37841  0.50748  Biso   1.000  O
  O16      1.0000 0.22303  0.37305  0.75859  Biso   1.000  O
  Hf9      1.0000 0.13777  0.52243  0.14873  Biso   1.000  Hf
  Hf10     1.0000 0.13503  0.72957  0.39696  Biso   1.000  Hf
  Hf11     1.0000 0.35905  0.77387  0.10409  Biso   1.000  Hf
  Hf12     1.0000 0.36386  0.96614  0.35766  Biso   1.000  Hf
  O17      1.0000 0.03310  0.66574  0.07878  Biso   1.000  O
  O18      1.0000 0.03281  0.58291  0.32917  Biso   1.000  O
  O19      1.0000 0.46407  0.91773  0.17472  Biso   1.000  O
  O20      1.0000 0.46163  0.82221  0.42436  Biso   1.000  O
  O21      1.0000 0.27334  0.63209  0.24244  Biso   1.000  O
  O22      1.0000 0.27253  0.62358  0.49248  Biso   1.000  O
  O23      1.0000 0.22217  0.88040  0.00987  Biso   1.000  O
  O24      1.0000 0.22107  0.87054  0.26091  Biso   1.000  O
  Hf13     1.0000 0.13739  0.52180  0.64627  Biso   1.000  Hf
  Hf14     1.0000 0.13689  0.72837  0.89737  Biso   1.000  Hf
  Hf15     1.0000 0.36095  0.76947  0.60721  Biso   1.000  Hf
  Hf16     1.0000 0.35941  0.97897  0.85204  Biso   1.000  Hf
  O25      1.0000 0.03195  0.66620  0.57885  Biso   1.000  O
  O26      1.0000 0.03324  0.58419  0.82816  Biso   1.000  O
  O27      1.0000 0.46458  0.91642  0.67082  Biso   1.000  O
  O28      1.0000 0.46404  0.83634  0.92204  Biso   1.000  O
  O29      1.0000 0.27546  0.62767  0.74176  Biso   1.000  O
  O30      1.0000 0.27530  0.62430  0.99307  Biso   1.000  O
  O31      1.0000 0.22336  0.87724  0.51183  Biso   1.000  O
  O32      1.0000 0.22277  0.87046  0.76059  Biso   1.000  O
  Hf17     1.0000 0.64140  0.01619  0.14811  Biso   1.000  Hf
  Hf18     1.0000 0.65570  0.22878  0.41108  Biso   1.000  Hf
  Hf19     1.0000 0.85891  0.27230  0.10587  Biso   1.000  Hf
  Hf20     1.0000 0.85995  0.47793  0.35442  Biso   1.000  Hf
  O33      1.0000 0.52991  0.15918  0.07184  Biso   1.000  O
  O34      1.0000 0.55706  0.05246  0.34632  Biso   1.000  O
  O35      1.0000 0.96476  0.41597  0.17323  Biso   1.000  O
  O36      1.0000 0.96401  0.33199  0.42309  Biso   1.000  O
  O37      1.0000 0.77695  0.12969  0.24169  Biso   1.000  O
  O38      1.0000 0.78410  0.11830  0.49769  Biso   1.000  O
  O39      1.0000 0.72124  0.37806  0.01284  Biso   1.000  O
  O40      1.0000 0.71919  0.37058  0.26307  Biso   1.000  O
  Hf21     1.0000 0.63772  0.02132  0.64693  Biso   1.000  Hf
  Hf22     1.0000 0.63807  0.22579  0.89749  Biso   1.000  Hf
  Hf23     1.0000 0.86447  0.27147  0.60984  Biso   1.000  Hf
  Hf24     1.0000 0.85896  0.47917  0.85613  Biso   1.000  Hf
  O41      1.0000 0.53632  0.16972  0.58099  Biso   1.000  O
  O42      1.0000 0.53219  0.08421  0.82562  Biso   1.000  O
  O43      1.0000 0.96682  0.41671  0.67428  Biso   1.000  O
  O44      1.0000 0.96185  0.33338  0.92164  Biso   1.000  O
  O45      1.0000 0.77582  0.12846  0.74363  Biso   1.000  O
  O46      1.0000 0.77598  0.12077  0.99209  Biso   1.000  O
  O47      1.0000 0.72978  0.37808  0.51707  Biso   1.000  O
  O48      1.0000 0.72479  0.37138  0.76387  Biso   1.000  O
  Hf25     1.0000 0.63418  0.52393  0.14403  Biso   1.000  Hf
  Hf26     1.0000 0.64008  0.72553  0.39705  Biso   1.000  Hf
  Hf27     1.0000 0.85958  0.76862  0.10458  Biso   1.000  Hf
  Hf28     1.0000 0.85628  0.97546  0.35469  Biso   1.000  Hf
  O49      1.0000 0.53497  0.67431  0.07819  Biso   1.000  O
  O50      1.0000 0.53266  0.59036  0.32248  Biso   1.000  O
  O51      1.0000 0.96130  0.91401  0.17386  Biso   1.000  O
  O52      1.0000 0.96294  0.83262  0.42271  Biso   1.000  O
  O53      1.0000 0.77667  0.62556  0.24056  Biso   1.000  O
  O54      1.0000 0.77491  0.61939  0.49074  Biso   1.000  O
  O55      1.0000 0.72364  0.87823  0.01032  Biso   1.000  O
  O56      1.0000 0.72381  0.86450  0.25834  Biso   1.000  O
  Hf29     1.0000 0.63790  0.52126  0.64924  Biso   1.000  Hf
  Hf30     1.0000 0.63673  0.73055  0.89657  Biso   1.000  Hf
  Hf31     1.0000 0.86023  0.77214  0.60548  Biso   1.000  Hf
  Hf32     1.0000 0.86051  0.97782  0.85451  Biso   1.000  Hf
  O57      1.0000 0.53295  0.66325  0.58002  Biso   1.000  O
  O58      1.0000 0.53279  0.58641  0.83078  Biso   1.000  O
  O59      1.0000 0.96564  0.91645  0.67214  Biso   1.000  O
  O60      1.0000 0.96514  0.83359  0.92305  Biso   1.000  O
  O61      1.0000 0.77484  0.62913  0.74072  Biso   1.000  O
  O62      1.0000 0.77387  0.62125  0.98995  Biso   1.000  O
  O63      1.0000 0.72209  0.87654  0.51148  Biso   1.000  O
  O64      1.0000 0.72311  0.87234  0.76075  Biso   1.000  O
  Rb1      1.0000 0.44794  0.23586  0.28972  Biso   1.000  Rb
