data_image0
_cell_length_a       10.1609
_cell_length_b       10.3131
_cell_length_c       5.06301
_cell_angle_alpha    89.9967
_cell_angle_beta     90.0013
_cell_angle_gamma    89.9972

_symmetry_space_group_name_H-M    "P 1"
_symmetry_int_tables_number       1

loop_
  _symmetry_equiv_pos_as_xyz
  'x, y, z'

loop_
  _atom_site_label
  _atom_site_occupancy
  _atom_site_fract_x
  _atom_site_fract_y
  _atom_site_fract_z
  _atom_site_thermal_displace_type
  _atom_site_B_iso_or_equiv
  _atom_site_type_symbol
  Rb1      1.0000 0.12571  0.00020  0.25324  Biso   1.000  Rb
  Zr1      1.0000 0.12571  0.50021  0.25325  Biso   1.000  Zr
  Zr2      1.0000 0.62571  0.00021  0.25327  Biso   1.000  Zr
  Zr3      1.0000 0.62570  0.50021  0.25325  Biso   1.000  Zr
  Zr4      1.0000 0.12573  0.25534  0.75326  Biso   1.000  Zr
  Zr5      1.0000 0.12570  0.74507  0.75325  Biso   1.000  Zr
  Zr6      1.0000 0.62572  0.24845  0.75326  Biso   1.000  Zr
  Zr7      1.0000 0.62573  0.75196  0.75328  Biso   1.000  Zr
  Zr8      1.0000 0.37791  0.25417  0.25075  Biso   1.000  Zr
  Zr9      1.0000 0.37790  0.74625  0.25577  Biso   1.000  Zr
  Zr10     1.0000 0.87353  0.25417  0.25578  Biso   1.000  Zr
  Zr11     1.0000 0.87353  0.74623  0.25072  Biso   1.000  Zr
  Zr12     1.0000 0.37713  0.00020  0.75324  Biso   1.000  Zr
  Zr13     1.0000 0.37700  0.50022  0.75325  Biso   1.000  Zr
  Zr14     1.0000 0.87428  0.00022  0.75324  Biso   1.000  Zr
  Zr15     1.0000 0.87442  0.50020  0.75324  Biso   1.000  Zr
  O1       1.0000 0.99290  0.15432  0.99407  Biso   1.000  O
  O2       1.0000 0.00448  0.64040  0.01902  Biso   1.000  O
  O3       1.0000 0.51005  0.14951  0.02174  Biso   1.000  O
  O4       1.0000 0.50468  0.64608  0.00292  Biso   1.000  O
  O5       1.0000 0.98463  0.12545  0.53315  Biso   1.000  O
  O6       1.0000 0.99990  0.60293  0.51445  Biso   1.000  O
  O7       1.0000 0.50136  0.10180  0.51424  Biso   1.000  O
  O8       1.0000 0.49761  0.60269  0.50117  Biso   1.000  O
  O9       1.0000 0.00449  0.36000  0.48747  Biso   1.000  O
  O10      1.0000 0.99289  0.84610  0.51243  Biso   1.000  O
  O11      1.0000 0.50470  0.35434  0.50356  Biso   1.000  O
  O12      1.0000 0.51002  0.85091  0.48484  Biso   1.000  O
  O13      1.0000 0.99991  0.39747  0.99205  Biso   1.000  O
  O14      1.0000 0.98461  0.87495  0.97337  Biso   1.000  O
  O15      1.0000 0.49762  0.39772  0.00530  Biso   1.000  O
  O16      1.0000 0.50133  0.89861  0.99235  Biso   1.000  O
  O17      1.0000 0.25854  0.15431  0.51245  Biso   1.000  O
  O18      1.0000 0.24693  0.64042  0.48746  Biso   1.000  O
  O19      1.0000 0.74140  0.14950  0.48481  Biso   1.000  O
  O20      1.0000 0.74672  0.64607  0.50354  Biso   1.000  O
  O21      1.0000 0.26682  0.12545  0.97340  Biso   1.000  O
  O22      1.0000 0.25151  0.60293  0.99204  Biso   1.000  O
  O23      1.0000 0.75009  0.10180  0.99232  Biso   1.000  O
  O24      1.0000 0.75380  0.60269  0.00527  Biso   1.000  O
  O25      1.0000 0.24694  0.36000  0.01906  Biso   1.000  O
  O26      1.0000 0.25852  0.84609  0.99402  Biso   1.000  O
  O27      1.0000 0.74675  0.35434  0.00291  Biso   1.000  O
  O28      1.0000 0.74137  0.85091  0.02178  Biso   1.000  O
  O29      1.0000 0.25152  0.39748  0.51448  Biso   1.000  O
  O30      1.0000 0.26680  0.87497  0.53310  Biso   1.000  O
  O31      1.0000 0.75382  0.39772  0.50118  Biso   1.000  O
  O32      1.0000 0.75006  0.89860  0.51428  Biso   1.000  O
