data_image0
_cell_length_a       10.2645
_cell_length_b       10.3729
_cell_length_c       5.31135
_cell_angle_alpha    89.8704
_cell_angle_beta     79.5832
_cell_angle_gamma    90.6443

_symmetry_space_group_name_H-M    "P 1"
_symmetry_int_tables_number       1

loop_
  _symmetry_equiv_pos_as_xyz
  'x, y, z'

loop_
  _atom_site_label
  _atom_site_occupancy
  _atom_site_fract_x
  _atom_site_fract_y
  _atom_site_fract_z
  _atom_site_thermal_displace_type
  _atom_site_B_iso_or_equiv
  _atom_site_type_symbol
  Zr1      1.0000 0.13543  0.02198  0.29341  Biso   1.000  Zr
  Zr2      1.0000 0.13985  0.23551  0.78089  Biso   1.000  Zr
  Zr3      1.0000 0.35567  0.27651  0.17807  Biso   1.000  Zr
  Zr4      1.0000 0.34871  0.48572  0.70939  Biso   1.000  Zr
  O1       1.0000 0.04110  0.16784  0.14930  Biso   1.000  O
  O2       1.0000 0.03478  0.08580  0.64820  Biso   1.000  O
  O3       1.0000 0.47382  0.38434  0.39737  Biso   1.000  O
  O4       1.0000 0.48797  0.36533  0.87689  Biso   1.000  O
  O5       1.0000 0.28274  0.12584  0.46291  Biso   1.000  O
  O6       1.0000 0.28703  0.12264  0.94495  Biso   1.000  O
  O7       1.0000 0.21311  0.38877  0.01737  Biso   1.000  O
  O8       1.0000 0.21300  0.38044  0.49602  Biso   1.000  O
  Zr5      1.0000 0.13392  0.52676  0.29112  Biso   1.000  Zr
  Zr6      1.0000 0.13127  0.73084  0.79659  Biso   1.000  Zr
  Zr7      1.0000 0.35928  0.76916  0.20997  Biso   1.000  Zr
  Zr8      1.0000 0.36091  0.96477  0.70666  Biso   1.000  Zr
  O9       1.0000 0.02458  0.66821  0.15452  Biso   1.000  O
  O10      1.0000 0.02781  0.59092  0.65447  Biso   1.000  O
  O11      1.0000 0.46889  0.90803  0.35064  Biso   1.000  O
  O12      1.0000 0.46550  0.82976  0.85496  Biso   1.000  O
  O13      1.0000 0.27136  0.63002  0.48524  Biso   1.000  O
  O14      1.0000 0.26692  0.62789  0.98611  Biso   1.000  O
  O15      1.0000 0.22344  0.87969  0.02337  Biso   1.000  O
  O16      1.0000 0.22091  0.86909  0.51807  Biso   1.000  O
  Zr9      1.0000 0.64001  0.02132  0.29108  Biso   1.000  Zr
  Zr10     1.0000 0.64693  0.23184  0.80871  Biso   1.000  Zr
  Zr11     1.0000 0.86557  0.27232  0.21712  Biso   1.000  Zr
  Zr12     1.0000 0.86049  0.47886  0.71697  Biso   1.000  Zr
  O17      1.0000 0.53154  0.16072  0.15379  Biso   1.000  O
  O18      1.0000 0.53901  0.07111  0.67433  Biso   1.000  O
  O19      1.0000 0.96378  0.41835  0.35112  Biso   1.000  O
  O20      1.0000 0.96647  0.33818  0.84910  Biso   1.000  O
  O21      1.0000 0.77696  0.12886  0.48371  Biso   1.000  O
  O22      1.0000 0.78074  0.11896  0.98925  Biso   1.000  O
  O23      1.0000 0.72969  0.37689  0.03660  Biso   1.000  O
  O24      1.0000 0.72772  0.37324  0.53044  Biso   1.000  O
  Zr13     1.0000 0.63715  0.51941  0.30145  Biso   1.000  Zr
  Zr14     1.0000 0.63532  0.72369  0.79359  Biso   1.000  Zr
  Zr15     1.0000 0.85628  0.77330  0.21183  Biso   1.000  Zr
  Zr16     1.0000 0.85898  0.97970  0.71088  Biso   1.000  Zr
  O25      1.0000 0.52393  0.64912  0.14515  Biso   1.000  O
  O26      1.0000 0.52518  0.59310  0.63643  Biso   1.000  O
  O27      1.0000 0.96542  0.91646  0.34744  Biso   1.000  O
  O28      1.0000 0.96302  0.83912  0.85088  Biso   1.000  O
  O29      1.0000 0.77055  0.62731  0.48244  Biso   1.000  O
  O30      1.0000 0.77011  0.62158  0.98484  Biso   1.000  O
  O31      1.0000 0.72035  0.87743  0.02384  Biso   1.000  O
  O32      1.0000 0.72384  0.87058  0.52360  Biso   1.000  O
  Re1      1.0000 0.41428  0.23276  0.64891  Biso   1.000  Re
