data_image0
_cell_length_a       10.0243
_cell_length_b       10.1821
_cell_length_c       5.22293
_cell_angle_alpha    90.0538
_cell_angle_beta     90.48
_cell_angle_gamma    89.3101

_symmetry_space_group_name_H-M    "P 1"
_symmetry_int_tables_number       1

loop_
  _symmetry_equiv_pos_as_xyz
  'x, y, z'

loop_
  _atom_site_label
  _atom_site_occupancy
  _atom_site_fract_x
  _atom_site_fract_y
  _atom_site_fract_z
  _atom_site_thermal_displace_type
  _atom_site_B_iso_or_equiv
  _atom_site_type_symbol
  Rh1      1.0000 0.12299  0.01041  0.37822  Biso   1.000  Rh
  Hf1      1.0000 0.14666  0.22873  0.83686  Biso   1.000  Hf
  Hf2      1.0000 0.35998  0.27055  0.33435  Biso   1.000  Hf
  Hf3      1.0000 0.36119  0.47985  0.84319  Biso   1.000  Hf
  Hf4      1.0000 0.63782  0.02171  0.15568  Biso   1.000  Hf
  Hf5      1.0000 0.63897  0.22967  0.65771  Biso   1.000  Hf
  Hf6      1.0000 0.86732  0.26614  0.16469  Biso   1.000  Hf
  Hf7      1.0000 0.86359  0.47618  0.66352  Biso   1.000  Hf
  O1       1.0000 0.04537  0.15128  0.16587  Biso   1.000  O
  O2       1.0000 0.03030  0.08676  0.66293  Biso   1.000  O
  O3       1.0000 0.46610  0.41818  0.16934  Biso   1.000  O
  O4       1.0000 0.46746  0.33401  0.66825  Biso   1.000  O
  O5       1.0000 0.27255  0.11735  0.55692  Biso   1.000  O
  O6       1.0000 0.30181  0.14879  0.04110  Biso   1.000  O
  O7       1.0000 0.22567  0.37371  0.59041  Biso   1.000  O
  O8       1.0000 0.22013  0.38300  0.08910  Biso   1.000  O
  O9       1.0000 0.53702  0.16978  0.32619  Biso   1.000  O
  O10      1.0000 0.53870  0.07938  0.81993  Biso   1.000  O
  O11      1.0000 0.97159  0.40962  0.34430  Biso   1.000  O
  O12      1.0000 0.97043  0.33122  0.84665  Biso   1.000  O
  O13      1.0000 0.77940  0.12192  0.91385  Biso   1.000  O
  O14      1.0000 0.77859  0.12463  0.41127  Biso   1.000  O
  O15      1.0000 0.72719  0.37139  0.91611  Biso   1.000  O
  O16      1.0000 0.72741  0.37449  0.41317  Biso   1.000  O
  Hf8      1.0000 0.13963  0.52302  0.34689  Biso   1.000  Hf
  Hf9      1.0000 0.13696  0.73128  0.84898  Biso   1.000  Hf
  Hf10     1.0000 0.35813  0.77749  0.34005  Biso   1.000  Hf
  Hf11     1.0000 0.35960  0.98387  0.84211  Biso   1.000  Hf
  Hf12     1.0000 0.63846  0.51941  0.15914  Biso   1.000  Hf
  Hf13     1.0000 0.63508  0.72743  0.65600  Biso   1.000  Hf
  Hf14     1.0000 0.85747  0.76787  0.15765  Biso   1.000  Hf
  Hf15     1.0000 0.85497  0.97653  0.66148  Biso   1.000  Hf
  O17      1.0000 0.03116  0.66454  0.16962  Biso   1.000  O
  O18      1.0000 0.03282  0.58486  0.67323  Biso   1.000  O
  O19      1.0000 0.46640  0.91825  0.16583  Biso   1.000  O
  O20      1.0000 0.46208  0.83388  0.66715  Biso   1.000  O
  O21      1.0000 0.27520  0.62679  0.59145  Biso   1.000  O
  O22      1.0000 0.27653  0.63187  0.09179  Biso   1.000  O
  O23      1.0000 0.21476  0.87473  0.59133  Biso   1.000  O
  O24      1.0000 0.21917  0.88857  0.09244  Biso   1.000  O
  O25      1.0000 0.53160  0.66804  0.32787  Biso   1.000  O
  O26      1.0000 0.53356  0.58253  0.83011  Biso   1.000  O
  O27      1.0000 0.96095  0.91296  0.33392  Biso   1.000  O
  O28      1.0000 0.96393  0.83516  0.83669  Biso   1.000  O
  O29      1.0000 0.77583  0.62177  0.91206  Biso   1.000  O
  O30      1.0000 0.77550  0.62383  0.41314  Biso   1.000  O
  O31      1.0000 0.72020  0.87127  0.90993  Biso   1.000  O
  O32      1.0000 0.72174  0.87534  0.41154  Biso   1.000  O
