data_image0
_cell_length_a       10.178
_cell_length_b       5.1524
_cell_length_c       10.5528
_cell_angle_alpha    90.2071
_cell_angle_beta     79.892
_cell_angle_gamma    90.2369

_symmetry_space_group_name_H-M    "P 1"
_symmetry_int_tables_number       1

loop_
  _symmetry_equiv_pos_as_xyz
  'x, y, z'

loop_
  _atom_site_label
  _atom_site_occupancy
  _atom_site_fract_x
  _atom_site_fract_y
  _atom_site_fract_z
  _atom_site_thermal_displace_type
  _atom_site_B_iso_or_equiv
  _atom_site_type_symbol
  Hf1      1.0000 0.13506  0.04654  0.14458  Biso   1.000  Hf
  Hf2      1.0000 0.13863  0.46251  0.39714  Biso   1.000  Hf
  Hf3      1.0000 0.35588  0.54826  0.09477  Biso   1.000  Hf
  Hf4      1.0000 0.35528  0.94817  0.35623  Biso   1.000  Hf
  O1       1.0000 0.03261  0.34180  0.07740  Biso   1.000  O
  O2       1.0000 0.03402  0.17406  0.32590  Biso   1.000  O
  O3       1.0000 0.46330  0.83016  0.17493  Biso   1.000  O
  O4       1.0000 0.48199  0.70301  0.44004  Biso   1.000  O
  O5       1.0000 0.27761  0.25487  0.23724  Biso   1.000  O
  O6       1.0000 0.26669  0.22878  0.49666  Biso   1.000  O
  O7       1.0000 0.22064  0.76603  0.00547  Biso   1.000  O
  O8       1.0000 0.21006  0.75181  0.25459  Biso   1.000  O
  Hf5      1.0000 0.13486  0.04273  0.64852  Biso   1.000  Hf
  Hf6      1.0000 0.13421  0.45992  0.89517  Biso   1.000  Hf
  Hf7      1.0000 0.36025  0.54228  0.60685  Biso   1.000  Hf
  Hf8      1.0000 0.35899  0.96110  0.85308  Biso   1.000  Hf
  O9       1.0000 0.03172  0.33369  0.57903  Biso   1.000  O
  O10      1.0000 0.03085  0.16867  0.82905  Biso   1.000  O
  O11      1.0000 0.46581  0.82539  0.67801  Biso   1.000  O
  O12      1.0000 0.46653  0.67852  0.92359  Biso   1.000  O
  O13      1.0000 0.27366  0.25796  0.74143  Biso   1.000  O
  O14      1.0000 0.27215  0.24891  0.98801  Biso   1.000  O
  O15      1.0000 0.22316  0.75261  0.51358  Biso   1.000  O
  O16      1.0000 0.22244  0.74311  0.75957  Biso   1.000  O
  Hf9      1.0000 0.63842  0.04273  0.14695  Biso   1.000  Hf
  Hf10     1.0000 0.64825  0.45810  0.40078  Biso   1.000  Hf
  Hf11     1.0000 0.85947  0.54552  0.10492  Biso   1.000  Hf
  Hf12     1.0000 0.86322  0.95809  0.35445  Biso   1.000  Hf
  O17      1.0000 0.52906  0.31956  0.07168  Biso   1.000  O
  O18      1.0000 0.54609  0.13132  0.33574  Biso   1.000  O
  O19      1.0000 0.96315  0.84123  0.16962  Biso   1.000  O
  O20      1.0000 0.96592  0.67213  0.42423  Biso   1.000  O
  O21      1.0000 0.77708  0.25967  0.23972  Biso   1.000  O
  O22      1.0000 0.77865  0.23864  0.49247  Biso   1.000  O
  O23      1.0000 0.72119  0.75839  0.01271  Biso   1.000  O
  O24      1.0000 0.72747  0.74229  0.26150  Biso   1.000  O
  Hf13     1.0000 0.63715  0.04242  0.64679  Biso   1.000  Hf
  Hf14     1.0000 0.63678  0.45591  0.89667  Biso   1.000  Hf
  Hf15     1.0000 0.86148  0.54350  0.60690  Biso   1.000  Hf
  Hf16     1.0000 0.85771  0.95787  0.85601  Biso   1.000  Hf
  O25      1.0000 0.53257  0.32609  0.57656  Biso   1.000  O
  O26      1.0000 0.53053  0.17648  0.82444  Biso   1.000  O
  O27      1.0000 0.96293  0.83415  0.67452  Biso   1.000  O
  O28      1.0000 0.96197  0.66879  0.92155  Biso   1.000  O
  O29      1.0000 0.77349  0.25779  0.74166  Biso   1.000  O
  O30      1.0000 0.77368  0.24495  0.99112  Biso   1.000  O
  O31      1.0000 0.72683  0.75490  0.51321  Biso   1.000  O
  O32      1.0000 0.72197  0.74393  0.76250  Biso   1.000  O
  Rh1      1.0000 0.42002  0.45677  0.31726  Biso   1.000  Rh
