data_image0
_cell_length_a       10.2288
_cell_length_b       10.2948
_cell_length_c       5.28967
_cell_angle_alpha    89.9034
_cell_angle_beta     92.0063
_cell_angle_gamma    89.862

_symmetry_space_group_name_H-M    "P 1"
_symmetry_int_tables_number       1

loop_
  _symmetry_equiv_pos_as_xyz
  'x, y, z'

loop_
  _atom_site_label
  _atom_site_occupancy
  _atom_site_fract_x
  _atom_site_fract_y
  _atom_site_fract_z
  _atom_site_thermal_displace_type
  _atom_site_B_iso_or_equiv
  _atom_site_type_symbol
  Zr1      1.0000 0.13582  0.01786  0.35681  Biso   1.000  Zr
  Zr2      1.0000 0.14015  0.22726  0.86244  Biso   1.000  Zr
  Zr3      1.0000 0.34818  0.26713  0.37814  Biso   1.000  Zr
  Zr4      1.0000 0.35931  0.48204  0.86267  Biso   1.000  Zr
  Zr5      1.0000 0.64635  0.01797  0.14755  Biso   1.000  Zr
  Zr6      1.0000 0.65748  0.23288  0.63209  Biso   1.000  Zr
  Zr7      1.0000 0.86551  0.27275  0.14778  Biso   1.000  Zr
  Zr8      1.0000 0.86984  0.48215  0.65342  Biso   1.000  Zr
  O1       1.0000 0.03183  0.16363  0.17292  Biso   1.000  O
  O2       1.0000 0.03431  0.08455  0.67185  Biso   1.000  O
  O3       1.0000 0.47134  0.41824  0.18882  Biso   1.000  O
  O4       1.0000 0.47800  0.33909  0.66819  Biso   1.000  O
  O5       1.0000 0.27293  0.12366  0.61175  Biso   1.000  O
  O6       1.0000 0.26634  0.11632  0.11739  Biso   1.000  O
  O7       1.0000 0.22368  0.37586  0.61871  Biso   1.000  O
  O8       1.0000 0.22163  0.37598  0.11821  Biso   1.000  O
  O9       1.0000 0.52766  0.16091  0.34204  Biso   1.000  O
  O10      1.0000 0.53432  0.08177  0.82140  Biso   1.000  O
  O11      1.0000 0.97135  0.41546  0.33838  Biso   1.000  O
  O12      1.0000 0.97383  0.33638  0.83731  Biso   1.000  O
  O13      1.0000 0.78403  0.12403  0.89202  Biso   1.000  O
  O14      1.0000 0.78198  0.12415  0.39152  Biso   1.000  O
  O15      1.0000 0.73933  0.38369  0.89283  Biso   1.000  O
  O16      1.0000 0.73273  0.37635  0.39847  Biso   1.000  O
  Zr9      1.0000 0.14137  0.52207  0.35213  Biso   1.000  Zr
  Zr10     1.0000 0.14077  0.73068  0.85178  Biso   1.000  Zr
  Zr11     1.0000 0.36532  0.77147  0.35615  Biso   1.000  Zr
  Zr12     1.0000 0.36099  0.97752  0.86057  Biso   1.000  Zr
  Zr13     1.0000 0.64467  0.52249  0.14966  Biso   1.000  Zr
  Zr14     1.0000 0.64034  0.72854  0.65407  Biso   1.000  Zr
  Zr15     1.0000 0.86490  0.76933  0.15846  Biso   1.000  Zr
  Zr16     1.0000 0.86429  0.97794  0.65810  Biso   1.000  Zr
  O17      1.0000 0.03566  0.66436  0.16893  Biso   1.000  O
  O18      1.0000 0.03708  0.58788  0.67052  Biso   1.000  O
  O19      1.0000 0.47336  0.91492  0.17131  Biso   1.000  O
  O20      1.0000 0.47185  0.83689  0.67282  Biso   1.000  O
  O21      1.0000 0.27742  0.62629  0.60113  Biso   1.000  O
  O22      1.0000 0.27683  0.62437  0.09953  Biso   1.000  O
  O23      1.0000 0.22800  0.87403  0.60673  Biso   1.000  O
  O24      1.0000 0.22813  0.87226  0.10704  Biso   1.000  O
  O25      1.0000 0.53382  0.66312  0.33740  Biso   1.000  O
  O26      1.0000 0.53230  0.58509  0.83890  Biso   1.000  O
  O27      1.0000 0.96858  0.91212  0.33972  Biso   1.000  O
  O28      1.0000 0.97000  0.83565  0.84131  Biso   1.000  O
  O29      1.0000 0.77752  0.62775  0.90320  Biso   1.000  O
  O30      1.0000 0.77767  0.62598  0.40351  Biso   1.000  O
  O31      1.0000 0.72884  0.87564  0.91070  Biso   1.000  O
  O32      1.0000 0.72824  0.87372  0.40910  Biso   1.000  O
  Rh1      1.0000 0.50283  0.25000  0.00511  Biso   1.000  Rh
