data_image0
_cell_length_a       9.98807
_cell_length_b       9.98805
_cell_length_c       5.05032
_cell_angle_alpha    90
_cell_angle_beta     90.0003
_cell_angle_gamma    90

_symmetry_space_group_name_H-M    "P 1"
_symmetry_int_tables_number       1

loop_
  _symmetry_equiv_pos_as_xyz
  'x, y, z'

loop_
  _atom_site_label
  _atom_site_occupancy
  _atom_site_fract_x
  _atom_site_fract_y
  _atom_site_fract_z
  _atom_site_thermal_displace_type
  _atom_site_B_iso_or_equiv
  _atom_site_type_symbol
  Ru1      1.0000 0.12491  1.00000  0.24982  Biso   1.000  Ru
  Hf1      1.0000 0.12491  0.24629  0.74982  Biso   1.000  Hf
  Hf2      1.0000 0.37383  0.24892  0.24759  Biso   1.000  Hf
  Hf3      1.0000 0.37121  1.00000  0.74982  Biso   1.000  Hf
  O1       1.0000 0.99691  0.12800  0.97651  Biso   1.000  O
  O2       1.0000 0.00739  0.11751  0.46765  Biso   1.000  O
  O3       1.0000 0.99248  0.36584  0.54127  Biso   1.000  O
  O4       1.0000 0.00383  0.37920  0.03786  Biso   1.000  O
  O5       1.0000 0.25291  0.12800  0.52312  Biso   1.000  O
  O6       1.0000 0.24243  0.11751  0.03198  Biso   1.000  O
  O7       1.0000 0.25734  0.36584  0.95836  Biso   1.000  O
  O8       1.0000 0.24598  0.37920  0.46178  Biso   1.000  O
  Hf4      1.0000 0.12491  0.50000  0.24982  Biso   1.000  Hf
  Hf5      1.0000 0.12491  0.75370  0.74982  Biso   1.000  Hf
  Hf6      1.0000 0.37383  0.75108  0.25205  Biso   1.000  Hf
  Hf7      1.0000 0.37541  0.49999  0.74982  Biso   1.000  Hf
  O9       1.0000 0.99247  0.63416  0.95836  Biso   1.000  O
  O10      1.0000 0.00384  0.62080  0.46178  Biso   1.000  O
  O11      1.0000 0.99691  0.87200  0.52311  Biso   1.000  O
  O12      1.0000 0.00739  0.88248  0.03198  Biso   1.000  O
  O13      1.0000 0.25735  0.63416  0.54127  Biso   1.000  O
  O14      1.0000 0.24598  0.62080  0.03785  Biso   1.000  O
  O15      1.0000 0.25291  0.87200  0.97653  Biso   1.000  O
  O16      1.0000 0.24242  0.88248  0.46766  Biso   1.000  O
  Hf8      1.0000 0.62491  1.00000  0.24982  Biso   1.000  Hf
  Hf9      1.0000 0.62491  0.25050  0.74982  Biso   1.000  Hf
  Hf10     1.0000 0.87598  0.24892  0.25205  Biso   1.000  Hf
  Hf11     1.0000 0.87861  1.00000  0.74982  Biso   1.000  Hf
  O17      1.0000 0.49075  0.13243  0.95837  Biso   1.000  O
  O18      1.0000 0.50410  0.12107  0.46178  Biso   1.000  O
  O19      1.0000 0.49316  0.36824  0.53727  Biso   1.000  O
  O20      1.0000 0.50400  0.37909  0.03625  Biso   1.000  O
  O21      1.0000 0.75906  0.13243  0.54127  Biso   1.000  O
  O22      1.0000 0.74571  0.12107  0.03785  Biso   1.000  O
  O23      1.0000 0.75666  0.36824  0.96236  Biso   1.000  O
  O24      1.0000 0.74581  0.37909  0.46339  Biso   1.000  O
  Hf12     1.0000 0.62491  0.50000  0.24982  Biso   1.000  Hf
  Hf13     1.0000 0.62491  0.74949  0.74982  Biso   1.000  Hf
  Hf14     1.0000 0.87599  0.75108  0.24758  Biso   1.000  Hf
  Hf15     1.0000 0.87440  0.50000  0.74982  Biso   1.000  Hf
  O25      1.0000 0.49315  0.63175  0.96237  Biso   1.000  O
  O26      1.0000 0.50400  0.62091  0.46339  Biso   1.000  O
  O27      1.0000 0.49075  0.86756  0.54127  Biso   1.000  O
  O28      1.0000 0.50411  0.87892  0.03785  Biso   1.000  O
  O29      1.0000 0.75666  0.63175  0.53727  Biso   1.000  O
  O30      1.0000 0.74581  0.62090  0.03624  Biso   1.000  O
  O31      1.0000 0.75907  0.86756  0.95837  Biso   1.000  O
  O32      1.0000 0.74571  0.87892  0.46178  Biso   1.000  O
