data_image0
_cell_length_a       10.0087
_cell_length_b       10.3818
_cell_length_c       5.01634
_cell_angle_alpha    89.7645
_cell_angle_beta     89.7597
_cell_angle_gamma    90.0834

_symmetry_space_group_name_H-M    "P 1"
_symmetry_int_tables_number       1

loop_
  _symmetry_equiv_pos_as_xyz
  'x, y, z'

loop_
  _atom_site_label
  _atom_site_occupancy
  _atom_site_fract_x
  _atom_site_fract_y
  _atom_site_fract_z
  _atom_site_thermal_displace_type
  _atom_site_B_iso_or_equiv
  _atom_site_type_symbol
  Ru1      1.0000 0.13731  0.02072  0.24636  Biso   1.000  Ru
  Zr1      1.0000 0.13417  0.51553  0.25284  Biso   1.000  Zr
  Zr2      1.0000 0.63353  0.01475  0.24563  Biso   1.000  Zr
  Zr3      1.0000 0.63469  0.51691  0.25003  Biso   1.000  Zr
  Zr4      1.0000 0.13350  0.23197  0.75636  Biso   1.000  Zr
  Zr5      1.0000 0.13273  0.73553  0.75087  Biso   1.000  Zr
  Zr6      1.0000 0.63278  0.23385  0.74959  Biso   1.000  Zr
  Zr7      1.0000 0.63475  0.73583  0.74672  Biso   1.000  Zr
  Zr8      1.0000 0.36608  0.26638  0.25153  Biso   1.000  Zr
  Zr9      1.0000 0.36391  0.76814  0.25262  Biso   1.000  Zr
  Zr10     1.0000 0.86695  0.26199  0.25182  Biso   1.000  Zr
  Zr11     1.0000 0.87017  0.76799  0.24539  Biso   1.000  Zr
  Zr12     1.0000 0.36605  0.48538  0.75178  Biso   1.000  Zr
  Zr13     1.0000 0.36323  0.98306  0.75242  Biso   1.000  Zr
  Zr14     1.0000 0.86572  0.48402  0.75026  Biso   1.000  Zr
  Zr15     1.0000 0.87265  0.98740  0.74149  Biso   1.000  Zr
  O1       1.0000 0.03038  0.17102  0.41714  Biso   1.000  O
  O2       1.0000 0.03520  0.68061  0.38947  Biso   1.000  O
  O3       1.0000 0.53407  0.18367  0.38744  Biso   1.000  O
  O4       1.0000 0.53635  0.68553  0.38496  Biso   1.000  O
  O5       1.0000 0.03299  0.06768  0.93710  Biso   1.000  O
  O6       1.0000 0.03492  0.56606  0.89080  Biso   1.000  O
  O7       1.0000 0.53368  0.06601  0.88710  Biso   1.000  O
  O8       1.0000 0.53686  0.56613  0.88439  Biso   1.000  O
  O9       1.0000 0.46341  0.43486  0.38636  Biso   1.000  O
  O10      1.0000 0.46503  0.93302  0.39069  Biso   1.000  O
  O11      1.0000 0.96656  0.42820  0.39152  Biso   1.000  O
  O12      1.0000 0.97501  0.93171  0.38563  Biso   1.000  O
  O13      1.0000 0.46154  0.31501  0.88611  Biso   1.000  O
  O14      1.0000 0.46064  0.81553  0.88529  Biso   1.000  O
  O15      1.0000 0.96510  0.31508  0.89254  Biso   1.000  O
  O16      1.0000 0.96295  0.81681  0.88072  Biso   1.000  O
  O17      1.0000 0.26493  0.11527  0.49209  Biso   1.000  O
  O18      1.0000 0.27003  0.61940  0.49878  Biso   1.000  O
  O19      1.0000 0.76636  0.11612  0.49479  Biso   1.000  O
  O20      1.0000 0.77032  0.61720  0.49617  Biso   1.000  O
  O21      1.0000 0.26946  0.12829  0.00176  Biso   1.000  O
  O22      1.0000 0.26950  0.63329  0.99802  Biso   1.000  O
  O23      1.0000 0.76908  0.13371  0.99303  Biso   1.000  O
  O24      1.0000 0.76989  0.63400  0.99558  Biso   1.000  O
  O25      1.0000 0.22958  0.38197  0.00025  Biso   1.000  O
  O26      1.0000 0.22426  0.88428  0.00775  Biso   1.000  O
  O27      1.0000 0.73018  0.38241  0.99766  Biso   1.000  O
  O28      1.0000 0.73110  0.88516  0.98793  Biso   1.000  O
  O29      1.0000 0.23014  0.36611  0.50190  Biso   1.000  O
  O30      1.0000 0.22644  0.87279  0.49786  Biso   1.000  O
  O31      1.0000 0.73086  0.36628  0.49616  Biso   1.000  O
  O32      1.0000 0.73602  0.86844  0.49089  Biso   1.000  O
