data_image0
_cell_length_a       5.04308
_cell_length_b       10.0529
_cell_length_c       10.053
_cell_angle_alpha    90.0012
_cell_angle_beta     89.9977
_cell_angle_gamma    89.9994

_symmetry_space_group_name_H-M    "P 1"
_symmetry_int_tables_number       1

loop_
  _symmetry_equiv_pos_as_xyz
  'x, y, z'

loop_
  _atom_site_label
  _atom_site_occupancy
  _atom_site_fract_x
  _atom_site_fract_y
  _atom_site_fract_z
  _atom_site_thermal_displace_type
  _atom_site_B_iso_or_equiv
  _atom_site_type_symbol
  Ru1      1.0000 0.25000  0.00006  0.12520  Biso   1.000  Ru
  Zr1      1.0000 0.24999  0.00006  0.62520  Biso   1.000  Zr
  Zr2      1.0000 0.25000  0.50005  0.12520  Biso   1.000  Zr
  Zr3      1.0000 0.24999  0.50006  0.62520  Biso   1.000  Zr
  Zr4      1.0000 0.24940  0.24896  0.37410  Biso   1.000  Zr
  Zr5      1.0000 0.25059  0.24896  0.87631  Biso   1.000  Zr
  Zr6      1.0000 0.25060  0.75117  0.37410  Biso   1.000  Zr
  Zr7      1.0000 0.24940  0.75117  0.87631  Biso   1.000  Zr
  Zr8      1.0000 0.74999  0.24705  0.12520  Biso   1.000  Zr
  Zr9      1.0000 0.74999  0.25068  0.62520  Biso   1.000  Zr
  Zr10     1.0000 0.75000  0.75306  0.12520  Biso   1.000  Zr
  Zr11     1.0000 0.74999  0.74944  0.62520  Biso   1.000  Zr
  Zr12     1.0000 0.75000  0.00006  0.37220  Biso   1.000  Zr
  Zr13     1.0000 0.75000  0.00006  0.87819  Biso   1.000  Zr
  Zr14     1.0000 0.75001  0.50006  0.37582  Biso   1.000  Zr
  Zr15     1.0000 0.74999  0.50007  0.87458  Biso   1.000  Zr
  O1       1.0000 0.98152  0.13097  0.99429  Biso   1.000  O
  O2       1.0000 0.96912  0.13575  0.48784  Biso   1.000  O
  O3       1.0000 0.96913  0.63743  0.98950  Biso   1.000  O
  O4       1.0000 0.97306  0.63524  0.49001  Biso   1.000  O
  O5       1.0000 0.02711  0.11443  0.23957  Biso   1.000  O
  O6       1.0000 0.02520  0.11800  0.74312  Biso   1.000  O
  O7       1.0000 0.02523  0.61798  0.24314  Biso   1.000  O
  O8       1.0000 0.02339  0.61778  0.74291  Biso   1.000  O
  O9       1.0000 0.96912  0.36269  0.26090  Biso   1.000  O
  O10      1.0000 0.97305  0.36488  0.76039  Biso   1.000  O
  O11      1.0000 0.98151  0.86915  0.25611  Biso   1.000  O
  O12      1.0000 0.96914  0.86437  0.76256  Biso   1.000  O
  O13      1.0000 0.02520  0.38215  0.00727  Biso   1.000  O
  O14      1.0000 0.02341  0.38234  0.50749  Biso   1.000  O
  O15      1.0000 0.02712  0.88569  0.01083  Biso   1.000  O
  O16      1.0000 0.02522  0.88212  0.50729  Biso   1.000  O
  O17      1.0000 0.51849  0.13096  0.25611  Biso   1.000  O
  O18      1.0000 0.53085  0.13575  0.76256  Biso   1.000  O
  O19      1.0000 0.53088  0.63742  0.26089  Biso   1.000  O
  O20      1.0000 0.52693  0.63525  0.76039  Biso   1.000  O
  O21      1.0000 0.47288  0.11443  0.01083  Biso   1.000  O
  O22      1.0000 0.47476  0.11800  0.50729  Biso   1.000  O
  O23      1.0000 0.47478  0.61798  0.00727  Biso   1.000  O
  O24      1.0000 0.47659  0.61778  0.50749  Biso   1.000  O
  O25      1.0000 0.53086  0.36269  0.98951  Biso   1.000  O
  O26      1.0000 0.52695  0.36487  0.49001  Biso   1.000  O
  O27      1.0000 0.51849  0.86915  0.99428  Biso   1.000  O
  O28      1.0000 0.53088  0.86437  0.48783  Biso   1.000  O
  O29      1.0000 0.47477  0.38213  0.24314  Biso   1.000  O
  O30      1.0000 0.47660  0.38234  0.74292  Biso   1.000  O
  O31      1.0000 0.47288  0.88568  0.23957  Biso   1.000  O
  O32      1.0000 0.47479  0.88213  0.74311  Biso   1.000  O
