data_image0
_cell_length_a       10.047
_cell_length_b       10.1733
_cell_length_c       10.047
_cell_angle_alpha    90.0026
_cell_angle_beta     90.0003
_cell_angle_gamma    90.0019

_symmetry_space_group_name_H-M    "P 1"
_symmetry_int_tables_number       1

loop_
  _symmetry_equiv_pos_as_xyz
  'x, y, z'

loop_
  _atom_site_label
  _atom_site_occupancy
  _atom_site_fract_x
  _atom_site_fract_y
  _atom_site_fract_z
  _atom_site_thermal_displace_type
  _atom_site_B_iso_or_equiv
  _atom_site_type_symbol
  Ru1      1.0000 0.12502  0.99988  0.12502  Biso   1.000  Ru
  Zr1      1.0000 0.12502  0.99988  0.62502  Biso   1.000  Zr
  Zr2      1.0000 0.12502  0.49987  0.12502  Biso   1.000  Zr
  Zr3      1.0000 0.12502  0.49987  0.62502  Biso   1.000  Zr
  Zr4      1.0000 0.62502  0.99988  0.12502  Biso   1.000  Zr
  Zr5      1.0000 0.62502  0.99988  0.62502  Biso   1.000  Zr
  Zr6      1.0000 0.62502  0.49987  0.12502  Biso   1.000  Zr
  Zr7      1.0000 0.62502  0.49987  0.62502  Biso   1.000  Zr
  Zr8      1.0000 0.12522  0.24847  0.37305  Biso   1.000  Zr
  Zr9      1.0000 0.12481  0.24847  0.87698  Biso   1.000  Zr
  Zr10     1.0000 0.12480  0.75128  0.37305  Biso   1.000  Zr
  Zr11     1.0000 0.12522  0.75128  0.87698  Biso   1.000  Zr
  Zr12     1.0000 0.62503  0.25000  0.37530  Biso   1.000  Zr
  Zr13     1.0000 0.62500  0.25000  0.87472  Biso   1.000  Zr
  Zr14     1.0000 0.62500  0.74975  0.37530  Biso   1.000  Zr
  Zr15     1.0000 0.62503  0.74975  0.87473  Biso   1.000  Zr
  Zr16     1.0000 0.37305  0.24847  0.12522  Biso   1.000  Zr
  Zr17     1.0000 0.37530  0.25000  0.62503  Biso   1.000  Zr
  Zr18     1.0000 0.37305  0.75127  0.12481  Biso   1.000  Zr
  Zr19     1.0000 0.37530  0.74975  0.62500  Biso   1.000  Zr
  Zr20     1.0000 0.87698  0.24847  0.12481  Biso   1.000  Zr
  Zr21     1.0000 0.87472  0.25000  0.62500  Biso   1.000  Zr
  Zr22     1.0000 0.87698  0.75127  0.12522  Biso   1.000  Zr
  Zr23     1.0000 0.87472  0.74975  0.62503  Biso   1.000  Zr
  Zr24     1.0000 0.37348  0.99886  0.37348  Biso   1.000  Zr
  Zr25     1.0000 0.37348  0.00088  0.87656  Biso   1.000  Zr
  Zr26     1.0000 0.37517  0.49944  0.37517  Biso   1.000  Zr
  Zr27     1.0000 0.37518  0.50031  0.87487  Biso   1.000  Zr
  Zr28     1.0000 0.87656  0.00088  0.37348  Biso   1.000  Zr
  Zr29     1.0000 0.87657  0.99886  0.87657  Biso   1.000  Zr
  Zr30     1.0000 0.87487  0.50031  0.37518  Biso   1.000  Zr
  Zr31     1.0000 0.87487  0.49944  0.87487  Biso   1.000  Zr
  O1       1.0000 0.99997  0.13711  0.99997  Biso   1.000  O
  O2       1.0000 0.99556  0.14506  0.49419  Biso   1.000  O
  O3       1.0000 0.99689  0.64345  0.99689  Biso   1.000  O
  O4       1.0000 0.99737  0.64560  0.49669  Biso   1.000  O
  O5       1.0000 0.49419  0.14506  0.99557  Biso   1.000  O
  O6       1.0000 0.49588  0.14447  0.49588  Biso   1.000  O
  O7       1.0000 0.49669  0.64560  0.99737  Biso   1.000  O
  O8       1.0000 0.49772  0.64412  0.49772  Biso   1.000  O
  O9       1.0000 0.00643  0.10589  0.24360  Biso   1.000  O
  O10      1.0000 0.00234  0.10514  0.74779  Biso   1.000  O
  O11      1.0000 0.00207  0.60790  0.24798  Biso   1.000  O
  O12      1.0000 0.00123  0.60487  0.74818  Biso   1.000  O
  O13      1.0000 0.50225  0.10513  0.24770  Biso   1.000  O
  O14      1.0000 0.50213  0.10551  0.74790  Biso   1.000  O
  O15      1.0000 0.50186  0.60486  0.24882  Biso   1.000  O
  O16      1.0000 0.50164  0.60552  0.74840  Biso   1.000  O
  O17      1.0000 0.99687  0.35629  0.25316  Biso   1.000  O
  O18      1.0000 0.99737  0.35415  0.75335  Biso   1.000  O
  O19      1.0000 0.99996  0.86264  0.25008  Biso   1.000  O
  O20      1.0000 0.99556  0.85469  0.75585  Biso   1.000  O
  O21      1.0000 0.49668  0.35415  0.25267  Biso   1.000  O
  O22      1.0000 0.49772  0.35563  0.75232  Biso   1.000  O
  O23      1.0000 0.49419  0.85469  0.25447  Biso   1.000  O
  O24      1.0000 0.49588  0.85528  0.75415  Biso   1.000  O
  O25      1.0000 0.00206  0.39185  0.00206  Biso   1.000  O
  O26      1.0000 0.00122  0.39489  0.50186  Biso   1.000  O
  O27      1.0000 0.00643  0.89385  0.00643  Biso   1.000  O
  O28      1.0000 0.00234  0.89462  0.50225  Biso   1.000  O
  O29      1.0000 0.50186  0.39489  0.00122  Biso   1.000  O
  O30      1.0000 0.50163  0.39423  0.50164  Biso   1.000  O
  O31      1.0000 0.50225  0.89462  0.00233  Biso   1.000  O
  O32      1.0000 0.50213  0.89424  0.50213  Biso   1.000  O
  O33      1.0000 0.25006  0.13710  0.25006  Biso   1.000  O
  O34      1.0000 0.25447  0.14506  0.75584  Biso   1.000  O
  O35      1.0000 0.25316  0.64345  0.25316  Biso   1.000  O
  O36      1.0000 0.25267  0.64560  0.75335  Biso   1.000  O
  O37      1.0000 0.75584  0.14506  0.25447  Biso   1.000  O
  O38      1.0000 0.75416  0.14447  0.75416  Biso   1.000  O
  O39      1.0000 0.75335  0.64560  0.25267  Biso   1.000  O
  O40      1.0000 0.75232  0.64412  0.75232  Biso   1.000  O
  O41      1.0000 0.24360  0.10589  0.00643  Biso   1.000  O
  O42      1.0000 0.24770  0.10513  0.50225  Biso   1.000  O
  O43      1.0000 0.24797  0.60790  0.00207  Biso   1.000  O
  O44      1.0000 0.24881  0.60486  0.50186  Biso   1.000  O
  O45      1.0000 0.74779  0.10514  0.00234  Biso   1.000  O
  O46      1.0000 0.74790  0.10551  0.50214  Biso   1.000  O
  O47      1.0000 0.74818  0.60487  0.00122  Biso   1.000  O
  O48      1.0000 0.74840  0.60552  0.50164  Biso   1.000  O
  O49      1.0000 0.25316  0.35629  0.99688  Biso   1.000  O
  O50      1.0000 0.25266  0.35415  0.49669  Biso   1.000  O
  O51      1.0000 0.25008  0.86263  0.99997  Biso   1.000  O
  O52      1.0000 0.25447  0.85469  0.49419  Biso   1.000  O
  O53      1.0000 0.75335  0.35415  0.99737  Biso   1.000  O
  O54      1.0000 0.75232  0.35563  0.49772  Biso   1.000  O
  O55      1.0000 0.75585  0.85469  0.99556  Biso   1.000  O
  O56      1.0000 0.75416  0.85528  0.49588  Biso   1.000  O
  O57      1.0000 0.24797  0.39184  0.24797  Biso   1.000  O
  O58      1.0000 0.24881  0.39488  0.74818  Biso   1.000  O
  O59      1.0000 0.24360  0.89385  0.24360  Biso   1.000  O
  O60      1.0000 0.24770  0.89462  0.74778  Biso   1.000  O
  O61      1.0000 0.74817  0.39488  0.24882  Biso   1.000  O
  O62      1.0000 0.74839  0.39423  0.74840  Biso   1.000  O
  O63      1.0000 0.74778  0.89461  0.24770  Biso   1.000  O
  O64      1.0000 0.74791  0.89424  0.74790  Biso   1.000  O
