data_image0
_cell_length_a       5.06281
_cell_length_b       10.2917
_cell_length_c       10.4701
_cell_angle_alpha    90.0402
_cell_angle_beta     80.5471
_cell_angle_gamma    89.9

_symmetry_space_group_name_H-M    "P 1"
_symmetry_int_tables_number       1

loop_
  _symmetry_equiv_pos_as_xyz
  'x, y, z'

loop_
  _atom_site_label
  _atom_site_occupancy
  _atom_site_fract_x
  _atom_site_fract_y
  _atom_site_fract_z
  _atom_site_thermal_displace_type
  _atom_site_B_iso_or_equiv
  _atom_site_type_symbol
  Sb1      1.0000 0.25911  0.01930  0.15062  Biso   1.000  Sb
  Hf1      1.0000 0.27875  0.23033  0.39684  Biso   1.000  Hf
  Hf2      1.0000 0.71934  0.27107  0.10369  Biso   1.000  Hf
  Hf3      1.0000 0.72144  0.47822  0.35337  Biso   1.000  Hf
  O1       1.0000 0.07575  0.17266  0.07933  Biso   1.000  O
  O2       1.0000 0.06856  0.07973  0.33269  Biso   1.000  O
  O3       1.0000 0.92597  0.41969  0.16967  Biso   1.000  O
  O4       1.0000 0.92773  0.33074  0.41992  Biso   1.000  O
  O5       1.0000 0.55567  0.13160  0.24387  Biso   1.000  O
  O6       1.0000 0.55236  0.12075  0.49140  Biso   1.000  O
  O7       1.0000 0.44847  0.38026  0.00896  Biso   1.000  O
  O8       1.0000 0.44411  0.37133  0.25916  Biso   1.000  O
  Hf4      1.0000 0.27729  0.02138  0.64641  Biso   1.000  Hf
  Hf5      1.0000 0.28215  0.22919  0.89412  Biso   1.000  Hf
  Hf6      1.0000 0.72390  0.27157  0.60406  Biso   1.000  Hf
  Hf7      1.0000 0.72561  0.47834  0.85413  Biso   1.000  Hf
  O9       1.0000 0.07206  0.16916  0.57953  Biso   1.000  O
  O10      1.0000 0.07547  0.08088  0.82972  Biso   1.000  O
  O11      1.0000 0.93093  0.41857  0.67020  Biso   1.000  O
  O12      1.0000 0.93271  0.33233  0.92086  Biso   1.000  O
  O13      1.0000 0.55460  0.12935  0.73839  Biso   1.000  O
  O14      1.0000 0.56534  0.12629  0.98384  Biso   1.000  O
  O15      1.0000 0.44695  0.37882  0.50929  Biso   1.000  O
  O16      1.0000 0.45031  0.37132  0.75890  Biso   1.000  O
  Hf8      1.0000 0.27586  0.52063  0.14519  Biso   1.000  Hf
  Hf9      1.0000 0.27442  0.72634  0.39676  Biso   1.000  Hf
  Hf10     1.0000 0.72117  0.76825  0.10276  Biso   1.000  Hf
  Hf11     1.0000 0.71190  0.97768  0.35791  Biso   1.000  Hf
  O17      1.0000 0.07440  0.67069  0.08013  Biso   1.000  O
  O18      1.0000 0.06970  0.58020  0.32965  Biso   1.000  O
  O19      1.0000 0.91125  0.92146  0.17128  Biso   1.000  O
  O20      1.0000 0.92729  0.83088  0.42042  Biso   1.000  O
  O21      1.0000 0.55115  0.62723  0.23994  Biso   1.000  O
  O22      1.0000 0.55250  0.62032  0.49041  Biso   1.000  O
  O23      1.0000 0.45479  0.87619  0.00531  Biso   1.000  O
  O24      1.0000 0.44834  0.86600  0.26192  Biso   1.000  O
  Hf12     1.0000 0.27880  0.52138  0.64620  Biso   1.000  Hf
  Hf13     1.0000 0.27959  0.72937  0.89469  Biso   1.000  Hf
  Hf14     1.0000 0.72243  0.77149  0.60451  Biso   1.000  Hf
  Hf15     1.0000 0.72471  0.97962  0.85401  Biso   1.000  Hf
  O25      1.0000 0.07087  0.66845  0.58047  Biso   1.000  O
  O26      1.0000 0.07334  0.58084  0.82968  Biso   1.000  O
  O27      1.0000 0.92887  0.91906  0.67004  Biso   1.000  O
  O28      1.0000 0.93250  0.83179  0.92056  Biso   1.000  O
  O29      1.0000 0.55439  0.62924  0.74002  Biso   1.000  O
  O30      1.0000 0.55427  0.62038  0.98997  Biso   1.000  O
  O31      1.0000 0.44448  0.87852  0.51059  Biso   1.000  O
  O32      1.0000 0.44839  0.87111  0.75861  Biso   1.000  O
