data_image0
_cell_length_a       5.07603
_cell_length_b       10.2471
_cell_length_c       10.4382
_cell_angle_alpha    90.004
_cell_angle_beta     80.0925
_cell_angle_gamma    90.0275

_symmetry_space_group_name_H-M    "P 1"
_symmetry_int_tables_number       1

loop_
  _symmetry_equiv_pos_as_xyz
  'x, y, z'

loop_
  _atom_site_label
  _atom_site_occupancy
  _atom_site_fract_x
  _atom_site_fract_y
  _atom_site_fract_z
  _atom_site_thermal_displace_type
  _atom_site_B_iso_or_equiv
  _atom_site_type_symbol
  Sc1      1.0000 0.27751  0.01998  0.14731  Biso   1.000  Sc
  Hf1      1.0000 0.27888  0.22697  0.39431  Biso   1.000  Hf
  Hf2      1.0000 0.71988  0.26719  0.10419  Biso   1.000  Hf
  Hf3      1.0000 0.72018  0.47853  0.35359  Biso   1.000  Hf
  O1       1.0000 0.06957  0.16849  0.07957  Biso   1.000  O
  O2       1.0000 0.06658  0.08322  0.33147  Biso   1.000  O
  O3       1.0000 0.92994  0.41700  0.17015  Biso   1.000  O
  O4       1.0000 0.93063  0.33275  0.42021  Biso   1.000  O
  O5       1.0000 0.55559  0.12951  0.24277  Biso   1.000  O
  O6       1.0000 0.55084  0.12159  0.49160  Biso   1.000  O
  O7       1.0000 0.44763  0.37875  0.00931  Biso   1.000  O
  O8       1.0000 0.44586  0.37137  0.25934  Biso   1.000  O
  Hf4      1.0000 0.27847  0.02121  0.64576  Biso   1.000  Hf
  Hf5      1.0000 0.27848  0.22755  0.89814  Biso   1.000  Hf
  Hf6      1.0000 0.72014  0.27102  0.60395  Biso   1.000  Hf
  Hf7      1.0000 0.72140  0.47852  0.85460  Biso   1.000  Hf
  O9       1.0000 0.06867  0.16830  0.58030  Biso   1.000  O
  O10      1.0000 0.06948  0.08192  0.82979  Biso   1.000  O
  O11      1.0000 0.93054  0.41823  0.66989  Biso   1.000  O
  O12      1.0000 0.93185  0.33297  0.91988  Biso   1.000  O
  O13      1.0000 0.55202  0.12856  0.74052  Biso   1.000  O
  O14      1.0000 0.55763  0.12295  0.98884  Biso   1.000  O
  O15      1.0000 0.44744  0.37928  0.50937  Biso   1.000  O
  O16      1.0000 0.44804  0.37125  0.75944  Biso   1.000  O
  Hf8      1.0000 0.27866  0.52053  0.14551  Biso   1.000  Hf
  Hf9      1.0000 0.27987  0.72967  0.39495  Biso   1.000  Hf
  Hf10     1.0000 0.71859  0.77355  0.10462  Biso   1.000  Hf
  Hf11     1.0000 0.72177  0.97990  0.35089  Biso   1.000  Hf
  O17      1.0000 0.06783  0.66709  0.07974  Biso   1.000  O
  O18      1.0000 0.06829  0.58254  0.32945  Biso   1.000  O
  O19      1.0000 0.93011  0.91681  0.17038  Biso   1.000  O
  O20      1.0000 0.93092  0.83221  0.42011  Biso   1.000  O
  O21      1.0000 0.55205  0.62765  0.24024  Biso   1.000  O
  O22      1.0000 0.55246  0.62149  0.49049  Biso   1.000  O
  O23      1.0000 0.45153  0.87733  0.00732  Biso   1.000  O
  O24      1.0000 0.44864  0.86903  0.25989  Biso   1.000  O
  Hf12     1.0000 0.27887  0.52141  0.64620  Biso   1.000  Hf
  Hf13     1.0000 0.28050  0.73037  0.89696  Biso   1.000  Hf
  Hf14     1.0000 0.72166  0.77181  0.60365  Biso   1.000  Hf
  Hf15     1.0000 0.71841  0.97938  0.85585  Biso   1.000  Hf
  O25      1.0000 0.06963  0.66810  0.58007  Biso   1.000  O
  O26      1.0000 0.06958  0.58254  0.83005  Biso   1.000  O
  O27      1.0000 0.93010  0.91806  0.67026  Biso   1.000  O
  O28      1.0000 0.93336  0.83310  0.92009  Biso   1.000  O
  O29      1.0000 0.55276  0.62936  0.74068  Biso   1.000  O
  O30      1.0000 0.55210  0.62032  0.99066  Biso   1.000  O
  O31      1.0000 0.44762  0.87897  0.50914  Biso   1.000  O
  O32      1.0000 0.44743  0.87168  0.75846  Biso   1.000  O
