data_image0
_cell_length_a       10.1998
_cell_length_b       10.2687
_cell_length_c       5.33197
_cell_angle_alpha    90.0258
_cell_angle_beta     91.0261
_cell_angle_gamma    89.7385

_symmetry_space_group_name_H-M    "P 1"
_symmetry_int_tables_number       1

loop_
  _symmetry_equiv_pos_as_xyz
  'x, y, z'

loop_
  _atom_site_label
  _atom_site_occupancy
  _atom_site_fract_x
  _atom_site_fract_y
  _atom_site_fract_z
  _atom_site_thermal_displace_type
  _atom_site_B_iso_or_equiv
  _atom_site_type_symbol
  Zr1      1.0000 0.13792  0.01847  0.34815  Biso   1.000  Zr
  Zr2      1.0000 0.14148  0.22782  0.84647  Biso   1.000  Zr
  Zr3      1.0000 0.35445  0.26730  0.36111  Biso   1.000  Zr
  Zr4      1.0000 0.36203  0.47846  0.85284  Biso   1.000  Zr
  Zr5      1.0000 0.63663  0.99958  0.15969  Biso   1.000  Zr
  Zr6      1.0000 0.63870  0.22855  0.63722  Biso   1.000  Zr
  Zr7      1.0000 0.87968  0.27541  0.14726  Biso   1.000  Zr
  Zr8      1.0000 0.86148  0.47847  0.65084  Biso   1.000  Zr
  O1       1.0000 0.03166  0.15075  0.14316  Biso   1.000  O
  O2       1.0000 0.02539  0.09802  0.64595  Biso   1.000  O
  O3       1.0000 0.47451  0.40498  0.16526  Biso   1.000  O
  O4       1.0000 0.47117  0.34318  0.65855  Biso   1.000  O
  O5       1.0000 0.26941  0.12402  0.60018  Biso   1.000  O
  O6       1.0000 0.27266  0.12315  0.09920  Biso   1.000  O
  O7       1.0000 0.22551  0.37587  0.60295  Biso   1.000  O
  O8       1.0000 0.22696  0.37473  0.10025  Biso   1.000  O
  O9       1.0000 0.51167  0.13593  0.37195  Biso   1.000  O
  O10      1.0000 0.52221  0.10351  0.88126  Biso   1.000  O
  O11      1.0000 0.97644  0.41012  0.35371  Biso   1.000  O
  O12      1.0000 0.97951  0.34696  0.84596  Biso   1.000  O
  O13      1.0000 0.76645  0.12732  0.90478  Biso   1.000  O
  O14      1.0000 0.76418  0.12947  0.38044  Biso   1.000  O
  O15      1.0000 0.72971  0.37843  0.90182  Biso   1.000  O
  O16      1.0000 0.72572  0.37747  0.39080  Biso   1.000  O
  Zr9      1.0000 0.14091  0.52299  0.35147  Biso   1.000  Zr
  Zr10     1.0000 0.13761  0.72983  0.84759  Biso   1.000  Zr
  Zr11     1.0000 0.36080  0.76961  0.35320  Biso   1.000  Zr
  Zr12     1.0000 0.36349  0.97913  0.85233  Biso   1.000  Zr
  Zr13     1.0000 0.64326  0.53131  0.15186  Biso   1.000  Zr
  Zr14     1.0000 0.63974  0.72822  0.65642  Biso   1.000  Zr
  Zr15     1.0000 0.86670  0.77178  0.15815  Biso   1.000  Zr
  Zr16     1.0000 0.86115  0.98458  0.65795  Biso   1.000  Zr
  O17      1.0000 0.03188  0.65940  0.15552  Biso   1.000  O
  O18      1.0000 0.02970  0.59473  0.65493  Biso   1.000  O
  O19      1.0000 0.46987  0.89317  0.14168  Biso   1.000  O
  O20      1.0000 0.47552  0.84895  0.64704  Biso   1.000  O
  O21      1.0000 0.27512  0.62451  0.60078  Biso   1.000  O
  O22      1.0000 0.27488  0.62426  0.09821  Biso   1.000  O
  O23      1.0000 0.22701  0.87365  0.59995  Biso   1.000  O
  O24      1.0000 0.22548  0.87549  0.09963  Biso   1.000  O
  O25      1.0000 0.52852  0.65640  0.35610  Biso   1.000  O
  O26      1.0000 0.52789  0.59429  0.85038  Biso   1.000  O
  O27      1.0000 0.97066  0.90959  0.35140  Biso   1.000  O
  O28      1.0000 0.97183  0.84697  0.84978  Biso   1.000  O
  O29      1.0000 0.77820  0.62685  0.90333  Biso   1.000  O
  O30      1.0000 0.77754  0.62791  0.40703  Biso   1.000  O
  O31      1.0000 0.72863  0.87260  0.91015  Biso   1.000  O
  O32      1.0000 0.73150  0.87111  0.41826  Biso   1.000  O
  Sc1      1.0000 0.61529  0.25490  0.12763  Biso   1.000  Sc
