data_image0
_cell_length_a       5.11154
_cell_length_b       10.1304
_cell_length_c       10.1304
_cell_angle_alpha    89.9993
_cell_angle_beta     89.9997
_cell_angle_gamma    90

_symmetry_space_group_name_H-M    "P 1"
_symmetry_int_tables_number       1

loop_
  _symmetry_equiv_pos_as_xyz
  'x, y, z'

loop_
  _atom_site_label
  _atom_site_occupancy
  _atom_site_fract_x
  _atom_site_fract_y
  _atom_site_fract_z
  _atom_site_thermal_displace_type
  _atom_site_B_iso_or_equiv
  _atom_site_type_symbol
  Zr1      1.0000 0.25042  0.98223  0.10671  Biso   1.000  Zr
  Zr2      1.0000 0.25041  0.24997  0.37444  Biso   1.000  Zr
  Zr3      1.0000 0.75041  0.24997  0.10670  Biso   1.000  Zr
  Zr4      1.0000 0.74809  0.49466  0.35139  Biso   1.000  Zr
  O1       1.0000 0.98718  0.12699  0.22967  Biso   1.000  O
  O2       1.0000 0.02877  0.11712  0.48198  Biso   1.000  O
  O3       1.0000 0.02609  0.37811  0.23484  Biso   1.000  O
  O4       1.0000 0.96749  0.37022  0.48374  Biso   1.000  O
  O5       1.0000 0.47473  0.12183  0.23485  Biso   1.000  O
  O6       1.0000 0.53332  0.12972  0.48375  Biso   1.000  O
  O7       1.0000 0.47203  0.38281  0.48197  Biso   1.000  O
  O8       1.0000 0.51364  0.37295  0.22967  Biso   1.000  O
  Zr5      1.0000 0.25041  0.99511  0.60671  Biso   1.000  Zr
  Zr6      1.0000 0.25039  0.24997  0.83897  Biso   1.000  Zr
  Zr7      1.0000 0.75041  0.24997  0.60671  Biso   1.000  Zr
  Zr8      1.0000 0.75271  0.49465  0.86202  Biso   1.000  Zr
  O9       1.0000 0.96747  0.12971  0.72967  Biso   1.000  O
  O10      1.0000 0.02609  0.12184  0.97857  Biso   1.000  O
  O11      1.0000 0.02876  0.38281  0.73143  Biso   1.000  O
  O12      1.0000 0.98720  0.37294  0.98373  Biso   1.000  O
  O13      1.0000 0.47202  0.11712  0.73144  Biso   1.000  O
  O14      1.0000 0.51364  0.12699  0.98374  Biso   1.000  O
  O15      1.0000 0.47475  0.37810  0.97856  Biso   1.000  O
  O16      1.0000 0.53331  0.37022  0.72966  Biso   1.000  O
  Zr9      1.0000 0.25040  0.51770  0.10671  Biso   1.000  Zr
  Zr10     1.0000 0.25041  0.74997  0.36157  Biso   1.000  Zr
  Zr11     1.0000 0.75040  0.74996  0.10670  Biso   1.000  Zr
  Zr12     1.0000 0.75272  0.00528  0.35140  Biso   1.000  Zr
  O17      1.0000 0.96749  0.62700  0.22695  Biso   1.000  O
  O18      1.0000 0.03816  0.61874  0.47548  Biso   1.000  O
  O19      1.0000 0.02879  0.87469  0.23956  Biso   1.000  O
  O20      1.0000 0.96332  0.87117  0.48552  Biso   1.000  O
  O21      1.0000 0.47204  0.62525  0.23955  Biso   1.000  O
  O22      1.0000 0.53753  0.62877  0.48551  Biso   1.000  O
  O23      1.0000 0.46269  0.88120  0.47547  Biso   1.000  O
  O24      1.0000 0.53333  0.87294  0.22695  Biso   1.000  O
  Zr13     1.0000 0.25042  0.50483  0.60670  Biso   1.000  Zr
  Zr14     1.0000 0.25040  0.74996  0.85185  Biso   1.000  Zr
  Zr15     1.0000 0.75041  0.74997  0.60671  Biso   1.000  Zr
  Zr16     1.0000 0.74810  0.00528  0.86202  Biso   1.000  Zr
  O25      1.0000 0.96330  0.62876  0.72791  Biso   1.000  O
  O26      1.0000 0.02876  0.62525  0.97386  Biso   1.000  O
  O27      1.0000 0.03813  0.88119  0.73794  Biso   1.000  O
  O28      1.0000 0.96749  0.87294  0.98647  Biso   1.000  O
  O29      1.0000 0.46267  0.61874  0.73793  Biso   1.000  O
  O30      1.0000 0.53331  0.62699  0.98646  Biso   1.000  O
  O31      1.0000 0.47204  0.87468  0.97386  Biso   1.000  O
  O32      1.0000 0.53751  0.87117  0.72790  Biso   1.000  O
  Sc1      1.0000 0.25041  0.24997  0.10671  Biso   1.000  Sc
