data_image0
_cell_length_a       10.1013
_cell_length_b       10.2236
_cell_length_c       10.1013
_cell_angle_alpha    90.0014
_cell_angle_beta     90.0003
_cell_angle_gamma    90.0004

_symmetry_space_group_name_H-M    "P 1"
_symmetry_int_tables_number       1

loop_
  _symmetry_equiv_pos_as_xyz
  'x, y, z'

loop_
  _atom_site_label
  _atom_site_occupancy
  _atom_site_fract_x
  _atom_site_fract_y
  _atom_site_fract_z
  _atom_site_thermal_displace_type
  _atom_site_B_iso_or_equiv
  _atom_site_type_symbol
  Zr1      1.0000 0.12560  0.97955  0.12562  Biso   1.000  Zr
  Zr2      1.0000 0.12557  0.25003  0.39013  Biso   1.000  Zr
  Zr3      1.0000 0.39011  0.25003  0.12559  Biso   1.000  Zr
  Zr4      1.0000 0.37453  0.00384  0.37454  Biso   1.000  Zr
  O1       1.0000 0.99365  0.14597  0.99369  Biso   1.000  O
  O2       1.0000 0.00677  0.10734  0.24439  Biso   1.000  O
  O3       1.0000 0.99366  0.35409  0.25748  Biso   1.000  O
  O4       1.0000 0.00677  0.39272  0.00678  Biso   1.000  O
  O5       1.0000 0.25745  0.14592  0.25745  Biso   1.000  O
  O6       1.0000 0.24434  0.10736  0.00676  Biso   1.000  O
  O7       1.0000 0.25745  0.35413  0.99372  Biso   1.000  O
  O8       1.0000 0.24435  0.39270  0.24441  Biso   1.000  O
  Zr5      1.0000 0.12558  0.99621  0.62559  Biso   1.000  Zr
  Zr6      1.0000 0.12557  0.25003  0.86104  Biso   1.000  Zr
  Zr7      1.0000 0.37808  0.25003  0.62559  Biso   1.000  Zr
  Zr8      1.0000 0.37210  0.00355  0.87908  Biso   1.000  Zr
  O9       1.0000 0.99363  0.14175  0.49927  Biso   1.000  O
  O10      1.0000 0.00257  0.10538  0.74620  Biso   1.000  O
  O11      1.0000 0.99363  0.35831  0.75190  Biso   1.000  O
  O12      1.0000 0.00257  0.39468  0.50497  Biso   1.000  O
  O13      1.0000 0.25752  0.14176  0.75190  Biso   1.000  O
  O14      1.0000 0.24858  0.10538  0.50496  Biso   1.000  O
  O15      1.0000 0.25751  0.35830  0.49928  Biso   1.000  O
  O16      1.0000 0.24858  0.39469  0.74621  Biso   1.000  O
  Zr9      1.0000 0.12559  0.52051  0.12557  Biso   1.000  Zr
  Zr10     1.0000 0.12558  0.75002  0.38017  Biso   1.000  Zr
  Zr11     1.0000 0.38016  0.75003  0.12559  Biso   1.000  Zr
  Zr12     1.0000 0.37209  0.49651  0.37210  Biso   1.000  Zr
  O17      1.0000 0.99985  0.64536  0.99988  Biso   1.000  O
  O18      1.0000 0.99819  0.60999  0.25303  Biso   1.000  O
  O19      1.0000 0.99986  0.85470  0.25131  Biso   1.000  O
  O20      1.0000 0.99819  0.89008  0.99816  Biso   1.000  O
  O21      1.0000 0.25132  0.64534  0.25130  Biso   1.000  O
  O22      1.0000 0.25299  0.61001  0.99815  Biso   1.000  O
  O23      1.0000 0.25132  0.85471  0.99989  Biso   1.000  O
  O24      1.0000 0.25299  0.89004  0.25304  Biso   1.000  O
  Zr13     1.0000 0.12557  0.50385  0.62559  Biso   1.000  Zr
  Zr14     1.0000 0.12558  0.75004  0.87101  Biso   1.000  Zr
  Zr15     1.0000 0.37749  0.75003  0.62559  Biso   1.000  Zr
  Zr16     1.0000 0.37452  0.49622  0.87664  Biso   1.000  Zr
  O25      1.0000 0.99875  0.64436  0.50181  Biso   1.000  O
  O26      1.0000 0.00340  0.60600  0.75259  Biso   1.000  O
  O27      1.0000 0.99875  0.85570  0.74938  Biso   1.000  O
  O28      1.0000 0.00341  0.89406  0.49859  Biso   1.000  O
  O29      1.0000 0.25240  0.64437  0.74938  Biso   1.000  O
  O30      1.0000 0.24775  0.60600  0.49859  Biso   1.000  O
  O31      1.0000 0.25240  0.85569  0.50181  Biso   1.000  O
  O32      1.0000 0.24774  0.89406  0.75259  Biso   1.000  O
  Zr17     1.0000 0.62558  0.99621  0.12560  Biso   1.000  Zr
  Zr18     1.0000 0.62557  0.25004  0.37810  Biso   1.000  Zr
  Zr19     1.0000 0.86100  0.25003  0.12559  Biso   1.000  Zr
  Zr20     1.0000 0.87906  0.00354  0.37211  Biso   1.000  Zr
  O33      1.0000 0.49923  0.14176  0.99365  Biso   1.000  O
  O34      1.0000 0.50496  0.10538  0.24861  Biso   1.000  O
  O35      1.0000 0.49924  0.35830  0.25752  Biso   1.000  O
  O36      1.0000 0.50496  0.39468  0.00257  Biso   1.000  O
  O37      1.0000 0.75189  0.14176  0.25752  Biso   1.000  O
  O38      1.0000 0.74616  0.10538  0.00256  Biso   1.000  O
  O39      1.0000 0.75189  0.35831  0.99366  Biso   1.000  O
  O40      1.0000 0.74616  0.39468  0.24862  Biso   1.000  O
  Zr21     1.0000 0.62558  0.99880  0.62559  Biso   1.000  Zr
  Zr22     1.0000 0.62557  0.25003  0.87308  Biso   1.000  Zr
  Zr23     1.0000 0.87307  0.25003  0.62559  Biso   1.000  Zr
  Zr24     1.0000 0.87664  0.00385  0.87666  Biso   1.000  Zr
  O41      1.0000 0.49714  0.14608  0.49717  Biso   1.000  O
  O42      1.0000 0.50291  0.10388  0.74828  Biso   1.000  O
  O43      1.0000 0.49715  0.35398  0.75401  Biso   1.000  O
  O44      1.0000 0.50290  0.39619  0.50290  Biso   1.000  O
  O45      1.0000 0.75400  0.14608  0.75401  Biso   1.000  O
  O46      1.0000 0.74824  0.10388  0.50290  Biso   1.000  O
  O47      1.0000 0.75400  0.35398  0.49718  Biso   1.000  O
  O48      1.0000 0.74824  0.39619  0.74828  Biso   1.000  O
  Zr25     1.0000 0.62558  0.50385  0.12558  Biso   1.000  Zr
  Zr26     1.0000 0.62558  0.75002  0.37750  Biso   1.000  Zr
  Zr27     1.0000 0.87101  0.75003  0.12559  Biso   1.000  Zr
  Zr28     1.0000 0.87664  0.49621  0.37453  Biso   1.000  Zr
  O49      1.0000 0.50178  0.64437  0.99878  Biso   1.000  O
  O50      1.0000 0.49862  0.60600  0.24779  Biso   1.000  O
  O51      1.0000 0.50178  0.85570  0.25240  Biso   1.000  O
  O52      1.0000 0.49862  0.89406  0.00339  Biso   1.000  O
  O53      1.0000 0.74940  0.64437  0.25240  Biso   1.000  O
  O54      1.0000 0.75255  0.60601  0.00339  Biso   1.000  O
  O55      1.0000 0.74940  0.85570  0.99878  Biso   1.000  O
  O56      1.0000 0.75255  0.89406  0.24779  Biso   1.000  O
  Zr29     1.0000 0.62558  0.50127  0.62559  Biso   1.000  Zr
  Zr30     1.0000 0.62558  0.75004  0.87368  Biso   1.000  Zr
  Zr31     1.0000 0.87366  0.75003  0.62559  Biso   1.000  Zr
  Zr32     1.0000 0.87906  0.49651  0.87907  Biso   1.000  Zr
  O57      1.0000 0.49824  0.64595  0.49827  Biso   1.000  O
  O58      1.0000 0.50148  0.60370  0.74971  Biso   1.000  O
  O59      1.0000 0.49823  0.85411  0.75292  Biso   1.000  O
  O60      1.0000 0.50148  0.89636  0.50147  Biso   1.000  O
  O61      1.0000 0.75291  0.64596  0.75291  Biso   1.000  O
  O62      1.0000 0.74967  0.60370  0.50146  Biso   1.000  O
  O63      1.0000 0.75292  0.85411  0.49826  Biso   1.000  O
  O64      1.0000 0.74967  0.89637  0.74971  Biso   1.000  O
  Sc1      1.0000 0.12556  0.25003  0.12559  Biso   1.000  Sc
