data_image0
_cell_length_a       9.90806
_cell_length_b       10.3911
_cell_length_c       4.98206
_cell_angle_alpha    91.0191
_cell_angle_beta     89.4776
_cell_angle_gamma    89.9467

_symmetry_space_group_name_H-M    "P 1"
_symmetry_int_tables_number       1

loop_
  _symmetry_equiv_pos_as_xyz
  'x, y, z'

loop_
  _atom_site_label
  _atom_site_occupancy
  _atom_site_fract_x
  _atom_site_fract_y
  _atom_site_fract_z
  _atom_site_thermal_displace_type
  _atom_site_B_iso_or_equiv
  _atom_site_type_symbol
  Si1      1.0000 0.11377  0.02651  0.23510  Biso   1.000  Si
  Hf1      1.0000 0.13191  0.23111  0.72806  Biso   1.000  Hf
  Hf2      1.0000 0.36908  0.26344  0.22719  Biso   1.000  Hf
  Hf3      1.0000 0.36921  0.48554  0.74477  Biso   1.000  Hf
  O1       1.0000 0.02915  0.17111  0.38023  Biso   1.000  O
  O2       1.0000 0.03983  0.06543  0.92933  Biso   1.000  O
  O3       1.0000 0.46486  0.43310  0.38254  Biso   1.000  O
  O4       1.0000 0.47136  0.32450  0.88990  Biso   1.000  O
  O5       1.0000 0.24173  0.08826  0.45222  Biso   1.000  O
  O6       1.0000 0.27699  0.14744  0.94931  Biso   1.000  O
  O7       1.0000 0.23034  0.38696  0.98233  Biso   1.000  O
  O8       1.0000 0.23369  0.35561  0.48347  Biso   1.000  O
  Hf4      1.0000 0.13487  0.51139  0.24558  Biso   1.000  Hf
  Hf5      1.0000 0.12942  0.72781  0.75508  Biso   1.000  Hf
  Hf6      1.0000 0.36359  0.76980  0.26437  Biso   1.000  Hf
  Hf7      1.0000 0.35777  0.98552  0.75930  Biso   1.000  Hf
  O9       1.0000 0.03494  0.68020  0.39416  Biso   1.000  O
  O10      1.0000 0.03019  0.56357  0.89885  Biso   1.000  O
  O11      1.0000 0.47303  0.93118  0.41879  Biso   1.000  O
  O12      1.0000 0.46587  0.82665  0.91819  Biso   1.000  O
  O13      1.0000 0.26599  0.60592  0.49681  Biso   1.000  O
  O14      1.0000 0.26837  0.63919  0.00113  Biso   1.000  O
  O15      1.0000 0.22055  0.90975  0.07266  Biso   1.000  O
  O16      1.0000 0.25050  0.84548  0.56492  Biso   1.000  O
  Hf8      1.0000 0.63033  0.01443  0.24627  Biso   1.000  Hf
  Hf9      1.0000 0.63478  0.23220  0.74805  Biso   1.000  Hf
  Hf10     1.0000 0.86476  0.26549  0.24267  Biso   1.000  Hf
  Hf11     1.0000 0.86310  0.48363  0.74619  Biso   1.000  Hf
  O17      1.0000 0.52722  0.18089  0.40244  Biso   1.000  O
  O18      1.0000 0.53192  0.07249  0.90319  Biso   1.000  O
  O19      1.0000 0.96830  0.42706  0.39381  Biso   1.000  O
  O20      1.0000 0.96368  0.31324  0.88150  Biso   1.000  O
  O21      1.0000 0.76875  0.11466  0.48941  Biso   1.000  O
  O22      1.0000 0.77175  0.13324  0.98897  Biso   1.000  O
  O23      1.0000 0.73102  0.38480  0.99674  Biso   1.000  O
  O24      1.0000 0.72801  0.36598  0.49362  Biso   1.000  O
  Hf12     1.0000 0.63253  0.51938  0.24943  Biso   1.000  Hf
  Hf13     1.0000 0.63236  0.74028  0.75228  Biso   1.000  Hf
  Hf14     1.0000 0.87271  0.76685  0.24335  Biso   1.000  Hf
  Hf15     1.0000 0.87319  0.98773  0.74454  Biso   1.000  Hf
  O25      1.0000 0.53224  0.68444  0.40246  Biso   1.000  O
  O26      1.0000 0.53509  0.57310  0.89186  Biso   1.000  O
  O27      1.0000 0.99245  0.93623  0.38610  Biso   1.000  O
  O28      1.0000 0.96391  0.81931  0.88379  Biso   1.000  O
  O29      1.0000 0.77030  0.61659  0.49689  Biso   1.000  O
  O30      1.0000 0.76841  0.63814  0.99793  Biso   1.000  O
  O31      1.0000 0.73451  0.88826  0.99189  Biso   1.000  O
  O32      1.0000 0.74298  0.86717  0.49385  Biso   1.000  O
