data_image0
_cell_length_a       5.03312
_cell_length_b       10.4188
_cell_length_c       10.0583
_cell_angle_alpha    90.0414
_cell_angle_beta     90.2533
_cell_angle_gamma    91.4195

_symmetry_space_group_name_H-M    "P 1"
_symmetry_int_tables_number       1

loop_
  _symmetry_equiv_pos_as_xyz
  'x, y, z'

loop_
  _atom_site_label
  _atom_site_occupancy
  _atom_site_fract_x
  _atom_site_fract_y
  _atom_site_fract_z
  _atom_site_thermal_displace_type
  _atom_site_B_iso_or_equiv
  _atom_site_type_symbol
  Hf1      1.0000 0.28754  0.01335  0.11768  Biso   1.000  Hf
  Hf2      1.0000 0.26135  0.22484  0.40989  Biso   1.000  Hf
  Hf3      1.0000 0.67677  0.25787  0.13456  Biso   1.000  Hf
  Hf4      1.0000 0.74580  0.48808  0.38560  Biso   1.000  Hf
  O1       1.0000 0.01234  0.17350  0.23369  Biso   1.000  O
  O2       1.0000 0.08738  0.05438  0.45497  Biso   1.000  O
  O3       1.0000 0.87338  0.43578  0.20384  Biso   1.000  O
  O4       1.0000 0.92973  0.31966  0.45214  Biso   1.000  O
  O5       1.0000 0.50657  0.11684  0.26683  Biso   1.000  O
  O6       1.0000 0.56858  0.13091  0.51274  Biso   1.000  O
  O7       1.0000 0.46389  0.38321  0.49818  Biso   1.000  O
  O8       1.0000 0.36336  0.35625  0.23982  Biso   1.000  O
  Hf5      1.0000 0.29578  0.01240  0.63281  Biso   1.000  Hf
  Hf6      1.0000 0.25772  0.23760  0.86567  Biso   1.000  Hf
  Hf7      1.0000 0.75400  0.27260  0.64073  Biso   1.000  Hf
  Hf8      1.0000 0.72813  0.48665  0.86419  Biso   1.000  Hf
  O9       1.0000 0.11200  0.18713  0.66665  Biso   1.000  O
  O10      1.0000 0.11907  0.05862  0.93079  Biso   1.000  O
  O11      1.0000 0.90309  0.45896  0.66830  Biso   1.000  O
  O12      1.0000 0.89337  0.30656  0.84954  Biso   1.000  O
  O13      1.0000 0.54901  0.12015  0.76221  Biso   1.000  O
  O14      1.0000 0.63335  0.10641  0.01532  Biso   1.000  O
  O15      1.0000 0.48754  0.38015  0.99696  Biso   1.000  O
  O16      1.0000 0.43631  0.37888  0.74585  Biso   1.000  O
  Hf9      1.0000 0.24486  0.52501  0.12444  Biso   1.000  Hf
  Hf10     1.0000 0.27799  0.73855  0.37629  Biso   1.000  Hf
  Hf11     1.0000 0.73174  0.76451  0.12761  Biso   1.000  Hf
  Hf12     1.0000 0.74833  0.98634  0.37473  Biso   1.000  Hf
  O17      1.0000 0.06664  0.68260  0.19597  Biso   1.000  O
  O18      1.0000 0.08245  0.57102  0.44117  Biso   1.000  O
  O19      1.0000 0.94398  0.93168  0.19393  Biso   1.000  O
  O20      1.0000 0.93527  0.81493  0.44298  Biso   1.000  O
  O21      1.0000 0.52942  0.61492  0.25345  Biso   1.000  O
  O22      1.0000 0.54300  0.63716  0.50095  Biso   1.000  O
  O23      1.0000 0.47699  0.88449  0.50020  Biso   1.000  O
  O24      1.0000 0.47447  0.86711  0.24878  Biso   1.000  O
  Hf13     1.0000 0.27256  0.52105  0.62181  Biso   1.000  Hf
  Hf14     1.0000 0.27419  0.73412  0.87544  Biso   1.000  Hf
  Hf15     1.0000 0.74841  0.76903  0.62548  Biso   1.000  Hf
  Hf16     1.0000 0.75305  0.97872  0.87804  Biso   1.000  Hf
  O25      1.0000 0.08434  0.68944  0.69435  Biso   1.000  O
  O26      1.0000 0.06745  0.56078  0.94349  Biso   1.000  O
  O27      1.0000 0.94516  0.93511  0.69664  Biso   1.000  O
  O28      1.0000 0.93602  0.81113  0.94784  Biso   1.000  O
  O29      1.0000 0.54361  0.62369  0.75068  Biso   1.000  O
  O30      1.0000 0.53041  0.63046  0.00170  Biso   1.000  O
  O31      1.0000 0.46722  0.87499  0.00069  Biso   1.000  O
  O32      1.0000 0.47937  0.86701  0.75221  Biso   1.000  O
  Si1      1.0000 0.17578  0.26713  0.12387  Biso   1.000  Si
