data_image0
_cell_length_a       5.07054
_cell_length_b       10.4815
_cell_length_c       10.1157
_cell_angle_alpha    90.1504
_cell_angle_beta     90.1744
_cell_angle_gamma    91.374

_symmetry_space_group_name_H-M    "P 1"
_symmetry_int_tables_number       1

loop_
  _symmetry_equiv_pos_as_xyz
  'x, y, z'

loop_
  _atom_site_label
  _atom_site_occupancy
  _atom_site_fract_x
  _atom_site_fract_y
  _atom_site_fract_z
  _atom_site_thermal_displace_type
  _atom_site_B_iso_or_equiv
  _atom_site_type_symbol
  Zr1      1.0000 0.28500  0.01359  0.11829  Biso   1.000  Zr
  Zr2      1.0000 0.26130  0.22464  0.41089  Biso   1.000  Zr
  Zr3      1.0000 0.67781  0.25819  0.13299  Biso   1.000  Zr
  Zr4      1.0000 0.74524  0.48842  0.38413  Biso   1.000  Zr
  O1       1.0000 0.01497  0.17357  0.23219  Biso   1.000  O
  O2       1.0000 0.08771  0.05385  0.45365  Biso   1.000  O
  O3       1.0000 0.87360  0.43503  0.20273  Biso   1.000  O
  O4       1.0000 0.93245  0.32001  0.45193  Biso   1.000  O
  O5       1.0000 0.50771  0.11694  0.26517  Biso   1.000  O
  O6       1.0000 0.56875  0.13061  0.51184  Biso   1.000  O
  O7       1.0000 0.46720  0.38309  0.49799  Biso   1.000  O
  O8       1.0000 0.36479  0.35666  0.24009  Biso   1.000  O
  Zr5      1.0000 0.29526  0.01179  0.63288  Biso   1.000  Zr
  Zr6      1.0000 0.25915  0.23792  0.86681  Biso   1.000  Zr
  Zr7      1.0000 0.75469  0.27236  0.64051  Biso   1.000  Zr
  Zr8      1.0000 0.72740  0.48737  0.86449  Biso   1.000  Zr
  O9       1.0000 0.11270  0.18751  0.66484  Biso   1.000  O
  O10      1.0000 0.11622  0.05987  0.93197  Biso   1.000  O
  O11      1.0000 0.90411  0.45853  0.66901  Biso   1.000  O
  O12      1.0000 0.89454  0.30649  0.85068  Biso   1.000  O
  O13      1.0000 0.54768  0.11979  0.76091  Biso   1.000  O
  O14      1.0000 0.62512  0.10851  0.01193  Biso   1.000  O
  O15      1.0000 0.48518  0.38079  0.99669  Biso   1.000  O
  O16      1.0000 0.43801  0.37830  0.74582  Biso   1.000  O
  Zr9      1.0000 0.24543  0.52562  0.12354  Biso   1.000  Zr
  Zr10     1.0000 0.27717  0.73894  0.37641  Biso   1.000  Zr
  Zr11     1.0000 0.73071  0.76442  0.12766  Biso   1.000  Zr
  Zr12     1.0000 0.74699  0.98707  0.37467  Biso   1.000  Zr
  O17      1.0000 0.06449  0.68239  0.19625  Biso   1.000  O
  O18      1.0000 0.08037  0.57096  0.44122  Biso   1.000  O
  O19      1.0000 0.94239  0.93177  0.19356  Biso   1.000  O
  O20      1.0000 0.93532  0.81500  0.44288  Biso   1.000  O
  O21      1.0000 0.52834  0.61546  0.25248  Biso   1.000  O
  O22      1.0000 0.54066  0.63698  0.50034  Biso   1.000  O
  O23      1.0000 0.47808  0.88451  0.50008  Biso   1.000  O
  O24      1.0000 0.47411  0.86710  0.24892  Biso   1.000  O
  Zr13     1.0000 0.27217  0.51986  0.62171  Biso   1.000  Zr
  Zr14     1.0000 0.27356  0.73516  0.87508  Biso   1.000  Zr
  Zr15     1.0000 0.74853  0.76798  0.62500  Biso   1.000  Zr
  Zr16     1.0000 0.75194  0.97911  0.87804  Biso   1.000  Zr
  O25      1.0000 0.08374  0.68942  0.69420  Biso   1.000  O
  O26      1.0000 0.06643  0.56136  0.94328  Biso   1.000  O
  O27      1.0000 0.94593  0.93481  0.69680  Biso   1.000  O
  O28      1.0000 0.93686  0.81174  0.94790  Biso   1.000  O
  O29      1.0000 0.54180  0.62286  0.74996  Biso   1.000  O
  O30      1.0000 0.52906  0.63144  0.00064  Biso   1.000  O
  O31      1.0000 0.46826  0.87561  0.00058  Biso   1.000  O
  O32      1.0000 0.48119  0.86660  0.75177  Biso   1.000  O
  Si1      1.0000 0.17779  0.26907  0.12638  Biso   1.000  Si
