data_image0
_cell_length_a       10.1481
_cell_length_b       5.1086
_cell_length_c       10.5789
_cell_angle_alpha    90.4774
_cell_angle_beta     80.5468
_cell_angle_gamma    89.2585

_symmetry_space_group_name_H-M    "P 1"
_symmetry_int_tables_number       1

loop_
  _symmetry_equiv_pos_as_xyz
  'x, y, z'

loop_
  _atom_site_label
  _atom_site_occupancy
  _atom_site_fract_x
  _atom_site_fract_y
  _atom_site_fract_z
  _atom_site_thermal_displace_type
  _atom_site_B_iso_or_equiv
  _atom_site_type_symbol
  Si1      1.0000 0.11585  0.04877  0.15627  Biso   1.000  Si
  Zr1      1.0000 0.13742  0.03416  0.64158  Biso   1.000  Zr
  Zr2      1.0000 0.63593  0.04593  0.14384  Biso   1.000  Zr
  Zr3      1.0000 0.63663  0.04136  0.64669  Biso   1.000  Zr
  Zr4      1.0000 0.13723  0.44055  0.38963  Biso   1.000  Zr
  Zr5      1.0000 0.13640  0.45463  0.88801  Biso   1.000  Zr
  Zr6      1.0000 0.63828  0.45361  0.39421  Biso   1.000  Zr
  Zr7      1.0000 0.63541  0.46604  0.89917  Biso   1.000  Zr
  Zr8      1.0000 0.35207  0.55156  0.10496  Biso   1.000  Zr
  Zr9      1.0000 0.36275  0.54623  0.60745  Biso   1.000  Zr
  Zr10     1.0000 0.87063  0.53653  0.10800  Biso   1.000  Zr
  Zr11     1.0000 0.86041  0.53526  0.60679  Biso   1.000  Zr
  Zr12     1.0000 0.36141  0.94563  0.35148  Biso   1.000  Zr
  Zr13     1.0000 0.35997  0.98153  0.86232  Biso   1.000  Zr
  Zr14     1.0000 0.86094  0.94978  0.35663  Biso   1.000  Zr
  Zr15     1.0000 0.86104  0.95479  0.85756  Biso   1.000  Zr
  O1       1.0000 0.04723  0.29075  0.07550  Biso   1.000  O
  O2       1.0000 0.02620  0.29687  0.56545  Biso   1.000  O
  O3       1.0000 0.52638  0.31852  0.07041  Biso   1.000  O
  O4       1.0000 0.53007  0.31412  0.56856  Biso   1.000  O
  O5       1.0000 0.03324  0.15846  0.31057  Biso   1.000  O
  O6       1.0000 0.02908  0.17818  0.82009  Biso   1.000  O
  O7       1.0000 0.52647  0.18934  0.31810  Biso   1.000  O
  O8       1.0000 0.53015  0.19740  0.81889  Biso   1.000  O
  O9       1.0000 0.47480  0.80604  0.18152  Biso   1.000  O
  O10      1.0000 0.46867  0.81949  0.68400  Biso   1.000  O
  O11      1.0000 0.98497  0.82304  0.17503  Biso   1.000  O
  O12      1.0000 0.97142  0.80036  0.68277  Biso   1.000  O
  O13      1.0000 0.47265  0.69057  0.43293  Biso   1.000  O
  O14      1.0000 0.46965  0.71104  0.93647  Biso   1.000  O
  O15      1.0000 0.96812  0.66840  0.42776  Biso   1.000  O
  O16      1.0000 0.96991  0.67721  0.93491  Biso   1.000  O
  O17      1.0000 0.25307  0.21647  0.21383  Biso   1.000  O
  O18      1.0000 0.27076  0.25282  0.72863  Biso   1.000  O
  O19      1.0000 0.77639  0.24868  0.23890  Biso   1.000  O
  O20      1.0000 0.77503  0.25337  0.74061  Biso   1.000  O
  O21      1.0000 0.27514  0.23999  0.47951  Biso   1.000  O
  O22      1.0000 0.29384  0.32542  0.96111  Biso   1.000  O
  O23      1.0000 0.77467  0.23788  0.48879  Biso   1.000  O
  O24      1.0000 0.77628  0.24851  0.99108  Biso   1.000  O
  O25      1.0000 0.21853  0.85453  0.03801  Biso   1.000  O
  O26      1.0000 0.22423  0.74567  0.51340  Biso   1.000  O
  O27      1.0000 0.72963  0.75513  0.01425  Biso   1.000  O
  O28      1.0000 0.72449  0.74954  0.51292  Biso   1.000  O
  O29      1.0000 0.23113  0.71335  0.26886  Biso   1.000  O
  O30      1.0000 0.22657  0.74918  0.76874  Biso   1.000  O
  O31      1.0000 0.73453  0.73721  0.25984  Biso   1.000  O
  O32      1.0000 0.72434  0.74610  0.76398  Biso   1.000  O
