data_image0
_cell_length_a       10.2134
_cell_length_b       5.21824
_cell_length_c       10.6002
_cell_angle_alpha    90.305
_cell_angle_beta     80.06
_cell_angle_gamma    90.1791

_symmetry_space_group_name_H-M    "P 1"
_symmetry_int_tables_number       1

loop_
  _symmetry_equiv_pos_as_xyz
  'x, y, z'

loop_
  _atom_site_label
  _atom_site_occupancy
  _atom_site_fract_x
  _atom_site_fract_y
  _atom_site_fract_z
  _atom_site_thermal_displace_type
  _atom_site_B_iso_or_equiv
  _atom_site_type_symbol
  Zr1      1.0000 0.13472  0.04612  0.14372  Biso   1.000  Zr
  Zr2      1.0000 0.13265  0.46380  0.39948  Biso   1.000  Zr
  Zr3      1.0000 0.36276  0.54419  0.09773  Biso   1.000  Zr
  Zr4      1.0000 0.34820  0.86260  0.33423  Biso   1.000  Zr
  O1       1.0000 0.03001  0.34511  0.08016  Biso   1.000  O
  O2       1.0000 0.03318  0.16643  0.32602  Biso   1.000  O
  O3       1.0000 0.46210  0.87183  0.14668  Biso   1.000  O
  O4       1.0000 0.46967  0.63471  0.42782  Biso   1.000  O
  O5       1.0000 0.28137  0.22721  0.24502  Biso   1.000  O
  O6       1.0000 0.29507  0.26269  0.48184  Biso   1.000  O
  O7       1.0000 0.22335  0.76710  0.00516  Biso   1.000  O
  O8       1.0000 0.19661  0.72822  0.24493  Biso   1.000  O
  Zr5      1.0000 0.14074  0.04386  0.64685  Biso   1.000  Zr
  Zr6      1.0000 0.13620  0.46278  0.89840  Biso   1.000  Zr
  Zr7      1.0000 0.36143  0.54739  0.61787  Biso   1.000  Zr
  Zr8      1.0000 0.36092  0.96125  0.85823  Biso   1.000  Zr
  O9       1.0000 0.03812  0.33699  0.58334  Biso   1.000  O
  O10      1.0000 0.03682  0.16310  0.83213  Biso   1.000  O
  O11      1.0000 0.46593  0.84507  0.67238  Biso   1.000  O
  O12      1.0000 0.46515  0.65966  0.91303  Biso   1.000  O
  O13      1.0000 0.27632  0.25924  0.74211  Biso   1.000  O
  O14      1.0000 0.27189  0.24734  0.99194  Biso   1.000  O
  O15      1.0000 0.22398  0.76084  0.52043  Biso   1.000  O
  O16      1.0000 0.22440  0.74560  0.76387  Biso   1.000  O
  Zr9      1.0000 0.63679  0.04808  0.14125  Biso   1.000  Zr
  Zr10     1.0000 0.65470  0.46263  0.40423  Biso   1.000  Zr
  Zr11     1.0000 0.85749  0.54683  0.10610  Biso   1.000  Zr
  Zr12     1.0000 0.86284  0.96060  0.35415  Biso   1.000  Zr
  O17      1.0000 0.54068  0.35347  0.07871  Biso   1.000  O
  O18      1.0000 0.51772  0.19081  0.32708  Biso   1.000  O
  O19      1.0000 0.95677  0.84907  0.16777  Biso   1.000  O
  O20      1.0000 0.96155  0.67784  0.42751  Biso   1.000  O
  O21      1.0000 0.76880  0.26341  0.24623  Biso   1.000  O
  O22      1.0000 0.78131  0.24125  0.49436  Biso   1.000  O
  O23      1.0000 0.72399  0.76434  0.01051  Biso   1.000  O
  O24      1.0000 0.71762  0.74961  0.26425  Biso   1.000  O
  Zr13     1.0000 0.63994  0.04732  0.65071  Biso   1.000  Zr
  Zr14     1.0000 0.63971  0.46284  0.89572  Biso   1.000  Zr
  Zr15     1.0000 0.86456  0.54856  0.61031  Biso   1.000  Zr
  Zr16     1.0000 0.86285  0.96196  0.85772  Biso   1.000  Zr
  O25      1.0000 0.54113  0.34188  0.58543  Biso   1.000  O
  O26      1.0000 0.53736  0.16290  0.83353  Biso   1.000  O
  O27      1.0000 0.96793  0.83807  0.67523  Biso   1.000  O
  O28      1.0000 0.96231  0.66448  0.92204  Biso   1.000  O
  O29      1.0000 0.77809  0.26291  0.74329  Biso   1.000  O
  O30      1.0000 0.77656  0.24624  0.99215  Biso   1.000  O
  O31      1.0000 0.72392  0.75941  0.51406  Biso   1.000  O
  O32      1.0000 0.72729  0.74746  0.76163  Biso   1.000  O
  Si1      1.0000 0.38781  0.39506  0.33767  Biso   1.000  Si
