data_image0
_cell_length_a       10.3353
_cell_length_b       10.3991
_cell_length_c       5.3044
_cell_angle_alpha    90.0837
_cell_angle_beta     78.8927
_cell_angle_gamma    89.6967

_symmetry_space_group_name_H-M    "P 1"
_symmetry_int_tables_number       1

loop_
  _symmetry_equiv_pos_as_xyz
  'x, y, z'

loop_
  _atom_site_label
  _atom_site_occupancy
  _atom_site_fract_x
  _atom_site_fract_y
  _atom_site_fract_z
  _atom_site_thermal_displace_type
  _atom_site_B_iso_or_equiv
  _atom_site_type_symbol
  Zr1      1.0000 0.12315  0.01698  0.30133  Biso   1.000  Zr
  Zr2      1.0000 0.13160  0.23361  0.77783  Biso   1.000  Zr
  Zr3      1.0000 0.35907  0.27556  0.23149  Biso   1.000  Zr
  Zr4      1.0000 0.35392  0.48455  0.69299  Biso   1.000  Zr
  O1       1.0000 0.05058  0.17240  0.14970  Biso   1.000  O
  O2       1.0000 0.02752  0.08717  0.65745  Biso   1.000  O
  O3       1.0000 0.46247  0.42900  0.32925  Biso   1.000  O
  O4       1.0000 0.47910  0.32943  0.84971  Biso   1.000  O
  O5       1.0000 0.26860  0.11593  0.45519  Biso   1.000  O
  O6       1.0000 0.30500  0.14129  0.91719  Biso   1.000  O
  O7       1.0000 0.22957  0.38453  0.00471  Biso   1.000  O
  O8       1.0000 0.20752  0.37892  0.50479  Biso   1.000  O
  Zr5      1.0000 0.13645  0.52373  0.28196  Biso   1.000  Zr
  Zr6      1.0000 0.12805  0.72681  0.79493  Biso   1.000  Zr
  Zr7      1.0000 0.35964  0.76990  0.20443  Biso   1.000  Zr
  Zr8      1.0000 0.35443  0.96056  0.69745  Biso   1.000  Zr
  O9       1.0000 0.02666  0.66564  0.15402  Biso   1.000  O
  O10      1.0000 0.02874  0.58847  0.65120  Biso   1.000  O
  O11      1.0000 0.46647  0.91027  0.34963  Biso   1.000  O
  O12      1.0000 0.46497  0.83382  0.84573  Biso   1.000  O
  O13      1.0000 0.27147  0.62735  0.47626  Biso   1.000  O
  O14      1.0000 0.27066  0.62824  0.97421  Biso   1.000  O
  O15      1.0000 0.22222  0.88576  0.01910  Biso   1.000  O
  O16      1.0000 0.22041  0.86554  0.51805  Biso   1.000  O
  Zr9      1.0000 0.64275  0.01913  0.28593  Biso   1.000  Zr
  Zr10     1.0000 0.66400  0.22122  0.82873  Biso   1.000  Zr
  Zr11     1.0000 0.86295  0.27311  0.22537  Biso   1.000  Zr
  Zr12     1.0000 0.85987  0.47997  0.71132  Biso   1.000  Zr
  O17      1.0000 0.53633  0.16620  0.16664  Biso   1.000  O
  O18      1.0000 0.52194  0.09851  0.64507  Biso   1.000  O
  O19      1.0000 0.96743  0.41836  0.34880  Biso   1.000  O
  O20      1.0000 0.96299  0.33630  0.84992  Biso   1.000  O
  O21      1.0000 0.77675  0.12606  0.49598  Biso   1.000  O
  O22      1.0000 0.80087  0.12075  0.01460  Biso   1.000  O
  O23      1.0000 0.72654  0.37836  0.03291  Biso   1.000  O
  O24      1.0000 0.72665  0.36951  0.53237  Biso   1.000  O
  Zr13     1.0000 0.63791  0.52241  0.29847  Biso   1.000  Zr
  Zr14     1.0000 0.63781  0.72537  0.79547  Biso   1.000  Zr
  Zr15     1.0000 0.85432  0.77349  0.21488  Biso   1.000  Zr
  Zr16     1.0000 0.85122  0.97762  0.72306  Biso   1.000  Zr
  O25      1.0000 0.53115  0.66643  0.15794  Biso   1.000  O
  O26      1.0000 0.52819  0.58318  0.66012  Biso   1.000  O
  O27      1.0000 0.96220  0.91002  0.36570  Biso   1.000  O
  O28      1.0000 0.96307  0.83836  0.86020  Biso   1.000  O
  O29      1.0000 0.77127  0.62741  0.48674  Biso   1.000  O
  O30      1.0000 0.77241  0.62004  0.98633  Biso   1.000  O
  O31      1.0000 0.71811  0.86961  0.02186  Biso   1.000  O
  O32      1.0000 0.71775  0.87091  0.52591  Biso   1.000  O
  Si1      1.0000 0.41447  0.22113  0.67909  Biso   1.000  Si
