data_image0
_cell_length_a       5.15311
_cell_length_b       10.3846
_cell_length_c       10.5472
_cell_angle_alpha    89.7315
_cell_angle_beta     78.0064
_cell_angle_gamma    89.6851

_symmetry_space_group_name_H-M    "P 1"
_symmetry_int_tables_number       1

loop_
  _symmetry_equiv_pos_as_xyz
  'x, y, z'

loop_
  _atom_site_label
  _atom_site_occupancy
  _atom_site_fract_x
  _atom_site_fract_y
  _atom_site_fract_z
  _atom_site_thermal_displace_type
  _atom_site_B_iso_or_equiv
  _atom_site_type_symbol
  Hf1      1.0000 0.26545  0.01147  0.15069  Biso   1.000  Hf
  Hf2      1.0000 0.33902  0.23528  0.40409  Biso   1.000  Hf
  Hf3      1.0000 0.64973  0.26474  0.10101  Biso   1.000  Hf
  Hf4      1.0000 0.72321  0.48854  0.35441  Biso   1.000  Hf
  O1       1.0000 0.01227  0.14725  0.06562  Biso   1.000  O
  O2       1.0000 0.05870  0.05973  0.34184  Biso   1.000  O
  O3       1.0000 0.92996  0.44022  0.16326  Biso   1.000  O
  O4       1.0000 0.97645  0.35277  0.43951  Biso   1.000  O
  O5       1.0000 0.53966  0.10780  0.24303  Biso   1.000  O
  O6       1.0000 0.57737  0.11682  0.49599  Biso   1.000  O
  O7       1.0000 0.41134  0.38317  0.00911  Biso   1.000  O
  O8       1.0000 0.44901  0.39221  0.26207  Biso   1.000  O
  Hf5      1.0000 0.27706  0.02171  0.64688  Biso   1.000  Hf
  Hf6      1.0000 0.24692  0.22742  0.89514  Biso   1.000  Hf
  Hf7      1.0000 0.74179  0.27258  0.60996  Biso   1.000  Hf
  Hf8      1.0000 0.71163  0.47829  0.85822  Biso   1.000  Hf
  O9       1.0000 0.08909  0.16829  0.57551  Biso   1.000  O
  O10      1.0000 0.04783  0.08867  0.82129  Biso   1.000  O
  O11      1.0000 0.94086  0.41133  0.68382  Biso   1.000  O
  O12      1.0000 0.89962  0.33171  0.92959  Biso   1.000  O
  O13      1.0000 0.54037  0.12862  0.74307  Biso   1.000  O
  O14      1.0000 0.50974  0.12225  0.99132  Biso   1.000  O
  O15      1.0000 0.47897  0.37776  0.51379  Biso   1.000  O
  O16      1.0000 0.44832  0.37139  0.76203  Biso   1.000  O
  Hf9      1.0000 0.27835  0.53165  0.14721  Biso   1.000  Hf
  Hf10     1.0000 0.27111  0.72730  0.40073  Biso   1.000  Hf
  Hf11     1.0000 0.71755  0.77269  0.10436  Biso   1.000  Hf
  Hf12     1.0000 0.71030  0.96834  0.35788  Biso   1.000  Hf
  O17      1.0000 0.06903  0.67571  0.07850  Biso   1.000  O
  O18      1.0000 0.06492  0.59130  0.32824  Biso   1.000  O
  O19      1.0000 0.92374  0.90870  0.17684  Biso   1.000  O
  O20      1.0000 0.91961  0.82427  0.42659  Biso   1.000  O
  O21      1.0000 0.55439  0.63399  0.24531  Biso   1.000  O
  O22      1.0000 0.54099  0.62155  0.49504  Biso   1.000  O
  O23      1.0000 0.44766  0.87845  0.01005  Biso   1.000  O
  O24      1.0000 0.43427  0.86600  0.25978  Biso   1.000  O
  Hf13     1.0000 0.27559  0.52161  0.65204  Biso   1.000  Hf
  Hf14     1.0000 0.26794  0.72906  0.89745  Biso   1.000  Hf
  Hf15     1.0000 0.72074  0.77095  0.60765  Biso   1.000  Hf
  Hf16     1.0000 0.71309  0.97839  0.85306  Biso   1.000  Hf
  O25      1.0000 0.05766  0.66187  0.58422  Biso   1.000  O
  O26      1.0000 0.05997  0.58399  0.83269  Biso   1.000  O
  O27      1.0000 0.92871  0.91602  0.67240  Biso   1.000  O
  O28      1.0000 0.93100  0.83813  0.92088  Biso   1.000  O
  O29      1.0000 0.54342  0.62724  0.74316  Biso   1.000  O
  O30      1.0000 0.55095  0.62431  0.99191  Biso   1.000  O
  O31      1.0000 0.43770  0.87568  0.51319  Biso   1.000  O
  O32      1.0000 0.44526  0.87276  0.76194  Biso   1.000  O
  Sn1      1.0000 0.99431  0.24999  0.25259  Biso   1.000  Sn
