data_image0
_cell_length_a       10.1791
_cell_length_b       10.3697
_cell_length_c       5.32576
_cell_angle_alpha    89.7929
_cell_angle_beta     79.1267
_cell_angle_gamma    90.3208

_symmetry_space_group_name_H-M    "P 1"
_symmetry_int_tables_number       1

loop_
  _symmetry_equiv_pos_as_xyz
  'x, y, z'

loop_
  _atom_site_label
  _atom_site_occupancy
  _atom_site_fract_x
  _atom_site_fract_y
  _atom_site_fract_z
  _atom_site_thermal_displace_type
  _atom_site_B_iso_or_equiv
  _atom_site_type_symbol
  Hf1      1.0000 0.13528  0.02089  0.28912  Biso   1.000  Hf
  Hf2      1.0000 0.12787  0.22708  0.77789  Biso   1.000  Hf
  Hf3      1.0000 0.34265  0.28232  0.16007  Biso   1.000  Hf
  Hf4      1.0000 0.35570  0.49591  0.71077  Biso   1.000  Hf
  O1       1.0000 0.03902  0.16830  0.15033  Biso   1.000  O
  O2       1.0000 0.02800  0.08243  0.65018  Biso   1.000  O
  O3       1.0000 0.45894  0.42975  0.34893  Biso   1.000  O
  O4       1.0000 0.47437  0.36776  0.88283  Biso   1.000  O
  O5       1.0000 0.26899  0.12434  0.45644  Biso   1.000  O
  O6       1.0000 0.28383  0.12944  0.93967  Biso   1.000  O
  O7       1.0000 0.20683  0.38950  0.00263  Biso   1.000  O
  O8       1.0000 0.22577  0.36810  0.51221  Biso   1.000  O
  Hf5      1.0000 0.13503  0.52362  0.29735  Biso   1.000  Hf
  Hf6      1.0000 0.13259  0.72898  0.79630  Biso   1.000  Hf
  Hf7      1.0000 0.35880  0.77206  0.21089  Biso   1.000  Hf
  Hf8      1.0000 0.36093  0.96592  0.70752  Biso   1.000  Hf
  O9       1.0000 0.02957  0.66412  0.15832  Biso   1.000  O
  O10      1.0000 0.02998  0.58397  0.65990  Biso   1.000  O
  O11      1.0000 0.46535  0.91360  0.34931  Biso   1.000  O
  O12      1.0000 0.46300  0.82828  0.85213  Biso   1.000  O
  O13      1.0000 0.27105  0.63054  0.48396  Biso   1.000  O
  O14      1.0000 0.27104  0.62968  0.98776  Biso   1.000  O
  O15      1.0000 0.22178  0.88155  0.02300  Biso   1.000  O
  O16      1.0000 0.21950  0.86820  0.52086  Biso   1.000  O
  Hf9      1.0000 0.64206  0.01410  0.30174  Biso   1.000  Hf
  Hf10     1.0000 0.65591  0.22430  0.83452  Biso   1.000  Hf
  Hf11     1.0000 0.86177  0.27112  0.22507  Biso   1.000  Hf
  Hf12     1.0000 0.85655  0.47799  0.71568  Biso   1.000  Hf
  O17      1.0000 0.53297  0.16371  0.15751  Biso   1.000  O
  O18      1.0000 0.55058  0.05895  0.68014  Biso   1.000  O
  O19      1.0000 0.96464  0.41434  0.35727  Biso   1.000  O
  O20      1.0000 0.95748  0.33029  0.84762  Biso   1.000  O
  O21      1.0000 0.77978  0.12821  0.49438  Biso   1.000  O
  O22      1.0000 0.78744  0.11424  0.00542  Biso   1.000  O
  O23      1.0000 0.72517  0.37843  0.04295  Biso   1.000  O
  O24      1.0000 0.71788  0.36807  0.53737  Biso   1.000  O
  Hf13     1.0000 0.63489  0.52508  0.29837  Biso   1.000  Hf
  Hf14     1.0000 0.63805  0.72744  0.79920  Biso   1.000  Hf
  Hf15     1.0000 0.85935  0.77017  0.21446  Biso   1.000  Hf
  Hf16     1.0000 0.85650  0.97526  0.71343  Biso   1.000  Hf
  O25      1.0000 0.53198  0.66774  0.15806  Biso   1.000  O
  O26      1.0000 0.53036  0.59440  0.65030  Biso   1.000  O
  O27      1.0000 0.96387  0.91241  0.35346  Biso   1.000  O
  O28      1.0000 0.96383  0.83476  0.85378  Biso   1.000  O
  O29      1.0000 0.77543  0.62609  0.48597  Biso   1.000  O
  O30      1.0000 0.77309  0.61973  0.98442  Biso   1.000  O
  O31      1.0000 0.72208  0.87385  0.02661  Biso   1.000  O
  O32      1.0000 0.72376  0.86681  0.52263  Biso   1.000  O
  Sr1      1.0000 0.45003  0.23614  0.56123  Biso   1.000  Sr
