data_image0
_cell_length_a       5.13274
_cell_length_b       10.4214
_cell_length_c       10.5463
_cell_angle_alpha    89.9216
_cell_angle_beta     80.3933
_cell_angle_gamma    90.3892

_symmetry_space_group_name_H-M    "P 1"
_symmetry_int_tables_number       1

loop_
  _symmetry_equiv_pos_as_xyz
  'x, y, z'

loop_
  _atom_site_label
  _atom_site_occupancy
  _atom_site_fract_x
  _atom_site_fract_y
  _atom_site_fract_z
  _atom_site_thermal_displace_type
  _atom_site_B_iso_or_equiv
  _atom_site_type_symbol
  Sr1      1.0000 0.27366  0.00926  0.14304  Biso   1.000  Sr
  Zr1      1.0000 0.27984  0.02188  0.64743  Biso   1.000  Zr
  Zr2      1.0000 0.27536  0.51691  0.14439  Biso   1.000  Zr
  Zr3      1.0000 0.28054  0.52080  0.64513  Biso   1.000  Zr
  Zr4      1.0000 0.27396  0.22896  0.39768  Biso   1.000  Zr
  Zr5      1.0000 0.27817  0.23051  0.89583  Biso   1.000  Zr
  Zr6      1.0000 0.27548  0.72341  0.39638  Biso   1.000  Zr
  Zr7      1.0000 0.29013  0.72936  0.89224  Biso   1.000  Zr
  Zr8      1.0000 0.71358  0.26804  0.10366  Biso   1.000  Zr
  Zr9      1.0000 0.72117  0.27158  0.60539  Biso   1.000  Zr
  Zr10     1.0000 0.72398  0.76144  0.10127  Biso   1.000  Zr
  Zr11     1.0000 0.72345  0.77281  0.60272  Biso   1.000  Zr
  Zr12     1.0000 0.71708  0.47680  0.35321  Biso   1.000  Zr
  Zr13     1.0000 0.72406  0.47824  0.85290  Biso   1.000  Zr
  Zr14     1.0000 0.71268  0.98364  0.36113  Biso   1.000  Zr
  Zr15     1.0000 0.72528  0.97921  0.85551  Biso   1.000  Zr
  O1       1.0000 0.06659  0.18781  0.07613  Biso   1.000  O
  O2       1.0000 0.06904  0.17244  0.58764  Biso   1.000  O
  O3       1.0000 0.08110  0.67225  0.08139  Biso   1.000  O
  O4       1.0000 0.06950  0.66787  0.58014  Biso   1.000  O
  O5       1.0000 0.05577  0.08036  0.35126  Biso   1.000  O
  O6       1.0000 0.07628  0.08037  0.83162  Biso   1.000  O
  O7       1.0000 0.06452  0.58035  0.32913  Biso   1.000  O
  O8       1.0000 0.07170  0.58238  0.82788  Biso   1.000  O
  O9       1.0000 0.92019  0.42119  0.16869  Biso   1.000  O
  O10      1.0000 0.93128  0.42037  0.66765  Biso   1.000  O
  O11      1.0000 0.84735  0.93064  0.16546  Biso   1.000  O
  O12      1.0000 0.93421  0.91663  0.67205  Biso   1.000  O
  O13      1.0000 0.92625  0.33203  0.42092  Biso   1.000  O
  O14      1.0000 0.93156  0.33554  0.91391  Biso   1.000  O
  O15      1.0000 0.93561  0.83189  0.41869  Biso   1.000  O
  O16      1.0000 0.95705  0.83675  0.92167  Biso   1.000  O
  O17      1.0000 0.56035  0.13831  0.25378  Biso   1.000  O
  O18      1.0000 0.55355  0.12876  0.73954  Biso   1.000  O
  O19      1.0000 0.54714  0.62121  0.23860  Biso   1.000  O
  O20      1.0000 0.55475  0.63012  0.73774  Biso   1.000  O
  O21      1.0000 0.54278  0.12266  0.49653  Biso   1.000  O
  O22      1.0000 0.56882  0.12788  0.98027  Biso   1.000  O
  O23      1.0000 0.55001  0.62077  0.48961  Biso   1.000  O
  O24      1.0000 0.55260  0.61541  0.98867  Biso   1.000  O
  O25      1.0000 0.44829  0.37924  0.00761  Biso   1.000  O
  O26      1.0000 0.44790  0.37942  0.50955  Biso   1.000  O
  O27      1.0000 0.48378  0.86238  0.99390  Biso   1.000  O
  O28      1.0000 0.45085  0.87968  0.51163  Biso   1.000  O
  O29      1.0000 0.43769  0.37220  0.25950  Biso   1.000  O
  O30      1.0000 0.45103  0.37257  0.75762  Biso   1.000  O
  O31      1.0000 0.46961  0.85549  0.26803  Biso   1.000  O
  O32      1.0000 0.45444  0.87221  0.75531  Biso   1.000  O
