data_image0
_cell_length_a       9.9952
_cell_length_b       5.10285
_cell_length_c       10.4643
_cell_angle_alpha    90.0298
_cell_angle_beta     89.9932
_cell_angle_gamma    89.887

_symmetry_space_group_name_H-M    "P 1"
_symmetry_int_tables_number       1

loop_
  _symmetry_equiv_pos_as_xyz
  'x, y, z'

loop_
  _atom_site_label
  _atom_site_occupancy
  _atom_site_fract_x
  _atom_site_fract_y
  _atom_site_fract_z
  _atom_site_thermal_displace_type
  _atom_site_B_iso_or_equiv
  _atom_site_type_symbol
  Ta1      1.0000 0.13960  0.04588  0.17305  Biso   1.000  Ta
  Hf1      1.0000 0.13898  0.45883  0.42190  Biso   1.000  Hf
  Hf2      1.0000 0.35929  0.54979  0.17220  Biso   1.000  Hf
  Hf3      1.0000 0.36060  0.95876  0.42175  Biso   1.000  Hf
  Hf4      1.0000 0.63882  0.04486  0.07761  Biso   1.000  Hf
  Hf5      1.0000 0.63847  0.45686  0.32747  Biso   1.000  Hf
  Hf6      1.0000 0.86189  0.54373  0.07796  Biso   1.000  Hf
  Hf7      1.0000 0.86079  0.95664  0.32754  Biso   1.000  Hf
  O1       1.0000 0.03430  0.32037  0.08537  Biso   1.000  O
  O2       1.0000 0.03666  0.16345  0.33029  Biso   1.000  O
  O3       1.0000 0.46709  0.83137  0.08257  Biso   1.000  O
  O4       1.0000 0.46575  0.66963  0.33346  Biso   1.000  O
  O5       1.0000 0.27641  0.24629  0.29520  Biso   1.000  O
  O6       1.0000 0.27520  0.25174  0.04894  Biso   1.000  O
  O7       1.0000 0.21899  0.75071  0.29625  Biso   1.000  O
  O8       1.0000 0.21655  0.75869  0.04716  Biso   1.000  O
  O9       1.0000 0.53248  0.33431  0.16582  Biso   1.000  O
  O10      1.0000 0.53317  0.16918  0.41590  Biso   1.000  O
  O11      1.0000 0.97421  0.82751  0.16671  Biso   1.000  O
  O12      1.0000 0.96637  0.66771  0.41565  Biso   1.000  O
  O13      1.0000 0.77766  0.24560  0.45395  Biso   1.000  O
  O14      1.0000 0.77749  0.25181  0.20439  Biso   1.000  O
  O15      1.0000 0.72297  0.74648  0.45428  Biso   1.000  O
  O16      1.0000 0.72561  0.75314  0.20422  Biso   1.000  O
  Hf8      1.0000 0.13875  0.04242  0.67207  Biso   1.000  Hf
  Hf9      1.0000 0.13990  0.45663  0.92226  Biso   1.000  Hf
  Hf10     1.0000 0.36142  0.54304  0.67186  Biso   1.000  Hf
  Hf11     1.0000 0.36092  0.95747  0.92253  Biso   1.000  Hf
  Hf12     1.0000 0.63886  0.04224  0.57817  Biso   1.000  Hf
  Hf13     1.0000 0.63920  0.45821  0.82837  Biso   1.000  Hf
  Hf14     1.0000 0.86071  0.54158  0.57814  Biso   1.000  Hf
  Hf15     1.0000 0.86146  0.95666  0.82855  Biso   1.000  Hf
  O17      1.0000 0.03202  0.32644  0.58122  Biso   1.000  O
  O18      1.0000 0.03238  0.17176  0.83259  Biso   1.000  O
  O19      1.0000 0.46671  0.83169  0.58360  Biso   1.000  O
  O20      1.0000 0.46700  0.67081  0.83350  Biso   1.000  O
  O21      1.0000 0.27713  0.24738  0.79605  Biso   1.000  O
  O22      1.0000 0.27708  0.25309  0.54582  Biso   1.000  O
  O23      1.0000 0.22296  0.74701  0.79604  Biso   1.000  O
  O24      1.0000 0.22299  0.75202  0.54556  Biso   1.000  O
  O25      1.0000 0.53337  0.33168  0.66603  Biso   1.000  O
  O26      1.0000 0.53238  0.17081  0.91619  Biso   1.000  O
  O27      1.0000 0.96781  0.82730  0.66706  Biso   1.000  O
  O28      1.0000 0.96732  0.66743  0.91763  Biso   1.000  O
  O29      1.0000 0.77716  0.24837  0.95434  Biso   1.000  O
  O30      1.0000 0.77698  0.25180  0.70433  Biso   1.000  O
  O31      1.0000 0.72280  0.74818  0.95404  Biso   1.000  O
  O32      1.0000 0.72336  0.75265  0.70437  Biso   1.000  O
