data_image0
_cell_length_a       10.081
_cell_length_b       10.2162
_cell_length_c       10.5482
_cell_angle_alpha    90.1471
_cell_angle_beta     90.4566
_cell_angle_gamma    89.7333

_symmetry_space_group_name_H-M    "P 1"
_symmetry_int_tables_number       1

loop_
  _symmetry_equiv_pos_as_xyz
  'x, y, z'

loop_
  _atom_site_label
  _atom_site_occupancy
  _atom_site_fract_x
  _atom_site_fract_y
  _atom_site_fract_z
  _atom_site_thermal_displace_type
  _atom_site_B_iso_or_equiv
  _atom_site_type_symbol
  Hf1      1.0000 0.13848  0.01956  0.17378  Biso   1.000  Hf
  Hf2      1.0000 0.13701  0.22834  0.42450  Biso   1.000  Hf
  Hf3      1.0000 0.35355  0.26553  0.17899  Biso   1.000  Hf
  Hf4      1.0000 0.36099  0.47789  0.42473  Biso   1.000  Hf
  Hf5      1.0000 0.63474  0.99726  0.08039  Biso   1.000  Hf
  Hf6      1.0000 0.63284  0.22590  0.33333  Biso   1.000  Hf
  Hf7      1.0000 0.88002  0.27843  0.07294  Biso   1.000  Hf
  Hf8      1.0000 0.86142  0.47949  0.32679  Biso   1.000  Hf
  O1       1.0000 0.03611  0.15843  0.07704  Biso   1.000  O
  O2       1.0000 0.02631  0.09233  0.32753  Biso   1.000  O
  O3       1.0000 0.47701  0.40377  0.08272  Biso   1.000  O
  O4       1.0000 0.46684  0.33886  0.32919  Biso   1.000  O
  O5       1.0000 0.27010  0.12346  0.30069  Biso   1.000  O
  O6       1.0000 0.27589  0.12288  0.04880  Biso   1.000  O
  O7       1.0000 0.22141  0.37393  0.29945  Biso   1.000  O
  O8       1.0000 0.22810  0.37550  0.04740  Biso   1.000  O
  O9       1.0000 0.51044  0.13127  0.18964  Biso   1.000  O
  O10      1.0000 0.52666  0.09144  0.43020  Biso   1.000  O
  O11      1.0000 0.97396  0.41575  0.17346  Biso   1.000  O
  O12      1.0000 0.96862  0.33954  0.41978  Biso   1.000  O
  O13      1.0000 0.77548  0.12218  0.45181  Biso   1.000  O
  O14      1.0000 0.75714  0.13639  0.19313  Biso   1.000  O
  O15      1.0000 0.72397  0.37452  0.45189  Biso   1.000  O
  O16      1.0000 0.72227  0.38097  0.19754  Biso   1.000  O
  Hf9      1.0000 0.13812  0.02120  0.67370  Biso   1.000  Hf
  Hf10     1.0000 0.14494  0.22755  0.92140  Biso   1.000  Hf
  Hf11     1.0000 0.36070  0.27135  0.67274  Biso   1.000  Hf
  Hf12     1.0000 0.36167  0.47969  0.92200  Biso   1.000  Hf
  Hf13     1.0000 0.63879  0.01825  0.57766  Biso   1.000  Hf
  Hf14     1.0000 0.64128  0.23089  0.81340  Biso   1.000  Hf
  Hf15     1.0000 0.86257  0.27223  0.57478  Biso   1.000  Hf
  Hf16     1.0000 0.86437  0.48037  0.82502  Biso   1.000  Hf
  O17      1.0000 0.03087  0.16108  0.58005  Biso   1.000  O
  O18      1.0000 0.03096  0.09062  0.83027  Biso   1.000  O
  O19      1.0000 0.47162  0.40719  0.57841  Biso   1.000  O
  O20      1.0000 0.47224  0.34443  0.82658  Biso   1.000  O
  O21      1.0000 0.27656  0.12449  0.79654  Biso   1.000  O
  O22      1.0000 0.27447  0.12530  0.54834  Biso   1.000  O
  O23      1.0000 0.22633  0.37465  0.79672  Biso   1.000  O
  O24      1.0000 0.22440  0.37615  0.54767  Biso   1.000  O
  O25      1.0000 0.52537  0.15182  0.67430  Biso   1.000  O
  O26      1.0000 0.52312  0.10681  0.93950  Biso   1.000  O
  O27      1.0000 0.96992  0.41326  0.66763  Biso   1.000  O
  O28      1.0000 0.97808  0.34197  0.91640  Biso   1.000  O
  O29      1.0000 0.76443  0.13072  0.95528  Biso   1.000  O
  O30      1.0000 0.77878  0.12424  0.69875  Biso   1.000  O
  O31      1.0000 0.72994  0.38032  0.95091  Biso   1.000  O
  O32      1.0000 0.72695  0.37679  0.69931  Biso   1.000  O
  Hf17     1.0000 0.14213  0.52269  0.17504  Biso   1.000  Hf
  Hf18     1.0000 0.13787  0.72876  0.42448  Biso   1.000  Hf
  Hf19     1.0000 0.35829  0.76896  0.17556  Biso   1.000  Hf
  Hf20     1.0000 0.36108  0.97759  0.42525  Biso   1.000  Hf
  Hf21     1.0000 0.64404  0.53370  0.07603  Biso   1.000  Hf
  Hf22     1.0000 0.63826  0.72788  0.32990  Biso   1.000  Hf
  Hf23     1.0000 0.86661  0.77110  0.07720  Biso   1.000  Hf
  Hf24     1.0000 0.86191  0.97902  0.32833  Biso   1.000  Hf
  O33      1.0000 0.03494  0.66289  0.08120  Biso   1.000  O
  O34      1.0000 0.03094  0.58983  0.33203  Biso   1.000  O
  O35      1.0000 0.46723  0.89436  0.07201  Biso   1.000  O
  O36      1.0000 0.47047  0.84216  0.32772  Biso   1.000  O
  O37      1.0000 0.27600  0.62365  0.29952  Biso   1.000  O
  O38      1.0000 0.27890  0.62396  0.04837  Biso   1.000  O
  O39      1.0000 0.22288  0.87292  0.29896  Biso   1.000  O
  O40      1.0000 0.22271  0.87601  0.04771  Biso   1.000  O
  O41      1.0000 0.52980  0.65904  0.17486  Biso   1.000  O
  O42      1.0000 0.52942  0.58978  0.42203  Biso   1.000  O
  O43      1.0000 0.96780  0.91452  0.16958  Biso   1.000  O
  O44      1.0000 0.96781  0.84147  0.42085  Biso   1.000  O
  O45      1.0000 0.77645  0.62365  0.45331  Biso   1.000  O
  O46      1.0000 0.77921  0.62877  0.20357  Biso   1.000  O
  O47      1.0000 0.72382  0.87358  0.45504  Biso   1.000  O
  O48      1.0000 0.72954  0.87130  0.20856  Biso   1.000  O
  Hf25     1.0000 0.13936  0.52228  0.67289  Biso   1.000  Hf
  Hf26     1.0000 0.14045  0.72932  0.92309  Biso   1.000  Hf
  Hf27     1.0000 0.36185  0.77205  0.67406  Biso   1.000  Hf
  Hf28     1.0000 0.36174  0.97909  0.92472  Biso   1.000  Hf
  Hf29     1.0000 0.63884  0.52160  0.57601  Biso   1.000  Hf
  Hf30     1.0000 0.63940  0.72868  0.82525  Biso   1.000  Hf
  Hf31     1.0000 0.86149  0.77206  0.57887  Biso   1.000  Hf
  Hf32     1.0000 0.86241  0.98150  0.82850  Biso   1.000  Hf
  O49      1.0000 0.03151  0.66361  0.58115  Biso   1.000  O
  O50      1.0000 0.03288  0.58966  0.82993  Biso   1.000  O
  O51      1.0000 0.47108  0.90489  0.57712  Biso   1.000  O
  O52      1.0000 0.47384  0.84646  0.82563  Biso   1.000  O
  O53      1.0000 0.27810  0.62394  0.79854  Biso   1.000  O
  O54      1.0000 0.27565  0.62583  0.54795  Biso   1.000  O
  O55      1.0000 0.22533  0.87411  0.79836  Biso   1.000  O
  O56      1.0000 0.22406  0.87649  0.54833  Biso   1.000  O
  O57      1.0000 0.52979  0.65831  0.67240  Biso   1.000  O
  O58      1.0000 0.53024  0.59219  0.92242  Biso   1.000  O
  O59      1.0000 0.96866  0.91225  0.67185  Biso   1.000  O
  O60      1.0000 0.97059  0.83959  0.91941  Biso   1.000  O
  O61      1.0000 0.77948  0.62753  0.95094  Biso   1.000  O
  O62      1.0000 0.77665  0.62634  0.70225  Biso   1.000  O
  O63      1.0000 0.72735  0.87293  0.95225  Biso   1.000  O
  O64      1.0000 0.72562  0.87543  0.70564  Biso   1.000  O
  Ta1      1.0000 0.61854  0.25162  0.06752  Biso   1.000  Ta
