data_image0
_cell_length_a       10.173
_cell_length_b       10.288
_cell_length_c       10.5195
_cell_angle_alpha    90.2231
_cell_angle_beta     79.3399
_cell_angle_gamma    90.2382

_symmetry_space_group_name_H-M    "P 1"
_symmetry_int_tables_number       1

loop_
  _symmetry_equiv_pos_as_xyz
  'x, y, z'

loop_
  _atom_site_label
  _atom_site_occupancy
  _atom_site_fract_x
  _atom_site_fract_y
  _atom_site_fract_z
  _atom_site_thermal_displace_type
  _atom_site_B_iso_or_equiv
  _atom_site_type_symbol
  Hf1      1.0000 0.13522  0.02292  0.14613  Biso   1.000  Hf
  Hf2      1.0000 0.14830  0.23421  0.38894  Biso   1.000  Hf
  Hf3      1.0000 0.34108  0.27419  0.08295  Biso   1.000  Hf
  Hf4      1.0000 0.35154  0.48064  0.35276  Biso   1.000  Hf
  O1       1.0000 0.03328  0.16975  0.07708  Biso   1.000  O
  O2       1.0000 0.03959  0.08268  0.32866  Biso   1.000  O
  O3       1.0000 0.46533  0.39948  0.18170  Biso   1.000  O
  O4       1.0000 0.48195  0.34815  0.42876  Biso   1.000  O
  O5       1.0000 0.28224  0.12260  0.23112  Biso   1.000  O
  O6       1.0000 0.30644  0.13756  0.46395  Biso   1.000  O
  O7       1.0000 0.21181  0.38746  0.99674  Biso   1.000  O
  O8       1.0000 0.20733  0.37701  0.24492  Biso   1.000  O
  Hf5      1.0000 0.13230  0.01843  0.64916  Biso   1.000  Hf
  Hf6      1.0000 0.13136  0.22951  0.88976  Biso   1.000  Hf
  Hf7      1.0000 0.36350  0.27379  0.60455  Biso   1.000  Hf
  Hf8      1.0000 0.35733  0.48330  0.84968  Biso   1.000  Hf
  O9       1.0000 0.04754  0.16838  0.57596  Biso   1.000  O
  O10      1.0000 0.02884  0.08149  0.82933  Biso   1.000  O
  O11      1.0000 0.46617  0.41850  0.67257  Biso   1.000  O
  O12      1.0000 0.46352  0.33827  0.91855  Biso   1.000  O
  O13      1.0000 0.27305  0.12764  0.73247  Biso   1.000  O
  O14      1.0000 0.26862  0.12259  0.98039  Biso   1.000  O
  O15      1.0000 0.22378  0.38205  0.50970  Biso   1.000  O
  O16      1.0000 0.22333  0.37098  0.75474  Biso   1.000  O
  Hf9      1.0000 0.13590  0.52579  0.14277  Biso   1.000  Hf
  Hf10     1.0000 0.13628  0.72871  0.39720  Biso   1.000  Hf
  Hf11     1.0000 0.35871  0.77101  0.10347  Biso   1.000  Hf
  Hf12     1.0000 0.36181  0.96599  0.35245  Biso   1.000  Hf
  O17      1.0000 0.03077  0.67166  0.07837  Biso   1.000  O
  O18      1.0000 0.03307  0.58809  0.32657  Biso   1.000  O
  O19      1.0000 0.46815  0.91215  0.17348  Biso   1.000  O
  O20      1.0000 0.46156  0.82242  0.42320  Biso   1.000  O
  O21      1.0000 0.27586  0.62821  0.24066  Biso   1.000  O
  O22      1.0000 0.27045  0.62504  0.49302  Biso   1.000  O
  O23      1.0000 0.22344  0.88030  0.00945  Biso   1.000  O
  O24      1.0000 0.22020  0.86613  0.25775  Biso   1.000  O
  Hf13     1.0000 0.13684  0.52385  0.64630  Biso   1.000  Hf
  Hf14     1.0000 0.13437  0.73064  0.89756  Biso   1.000  Hf
  Hf15     1.0000 0.36141  0.77063  0.60486  Biso   1.000  Hf
  Hf16     1.0000 0.36033  0.97683  0.85284  Biso   1.000  Hf
  O25      1.0000 0.02972  0.66669  0.58010  Biso   1.000  O
  O26      1.0000 0.03252  0.58322  0.83067  Biso   1.000  O
  O27      1.0000 0.46534  0.91707  0.67215  Biso   1.000  O
  O28      1.0000 0.46505  0.83418  0.92295  Biso   1.000  O
  O29      1.0000 0.27399  0.62912  0.74068  Biso   1.000  O
  O30      1.0000 0.27446  0.62545  0.98932  Biso   1.000  O
  O31      1.0000 0.22274  0.88475  0.51104  Biso   1.000  O
  O32      1.0000 0.22187  0.87088  0.76027  Biso   1.000  O
  Hf17     1.0000 0.63904  0.02281  0.15488  Biso   1.000  Hf
  Hf18     1.0000 0.65586  0.22757  0.40631  Biso   1.000  Hf
  Hf19     1.0000 0.85841  0.27237  0.10860  Biso   1.000  Hf
  Hf20     1.0000 0.86485  0.47805  0.35660  Biso   1.000  Hf
  O33      1.0000 0.51829  0.16621  0.08685  Biso   1.000  O
  O34      1.0000 0.54466  0.06034  0.34847  Biso   1.000  O
  O35      1.0000 0.96231  0.42186  0.16899  Biso   1.000  O
  O36      1.0000 0.96964  0.33513  0.42388  Biso   1.000  O
  O37      1.0000 0.78627  0.12669  0.24619  Biso   1.000  O
  O38      1.0000 0.78760  0.11614  0.49971  Biso   1.000  O
  O39      1.0000 0.71848  0.37814  0.01539  Biso   1.000  O
  O40      1.0000 0.72959  0.37466  0.26627  Biso   1.000  O
  Hf21     1.0000 0.63914  0.02212  0.64913  Biso   1.000  Hf
  Hf22     1.0000 0.63568  0.23053  0.90046  Biso   1.000  Hf
  Hf23     1.0000 0.86840  0.27019  0.60740  Biso   1.000  Hf
  Hf24     1.0000 0.85826  0.47894  0.85770  Biso   1.000  Hf
  O41      1.0000 0.53885  0.17035  0.58416  Biso   1.000  O
  O42      1.0000 0.53196  0.08434  0.83221  Biso   1.000  O
  O43      1.0000 0.96560  0.41734  0.67528  Biso   1.000  O
  O44      1.0000 0.95827  0.33071  0.92119  Biso   1.000  O
  O45      1.0000 0.77552  0.12980  0.74652  Biso   1.000  O
  O46      1.0000 0.76869  0.12315  0.99727  Biso   1.000  O
  O47      1.0000 0.73218  0.37742  0.51735  Biso   1.000  O
  O48      1.0000 0.72294  0.37069  0.76477  Biso   1.000  O
  Hf25     1.0000 0.63749  0.52152  0.15137  Biso   1.000  Hf
  Hf26     1.0000 0.63756  0.72563  0.39769  Biso   1.000  Hf
  Hf27     1.0000 0.85779  0.77292  0.10619  Biso   1.000  Hf
  Hf28     1.0000 0.86293  0.97801  0.35684  Biso   1.000  Hf
  O49      1.0000 0.52906  0.65937  0.07813  Biso   1.000  O
  O50      1.0000 0.52969  0.58350  0.32758  Biso   1.000  O
  O51      1.0000 0.96496  0.91686  0.17270  Biso   1.000  O
  O52      1.0000 0.96520  0.83416  0.42568  Biso   1.000  O
  O53      1.0000 0.77340  0.62896  0.24177  Biso   1.000  O
  O54      1.0000 0.77461  0.62062  0.49182  Biso   1.000  O
  O55      1.0000 0.72029  0.87972  0.01397  Biso   1.000  O
  O56      1.0000 0.72415  0.87039  0.26247  Biso   1.000  O
  Hf29     1.0000 0.63977  0.52133  0.64824  Biso   1.000  Hf
  Hf30     1.0000 0.63617  0.72707  0.89927  Biso   1.000  Hf
  Hf31     1.0000 0.85751  0.77158  0.60582  Biso   1.000  Hf
  Hf32     1.0000 0.85387  0.97848  0.85906  Biso   1.000  Hf
  O57      1.0000 0.53342  0.66526  0.58118  Biso   1.000  O
  O58      1.0000 0.53218  0.58533  0.82818  Biso   1.000  O
  O59      1.0000 0.96110  0.91642  0.67580  Biso   1.000  O
  O60      1.0000 0.96185  0.83494  0.92263  Biso   1.000  O
  O61      1.0000 0.77489  0.62869  0.74316  Biso   1.000  O
  O62      1.0000 0.77325  0.62159  0.99348  Biso   1.000  O
  O63      1.0000 0.72131  0.87719  0.51235  Biso   1.000  O
  O64      1.0000 0.72038  0.87139  0.76322  Biso   1.000  O
  Ta1      1.0000 0.44635  0.22509  0.28677  Biso   1.000  Ta
