data_image0
_cell_length_a       5.05587
_cell_length_b       10.3733
_cell_length_c       10.0994
_cell_angle_alpha    88.6351
_cell_angle_beta     90.1242
_cell_angle_gamma    90.5236

_symmetry_space_group_name_H-M    "P 1"
_symmetry_int_tables_number       1

loop_
  _symmetry_equiv_pos_as_xyz
  'x, y, z'

loop_
  _atom_site_label
  _atom_site_occupancy
  _atom_site_fract_x
  _atom_site_fract_y
  _atom_site_fract_z
  _atom_site_thermal_displace_type
  _atom_site_B_iso_or_equiv
  _atom_site_type_symbol
  Hf1      1.0000 0.25967  0.99967  0.09243  Biso   1.000  Hf
  Hf2      1.0000 0.24666  0.23285  0.40548  Biso   1.000  Hf
  Hf3      1.0000 0.67441  0.24948  0.11993  Biso   1.000  Hf
  Hf4      1.0000 0.73451  0.48615  0.37571  Biso   1.000  Hf
  O1       1.0000 0.90980  0.18655  0.27497  Biso   1.000  O
  O2       1.0000 0.07760  0.06023  0.46163  Biso   1.000  O
  O3       1.0000 0.91675  0.43446  0.19109  Biso   1.000  O
  O4       1.0000 0.95261  0.34111  0.47117  Biso   1.000  O
  O5       1.0000 0.40179  0.12904  0.23413  Biso   1.000  O
  O6       1.0000 0.56065  0.13642  0.49541  Biso   1.000  O
  O7       1.0000 0.47587  0.38585  0.50797  Biso   1.000  O
  O8       1.0000 0.43005  0.37126  0.26239  Biso   1.000  O
  Hf5      1.0000 0.28644  0.01048  0.62758  Biso   1.000  Hf
  Hf6      1.0000 0.28439  0.21984  0.86902  Biso   1.000  Hf
  Hf7      1.0000 0.74417  0.26878  0.63212  Biso   1.000  Hf
  Hf8      1.0000 0.73633  0.47999  0.88211  Biso   1.000  Hf
  O9       1.0000 0.09327  0.18406  0.68337  Biso   1.000  O
  O10      1.0000 0.11344  0.04417  0.90302  Biso   1.000  O
  O11      1.0000 0.95112  0.42903  0.71645  Biso   1.000  O
  O12      1.0000 0.94557  0.30879  0.96077  Biso   1.000  O
  O13      1.0000 0.56204  0.11307  0.74405  Biso   1.000  O
  O14      1.0000 0.59392  0.10957  0.98748  Biso   1.000  O
  O15      1.0000 0.44799  0.38218  0.00561  Biso   1.000  O
  O16      1.0000 0.48191  0.36368  0.75655  Biso   1.000  O
  Hf9      1.0000 0.27004  0.53434  0.12676  Biso   1.000  Hf
  Hf10     1.0000 0.27614  0.74364  0.37452  Biso   1.000  Hf
  Hf11     1.0000 0.73666  0.76983  0.12587  Biso   1.000  Hf
  Hf12     1.0000 0.74954  0.00115  0.36247  Biso   1.000  Hf
  O17      1.0000 0.07549  0.69239  0.19837  Biso   1.000  O
  O18      1.0000 0.06131  0.57841  0.44863  Biso   1.000  O
  O19      1.0000 0.92088  0.94769  0.18204  Biso   1.000  O
  O20      1.0000 0.93030  0.82648  0.43132  Biso   1.000  O
  O21      1.0000 0.54822  0.62581  0.25058  Biso   1.000  O
  O22      1.0000 0.53612  0.63397  0.49620  Biso   1.000  O
  O23      1.0000 0.47209  0.88789  0.49266  Biso   1.000  O
  O24      1.0000 0.46921  0.87469  0.24152  Biso   1.000  O
  Hf13     1.0000 0.26667  0.51354  0.62574  Biso   1.000  Hf
  Hf14     1.0000 0.27965  0.72804  0.86861  Biso   1.000  Hf
  Hf15     1.0000 0.74843  0.76364  0.61154  Biso   1.000  Hf
  Hf16     1.0000 0.75317  0.97035  0.86220  Biso   1.000  Hf
  O25      1.0000 0.07784  0.68093  0.69226  Biso   1.000  O
  O26      1.0000 0.07597  0.56772  0.94760  Biso   1.000  O
  O27      1.0000 0.94727  0.92322  0.68678  Biso   1.000  O
  O28      1.0000 0.96148  0.81519  0.95302  Biso   1.000  O
  O29      1.0000 0.54507  0.60884  0.74807  Biso   1.000  O
  O30      1.0000 0.55387  0.63173  0.99789  Biso   1.000  O
  O31      1.0000 0.48180  0.86958  0.98707  Biso   1.000  O
  O32      1.0000 0.48480  0.85805  0.74042  Biso   1.000  O
  Ta1      1.0000 0.16758  0.27733  0.13411  Biso   1.000  Ta
