data_image0
_cell_length_a       10.1109
_cell_length_b       10.1859
_cell_length_c       10.1108
_cell_angle_alpha    89.9995
_cell_angle_beta     89.9999
_cell_angle_gamma    90.0018

_symmetry_space_group_name_H-M    "P 1"
_symmetry_int_tables_number       1

loop_
  _symmetry_equiv_pos_as_xyz
  'x, y, z'

loop_
  _atom_site_label
  _atom_site_occupancy
  _atom_site_fract_x
  _atom_site_fract_y
  _atom_site_fract_z
  _atom_site_thermal_displace_type
  _atom_site_B_iso_or_equiv
  _atom_site_type_symbol
  Zr1      1.0000 0.12518  0.98272  0.10633  Biso   1.000  Zr
  Zr2      1.0000 0.12517  0.25020  0.37406  Biso   1.000  Zr
  Zr3      1.0000 0.39289  0.25019  0.10634  Biso   1.000  Zr
  Zr4      1.0000 0.37420  0.49963  0.35535  Biso   1.000  Zr
  O1       1.0000 0.99855  0.14066  0.23295  Biso   1.000  O
  O2       1.0000 0.00210  0.10672  0.48267  Biso   1.000  O
  O3       1.0000 0.50152  0.39366  0.22942  Biso   1.000  O
  O4       1.0000 0.49763  0.35575  0.47879  Biso   1.000  O
  O5       1.0000 0.24551  0.11502  0.22669  Biso   1.000  O
  O6       1.0000 0.25610  0.14019  0.48299  Biso   1.000  O
  O7       1.0000 0.24825  0.39367  0.48267  Biso   1.000  O
  O8       1.0000 0.25179  0.35973  0.23294  Biso   1.000  O
  Zr5      1.0000 0.12518  0.99635  0.60633  Biso   1.000  Zr
  Zr6      1.0000 0.12517  0.25019  0.83862  Biso   1.000  Zr
  Zr7      1.0000 0.37873  0.25020  0.60634  Biso   1.000  Zr
  Zr8      1.0000 0.37320  0.49814  0.85831  Biso   1.000  Zr
  O9       1.0000 0.99425  0.14019  0.72969  Biso   1.000  O
  O10      1.0000 0.00483  0.11502  0.98599  Biso   1.000  O
  O11      1.0000 0.50213  0.39499  0.72939  Biso   1.000  O
  O12      1.0000 0.50182  0.36020  0.97541  Biso   1.000  O
  O13      1.0000 0.24825  0.10672  0.73001  Biso   1.000  O
  O14      1.0000 0.25179  0.14065  0.97974  Biso   1.000  O
  O15      1.0000 0.24552  0.38536  0.98599  Biso   1.000  O
  O16      1.0000 0.25610  0.36020  0.72968  Biso   1.000  O
  Zr9      1.0000 0.12517  0.51767  0.10633  Biso   1.000  Zr
  Zr10     1.0000 0.12518  0.75020  0.35972  Biso   1.000  Zr
  Zr11     1.0000 0.37856  0.75019  0.10634  Biso   1.000  Zr
  Zr12     1.0000 0.37320  0.00225  0.35435  Biso   1.000  Zr
  O17      1.0000 0.00018  0.64122  0.23132  Biso   1.000  O
  O18      1.0000 0.00240  0.60739  0.47892  Biso   1.000  O
  O19      1.0000 0.49777  0.89300  0.22912  Biso   1.000  O
  O20      1.0000 0.49785  0.85610  0.47902  Biso   1.000  O
  O21      1.0000 0.25284  0.61363  0.23401  Biso   1.000  O
  O22      1.0000 0.25152  0.64329  0.48323  Biso   1.000  O
  O23      1.0000 0.24795  0.89300  0.47891  Biso   1.000  O
  O24      1.0000 0.25017  0.85917  0.23131  Biso   1.000  O
  Zr13     1.0000 0.12517  0.50404  0.60633  Biso   1.000  Zr
  Zr14     1.0000 0.12518  0.75019  0.85296  Biso   1.000  Zr
  Zr15     1.0000 0.37654  0.75019  0.60634  Biso   1.000  Zr
  Zr16     1.0000 0.37420  0.00075  0.85731  Biso   1.000  Zr
  O25      1.0000 0.99883  0.64329  0.72943  Biso   1.000  O
  O26      1.0000 0.99751  0.61363  0.97865  Biso   1.000  O
  O27      1.0000 0.50078  0.89503  0.73074  Biso   1.000  O
  O28      1.0000 0.50206  0.85710  0.98000  Biso   1.000  O
  O29      1.0000 0.24794  0.60739  0.73376  Biso   1.000  O
  O30      1.0000 0.25018  0.64121  0.98135  Biso   1.000  O
  O31      1.0000 0.25284  0.88675  0.97865  Biso   1.000  O
  O32      1.0000 0.25152  0.85710  0.72943  Biso   1.000  O
  Zr17     1.0000 0.62518  0.99635  0.10633  Biso   1.000  Zr
  Zr18     1.0000 0.62518  0.25019  0.35989  Biso   1.000  Zr
  Zr19     1.0000 0.85746  0.25019  0.10634  Biso   1.000  Zr
  Zr20     1.0000 0.87716  0.49814  0.35435  Biso   1.000  Zr
  O33      1.0000 0.50182  0.14019  0.23726  Biso   1.000  O
  O34      1.0000 0.50213  0.10540  0.48329  Biso   1.000  O
  O35      1.0000 0.00484  0.38537  0.22669  Biso   1.000  O
  O36      1.0000 0.99425  0.36020  0.48299  Biso   1.000  O
  O37      1.0000 0.74883  0.10673  0.22942  Biso   1.000  O
  O38      1.0000 0.75272  0.14464  0.47879  Biso   1.000  O
  O39      1.0000 0.74822  0.39499  0.48329  Biso   1.000  O
  O40      1.0000 0.74853  0.36020  0.23726  Biso   1.000  O
  Zr21     1.0000 0.62518  0.99885  0.60633  Biso   1.000  Zr
  Zr22     1.0000 0.62518  0.25019  0.85278  Biso   1.000  Zr
  Zr23     1.0000 0.87162  0.25019  0.60634  Biso   1.000  Zr
  Zr24     1.0000 0.87615  0.49964  0.85731  Biso   1.000  Zr
  O41      1.0000 0.49763  0.14464  0.73388  Biso   1.000  O
  O42      1.0000 0.50151  0.10672  0.98325  Biso   1.000  O
  O43      1.0000 0.00210  0.39367  0.73001  Biso   1.000  O
  O44      1.0000 0.99857  0.35974  0.97973  Biso   1.000  O
  O45      1.0000 0.74821  0.10540  0.72939  Biso   1.000  O
  O46      1.0000 0.74853  0.14019  0.97541  Biso   1.000  O
  O47      1.0000 0.74884  0.39366  0.98325  Biso   1.000  O
  O48      1.0000 0.75273  0.35575  0.73388  Biso   1.000  O
  Zr25     1.0000 0.62518  0.50404  0.10633  Biso   1.000  Zr
  Zr26     1.0000 0.62517  0.75019  0.35770  Biso   1.000  Zr
  Zr27     1.0000 0.87179  0.75019  0.10634  Biso   1.000  Zr
  Zr28     1.0000 0.87616  0.00076  0.35535  Biso   1.000  Zr
  O49      1.0000 0.50207  0.64329  0.23267  Biso   1.000  O
  O50      1.0000 0.50078  0.60536  0.48193  Biso   1.000  O
  O51      1.0000 0.99751  0.88676  0.23401  Biso   1.000  O
  O52      1.0000 0.99883  0.85710  0.48324  Biso   1.000  O
  O53      1.0000 0.75258  0.60739  0.22912  Biso   1.000  O
  O54      1.0000 0.75250  0.64428  0.47902  Biso   1.000  O
  O55      1.0000 0.74957  0.89503  0.48193  Biso   1.000  O
  O56      1.0000 0.74828  0.85710  0.23267  Biso   1.000  O
  Zr29     1.0000 0.62518  0.50154  0.60633  Biso   1.000  Zr
  Zr30     1.0000 0.62518  0.75019  0.85497  Biso   1.000  Zr
  Zr31     1.0000 0.87381  0.75020  0.60634  Biso   1.000  Zr
  Zr32     1.0000 0.87716  0.00225  0.85831  Biso   1.000  Zr
  O57      1.0000 0.49785  0.64428  0.73366  Biso   1.000  O
  O58      1.0000 0.49777  0.60739  0.98355  Biso   1.000  O
  O59      1.0000 0.00240  0.89300  0.73376  Biso   1.000  O
  O60      1.0000 0.00018  0.85917  0.98135  Biso   1.000  O
  O61      1.0000 0.74956  0.60536  0.73074  Biso   1.000  O
  O62      1.0000 0.74829  0.64329  0.97999  Biso   1.000  O
  O63      1.0000 0.75258  0.89300  0.98355  Biso   1.000  O
  O64      1.0000 0.75250  0.85611  0.73365  Biso   1.000  O
  Ta1      1.0000 0.12518  0.25019  0.10634  Biso   1.000  Ta
