data_image0
_cell_length_a       10.0048
_cell_length_b       5.20651
_cell_length_c       10.0559
_cell_angle_alpha    89.892
_cell_angle_beta     89.7808
_cell_angle_gamma    89.9313

_symmetry_space_group_name_H-M    "P 1"
_symmetry_int_tables_number       1

loop_
  _symmetry_equiv_pos_as_xyz
  'x, y, z'

loop_
  _atom_site_label
  _atom_site_occupancy
  _atom_site_fract_x
  _atom_site_fract_y
  _atom_site_fract_z
  _atom_site_thermal_displace_type
  _atom_site_B_iso_or_equiv
  _atom_site_type_symbol
  Ta1      1.0000 0.13615  0.03680  0.12675  Biso   1.000  Ta
  Zr1      1.0000 0.13365  0.03126  0.62576  Biso   1.000  Zr
  Zr2      1.0000 0.63561  0.03287  0.12550  Biso   1.000  Zr
  Zr3      1.0000 0.63351  0.03107  0.62543  Biso   1.000  Zr
  Zr4      1.0000 0.13400  0.46825  0.37470  Biso   1.000  Zr
  Zr5      1.0000 0.13274  0.46753  0.87677  Biso   1.000  Zr
  Zr6      1.0000 0.63555  0.46944  0.37444  Biso   1.000  Zr
  Zr7      1.0000 0.63289  0.46720  0.87552  Biso   1.000  Zr
  Zr8      1.0000 0.36641  0.53669  0.12547  Biso   1.000  Zr
  Zr9      1.0000 0.36578  0.53157  0.62564  Biso   1.000  Zr
  Zr10     1.0000 0.86753  0.53150  0.12258  Biso   1.000  Zr
  Zr11     1.0000 0.86572  0.53033  0.62597  Biso   1.000  Zr
  Zr12     1.0000 0.36716  0.96841  0.37588  Biso   1.000  Zr
  Zr13     1.0000 0.36464  0.96876  0.87571  Biso   1.000  Zr
  Zr14     1.0000 0.86720  0.96845  0.37558  Biso   1.000  Zr
  Zr15     1.0000 0.86670  0.96815  0.87494  Biso   1.000  Zr
  O1       1.0000 0.04110  0.36244  0.18991  Biso   1.000  O
  O2       1.0000 0.03311  0.36182  0.69962  Biso   1.000  O
  O3       1.0000 0.53632  0.36946  0.19379  Biso   1.000  O
  O4       1.0000 0.53504  0.36778  0.69447  Biso   1.000  O
  O5       1.0000 0.03418  0.13607  0.44707  Biso   1.000  O
  O6       1.0000 0.03504  0.12695  0.95648  Biso   1.000  O
  O7       1.0000 0.53600  0.13391  0.44404  Biso   1.000  O
  O8       1.0000 0.53396  0.13149  0.94474  Biso   1.000  O
  O9       1.0000 0.46543  0.86720  0.19516  Biso   1.000  O
  O10      1.0000 0.46285  0.86840  0.69405  Biso   1.000  O
  O11      1.0000 0.97443  0.86724  0.19165  Biso   1.000  O
  O12      1.0000 0.96401  0.86567  0.69423  Biso   1.000  O
  O13      1.0000 0.46476  0.63283  0.44369  Biso   1.000  O
  O14      1.0000 0.45996  0.63094  0.94371  Biso   1.000  O
  O15      1.0000 0.96566  0.63344  0.44523  Biso   1.000  O
  O16      1.0000 0.96109  0.62840  0.94140  Biso   1.000  O
  O17      1.0000 0.26947  0.23321  0.24636  Biso   1.000  O
  O18      1.0000 0.26922  0.23469  0.74967  Biso   1.000  O
  O19      1.0000 0.77293  0.23573  0.24867  Biso   1.000  O
  O20      1.0000 0.76809  0.23314  0.74917  Biso   1.000  O
  O21      1.0000 0.26997  0.26575  0.49817  Biso   1.000  O
  O22      1.0000 0.26700  0.26118  0.00216  Biso   1.000  O
  O23      1.0000 0.76997  0.26513  0.49888  Biso   1.000  O
  O24      1.0000 0.76923  0.26406  0.99877  Biso   1.000  O
  O25      1.0000 0.23041  0.76530  0.49880  Biso   1.000  O
  O26      1.0000 0.22253  0.77024  0.00168  Biso   1.000  O
  O27      1.0000 0.73017  0.76527  0.49825  Biso   1.000  O
  O28      1.0000 0.72848  0.76432  0.99797  Biso   1.000  O
  O29      1.0000 0.22661  0.74382  0.24785  Biso   1.000  O
  O30      1.0000 0.22928  0.73299  0.74982  Biso   1.000  O
  O31      1.0000 0.73407  0.73723  0.24801  Biso   1.000  O
  O32      1.0000 0.72917  0.73341  0.74849  Biso   1.000  O
