data_image0
_cell_length_a       5.02395
_cell_length_b       10.1375
_cell_length_c       10.0468
_cell_angle_alpha    90
_cell_angle_beta     90.0003
_cell_angle_gamma    89.9999

_symmetry_space_group_name_H-M    "P 1"
_symmetry_int_tables_number       1

loop_
  _symmetry_equiv_pos_as_xyz
  'x, y, z'

loop_
  _atom_site_label
  _atom_site_occupancy
  _atom_site_fract_x
  _atom_site_fract_y
  _atom_site_fract_z
  _atom_site_thermal_displace_type
  _atom_site_B_iso_or_equiv
  _atom_site_type_symbol
  Tc1      1.0000 0.25079  0.00007  0.12540  Biso   1.000  Tc
  Zr1      1.0000 0.25259  0.24904  0.37405  Biso   1.000  Zr
  Zr2      1.0000 0.75079  0.24851  0.12540  Biso   1.000  Zr
  Zr3      1.0000 0.75079  0.00008  0.37385  Biso   1.000  Zr
  O1       1.0000 0.98476  0.14015  0.99365  Biso   1.000  O
  O2       1.0000 0.01892  0.10526  0.24095  Biso   1.000  O
  O3       1.0000 0.98801  0.35567  0.25693  Biso   1.000  O
  O4       1.0000 0.00840  0.39216  0.00446  Biso   1.000  O
  O5       1.0000 0.51682  0.14016  0.25714  Biso   1.000  O
  O6       1.0000 0.48267  0.10526  0.00985  Biso   1.000  O
  O7       1.0000 0.51357  0.35567  0.99386  Biso   1.000  O
  O8       1.0000 0.49318  0.39216  0.24634  Biso   1.000  O
  Zr4      1.0000 0.25079  0.00007  0.62540  Biso   1.000  Zr
  Zr5      1.0000 0.24900  0.24904  0.87674  Biso   1.000  Zr
  Zr6      1.0000 0.75079  0.25033  0.62540  Biso   1.000  Zr
  Zr7      1.0000 0.75079  0.00008  0.87694  Biso   1.000  Zr
  O9       1.0000 0.98413  0.14312  0.48964  Biso   1.000  O
  O10      1.0000 0.00967  0.10853  0.74428  Biso   1.000  O
  O11      1.0000 0.99031  0.35719  0.75671  Biso   1.000  O
  O12      1.0000 0.00664  0.39223  0.50488  Biso   1.000  O
  O13      1.0000 0.51746  0.14312  0.76116  Biso   1.000  O
  O14      1.0000 0.49192  0.10853  0.50651  Biso   1.000  O
  O15      1.0000 0.51127  0.35719  0.49408  Biso   1.000  O
  O16      1.0000 0.49494  0.39223  0.74592  Biso   1.000  O
  Zr8      1.0000 0.25079  0.50008  0.12540  Biso   1.000  Zr
  Zr9      1.0000 0.24900  0.75111  0.37406  Biso   1.000  Zr
  Zr10     1.0000 0.75079  0.75165  0.12540  Biso   1.000  Zr
  Zr11     1.0000 0.75079  0.50008  0.37614  Biso   1.000  Zr
  O17      1.0000 0.98801  0.64449  0.99386  Biso   1.000  O
  O18      1.0000 0.00840  0.60799  0.24634  Biso   1.000  O
  O19      1.0000 0.98476  0.86000  0.25714  Biso   1.000  O
  O20      1.0000 0.01892  0.89489  0.00985  Biso   1.000  O
  O21      1.0000 0.51357  0.64449  0.25693  Biso   1.000  O
  O22      1.0000 0.49318  0.60799  0.00446  Biso   1.000  O
  O23      1.0000 0.51683  0.86000  0.99365  Biso   1.000  O
  O24      1.0000 0.48267  0.89489  0.24095  Biso   1.000  O
  Zr12     1.0000 0.25079  0.50008  0.62540  Biso   1.000  Zr
  Zr13     1.0000 0.25259  0.75111  0.87674  Biso   1.000  Zr
  Zr14     1.0000 0.75079  0.74983  0.62540  Biso   1.000  Zr
  Zr15     1.0000 0.75079  0.50008  0.87465  Biso   1.000  Zr
  O25      1.0000 0.99031  0.64296  0.49408  Biso   1.000  O
  O26      1.0000 0.00664  0.60792  0.74592  Biso   1.000  O
  O27      1.0000 0.98412  0.85703  0.76116  Biso   1.000  O
  O28      1.0000 0.00967  0.89163  0.50651  Biso   1.000  O
  O29      1.0000 0.51127  0.64296  0.75671  Biso   1.000  O
  O30      1.0000 0.49494  0.60792  0.50488  Biso   1.000  O
  O31      1.0000 0.51746  0.85703  0.48964  Biso   1.000  O
  O32      1.0000 0.49192  0.89163  0.74428  Biso   1.000  O
