data_image0
_cell_length_a       10.0634
_cell_length_b       10.2586
_cell_length_c       5.25341
_cell_angle_alpha    89.8984
_cell_angle_beta     89.8683
_cell_angle_gamma    89.9702

_symmetry_space_group_name_H-M    "P 1"
_symmetry_int_tables_number       1

loop_
  _symmetry_equiv_pos_as_xyz
  'x, y, z'

loop_
  _atom_site_label
  _atom_site_occupancy
  _atom_site_fract_x
  _atom_site_fract_y
  _atom_site_fract_z
  _atom_site_thermal_displace_type
  _atom_site_B_iso_or_equiv
  _atom_site_type_symbol
  Tc1      1.0000 0.13937  0.02211  0.35262  Biso   1.000  Tc
  Zr1      1.0000 0.13873  0.22684  0.84497  Biso   1.000  Zr
  Zr2      1.0000 0.35945  0.26994  0.34562  Biso   1.000  Zr
  Zr3      1.0000 0.36116  0.47923  0.84385  Biso   1.000  Zr
  Zr4      1.0000 0.63824  0.02181  0.15464  Biso   1.000  Zr
  Zr5      1.0000 0.63851  0.22956  0.65770  Biso   1.000  Zr
  Zr6      1.0000 0.86394  0.26899  0.15935  Biso   1.000  Zr
  Zr7      1.0000 0.86112  0.47880  0.65892  Biso   1.000  Zr
  O1       1.0000 0.03187  0.15524  0.15591  Biso   1.000  O
  O2       1.0000 0.03458  0.08851  0.64081  Biso   1.000  O
  O3       1.0000 0.46711  0.41424  0.16815  Biso   1.000  O
  O4       1.0000 0.46687  0.33532  0.66737  Biso   1.000  O
  O5       1.0000 0.27603  0.12165  0.59503  Biso   1.000  O
  O6       1.0000 0.27062  0.12046  0.10609  Biso   1.000  O
  O7       1.0000 0.22439  0.37444  0.59123  Biso   1.000  O
  O8       1.0000 0.22459  0.37395  0.09016  Biso   1.000  O
  O9       1.0000 0.53160  0.16371  0.33726  Biso   1.000  O
  O10      1.0000 0.52945  0.08833  0.83919  Biso   1.000  O
  O11      1.0000 0.96944  0.41158  0.33839  Biso   1.000  O
  O12      1.0000 0.96909  0.33439  0.83704  Biso   1.000  O
  O13      1.0000 0.77605  0.12367  0.90511  Biso   1.000  O
  O14      1.0000 0.77523  0.12564  0.40732  Biso   1.000  O
  O15      1.0000 0.72518  0.37392  0.91220  Biso   1.000  O
  O16      1.0000 0.72489  0.37580  0.41123  Biso   1.000  O
  Zr8      1.0000 0.13925  0.52114  0.34390  Biso   1.000  Zr
  Zr9      1.0000 0.13881  0.73016  0.84245  Biso   1.000  Zr
  Zr10     1.0000 0.35817  0.77491  0.34192  Biso   1.000  Zr
  Zr11     1.0000 0.35913  0.97797  0.84537  Biso   1.000  Zr
  Zr12     1.0000 0.63855  0.52173  0.16015  Biso   1.000  Zr
  Zr13     1.0000 0.63813  0.72909  0.65715  Biso   1.000  Zr
  Zr14     1.0000 0.86352  0.77262  0.15526  Biso   1.000  Zr
  Zr15     1.0000 0.86178  0.97984  0.65286  Biso   1.000  Zr
  O17      1.0000 0.03100  0.66173  0.16112  Biso   1.000  O
  O18      1.0000 0.03159  0.58670  0.66332  Biso   1.000  O
  O19      1.0000 0.46899  0.91290  0.16286  Biso   1.000  O
  O20      1.0000 0.46620  0.83700  0.66465  Biso   1.000  O
  O21      1.0000 0.27572  0.62557  0.59129  Biso   1.000  O
  O22      1.0000 0.27574  0.62701  0.09107  Biso   1.000  O
  O23      1.0000 0.22017  0.87706  0.58535  Biso   1.000  O
  O24      1.0000 0.21966  0.87815  0.08964  Biso   1.000  O
  O25      1.0000 0.53148  0.66584  0.33492  Biso   1.000  O
  O26      1.0000 0.53290  0.58535  0.83471  Biso   1.000  O
  O27      1.0000 0.97799  0.91623  0.33033  Biso   1.000  O
  O28      1.0000 0.96815  0.83789  0.83284  Biso   1.000  O
  O29      1.0000 0.77627  0.62542  0.91176  Biso   1.000  O
  O30      1.0000 0.77589  0.62607  0.41130  Biso   1.000  O
  O31      1.0000 0.72401  0.87489  0.90726  Biso   1.000  O
  O32      1.0000 0.72936  0.87661  0.40835  Biso   1.000  O
