data_image0
_cell_length_a       10.0524
_cell_length_b       5.09436
_cell_length_c       10.0524
_cell_angle_alpha    89.9999
_cell_angle_beta     90
_cell_angle_gamma    89.9997

_symmetry_space_group_name_H-M    "P 1"
_symmetry_int_tables_number       1

loop_
  _symmetry_equiv_pos_as_xyz
  'x, y, z'

loop_
  _atom_site_label
  _atom_site_occupancy
  _atom_site_fract_x
  _atom_site_fract_y
  _atom_site_fract_z
  _atom_site_thermal_displace_type
  _atom_site_B_iso_or_equiv
  _atom_site_type_symbol
  Hf1      1.0000 0.12491  0.00011  0.12491  Biso   1.000  Hf
  Hf2      1.0000 0.12491  0.50011  0.38739  Biso   1.000  Hf
  Hf3      1.0000 0.38739  0.50011  0.12491  Biso   1.000  Hf
  Hf4      1.0000 0.37156  0.99708  0.37156  Biso   1.000  Hf
  O1       1.0000 0.99804  0.27629  0.99803  Biso   1.000  O
  O2       1.0000 0.00289  0.23559  0.24692  Biso   1.000  O
  O3       1.0000 0.99804  0.72392  0.25178  Biso   1.000  O
  O4       1.0000 0.00289  0.76463  0.00290  Biso   1.000  O
  O5       1.0000 0.25178  0.27629  0.25178  Biso   1.000  O
  O6       1.0000 0.24692  0.23558  0.00290  Biso   1.000  O
  O7       1.0000 0.25178  0.72392  0.99803  Biso   1.000  O
  O8       1.0000 0.24692  0.76463  0.24692  Biso   1.000  O
  Hf5      1.0000 0.12491  0.00011  0.62491  Biso   1.000  Hf
  Hf6      1.0000 0.12491  0.50011  0.86243  Biso   1.000  Hf
  Hf7      1.0000 0.37790  0.50011  0.62491  Biso   1.000  Hf
  Hf8      1.0000 0.37156  0.00313  0.87825  Biso   1.000  Hf
  O9       1.0000 0.99207  0.28288  0.49950  Biso   1.000  O
  O10      1.0000 0.00465  0.21298  0.74892  Biso   1.000  O
  O11      1.0000 0.99207  0.71733  0.75032  Biso   1.000  O
  O12      1.0000 0.00465  0.78724  0.50090  Biso   1.000  O
  O13      1.0000 0.25775  0.28289  0.75032  Biso   1.000  O
  O14      1.0000 0.24516  0.21298  0.50090  Biso   1.000  O
  O15      1.0000 0.25774  0.71733  0.49950  Biso   1.000  O
  O16      1.0000 0.24517  0.78723  0.74892  Biso   1.000  O
  Hf9      1.0000 0.62491  0.00011  0.12491  Biso   1.000  Hf
  Hf10     1.0000 0.62491  0.50011  0.37791  Biso   1.000  Hf
  Hf11     1.0000 0.86243  0.50011  0.12491  Biso   1.000  Hf
  Hf12     1.0000 0.87825  0.00313  0.37156  Biso   1.000  Hf
  O17      1.0000 0.49950  0.28289  0.99207  Biso   1.000  O
  O18      1.0000 0.50090  0.21298  0.24517  Biso   1.000  O
  O19      1.0000 0.49950  0.71733  0.25775  Biso   1.000  O
  O20      1.0000 0.50090  0.78723  0.00465  Biso   1.000  O
  O21      1.0000 0.75032  0.28289  0.25775  Biso   1.000  O
  O22      1.0000 0.74892  0.21298  0.00465  Biso   1.000  O
  O23      1.0000 0.75032  0.71733  0.99207  Biso   1.000  O
  O24      1.0000 0.74892  0.78723  0.24517  Biso   1.000  O
  Hf13     1.0000 0.62491  0.00011  0.62491  Biso   1.000  Hf
  Hf14     1.0000 0.62491  0.50011  0.87191  Biso   1.000  Hf
  Hf15     1.0000 0.87191  0.50011  0.62491  Biso   1.000  Hf
  Hf16     1.0000 0.87825  0.99708  0.87825  Biso   1.000  Hf
  O25      1.0000 0.49352  0.29123  0.49352  Biso   1.000  O
  O26      1.0000 0.50344  0.20862  0.74638  Biso   1.000  O
  O27      1.0000 0.49352  0.70898  0.75629  Biso   1.000  O
  O28      1.0000 0.50344  0.79160  0.50344  Biso   1.000  O
  O29      1.0000 0.75629  0.29123  0.75629  Biso   1.000  O
  O30      1.0000 0.74638  0.20862  0.50344  Biso   1.000  O
  O31      1.0000 0.75629  0.70899  0.49352  Biso   1.000  O
  O32      1.0000 0.74638  0.79159  0.74637  Biso   1.000  O
  Ti1      1.0000 0.12491  0.50011  0.12491  Biso   1.000  Ti
