data_image0
_cell_length_a       10.0769
_cell_length_b       10.2001
_cell_length_c       10.5302
_cell_angle_alpha    90.0761
_cell_angle_beta     90.3787
_cell_angle_gamma    89.7868

_symmetry_space_group_name_H-M    "P 1"
_symmetry_int_tables_number       1

loop_
  _symmetry_equiv_pos_as_xyz
  'x, y, z'

loop_
  _atom_site_label
  _atom_site_occupancy
  _atom_site_fract_x
  _atom_site_fract_y
  _atom_site_fract_z
  _atom_site_thermal_displace_type
  _atom_site_B_iso_or_equiv
  _atom_site_type_symbol
  Hf1      1.0000 0.13831  0.01950  0.17324  Biso   1.000  Hf
  Hf2      1.0000 0.13721  0.22841  0.42370  Biso   1.000  Hf
  Hf3      1.0000 0.35698  0.26607  0.17692  Biso   1.000  Hf
  Hf4      1.0000 0.36145  0.47810  0.42390  Biso   1.000  Hf
  Hf5      1.0000 0.63572  0.00385  0.08052  Biso   1.000  Hf
  Hf6      1.0000 0.63448  0.22681  0.33131  Biso   1.000  Hf
  Hf7      1.0000 0.87661  0.27684  0.07399  Biso   1.000  Hf
  Hf8      1.0000 0.86101  0.47864  0.32643  Biso   1.000  Hf
  O1       1.0000 0.03485  0.15729  0.07685  Biso   1.000  O
  O2       1.0000 0.02692  0.09181  0.32779  Biso   1.000  O
  O3       1.0000 0.47666  0.40227  0.08033  Biso   1.000  O
  O4       1.0000 0.46837  0.34095  0.32773  Biso   1.000  O
  O5       1.0000 0.27038  0.12351  0.29951  Biso   1.000  O
  O6       1.0000 0.27461  0.12310  0.04791  Biso   1.000  O
  O7       1.0000 0.22295  0.37392  0.29834  Biso   1.000  O
  O8       1.0000 0.22730  0.37551  0.04641  Biso   1.000  O
  O9       1.0000 0.51335  0.13618  0.18815  Biso   1.000  O
  O10      1.0000 0.52680  0.09194  0.42983  Biso   1.000  O
  O11      1.0000 0.97395  0.41454  0.17344  Biso   1.000  O
  O12      1.0000 0.96911  0.33964  0.42020  Biso   1.000  O
  O13      1.0000 0.77551  0.12271  0.45299  Biso   1.000  O
  O14      1.0000 0.76039  0.13418  0.19556  Biso   1.000  O
  O15      1.0000 0.72490  0.37505  0.45340  Biso   1.000  O
  O16      1.0000 0.72322  0.37798  0.19952  Biso   1.000  O
  Hf9      1.0000 0.13777  0.02109  0.67329  Biso   1.000  Hf
  Hf10     1.0000 0.14329  0.22791  0.92146  Biso   1.000  Hf
  Hf11     1.0000 0.36172  0.27102  0.67246  Biso   1.000  Hf
  Hf12     1.0000 0.36280  0.47859  0.92246  Biso   1.000  Hf
  Hf13     1.0000 0.63839  0.01948  0.57807  Biso   1.000  Hf
  Hf14     1.0000 0.64123  0.23085  0.81795  Biso   1.000  Hf
  Hf15     1.0000 0.86235  0.27220  0.57568  Biso   1.000  Hf
  Hf16     1.0000 0.86332  0.47968  0.82677  Biso   1.000  Hf
  O17      1.0000 0.03078  0.16105  0.57986  Biso   1.000  O
  O18      1.0000 0.03106  0.08980  0.83043  Biso   1.000  O
  O19      1.0000 0.47189  0.40676  0.57745  Biso   1.000  O
  O20      1.0000 0.47236  0.34493  0.82533  Biso   1.000  O
  O21      1.0000 0.27557  0.12455  0.79642  Biso   1.000  O
  O22      1.0000 0.27441  0.12540  0.54757  Biso   1.000  O
  O23      1.0000 0.22675  0.37432  0.79612  Biso   1.000  O
  O24      1.0000 0.22496  0.37625  0.54701  Biso   1.000  O
  O25      1.0000 0.52551  0.15162  0.67567  Biso   1.000  O
  O26      1.0000 0.52344  0.10656  0.93846  Biso   1.000  O
  O27      1.0000 0.97007  0.41252  0.66863  Biso   1.000  O
  O28      1.0000 0.97671  0.34110  0.91658  Biso   1.000  O
  O29      1.0000 0.76523  0.12941  0.95576  Biso   1.000  O
  O30      1.0000 0.77797  0.12516  0.70041  Biso   1.000  O
  O31      1.0000 0.72892  0.37815  0.95215  Biso   1.000  O
  O32      1.0000 0.72711  0.37723  0.70102  Biso   1.000  O
  Hf17     1.0000 0.14136  0.52195  0.17463  Biso   1.000  Hf
  Hf18     1.0000 0.13726  0.72933  0.42366  Biso   1.000  Hf
  Hf19     1.0000 0.36011  0.76891  0.17435  Biso   1.000  Hf
  Hf20     1.0000 0.36172  0.97814  0.42433  Biso   1.000  Hf
  Hf21     1.0000 0.64301  0.52808  0.07657  Biso   1.000  Hf
  Hf22     1.0000 0.63841  0.72807  0.32930  Biso   1.000  Hf
  Hf23     1.0000 0.86543  0.77067  0.07786  Biso   1.000  Hf
  Hf24     1.0000 0.86049  0.98041  0.32729  Biso   1.000  Hf
  O33      1.0000 0.03421  0.66241  0.08096  Biso   1.000  O
  O34      1.0000 0.03076  0.58984  0.33172  Biso   1.000  O
  O35      1.0000 0.46764  0.89791  0.07302  Biso   1.000  O
  O36      1.0000 0.47096  0.84244  0.32708  Biso   1.000  O
  O37      1.0000 0.27537  0.62389  0.29845  Biso   1.000  O
  O38      1.0000 0.27748  0.62427  0.04738  Biso   1.000  O
  O39      1.0000 0.22392  0.87270  0.29764  Biso   1.000  O
  O40      1.0000 0.22375  0.87589  0.04686  Biso   1.000  O
  O41      1.0000 0.52943  0.65758  0.17499  Biso   1.000  O
  O42      1.0000 0.52920  0.59091  0.42295  Biso   1.000  O
  O43      1.0000 0.96791  0.91362  0.16949  Biso   1.000  O
  O44      1.0000 0.96768  0.84163  0.42054  Biso   1.000  O
  O45      1.0000 0.77581  0.62394  0.45404  Biso   1.000  O
  O46      1.0000 0.77793  0.62766  0.20395  Biso   1.000  O
  O47      1.0000 0.72373  0.87399  0.45527  Biso   1.000  O
  O48      1.0000 0.72881  0.87131  0.20765  Biso   1.000  O
  Hf25     1.0000 0.13881  0.52188  0.67276  Biso   1.000  Hf
  Hf26     1.0000 0.13981  0.72966  0.92260  Biso   1.000  Hf
  Hf27     1.0000 0.36202  0.77171  0.67342  Biso   1.000  Hf
  Hf28     1.0000 0.36321  0.98017  0.92417  Biso   1.000  Hf
  Hf29     1.0000 0.63898  0.52156  0.57674  Biso   1.000  Hf
  Hf30     1.0000 0.63930  0.72884  0.82662  Biso   1.000  Hf
  Hf31     1.0000 0.86152  0.77258  0.57882  Biso   1.000  Hf
  Hf32     1.0000 0.86127  0.98200  0.82963  Biso   1.000  Hf
  O49      1.0000 0.03144  0.66361  0.58132  Biso   1.000  O
  O50      1.0000 0.03245  0.58950  0.83009  Biso   1.000  O
  O51      1.0000 0.47089  0.90512  0.57702  Biso   1.000  O
  O52      1.0000 0.47357  0.84613  0.82564  Biso   1.000  O
  O53      1.0000 0.27724  0.62381  0.79771  Biso   1.000  O
  O54      1.0000 0.27511  0.62592  0.54732  Biso   1.000  O
  O55      1.0000 0.22573  0.87395  0.79723  Biso   1.000  O
  O56      1.0000 0.22430  0.87657  0.54751  Biso   1.000  O
  O57      1.0000 0.52974  0.65794  0.67311  Biso   1.000  O
  O58      1.0000 0.53001  0.59223  0.92280  Biso   1.000  O
  O59      1.0000 0.96819  0.91258  0.67170  Biso   1.000  O
  O60      1.0000 0.97024  0.83961  0.91983  Biso   1.000  O
  O61      1.0000 0.77848  0.62663  0.95211  Biso   1.000  O
  O62      1.0000 0.77604  0.62684  0.70323  Biso   1.000  O
  O63      1.0000 0.72667  0.87268  0.95407  Biso   1.000  O
  O64      1.0000 0.72543  0.87595  0.70595  Biso   1.000  O
  Ti1      1.0000 0.62137  0.25288  0.06892  Biso   1.000  Ti
