data_image0
_cell_length_a       9.9896
_cell_length_b       5.20088
_cell_length_c       10.03
_cell_angle_alpha    90.1292
_cell_angle_beta     89.7543
_cell_angle_gamma    90.0611

_symmetry_space_group_name_H-M    "P 1"
_symmetry_int_tables_number       1

loop_
  _symmetry_equiv_pos_as_xyz
  'x, y, z'

loop_
  _atom_site_label
  _atom_site_occupancy
  _atom_site_fract_x
  _atom_site_fract_y
  _atom_site_fract_z
  _atom_site_thermal_displace_type
  _atom_site_B_iso_or_equiv
  _atom_site_type_symbol
  Ti1      1.0000 0.13052  0.03820  0.12397  Biso   1.000  Ti
  Zr1      1.0000 0.13473  0.46514  0.37307  Biso   1.000  Zr
  Zr2      1.0000 0.36372  0.53010  0.12635  Biso   1.000  Zr
  Zr3      1.0000 0.36490  0.96622  0.37408  Biso   1.000  Zr
  O1       1.0000 0.03872  0.35865  0.18910  Biso   1.000  O
  O2       1.0000 0.03535  0.13293  0.44708  Biso   1.000  O
  O3       1.0000 0.46730  0.86369  0.19523  Biso   1.000  O
  O4       1.0000 0.46555  0.63399  0.44587  Biso   1.000  O
  O5       1.0000 0.26246  0.21669  0.24417  Biso   1.000  O
  O6       1.0000 0.27115  0.26615  0.49756  Biso   1.000  O
  O7       1.0000 0.22967  0.76425  0.50061  Biso   1.000  O
  O8       1.0000 0.23292  0.72719  0.25078  Biso   1.000  O
  Zr4      1.0000 0.13484  0.03309  0.62639  Biso   1.000  Zr
  Zr5      1.0000 0.13365  0.46952  0.87940  Biso   1.000  Zr
  Zr6      1.0000 0.36552  0.53436  0.62694  Biso   1.000  Zr
  Zr7      1.0000 0.36233  0.97157  0.87975  Biso   1.000  Zr
  O9       1.0000 0.03408  0.36520  0.69900  Biso   1.000  O
  O10      1.0000 0.03654  0.12730  0.95346  Biso   1.000  O
  O11      1.0000 0.46261  0.87043  0.69597  Biso   1.000  O
  O12      1.0000 0.45934  0.63250  0.94385  Biso   1.000  O
  O13      1.0000 0.26960  0.23758  0.75034  Biso   1.000  O
  O14      1.0000 0.26686  0.26659  0.00103  Biso   1.000  O
  O15      1.0000 0.22350  0.77705  0.00673  Biso   1.000  O
  O16      1.0000 0.22859  0.73677  0.75286  Biso   1.000  O
  Zr8      1.0000 0.63437  0.03221  0.12548  Biso   1.000  Zr
  Zr9      1.0000 0.63459  0.46951  0.37472  Biso   1.000  Zr
  Zr10     1.0000 0.87008  0.52971  0.12237  Biso   1.000  Zr
  Zr11     1.0000 0.86832  0.97022  0.37504  Biso   1.000  Zr
  O17      1.0000 0.53459  0.36728  0.19573  Biso   1.000  O
  O18      1.0000 0.53655  0.13246  0.44248  Biso   1.000  O
  O19      1.0000 0.98021  0.87004  0.18957  Biso   1.000  O
  O20      1.0000 0.96458  0.63030  0.44086  Biso   1.000  O
  O21      1.0000 0.77267  0.23259  0.24712  Biso   1.000  O
  O22      1.0000 0.77032  0.26593  0.49781  Biso   1.000  O
  O23      1.0000 0.73162  0.76714  0.49766  Biso   1.000  O
  O24      1.0000 0.73773  0.73366  0.24683  Biso   1.000  O
  Zr12     1.0000 0.63227  0.03095  0.62455  Biso   1.000  Zr
  Zr13     1.0000 0.63210  0.47088  0.87509  Biso   1.000  Zr
  Zr14     1.0000 0.86645  0.53060  0.62523  Biso   1.000  Zr
  Zr15     1.0000 0.86703  0.97185  0.87462  Biso   1.000  Zr
  O25      1.0000 0.53573  0.36997  0.69345  Biso   1.000  O
  O26      1.0000 0.53433  0.13433  0.94527  Biso   1.000  O
  O27      1.0000 0.96430  0.86797  0.69305  Biso   1.000  O
  O28      1.0000 0.96067  0.62890  0.93963  Biso   1.000  O
  O29      1.0000 0.76837  0.23416  0.74849  Biso   1.000  O
  O30      1.0000 0.76908  0.26920  0.99813  Biso   1.000  O
  O31      1.0000 0.73002  0.76865  0.99771  Biso   1.000  O
  O32      1.0000 0.72984  0.73449  0.74788  Biso   1.000  O
