data_image0
_cell_length_a       10.2109
_cell_length_b       10.576
_cell_length_c       5.17224
_cell_angle_alpha    86.157
_cell_angle_beta     86.5604
_cell_angle_gamma    93.4787

_symmetry_space_group_name_H-M    "P 1"
_symmetry_int_tables_number       1

loop_
  _symmetry_equiv_pos_as_xyz
  'x, y, z'

loop_
  _atom_site_label
  _atom_site_occupancy
  _atom_site_fract_x
  _atom_site_fract_y
  _atom_site_fract_z
  _atom_site_thermal_displace_type
  _atom_site_B_iso_or_equiv
  _atom_site_type_symbol
  Hf1      1.0000 0.12039  0.94749  0.25294  Biso   1.000  Hf
  Hf2      1.0000 0.13398  0.30104  0.77218  Biso   1.000  Hf
  Hf3      1.0000 0.40086  0.24602  0.27434  Biso   1.000  Hf
  Hf4      1.0000 0.35430  0.02156  0.79326  Biso   1.000  Hf
  O1       1.0000 0.98471  0.14697  0.79347  Biso   1.000  O
  O2       1.0000 0.95583  0.05034  0.32273  Biso   1.000  O
  O3       1.0000 0.00663  0.39951  0.51190  Biso   1.000  O
  O4       1.0000 0.98015  0.38082  0.99613  Biso   1.000  O
  O5       1.0000 0.28705  0.18544  0.63647  Biso   1.000  O
  O6       1.0000 0.27211  0.08037  0.13228  Biso   1.000  O
  O7       1.0000 0.28455  0.34123  0.02002  Biso   1.000  O
  O8       1.0000 0.25314  0.44872  0.57521  Biso   1.000  O
  Hf5      1.0000 0.12737  0.55078  0.35670  Biso   1.000  Hf
  Hf6      1.0000 0.11436  0.76248  0.77531  Biso   1.000  Hf
  Hf7      1.0000 0.39198  0.74183  0.20828  Biso   1.000  Hf
  Hf8      1.0000 0.39715  0.49305  0.82172  Biso   1.000  Hf
  O9       1.0000 0.02752  0.67071  0.12572  Biso   1.000  O
  O10      1.0000 0.01087  0.61159  0.65472  Biso   1.000  O
  O11      1.0000 0.98429  0.83330  0.49649  Biso   1.000  O
  O12      1.0000 0.99412  0.89283  0.96282  Biso   1.000  O
  O13      1.0000 0.24004  0.70086  0.48986  Biso   1.000  O
  O14      1.0000 0.27398  0.59542  0.04440  Biso   1.000  O
  O15      1.0000 0.25026  0.84688  0.03156  Biso   1.000  O
  O16      1.0000 0.20868  0.93905  0.59200  Biso   1.000  O
  Hf9      1.0000 0.60408  0.00411  0.22883  Biso   1.000  Hf
  Hf10     1.0000 0.63624  0.23466  0.68536  Biso   1.000  Hf
  Hf11     1.0000 0.86732  0.20352  0.09819  Biso   1.000  Hf
  Hf12     1.0000 0.87739  0.98014  0.68345  Biso   1.000  Hf
  O17      1.0000 0.50899  0.15014  0.00273  Biso   1.000  O
  O18      1.0000 0.49773  0.09859  0.50098  Biso   1.000  O
  O19      1.0000 0.49824  0.35356  0.55231  Biso   1.000  O
  O20      1.0000 0.51375  0.40206  0.07038  Biso   1.000  O
  O21      1.0000 0.73428  0.14529  0.40341  Biso   1.000  O
  O22      1.0000 0.74208  0.07559  0.91570  Biso   1.000  O
  O23      1.0000 0.74282  0.32214  0.94709  Biso   1.000  O
  O24      1.0000 0.74291  0.39693  0.48900  Biso   1.000  O
  Hf13     1.0000 0.62555  0.50841  0.29358  Biso   1.000  Hf
  Hf14     1.0000 0.61270  0.76413  0.68725  Biso   1.000  Hf
  Hf15     1.0000 0.85488  0.74973  0.20770  Biso   1.000  Hf
  Hf16     1.0000 0.86187  0.47623  0.75268  Biso   1.000  Hf
  O25      1.0000 0.52458  0.64475  0.99030  Biso   1.000  O
  O26      1.0000 0.49101  0.61125  0.50033  Biso   1.000  O
  O27      1.0000 0.48975  0.85645  0.44930  Biso   1.000  O
  O28      1.0000 0.50084  0.89609  0.95456  Biso   1.000  O
  O29      1.0000 0.74218  0.64729  0.50942  Biso   1.000  O
  O30      1.0000 0.78058  0.58087  0.04531  Biso   1.000  O
  O31      1.0000 0.75706  0.82812  0.91164  Biso   1.000  O
  O32      1.0000 0.73908  0.89392  0.42236  Biso   1.000  O
  Tl1      1.0000 0.11005  0.22798  0.30160  Biso   1.000  Tl
