data_image0
_cell_length_a       10.1626
_cell_length_b       10.3295
_cell_length_c       5.26423
_cell_angle_alpha    89.8997
_cell_angle_beta     90.0704
_cell_angle_gamma    90.0233

_symmetry_space_group_name_H-M    "P 1"
_symmetry_int_tables_number       1

loop_
  _symmetry_equiv_pos_as_xyz
  'x, y, z'

loop_
  _atom_site_label
  _atom_site_occupancy
  _atom_site_fract_x
  _atom_site_fract_y
  _atom_site_fract_z
  _atom_site_thermal_displace_type
  _atom_site_B_iso_or_equiv
  _atom_site_type_symbol
  Tl1      1.0000 0.13648  0.01553  0.33835  Biso   1.000  Tl
  Zr1      1.0000 0.13968  0.52096  0.34204  Biso   1.000  Zr
  Zr2      1.0000 0.14111  0.22988  0.84221  Biso   1.000  Zr
  Zr3      1.0000 0.14091  0.72893  0.84111  Biso   1.000  Zr
  Zr4      1.0000 0.35953  0.26925  0.34200  Biso   1.000  Zr
  Zr5      1.0000 0.36287  0.77004  0.34057  Biso   1.000  Zr
  Zr6      1.0000 0.36091  0.47831  0.84250  Biso   1.000  Zr
  Zr7      1.0000 0.36244  0.97950  0.84041  Biso   1.000  Zr
  Zr8      1.0000 0.63899  0.02088  0.16075  Biso   1.000  Zr
  Zr9      1.0000 0.63813  0.51979  0.15544  Biso   1.000  Zr
  Zr10     1.0000 0.63814  0.22953  0.65746  Biso   1.000  Zr
  Zr11     1.0000 0.63879  0.72872  0.65592  Biso   1.000  Zr
  Zr12     1.0000 0.85979  0.27156  0.15576  Biso   1.000  Zr
  Zr13     1.0000 0.85995  0.76927  0.15632  Biso   1.000  Zr
  Zr14     1.0000 0.86072  0.47953  0.65538  Biso   1.000  Zr
  Zr15     1.0000 0.85748  0.97966  0.66342  Biso   1.000  Zr
  O1       1.0000 0.03322  0.17790  0.17008  Biso   1.000  O
  O2       1.0000 0.03294  0.66609  0.16821  Biso   1.000  O
  O3       1.0000 0.02596  0.08595  0.69822  Biso   1.000  O
  O4       1.0000 0.03207  0.58475  0.66641  Biso   1.000  O
  O5       1.0000 0.46853  0.41240  0.16385  Biso   1.000  O
  O6       1.0000 0.47033  0.91386  0.16602  Biso   1.000  O
  O7       1.0000 0.46858  0.33667  0.66401  Biso   1.000  O
  O8       1.0000 0.47032  0.83577  0.66369  Biso   1.000  O
  O9       1.0000 0.28072  0.12733  0.59990  Biso   1.000  O
  O10      1.0000 0.27568  0.62250  0.58972  Biso   1.000  O
  O11      1.0000 0.28299  0.13114  0.07979  Biso   1.000  O
  O12      1.0000 0.27517  0.62308  0.09062  Biso   1.000  O
  O13      1.0000 0.22465  0.37464  0.58915  Biso   1.000  O
  O14      1.0000 0.22985  0.86824  0.59103  Biso   1.000  O
  O15      1.0000 0.22467  0.37740  0.09038  Biso   1.000  O
  O16      1.0000 0.23355  0.86784  0.07809  Biso   1.000  O
  O17      1.0000 0.53279  0.16476  0.33413  Biso   1.000  O
  O18      1.0000 0.53201  0.66146  0.33588  Biso   1.000  O
  O19      1.0000 0.53459  0.08457  0.83320  Biso   1.000  O
  O20      1.0000 0.53070  0.58625  0.83601  Biso   1.000  O
  O21      1.0000 0.96616  0.41834  0.32880  Biso   1.000  O
  O22      1.0000 0.95245  0.91593  0.33123  Biso   1.000  O
  O23      1.0000 0.96705  0.33718  0.82964  Biso   1.000  O
  O24      1.0000 0.96803  0.83378  0.83077  Biso   1.000  O
  O25      1.0000 0.77371  0.12554  0.91420  Biso   1.000  O
  O26      1.0000 0.77395  0.62339  0.90681  Biso   1.000  O
  O27      1.0000 0.77466  0.12659  0.41389  Biso   1.000  O
  O28      1.0000 0.77457  0.62561  0.40714  Biso   1.000  O
  O29      1.0000 0.72419  0.37503  0.90718  Biso   1.000  O
  O30      1.0000 0.72488  0.87387  0.91160  Biso   1.000  O
  O31      1.0000 0.72484  0.37594  0.40822  Biso   1.000  O
  O32      1.0000 0.72027  0.87488  0.41246  Biso   1.000  O
