data_image0
_cell_length_a       10.092
_cell_length_b       10.2547
_cell_length_c       5.21326
_cell_angle_alpha    89.9507
_cell_angle_beta     79.9917
_cell_angle_gamma    89.9157

_symmetry_space_group_name_H-M    "P 1"
_symmetry_int_tables_number       1

loop_
  _symmetry_equiv_pos_as_xyz
  'x, y, z'

loop_
  _atom_site_label
  _atom_site_occupancy
  _atom_site_fract_x
  _atom_site_fract_y
  _atom_site_fract_z
  _atom_site_thermal_displace_type
  _atom_site_B_iso_or_equiv
  _atom_site_type_symbol
  W1       1.0000 0.13989  0.02331  0.29336  Biso   1.000  W
  Hf1      1.0000 0.13962  0.22778  0.79176  Biso   1.000  Hf
  Hf2      1.0000 0.36018  0.27153  0.21100  Biso   1.000  Hf
  Hf3      1.0000 0.36088  0.47904  0.70927  Biso   1.000  Hf
  O1       1.0000 0.03644  0.16546  0.15803  Biso   1.000  O
  O2       1.0000 0.04224  0.07677  0.64344  Biso   1.000  O
  O3       1.0000 0.46346  0.42085  0.33817  Biso   1.000  O
  O4       1.0000 0.46239  0.32895  0.83894  Biso   1.000  O
  O5       1.0000 0.27798  0.12676  0.48531  Biso   1.000  O
  O6       1.0000 0.27579  0.11927  0.99322  Biso   1.000  O
  O7       1.0000 0.22230  0.37823  0.01932  Biso   1.000  O
  O8       1.0000 0.22336  0.37080  0.51993  Biso   1.000  O
  Hf4      1.0000 0.13906  0.52170  0.29189  Biso   1.000  Hf
  Hf5      1.0000 0.13859  0.72910  0.79128  Biso   1.000  Hf
  Hf6      1.0000 0.35907  0.77470  0.20996  Biso   1.000  Hf
  Hf7      1.0000 0.35899  0.97825  0.70966  Biso   1.000  Hf
  O9       1.0000 0.03546  0.66853  0.15986  Biso   1.000  O
  O10      1.0000 0.03563  0.57979  0.66173  Biso   1.000  O
  O11      1.0000 0.46467  0.91912  0.34386  Biso   1.000  O
  O12      1.0000 0.46300  0.83080  0.84105  Biso   1.000  O
  O13      1.0000 0.27625  0.63086  0.48212  Biso   1.000  O
  O14      1.0000 0.27694  0.62161  0.98213  Biso   1.000  O
  O15      1.0000 0.21834  0.88018  0.02164  Biso   1.000  O
  O16      1.0000 0.21763  0.87427  0.51643  Biso   1.000  O
  Hf8      1.0000 0.63856  0.02179  0.29278  Biso   1.000  Hf
  Hf9      1.0000 0.63868  0.22853  0.79182  Biso   1.000  Hf
  Hf10     1.0000 0.86165  0.27087  0.20691  Biso   1.000  Hf
  Hf11     1.0000 0.86075  0.47834  0.70737  Biso   1.000  Hf
  O17      1.0000 0.53666  0.17083  0.16396  Biso   1.000  O
  O18      1.0000 0.53573  0.07979  0.66451  Biso   1.000  O
  O19      1.0000 0.96470  0.41860  0.33781  Biso   1.000  O
  O20      1.0000 0.96386  0.32755  0.83605  Biso   1.000  O
  O21      1.0000 0.77770  0.12887  0.48052  Biso   1.000  O
  O22      1.0000 0.77765  0.12035  0.97843  Biso   1.000  O
  O23      1.0000 0.72330  0.37929  0.01824  Biso   1.000  O
  O24      1.0000 0.72297  0.37065  0.51778  Biso   1.000  O
  Hf12     1.0000 0.63880  0.52236  0.29187  Biso   1.000  Hf
  Hf13     1.0000 0.63857  0.72875  0.79384  Biso   1.000  Hf
  Hf14     1.0000 0.86230  0.77268  0.20672  Biso   1.000  Hf
  Hf15     1.0000 0.86096  0.97855  0.70548  Biso   1.000  Hf
  O25      1.0000 0.53516  0.67090  0.16315  Biso   1.000  O
  O26      1.0000 0.53616  0.57987  0.66364  Biso   1.000  O
  O27      1.0000 0.97119  0.92066  0.33025  Biso   1.000  O
  O28      1.0000 0.96344  0.83073  0.83598  Biso   1.000  O
  O29      1.0000 0.77690  0.62953  0.48154  Biso   1.000  O
  O30      1.0000 0.77708  0.62146  0.98180  Biso   1.000  O
  O31      1.0000 0.72240  0.87967  0.01809  Biso   1.000  O
  O32      1.0000 0.72667  0.87172  0.51808  Biso   1.000  O
