data_image0
_cell_length_a       10.2707
_cell_length_b       10.3848
_cell_length_c       10.534
_cell_angle_alpha    90.2473
_cell_angle_beta     79.9952
_cell_angle_gamma    90.0085

_symmetry_space_group_name_H-M    "P 1"
_symmetry_int_tables_number       1

loop_
  _symmetry_equiv_pos_as_xyz
  'x, y, z'

loop_
  _atom_site_label
  _atom_site_occupancy
  _atom_site_fract_x
  _atom_site_fract_y
  _atom_site_fract_z
  _atom_site_thermal_displace_type
  _atom_site_B_iso_or_equiv
  _atom_site_type_symbol
  Zr1      1.0000 0.13768  0.02147  0.14728  Biso   1.000  Zr
  Zr2      1.0000 0.12601  0.22913  0.39374  Biso   1.000  Zr
  Zr3      1.0000 0.35748  0.27655  0.11018  Biso   1.000  Zr
  Zr4      1.0000 0.36159  0.48374  0.34200  Biso   1.000  Zr
  O1       1.0000 0.03287  0.16774  0.07943  Biso   1.000  O
  O2       1.0000 0.03036  0.08033  0.32569  Biso   1.000  O
  O3       1.0000 0.46178  0.43413  0.15594  Biso   1.000  O
  O4       1.0000 0.50019  0.36472  0.42326  Biso   1.000  O
  O5       1.0000 0.27841  0.12709  0.24938  Biso   1.000  O
  O6       1.0000 0.26875  0.10717  0.48960  Biso   1.000  O
  O7       1.0000 0.22275  0.38057  0.00669  Biso   1.000  O
  O8       1.0000 0.20308  0.37745  0.25285  Biso   1.000  O
  Zr5      1.0000 0.13575  0.01949  0.64678  Biso   1.000  Zr
  Zr6      1.0000 0.13719  0.22929  0.89918  Biso   1.000  Zr
  Zr7      1.0000 0.36653  0.26942  0.62301  Biso   1.000  Zr
  Zr8      1.0000 0.36125  0.47957  0.85826  Biso   1.000  Zr
  O9       1.0000 0.03315  0.16760  0.57890  Biso   1.000  O
  O10      1.0000 0.03308  0.08325  0.82827  Biso   1.000  O
  O11      1.0000 0.46804  0.41718  0.68006  Biso   1.000  O
  O12      1.0000 0.46351  0.33153  0.92199  Biso   1.000  O
  O13      1.0000 0.27313  0.12767  0.74595  Biso   1.000  O
  O14      1.0000 0.27375  0.12191  0.99570  Biso   1.000  O
  O15      1.0000 0.25121  0.35822  0.49525  Biso   1.000  O
  O16      1.0000 0.22063  0.37455  0.76130  Biso   1.000  O
  Zr9      1.0000 0.13604  0.52218  0.14305  Biso   1.000  Zr
  Zr10     1.0000 0.13575  0.72479  0.39714  Biso   1.000  Zr
  Zr11     1.0000 0.36025  0.77067  0.10168  Biso   1.000  Zr
  Zr12     1.0000 0.35790  0.96212  0.35393  Biso   1.000  Zr
  O17      1.0000 0.03137  0.66915  0.07459  Biso   1.000  O
  O18      1.0000 0.03053  0.58518  0.32624  Biso   1.000  O
  O19      1.0000 0.46422  0.91669  0.17005  Biso   1.000  O
  O20      1.0000 0.46571  0.82847  0.42465  Biso   1.000  O
  O21      1.0000 0.27183  0.63127  0.23902  Biso   1.000  O
  O22      1.0000 0.27061  0.61475  0.49202  Biso   1.000  O
  O23      1.0000 0.22353  0.87944  0.00948  Biso   1.000  O
  O24      1.0000 0.22069  0.86811  0.25827  Biso   1.000  O
  Zr13     1.0000 0.14051  0.51873  0.64572  Biso   1.000  Zr
  Zr14     1.0000 0.13670  0.72968  0.89462  Biso   1.000  Zr
  Zr15     1.0000 0.36109  0.76895  0.60667  Biso   1.000  Zr
  Zr16     1.0000 0.36004  0.97891  0.85681  Biso   1.000  Zr
  O25      1.0000 0.03127  0.66311  0.57876  Biso   1.000  O
  O26      1.0000 0.03459  0.58400  0.82404  Biso   1.000  O
  O27      1.0000 0.46427  0.91732  0.67191  Biso   1.000  O
  O28      1.0000 0.46443  0.83286  0.91946  Biso   1.000  O
  O29      1.0000 0.27503  0.62799  0.74070  Biso   1.000  O
  O30      1.0000 0.27389  0.62371  0.98974  Biso   1.000  O
  O31      1.0000 0.22244  0.86955  0.51201  Biso   1.000  O
  O32      1.0000 0.22391  0.87194  0.76021  Biso   1.000  O
  Zr17     1.0000 0.63870  0.02205  0.14365  Biso   1.000  Zr
  Zr18     1.0000 0.65397  0.23137  0.39925  Biso   1.000  Zr
  Zr19     1.0000 0.85999  0.27285  0.10422  Biso   1.000  Zr
  Zr20     1.0000 0.86044  0.48138  0.35235  Biso   1.000  Zr
  O33      1.0000 0.53378  0.17019  0.08398  Biso   1.000  O
  O34      1.0000 0.53422  0.07947  0.33153  Biso   1.000  O
  O35      1.0000 0.96156  0.42135  0.16720  Biso   1.000  O
  O36      1.0000 0.96036  0.33585  0.42178  Biso   1.000  O
  O37      1.0000 0.77606  0.12812  0.23944  Biso   1.000  O
  O38      1.0000 0.78194  0.11805  0.49334  Biso   1.000  O
  O39      1.0000 0.72446  0.37970  0.00935  Biso   1.000  O
  O40      1.0000 0.72711  0.37255  0.25776  Biso   1.000  O
  Zr21     1.0000 0.63893  0.01951  0.64709  Biso   1.000  Zr
  Zr22     1.0000 0.63563  0.22994  0.89805  Biso   1.000  Zr
  Zr23     1.0000 0.86053  0.27094  0.60857  Biso   1.000  Zr
  Zr24     1.0000 0.86197  0.47847  0.85422  Biso   1.000  Zr
  O41      1.0000 0.54139  0.16863  0.58110  Biso   1.000  O
  O42      1.0000 0.53296  0.08222  0.83117  Biso   1.000  O
  O43      1.0000 0.96914  0.41494  0.67084  Biso   1.000  O
  O44      1.0000 0.96487  0.33280  0.92070  Biso   1.000  O
  O45      1.0000 0.77324  0.12876  0.74271  Biso   1.000  O
  O46      1.0000 0.77325  0.12217  0.99080  Biso   1.000  O
  O47      1.0000 0.72889  0.37919  0.51396  Biso   1.000  O
  O48      1.0000 0.72608  0.37181  0.76195  Biso   1.000  O
  Zr25     1.0000 0.63924  0.52551  0.14240  Biso   1.000  Zr
  Zr26     1.0000 0.63947  0.72747  0.39494  Biso   1.000  Zr
  Zr27     1.0000 0.86067  0.77266  0.10270  Biso   1.000  Zr
  Zr28     1.0000 0.85980  0.97549  0.35408  Biso   1.000  Zr
  O49      1.0000 0.53635  0.67328  0.07641  Biso   1.000  O
  O50      1.0000 0.53473  0.59112  0.32057  Biso   1.000  O
  O51      1.0000 0.96538  0.91725  0.16910  Biso   1.000  O
  O52      1.0000 0.96474  0.83195  0.42163  Biso   1.000  O
  O53      1.0000 0.77640  0.63127  0.23890  Biso   1.000  O
  O54      1.0000 0.77404  0.62167  0.48976  Biso   1.000  O
  O55      1.0000 0.72423  0.88061  0.00896  Biso   1.000  O
  O56      1.0000 0.72265  0.87283  0.25949  Biso   1.000  O
  Zr29     1.0000 0.63886  0.52225  0.64665  Biso   1.000  Zr
  Zr30     1.0000 0.63819  0.72984  0.89460  Biso   1.000  Zr
  Zr31     1.0000 0.86115  0.77039  0.60417  Biso   1.000  Zr
  Zr32     1.0000 0.86020  0.98003  0.85459  Biso   1.000  Zr
  O57      1.0000 0.53349  0.66402  0.57834  Biso   1.000  O
  O58      1.0000 0.53437  0.58426  0.83038  Biso   1.000  O
  O59      1.0000 0.96488  0.91730  0.67054  Biso   1.000  O
  O60      1.0000 0.96421  0.83369  0.91876  Biso   1.000  O
  O61      1.0000 0.77501  0.62829  0.73943  Biso   1.000  O
  O62      1.0000 0.77531  0.62253  0.98833  Biso   1.000  O
  O63      1.0000 0.72399  0.87740  0.51027  Biso   1.000  O
  O64      1.0000 0.72520  0.87159  0.75948  Biso   1.000  O
  W1       1.0000 0.39452  0.22574  0.37407  Biso   1.000  W
