data_image0
_cell_length_a       10.0195
_cell_length_b       10.3679
_cell_length_c       5.02678
_cell_angle_alpha    90.1501
_cell_angle_beta     90.2759
_cell_angle_gamma    90.0179

_symmetry_space_group_name_H-M    "P 1"
_symmetry_int_tables_number       1

loop_
  _symmetry_equiv_pos_as_xyz
  'x, y, z'

loop_
  _atom_site_label
  _atom_site_occupancy
  _atom_site_fract_x
  _atom_site_fract_y
  _atom_site_fract_z
  _atom_site_thermal_displace_type
  _atom_site_B_iso_or_equiv
  _atom_site_type_symbol
  Y1       1.0000 0.13072  0.01283  0.24780  Biso   1.000  Y
  Hf1      1.0000 0.13517  0.23410  0.74880  Biso   1.000  Hf
  Hf2      1.0000 0.36451  0.26492  0.25177  Biso   1.000  Hf
  Hf3      1.0000 0.36548  0.48249  0.75156  Biso   1.000  Hf
  O1       1.0000 0.03299  0.19478  0.39138  Biso   1.000  O
  O2       1.0000 0.03240  0.07059  0.85837  Biso   1.000  O
  O3       1.0000 0.46520  0.43267  0.39202  Biso   1.000  O
  O4       1.0000 0.46570  0.31665  0.88937  Biso   1.000  O
  O5       1.0000 0.27744  0.12385  0.50475  Biso   1.000  O
  O6       1.0000 0.27414  0.13442  0.99250  Biso   1.000  O
  O7       1.0000 0.23053  0.38291  0.99878  Biso   1.000  O
  O8       1.0000 0.22905  0.36930  0.49699  Biso   1.000  O
  Hf4      1.0000 0.13441  0.51631  0.25126  Biso   1.000  Hf
  Hf5      1.0000 0.13671  0.73376  0.75340  Biso   1.000  Hf
  Hf6      1.0000 0.36700  0.76559  0.24950  Biso   1.000  Hf
  Hf7      1.0000 0.36569  0.98380  0.74874  Biso   1.000  Hf
  O9       1.0000 0.03565  0.68428  0.39172  Biso   1.000  O
  O10      1.0000 0.03512  0.56749  0.89124  Biso   1.000  O
  O11      1.0000 0.46429  0.93475  0.38666  Biso   1.000  O
  O12      1.0000 0.46968  0.81739  0.89402  Biso   1.000  O
  O13      1.0000 0.27025  0.61525  0.49841  Biso   1.000  O
  O14      1.0000 0.27108  0.63027  0.99920  Biso   1.000  O
  O15      1.0000 0.23692  0.87619  0.98952  Biso   1.000  O
  O16      1.0000 0.23678  0.86074  0.50301  Biso   1.000  O
  Hf8      1.0000 0.63361  0.01601  0.25017  Biso   1.000  Hf
  Hf9      1.0000 0.63380  0.23330  0.74999  Biso   1.000  Hf
  Hf10     1.0000 0.86419  0.26745  0.25095  Biso   1.000  Hf
  Hf11     1.0000 0.86564  0.48398  0.75400  Biso   1.000  Hf
  O17      1.0000 0.53731  0.18461  0.38499  Biso   1.000  O
  O18      1.0000 0.53736  0.06563  0.88587  Biso   1.000  O
  O19      1.0000 0.96311  0.43779  0.39115  Biso   1.000  O
  O20      1.0000 0.96533  0.31958  0.89397  Biso   1.000  O
  O21      1.0000 0.76898  0.11724  0.49920  Biso   1.000  O
  O22      1.0000 0.76987  0.13335  0.99955  Biso   1.000  O
  O23      1.0000 0.72886  0.38310  0.99782  Biso   1.000  O
  O24      1.0000 0.72992  0.36771  0.49965  Biso   1.000  O
  Hf12     1.0000 0.63330  0.51535  0.25195  Biso   1.000  Hf
  Hf13     1.0000 0.63407  0.73251  0.75357  Biso   1.000  Hf
  Hf14     1.0000 0.86362  0.76585  0.25568  Biso   1.000  Hf
  Hf15     1.0000 0.86305  0.98221  0.75160  Biso   1.000  Hf
  O25      1.0000 0.53528  0.68165  0.39265  Biso   1.000  O
  O26      1.0000 0.53431  0.56599  0.89307  Biso   1.000  O
  O27      1.0000 0.95148  0.92928  0.40107  Biso   1.000  O
  O28      1.0000 0.96847  0.81836  0.90197  Biso   1.000  O
  O29      1.0000 0.77008  0.61680  0.49912  Biso   1.000  O
  O30      1.0000 0.76980  0.63123  0.99864  Biso   1.000  O
  O31      1.0000 0.73048  0.88070  0.00255  Biso   1.000  O
  O32      1.0000 0.72251  0.86602  0.50162  Biso   1.000  O
