data_image0
_cell_length_a       10.2005
_cell_length_b       10.3197
_cell_length_c       5.31322
_cell_angle_alpha    89.8834
_cell_angle_beta     79.0463
_cell_angle_gamma    90.1644

_symmetry_space_group_name_H-M    "P 1"
_symmetry_int_tables_number       1

loop_
  _symmetry_equiv_pos_as_xyz
  'x, y, z'

loop_
  _atom_site_label
  _atom_site_occupancy
  _atom_site_fract_x
  _atom_site_fract_y
  _atom_site_fract_z
  _atom_site_thermal_displace_type
  _atom_site_B_iso_or_equiv
  _atom_site_type_symbol
  Hf1      1.0000 0.13478  0.02049  0.29163  Biso   1.000  Hf
  Hf2      1.0000 0.12833  0.22794  0.78026  Biso   1.000  Hf
  Hf3      1.0000 0.34621  0.28087  0.15760  Biso   1.000  Hf
  Hf4      1.0000 0.35655  0.49338  0.70619  Biso   1.000  Hf
  O1       1.0000 0.03839  0.16705  0.15005  Biso   1.000  O
  O2       1.0000 0.02814  0.08338  0.65056  Biso   1.000  O
  O3       1.0000 0.46460  0.41795  0.35346  Biso   1.000  O
  O4       1.0000 0.47732  0.36161  0.86697  Biso   1.000  O
  O5       1.0000 0.27152  0.12322  0.45712  Biso   1.000  O
  O6       1.0000 0.28548  0.13033  0.93594  Biso   1.000  O
  O7       1.0000 0.20861  0.38970  0.00231  Biso   1.000  O
  O8       1.0000 0.22919  0.36608  0.51063  Biso   1.000  O
  Hf5      1.0000 0.13535  0.52373  0.29537  Biso   1.000  Hf
  Hf6      1.0000 0.13272  0.72878  0.79649  Biso   1.000  Hf
  Hf7      1.0000 0.35915  0.77148  0.20877  Biso   1.000  Hf
  Hf8      1.0000 0.35941  0.96599  0.70452  Biso   1.000  Hf
  O9       1.0000 0.02905  0.66388  0.15797  Biso   1.000  O
  O10      1.0000 0.03079  0.58455  0.65881  Biso   1.000  O
  O11      1.0000 0.46618  0.91261  0.34961  Biso   1.000  O
  O12      1.0000 0.46472  0.83080  0.85336  Biso   1.000  O
  O13      1.0000 0.27232  0.62888  0.48172  Biso   1.000  O
  O14      1.0000 0.27105  0.62934  0.98627  Biso   1.000  O
  O15      1.0000 0.22162  0.88162  0.02214  Biso   1.000  O
  O16      1.0000 0.21878  0.86723  0.51844  Biso   1.000  O
  Hf9      1.0000 0.64034  0.01764  0.30352  Biso   1.000  Hf
  Hf10     1.0000 0.64979  0.22729  0.83067  Biso   1.000  Hf
  Hf11     1.0000 0.86151  0.27090  0.22486  Biso   1.000  Hf
  Hf12     1.0000 0.85787  0.47819  0.71625  Biso   1.000  Hf
  O17      1.0000 0.53170  0.16987  0.17484  Biso   1.000  O
  O18      1.0000 0.54563  0.06780  0.67992  Biso   1.000  O
  O19      1.0000 0.96629  0.41347  0.35746  Biso   1.000  O
  O20      1.0000 0.95952  0.33254  0.85063  Biso   1.000  O
  O21      1.0000 0.77869  0.12822  0.49526  Biso   1.000  O
  O22      1.0000 0.78400  0.11691  0.00448  Biso   1.000  O
  O23      1.0000 0.72605  0.37853  0.04144  Biso   1.000  O
  O24      1.0000 0.72146  0.36953  0.53664  Biso   1.000  O
  Hf13     1.0000 0.63634  0.52360  0.29969  Biso   1.000  Hf
  Hf14     1.0000 0.63790  0.72734  0.79961  Biso   1.000  Hf
  Hf15     1.0000 0.85867  0.77137  0.21515  Biso   1.000  Hf
  Hf16     1.0000 0.85603  0.97666  0.71532  Biso   1.000  Hf
  O25      1.0000 0.53022  0.66303  0.15536  Biso   1.000  O
  O26      1.0000 0.53043  0.59387  0.64840  Biso   1.000  O
  O27      1.0000 0.96369  0.91276  0.35482  Biso   1.000  O
  O28      1.0000 0.96399  0.83593  0.85501  Biso   1.000  O
  O29      1.0000 0.77538  0.62691  0.48641  Biso   1.000  O
  O30      1.0000 0.77340  0.62063  0.98574  Biso   1.000  O
  O31      1.0000 0.72150  0.87527  0.02815  Biso   1.000  O
  O32      1.0000 0.72260  0.86913  0.52542  Biso   1.000  O
  Yb1      1.0000 0.43803  0.23171  0.56874  Biso   1.000  Yb
