data_image0
_cell_length_a       10.283
_cell_length_b       10.3941
_cell_length_c       5.34631
_cell_angle_alpha    89.8901
_cell_angle_beta     78.9542
_cell_angle_gamma    90.213

_symmetry_space_group_name_H-M    "P 1"
_symmetry_int_tables_number       1

loop_
  _symmetry_equiv_pos_as_xyz
  'x, y, z'

loop_
  _atom_site_label
  _atom_site_occupancy
  _atom_site_fract_x
  _atom_site_fract_y
  _atom_site_fract_z
  _atom_site_thermal_displace_type
  _atom_site_B_iso_or_equiv
  _atom_site_type_symbol
  Zr1      1.0000 0.13532  0.02081  0.28959  Biso   1.000  Zr
  Zr2      1.0000 0.12760  0.22828  0.77894  Biso   1.000  Zr
  Zr3      1.0000 0.34528  0.28082  0.15788  Biso   1.000  Zr
  Zr4      1.0000 0.35607  0.49379  0.70568  Biso   1.000  Zr
  O1       1.0000 0.03812  0.16689  0.14967  Biso   1.000  O
  O2       1.0000 0.02804  0.08405  0.64916  Biso   1.000  O
  O3       1.0000 0.46600  0.41635  0.35480  Biso   1.000  O
  O4       1.0000 0.47634  0.35935  0.86372  Biso   1.000  O
  O5       1.0000 0.27192  0.12334  0.45563  Biso   1.000  O
  O6       1.0000 0.28488  0.13103  0.93368  Biso   1.000  O
  O7       1.0000 0.20918  0.38982  0.00156  Biso   1.000  O
  O8       1.0000 0.23049  0.36607  0.51082  Biso   1.000  O
  Zr5      1.0000 0.13505  0.52413  0.29407  Biso   1.000  Zr
  Zr6      1.0000 0.13250  0.72885  0.79553  Biso   1.000  Zr
  Zr7      1.0000 0.35920  0.77160  0.20920  Biso   1.000  Zr
  Zr8      1.0000 0.35921  0.96559  0.70499  Biso   1.000  Zr
  O9       1.0000 0.02786  0.66292  0.15644  Biso   1.000  O
  O10      1.0000 0.02984  0.58555  0.65736  Biso   1.000  O
  O11      1.0000 0.46711  0.91180  0.35099  Biso   1.000  O
  O12      1.0000 0.46554  0.83159  0.85460  Biso   1.000  O
  O13      1.0000 0.27140  0.62860  0.48125  Biso   1.000  O
  O14      1.0000 0.27004  0.62993  0.98589  Biso   1.000  O
  O15      1.0000 0.22236  0.88128  0.02213  Biso   1.000  O
  O16      1.0000 0.21951  0.86735  0.51779  Biso   1.000  O
  Zr9      1.0000 0.64100  0.01768  0.30344  Biso   1.000  Zr
  Zr10     1.0000 0.65010  0.22726  0.83132  Biso   1.000  Zr
  Zr11     1.0000 0.86153  0.27099  0.22683  Biso   1.000  Zr
  Zr12     1.0000 0.85774  0.47837  0.71756  Biso   1.000  Zr
  O17      1.0000 0.53171  0.16992  0.17660  Biso   1.000  O
  O18      1.0000 0.54427  0.07010  0.67848  Biso   1.000  O
  O19      1.0000 0.96710  0.41264  0.35894  Biso   1.000  O
  O20      1.0000 0.95984  0.33330  0.85193  Biso   1.000  O
  O21      1.0000 0.77839  0.12776  0.49601  Biso   1.000  O
  O22      1.0000 0.78375  0.11719  0.00505  Biso   1.000  O
  O23      1.0000 0.72666  0.37834  0.04196  Biso   1.000  O
  O24      1.0000 0.72241  0.36967  0.53747  Biso   1.000  O
  Zr13     1.0000 0.63632  0.52341  0.29966  Biso   1.000  Zr
  Zr14     1.0000 0.63780  0.72710  0.79973  Biso   1.000  Zr
  Zr15     1.0000 0.85872  0.77155  0.21637  Biso   1.000  Zr
  Zr16     1.0000 0.85651  0.97646  0.71602  Biso   1.000  Zr
  O25      1.0000 0.52925  0.66195  0.15458  Biso   1.000  O
  O26      1.0000 0.52967  0.59420  0.64803  Biso   1.000  O
  O27      1.0000 0.96483  0.91195  0.35609  Biso   1.000  O
  O28      1.0000 0.96506  0.83696  0.85676  Biso   1.000  O
  O29      1.0000 0.77446  0.62683  0.48714  Biso   1.000  O
  O30      1.0000 0.77261  0.62091  0.98632  Biso   1.000  O
  O31      1.0000 0.72252  0.87494  0.02834  Biso   1.000  O
  O32      1.0000 0.72331  0.86966  0.52640  Biso   1.000  O
  Yb1      1.0000 0.43692  0.23114  0.56760  Biso   1.000  Yb
