data_image0
_cell_length_a       5.15301
_cell_length_b       10.404
_cell_length_c       10.6639
_cell_angle_alpha    89.9493
_cell_angle_beta     78.7483
_cell_angle_gamma    90.1708

_symmetry_space_group_name_H-M    "P 1"
_symmetry_int_tables_number       1

loop_
  _symmetry_equiv_pos_as_xyz
  'x, y, z'

loop_
  _atom_site_label
  _atom_site_occupancy
  _atom_site_fract_x
  _atom_site_fract_y
  _atom_site_fract_z
  _atom_site_thermal_displace_type
  _atom_site_B_iso_or_equiv
  _atom_site_type_symbol
  Zr1      1.0000 0.27523  0.01803  0.14948  Biso   1.000  Zr
  Zr2      1.0000 0.29740  0.22808  0.41085  Biso   1.000  Zr
  Zr3      1.0000 0.68476  0.27387  0.07972  Biso   1.000  Zr
  Zr4      1.0000 0.71639  0.48964  0.35786  Biso   1.000  Zr
  O1       1.0000 0.05104  0.16809  0.08015  Biso   1.000  O
  O2       1.0000 0.08418  0.06815  0.33805  Biso   1.000  O
  O3       1.0000 0.93528  0.41579  0.17417  Biso   1.000  O
  O4       1.0000 0.95235  0.35137  0.43649  Biso   1.000  O
  O5       1.0000 0.55458  0.12103  0.24020  Biso   1.000  O
  O6       1.0000 0.58809  0.12438  0.48802  Biso   1.000  O
  O7       1.0000 0.41713  0.38605  0.00274  Biso   1.000  O
  O8       1.0000 0.46963  0.36442  0.26070  Biso   1.000  O
  Zr5      1.0000 0.27752  0.02191  0.64819  Biso   1.000  Zr
  Zr6      1.0000 0.26320  0.22780  0.89427  Biso   1.000  Zr
  Zr7      1.0000 0.72566  0.27638  0.61023  Biso   1.000  Zr
  Zr8      1.0000 0.71110  0.48434  0.85277  Biso   1.000  Zr
  O9       1.0000 0.07780  0.16963  0.58597  Biso   1.000  O
  O10      1.0000 0.05648  0.08418  0.82871  Biso   1.000  O
  O11      1.0000 0.93213  0.41840  0.67770  Biso   1.000  O
  O12      1.0000 0.92036  0.33683  0.91583  Biso   1.000  O
  O13      1.0000 0.54475  0.12892  0.74152  Biso   1.000  O
  O14      1.0000 0.53539  0.11958  0.98828  Biso   1.000  O
  O15      1.0000 0.45610  0.38151  0.51456  Biso   1.000  O
  O16      1.0000 0.44496  0.37250  0.75969  Biso   1.000  O
  Zr9      1.0000 0.27101  0.52378  0.14758  Biso   1.000  Zr
  Zr10     1.0000 0.27096  0.72758  0.39949  Biso   1.000  Zr
  Zr11     1.0000 0.71673  0.77081  0.10500  Biso   1.000  Zr
  Zr12     1.0000 0.71382  0.96586  0.35551  Biso   1.000  Zr
  O17      1.0000 0.06142  0.66500  0.07803  Biso   1.000  O
  O18      1.0000 0.06379  0.58856  0.32676  Biso   1.000  O
  O19      1.0000 0.92881  0.91131  0.17609  Biso   1.000  O
  O20      1.0000 0.92765  0.82966  0.42784  Biso   1.000  O
  O21      1.0000 0.54892  0.62675  0.24303  Biso   1.000  O
  O22      1.0000 0.54027  0.62598  0.49526  Biso   1.000  O
  O23      1.0000 0.44608  0.87719  0.01110  Biso   1.000  O
  O24      1.0000 0.43870  0.86525  0.25944  Biso   1.000  O
  Zr13     1.0000 0.27279  0.52385  0.64894  Biso   1.000  Zr
  Zr14     1.0000 0.27035  0.72921  0.89905  Biso   1.000  Zr
  Zr15     1.0000 0.71967  0.77296  0.60798  Biso   1.000  Zr
  Zr16     1.0000 0.71666  0.97627  0.85523  Biso   1.000  Zr
  O25      1.0000 0.05625  0.66346  0.57999  Biso   1.000  O
  O26      1.0000 0.05902  0.58806  0.82877  Biso   1.000  O
  O27      1.0000 0.93335  0.91495  0.67569  Biso   1.000  O
  O28      1.0000 0.93095  0.83625  0.92536  Biso   1.000  O
  O29      1.0000 0.54411  0.62952  0.74295  Biso   1.000  O
  O30      1.0000 0.54688  0.62462  0.99218  Biso   1.000  O
  O31      1.0000 0.44391  0.87809  0.51389  Biso   1.000  O
  O32      1.0000 0.44545  0.87257  0.76221  Biso   1.000  O
  Yb1      1.0000 0.88358  0.23164  0.28146  Biso   1.000  Yb
