data_image0
_cell_length_a       10.0706
_cell_length_b       10.2048
_cell_length_c       10.0706
_cell_angle_alpha    90.0016
_cell_angle_beta     89.9993
_cell_angle_gamma    89.9993

_symmetry_space_group_name_H-M    "P 1"
_symmetry_int_tables_number       1

loop_
  _symmetry_equiv_pos_as_xyz
  'x, y, z'

loop_
  _atom_site_label
  _atom_site_occupancy
  _atom_site_fract_x
  _atom_site_fract_y
  _atom_site_fract_z
  _atom_site_thermal_displace_type
  _atom_site_B_iso_or_equiv
  _atom_site_type_symbol
  Yb1      1.0000 0.12503  0.00004  0.12503  Biso   1.000  Yb
  Zr1      1.0000 0.12504  0.00004  0.62503  Biso   1.000  Zr
  Zr2      1.0000 0.12503  0.50005  0.12503  Biso   1.000  Zr
  Zr3      1.0000 0.12504  0.50004  0.62503  Biso   1.000  Zr
  Zr4      1.0000 0.62504  0.00004  0.12503  Biso   1.000  Zr
  Zr5      1.0000 0.62503  0.00004  0.62503  Biso   1.000  Zr
  Zr6      1.0000 0.62504  0.50004  0.12503  Biso   1.000  Zr
  Zr7      1.0000 0.62503  0.50004  0.62503  Biso   1.000  Zr
  Zr8      1.0000 0.12406  0.25040  0.37484  Biso   1.000  Zr
  Zr9      1.0000 0.12600  0.25040  0.87523  Biso   1.000  Zr
  Zr10     1.0000 0.12600  0.74967  0.37484  Biso   1.000  Zr
  Zr11     1.0000 0.12406  0.74967  0.87523  Biso   1.000  Zr
  Zr12     1.0000 0.62484  0.25014  0.37509  Biso   1.000  Zr
  Zr13     1.0000 0.62522  0.25014  0.87497  Biso   1.000  Zr
  Zr14     1.0000 0.62522  0.74993  0.37510  Biso   1.000  Zr
  Zr15     1.0000 0.62483  0.74994  0.87497  Biso   1.000  Zr
  Zr16     1.0000 0.37483  0.25041  0.12407  Biso   1.000  Zr
  Zr17     1.0000 0.37510  0.25014  0.62484  Biso   1.000  Zr
  Zr18     1.0000 0.37484  0.74967  0.12600  Biso   1.000  Zr
  Zr19     1.0000 0.37509  0.74994  0.62523  Biso   1.000  Zr
  Zr20     1.0000 0.87523  0.25041  0.12600  Biso   1.000  Zr
  Zr21     1.0000 0.87497  0.25014  0.62523  Biso   1.000  Zr
  Zr22     1.0000 0.87522  0.74967  0.12406  Biso   1.000  Zr
  Zr23     1.0000 0.87497  0.74994  0.62484  Biso   1.000  Zr
  Zr24     1.0000 0.37496  0.99988  0.37496  Biso   1.000  Zr
  Zr25     1.0000 0.37496  0.00020  0.87510  Biso   1.000  Zr
  Zr26     1.0000 0.37486  0.49920  0.37485  Biso   1.000  Zr
  Zr27     1.0000 0.37486  0.50087  0.87522  Biso   1.000  Zr
  Zr28     1.0000 0.87511  0.00019  0.37496  Biso   1.000  Zr
  Zr29     1.0000 0.87511  0.99988  0.87510  Biso   1.000  Zr
  Zr30     1.0000 0.87521  0.50087  0.37486  Biso   1.000  Zr
  Zr31     1.0000 0.87521  0.49920  0.87521  Biso   1.000  Zr
  O1       1.0000 0.99934  0.14378  0.99933  Biso   1.000  O
  O2       1.0000 0.00222  0.14549  0.50360  Biso   1.000  O
  O3       1.0000 0.00235  0.64116  0.00234  Biso   1.000  O
  O4       1.0000 0.00116  0.64525  0.50198  Biso   1.000  O
  O5       1.0000 0.50360  0.14549  0.00221  Biso   1.000  O
  O6       1.0000 0.50142  0.14579  0.50141  Biso   1.000  O
  O7       1.0000 0.50198  0.64525  0.00115  Biso   1.000  O
  O8       1.0000 0.50086  0.64566  0.50086  Biso   1.000  O
  O9       1.0000 0.99459  0.11395  0.25548  Biso   1.000  O
  O10      1.0000 0.99930  0.10468  0.75137  Biso   1.000  O
  O11      1.0000 0.99881  0.60736  0.25126  Biso   1.000  O
  O12      1.0000 0.99972  0.60462  0.75173  Biso   1.000  O
  O13      1.0000 0.49869  0.10468  0.25076  Biso   1.000  O
  O14      1.0000 0.49931  0.10450  0.75076  Biso   1.000  O
  O15      1.0000 0.49833  0.60462  0.25034  Biso   1.000  O
  O16      1.0000 0.49953  0.60438  0.75053  Biso   1.000  O
  O17      1.0000 0.00235  0.35892  0.24772  Biso   1.000  O
  O18      1.0000 0.00116  0.35483  0.74809  Biso   1.000  O
  O19      1.0000 0.99934  0.85630  0.25073  Biso   1.000  O
  O20      1.0000 0.00222  0.85458  0.74646  Biso   1.000  O
  O21      1.0000 0.50198  0.35482  0.24891  Biso   1.000  O
  O22      1.0000 0.50087  0.35442  0.74920  Biso   1.000  O
  O23      1.0000 0.50360  0.85458  0.24785  Biso   1.000  O
  O24      1.0000 0.50142  0.85429  0.74865  Biso   1.000  O
  O25      1.0000 0.99881  0.39271  0.99881  Biso   1.000  O
  O26      1.0000 0.99973  0.39546  0.49833  Biso   1.000  O
  O27      1.0000 0.99459  0.88613  0.99459  Biso   1.000  O
  O28      1.0000 0.99930  0.89539  0.49869  Biso   1.000  O
  O29      1.0000 0.49833  0.39545  0.99973  Biso   1.000  O
  O30      1.0000 0.49953  0.39570  0.49953  Biso   1.000  O
  O31      1.0000 0.49869  0.89539  0.99930  Biso   1.000  O
  O32      1.0000 0.49930  0.89557  0.49931  Biso   1.000  O
  O33      1.0000 0.25073  0.14377  0.25073  Biso   1.000  O
  O34      1.0000 0.24785  0.14549  0.74647  Biso   1.000  O
  O35      1.0000 0.24772  0.64116  0.24772  Biso   1.000  O
  O36      1.0000 0.24891  0.64525  0.74809  Biso   1.000  O
  O37      1.0000 0.74647  0.14549  0.24785  Biso   1.000  O
  O38      1.0000 0.74865  0.14579  0.74865  Biso   1.000  O
  O39      1.0000 0.74808  0.64525  0.24890  Biso   1.000  O
  O40      1.0000 0.74920  0.64566  0.74920  Biso   1.000  O
  O41      1.0000 0.25548  0.11395  0.99459  Biso   1.000  O
  O42      1.0000 0.25077  0.10468  0.49869  Biso   1.000  O
  O43      1.0000 0.25126  0.60736  0.99881  Biso   1.000  O
  O44      1.0000 0.25034  0.60462  0.49833  Biso   1.000  O
  O45      1.0000 0.75138  0.10468  0.99930  Biso   1.000  O
  O46      1.0000 0.75076  0.10450  0.49931  Biso   1.000  O
  O47      1.0000 0.75174  0.60461  0.99972  Biso   1.000  O
  O48      1.0000 0.75053  0.60437  0.49953  Biso   1.000  O
  O49      1.0000 0.24773  0.35892  0.00234  Biso   1.000  O
  O50      1.0000 0.24891  0.35483  0.50197  Biso   1.000  O
  O51      1.0000 0.25073  0.85630  0.99933  Biso   1.000  O
  O52      1.0000 0.24785  0.85458  0.50360  Biso   1.000  O
  O53      1.0000 0.74809  0.35482  0.00115  Biso   1.000  O
  O54      1.0000 0.74920  0.35442  0.50086  Biso   1.000  O
  O55      1.0000 0.74646  0.85458  0.00221  Biso   1.000  O
  O56      1.0000 0.74865  0.85429  0.50141  Biso   1.000  O
  O57      1.0000 0.25126  0.39271  0.25125  Biso   1.000  O
  O58      1.0000 0.25034  0.39546  0.75173  Biso   1.000  O
  O59      1.0000 0.25548  0.88613  0.25547  Biso   1.000  O
  O60      1.0000 0.25076  0.89540  0.75137  Biso   1.000  O
  O61      1.0000 0.75174  0.39545  0.25033  Biso   1.000  O
  O62      1.0000 0.75053  0.39570  0.75053  Biso   1.000  O
  O63      1.0000 0.75138  0.89539  0.25076  Biso   1.000  O
  O64      1.0000 0.75076  0.89558  0.75075  Biso   1.000  O
