data_image0
_cell_length_a       10.0933
_cell_length_b       5.11933
_cell_length_c       10.0934
_cell_angle_alpha    89.9998
_cell_angle_beta     89.9999
_cell_angle_gamma    90.0001

_symmetry_space_group_name_H-M    "P 1"
_symmetry_int_tables_number       1

loop_
  _symmetry_equiv_pos_as_xyz
  'x, y, z'

loop_
  _atom_site_label
  _atom_site_occupancy
  _atom_site_fract_x
  _atom_site_fract_y
  _atom_site_fract_z
  _atom_site_thermal_displace_type
  _atom_site_B_iso_or_equiv
  _atom_site_type_symbol
  Hf1      1.0000 0.12491  0.00011  0.12491  Biso   1.000  Hf
  Hf2      1.0000 0.12491  0.50011  0.39328  Biso   1.000  Hf
  Hf3      1.0000 0.39328  0.50011  0.12491  Biso   1.000  Hf
  Hf4      1.0000 0.37197  0.99947  0.37197  Biso   1.000  Hf
  O1       1.0000 0.99241  0.27743  0.99238  Biso   1.000  O
  O2       1.0000 0.00277  0.22659  0.24701  Biso   1.000  O
  O3       1.0000 0.99241  0.72278  0.25744  Biso   1.000  O
  O4       1.0000 0.00277  0.77363  0.00281  Biso   1.000  O
  O5       1.0000 0.25741  0.27743  0.25744  Biso   1.000  O
  O6       1.0000 0.24705  0.22658  0.00281  Biso   1.000  O
  O7       1.0000 0.25741  0.72278  0.99238  Biso   1.000  O
  O8       1.0000 0.24705  0.77363  0.24701  Biso   1.000  O
  Hf5      1.0000 0.12491  0.00011  0.62491  Biso   1.000  Hf
  Hf6      1.0000 0.12491  0.50011  0.85654  Biso   1.000  Hf
  Hf7      1.0000 0.37912  0.50011  0.62491  Biso   1.000  Hf
  Hf8      1.0000 0.37197  0.00075  0.87785  Biso   1.000  Hf
  O9       1.0000 0.98804  0.28111  0.49677  Biso   1.000  O
  O10      1.0000 0.00674  0.21551  0.74558  Biso   1.000  O
  O11      1.0000 0.98804  0.71910  0.75305  Biso   1.000  O
  O12      1.0000 0.00674  0.78471  0.50424  Biso   1.000  O
  O13      1.0000 0.26178  0.28111  0.75305  Biso   1.000  O
  O14      1.0000 0.24308  0.21551  0.50423  Biso   1.000  O
  O15      1.0000 0.26178  0.71911  0.49677  Biso   1.000  O
  O16      1.0000 0.24308  0.78471  0.74558  Biso   1.000  O
  Hf9      1.0000 0.62491  0.00011  0.12491  Biso   1.000  Hf
  Hf10     1.0000 0.62491  0.50011  0.37912  Biso   1.000  Hf
  Hf11     1.0000 0.85653  0.50011  0.12491  Biso   1.000  Hf
  Hf12     1.0000 0.87785  0.00075  0.37197  Biso   1.000  Hf
  O17      1.0000 0.49680  0.28112  0.98802  Biso   1.000  O
  O18      1.0000 0.50420  0.21549  0.24305  Biso   1.000  O
  O19      1.0000 0.49680  0.71910  0.26179  Biso   1.000  O
  O20      1.0000 0.50420  0.78472  0.00676  Biso   1.000  O
  O21      1.0000 0.75302  0.28112  0.26179  Biso   1.000  O
  O22      1.0000 0.74562  0.21549  0.00676  Biso   1.000  O
  O23      1.0000 0.75302  0.71910  0.98802  Biso   1.000  O
  O24      1.0000 0.74562  0.78472  0.24305  Biso   1.000  O
  Hf13     1.0000 0.62491  0.00011  0.62491  Biso   1.000  Hf
  Hf14     1.0000 0.62491  0.50011  0.87069  Biso   1.000  Hf
  Hf15     1.0000 0.87070  0.50011  0.62491  Biso   1.000  Hf
  Hf16     1.0000 0.87785  0.99946  0.87784  Biso   1.000  Hf
  O25      1.0000 0.48979  0.28967  0.48978  Biso   1.000  O
  O26      1.0000 0.50642  0.21317  0.74337  Biso   1.000  O
  O27      1.0000 0.48979  0.71055  0.76004  Biso   1.000  O
  O28      1.0000 0.50643  0.78705  0.50645  Biso   1.000  O
  O29      1.0000 0.76003  0.28967  0.76004  Biso   1.000  O
  O30      1.0000 0.74339  0.21317  0.50645  Biso   1.000  O
  O31      1.0000 0.76002  0.71055  0.48978  Biso   1.000  O
  O32      1.0000 0.74339  0.78705  0.74337  Biso   1.000  O
  Zr1      1.0000 0.12491  0.50011  0.12491  Biso   1.000  Zr
