data_image0
_cell_length_a       10.1742
_cell_length_b       10.2946
_cell_length_c       10.5335
_cell_angle_alpha    90.0577
_cell_angle_beta     79.4558
_cell_angle_gamma    89.8391

_symmetry_space_group_name_H-M    "P 1"
_symmetry_int_tables_number       1

loop_
  _symmetry_equiv_pos_as_xyz
  'x, y, z'

loop_
  _atom_site_label
  _atom_site_occupancy
  _atom_site_fract_x
  _atom_site_fract_y
  _atom_site_fract_z
  _atom_site_thermal_displace_type
  _atom_site_B_iso_or_equiv
  _atom_site_type_symbol
  Hf1      1.0000 0.13335  0.02004  0.14443  Biso   1.000  Hf
  Hf2      1.0000 0.13580  0.22595  0.39295  Biso   1.000  Hf
  Hf3      1.0000 0.34520  0.27236  0.07628  Biso   1.000  Hf
  Hf4      1.0000 0.36044  0.49032  0.35472  Biso   1.000  Hf
  O1       1.0000 0.03187  0.16661  0.07530  Biso   1.000  O
  O2       1.0000 0.03245  0.08097  0.32787  Biso   1.000  O
  O3       1.0000 0.47103  0.41108  0.17559  Biso   1.000  O
  O4       1.0000 0.47945  0.35348  0.43299  Biso   1.000  O
  O5       1.0000 0.27303  0.11682  0.23022  Biso   1.000  O
  O6       1.0000 0.29517  0.13251  0.46972  Biso   1.000  O
  O7       1.0000 0.21072  0.38760  0.99802  Biso   1.000  O
  O8       1.0000 0.23830  0.36207  0.25330  Biso   1.000  O
  Hf5      1.0000 0.13510  0.01930  0.64722  Biso   1.000  Hf
  Hf6      1.0000 0.13107  0.22901  0.88938  Biso   1.000  Hf
  Hf7      1.0000 0.36237  0.27587  0.60553  Biso   1.000  Hf
  Hf8      1.0000 0.35782  0.48449  0.84982  Biso   1.000  Hf
  O9       1.0000 0.04102  0.16700  0.57773  Biso   1.000  O
  O10      1.0000 0.02932  0.08232  0.82754  Biso   1.000  O
  O11      1.0000 0.46567  0.41960  0.67384  Biso   1.000  O
  O12      1.0000 0.46592  0.33994  0.91578  Biso   1.000  O
  O13      1.0000 0.27255  0.12839  0.73266  Biso   1.000  O
  O14      1.0000 0.26723  0.12127  0.97931  Biso   1.000  O
  O15      1.0000 0.22639  0.38249  0.50788  Biso   1.000  O
  O16      1.0000 0.22318  0.37175  0.75580  Biso   1.000  O
  Hf9      1.0000 0.13797  0.52281  0.14517  Biso   1.000  Hf
  Hf10     1.0000 0.13524  0.72865  0.39721  Biso   1.000  Hf
  Hf11     1.0000 0.35969  0.77100  0.10285  Biso   1.000  Hf
  Hf12     1.0000 0.36109  0.96451  0.35187  Biso   1.000  Hf
  O17      1.0000 0.03317  0.66590  0.07864  Biso   1.000  O
  O18      1.0000 0.03663  0.58291  0.32828  Biso   1.000  O
  O19      1.0000 0.46714  0.91209  0.17395  Biso   1.000  O
  O20      1.0000 0.46378  0.82484  0.42501  Biso   1.000  O
  O21      1.0000 0.27702  0.62649  0.23964  Biso   1.000  O
  O22      1.0000 0.27217  0.62681  0.49316  Biso   1.000  O
  O23      1.0000 0.22298  0.87918  0.00877  Biso   1.000  O
  O24      1.0000 0.21938  0.86394  0.25769  Biso   1.000  O
  Hf13     1.0000 0.13686  0.52245  0.64552  Biso   1.000  Hf
  Hf14     1.0000 0.13555  0.72906  0.89725  Biso   1.000  Hf
  Hf15     1.0000 0.36174  0.77173  0.60533  Biso   1.000  Hf
  Hf16     1.0000 0.36028  0.97713  0.85228  Biso   1.000  Hf
  O25      1.0000 0.03034  0.66605  0.57961  Biso   1.000  O
  O26      1.0000 0.03291  0.58339  0.82938  Biso   1.000  O
  O27      1.0000 0.46544  0.91769  0.67219  Biso   1.000  O
  O28      1.0000 0.46531  0.83543  0.92300  Biso   1.000  O
  O29      1.0000 0.27370  0.62928  0.74013  Biso   1.000  O
  O30      1.0000 0.27600  0.62481  0.99009  Biso   1.000  O
  O31      1.0000 0.22195  0.88217  0.51074  Biso   1.000  O
  O32      1.0000 0.22241  0.87110  0.76031  Biso   1.000  O
  Hf17     1.0000 0.63643  0.02467  0.15405  Biso   1.000  Hf
  Hf18     1.0000 0.65119  0.22890  0.40339  Biso   1.000  Hf
  Hf19     1.0000 0.85846  0.27196  0.10834  Biso   1.000  Hf
  Hf20     1.0000 0.86343  0.47900  0.35703  Biso   1.000  Hf
  O33      1.0000 0.51747  0.16588  0.08454  Biso   1.000  O
  O34      1.0000 0.54375  0.06470  0.34640  Biso   1.000  O
  O35      1.0000 0.96990  0.41396  0.17429  Biso   1.000  O
  O36      1.0000 0.96730  0.33476  0.42531  Biso   1.000  O
  O37      1.0000 0.78412  0.12700  0.24454  Biso   1.000  O
  O38      1.0000 0.78453  0.11825  0.49859  Biso   1.000  O
  O39      1.0000 0.72051  0.37827  0.01358  Biso   1.000  O
  O40      1.0000 0.73155  0.37544  0.26500  Biso   1.000  O
  Hf21     1.0000 0.63800  0.02376  0.64864  Biso   1.000  Hf
  Hf22     1.0000 0.63657  0.22987  0.90015  Biso   1.000  Hf
  Hf23     1.0000 0.86313  0.27131  0.60866  Biso   1.000  Hf
  Hf24     1.0000 0.85912  0.47925  0.85664  Biso   1.000  Hf
  O41      1.0000 0.53706  0.17106  0.58261  Biso   1.000  O
  O42      1.0000 0.53122  0.08558  0.83084  Biso   1.000  O
  O43      1.0000 0.96588  0.41622  0.67462  Biso   1.000  O
  O44      1.0000 0.95933  0.33233  0.92254  Biso   1.000  O
  O45      1.0000 0.77449  0.12985  0.74614  Biso   1.000  O
  O46      1.0000 0.76953  0.12316  0.99644  Biso   1.000  O
  O47      1.0000 0.72966  0.37913  0.51620  Biso   1.000  O
  O48      1.0000 0.72320  0.37118  0.76423  Biso   1.000  O
  Hf25     1.0000 0.63862  0.52137  0.14886  Biso   1.000  Hf
  Hf26     1.0000 0.64065  0.72810  0.39829  Biso   1.000  Hf
  Hf27     1.0000 0.85830  0.77173  0.10637  Biso   1.000  Hf
  Hf28     1.0000 0.85805  0.97758  0.35664  Biso   1.000  Hf
  O49      1.0000 0.53233  0.66398  0.07776  Biso   1.000  O
  O50      1.0000 0.53500  0.58839  0.32691  Biso   1.000  O
  O51      1.0000 0.96367  0.91314  0.17450  Biso   1.000  O
  O52      1.0000 0.96382  0.83345  0.42535  Biso   1.000  O
  O53      1.0000 0.77812  0.62878  0.24235  Biso   1.000  O
  O54      1.0000 0.77589  0.62148  0.49275  Biso   1.000  O
  O55      1.0000 0.72179  0.88014  0.01363  Biso   1.000  O
  O56      1.0000 0.72266  0.87009  0.26175  Biso   1.000  O
  Hf29     1.0000 0.63905  0.52257  0.64865  Biso   1.000  Hf
  Hf30     1.0000 0.63727  0.72852  0.89886  Biso   1.000  Hf
  Hf31     1.0000 0.85869  0.77256  0.60679  Biso   1.000  Hf
  Hf32     1.0000 0.85583  0.97823  0.85861  Biso   1.000  Hf
  O57      1.0000 0.53378  0.66579  0.58075  Biso   1.000  O
  O58      1.0000 0.53208  0.58707  0.82839  Biso   1.000  O
  O59      1.0000 0.96348  0.91579  0.67589  Biso   1.000  O
  O60      1.0000 0.96380  0.83452  0.92409  Biso   1.000  O
  O61      1.0000 0.77481  0.62927  0.74274  Biso   1.000  O
  O62      1.0000 0.77521  0.62169  0.99214  Biso   1.000  O
  O63      1.0000 0.72138  0.87812  0.51329  Biso   1.000  O
  O64      1.0000 0.72181  0.87261  0.76322  Biso   1.000  O
  Zr1      1.0000 0.42620  0.22885  0.29171  Biso   1.000  Zr
