data_image0
_cell_length_a       10.2991
_cell_length_b       10.374
_cell_length_c       5.358
_cell_angle_alpha    90.2049
_cell_angle_beta     78.8053
_cell_angle_gamma    89.7413

_symmetry_space_group_name_H-M    "P 1"
_symmetry_int_tables_number       1

loop_
  _symmetry_equiv_pos_as_xyz
  'x, y, z'

loop_
  _atom_site_label
  _atom_site_occupancy
  _atom_site_fract_x
  _atom_site_fract_y
  _atom_site_fract_z
  _atom_site_thermal_displace_type
  _atom_site_B_iso_or_equiv
  _atom_site_type_symbol
  Zr1      1.0000 0.12958  0.01738  0.29679  Biso   1.000  Zr
  Zr2      1.0000 0.12777  0.22768  0.77498  Biso   1.000  Zr
  Zr3      1.0000 0.34751  0.27915  0.15572  Biso   1.000  Zr
  Zr4      1.0000 0.35700  0.49538  0.69948  Biso   1.000  Zr
  O1       1.0000 0.03784  0.16205  0.14440  Biso   1.000  O
  O2       1.0000 0.02578  0.08397  0.65099  Biso   1.000  O
  O3       1.0000 0.47280  0.41074  0.35600  Biso   1.000  O
  O4       1.0000 0.47783  0.35741  0.85011  Biso   1.000  O
  O5       1.0000 0.27186  0.11950  0.44072  Biso   1.000  O
  O6       1.0000 0.28827  0.13617  0.91000  Biso   1.000  O
  O7       1.0000 0.21317  0.39235  0.99524  Biso   1.000  O
  O8       1.0000 0.24013  0.36224  0.50622  Biso   1.000  O
  Zr5      1.0000 0.13509  0.52482  0.28823  Biso   1.000  Zr
  Zr6      1.0000 0.13154  0.72970  0.79584  Biso   1.000  Zr
  Zr7      1.0000 0.36010  0.77156  0.20851  Biso   1.000  Zr
  Zr8      1.0000 0.36056  0.96362  0.70329  Biso   1.000  Zr
  O9       1.0000 0.02615  0.66027  0.15183  Biso   1.000  O
  O10      1.0000 0.03087  0.58898  0.65116  Biso   1.000  O
  O11      1.0000 0.46855  0.91010  0.35398  Biso   1.000  O
  O12      1.0000 0.46634  0.83117  0.85900  Biso   1.000  O
  O13      1.0000 0.27206  0.62675  0.47623  Biso   1.000  O
  O14      1.0000 0.27058  0.63182  0.98211  Biso   1.000  O
  O15      1.0000 0.22227  0.88335  0.02253  Biso   1.000  O
  O16      1.0000 0.21942  0.86512  0.51923  Biso   1.000  O
  Zr9      1.0000 0.63732  0.02456  0.31104  Biso   1.000  Zr
  Zr10     1.0000 0.64615  0.23051  0.81633  Biso   1.000  Zr
  Zr11     1.0000 0.86128  0.27108  0.22754  Biso   1.000  Zr
  Zr12     1.0000 0.86149  0.47898  0.72038  Biso   1.000  Zr
  O17      1.0000 0.52118  0.16957  0.17901  Biso   1.000  O
  O18      1.0000 0.53912  0.07045  0.68914  Biso   1.000  O
  O19      1.0000 0.97382  0.40750  0.36451  Biso   1.000  O
  O20      1.0000 0.96393  0.33911  0.86370  Biso   1.000  O
  O21      1.0000 0.78108  0.12716  0.49833  Biso   1.000  O
  O22      1.0000 0.77701  0.12040  0.00715  Biso   1.000  O
  O23      1.0000 0.72703  0.37715  0.04117  Biso   1.000  O
  O24      1.0000 0.73228  0.37466  0.53845  Biso   1.000  O
  Zr13     1.0000 0.63886  0.52203  0.30071  Biso   1.000  Zr
  Zr14     1.0000 0.63830  0.72686  0.80158  Biso   1.000  Zr
  Zr15     1.0000 0.85606  0.77235  0.21970  Biso   1.000  Zr
  Zr16     1.0000 0.85270  0.97714  0.72371  Biso   1.000  Zr
  O25      1.0000 0.52923  0.65899  0.15378  Biso   1.000  O
  O26      1.0000 0.53067  0.59435  0.64776  Biso   1.000  O
  O27      1.0000 0.96384  0.90676  0.36743  Biso   1.000  O
  O28      1.0000 0.96471  0.84024  0.86560  Biso   1.000  O
  O29      1.0000 0.77507  0.62806  0.48862  Biso   1.000  O
  O30      1.0000 0.77342  0.62195  0.98849  Biso   1.000  O
  O31      1.0000 0.72083  0.87769  0.03434  Biso   1.000  O
  O32      1.0000 0.72139  0.87147  0.53121  Biso   1.000  O
  Zr17     1.0000 0.42149  0.22979  0.57770  Biso   1.000  Zr
