data_image0
_cell_length_a       4.97109
_cell_length_b       10.3763
_cell_length_c       10.0228
_cell_angle_alpha    90.0837
_cell_angle_beta     89.0753
_cell_angle_gamma    89.985

_symmetry_space_group_name_H-M    "P 1"
_symmetry_int_tables_number       1

loop_
  _symmetry_equiv_pos_as_xyz
  'x, y, z'

loop_
  _atom_site_label
  _atom_site_occupancy
  _atom_site_fract_x
  _atom_site_fract_y
  _atom_site_fract_z
  _atom_site_thermal_displace_type
  _atom_site_B_iso_or_equiv
  _atom_site_type_symbol
  Ag1      1.0000 0.24568  0.02481  0.10702  Biso   1.000  Ag
  Hf1      1.0000 0.27669  0.22960  0.37689  Biso   1.000  Hf
  Hf2      1.0000 0.72620  0.26694  0.12860  Biso   1.000  Hf
  Hf3      1.0000 0.73525  0.48306  0.37735  Biso   1.000  Hf
  O1       1.0000 0.08528  0.18497  0.18934  Biso   1.000  O
  O2       1.0000 0.07606  0.06557  0.44614  Biso   1.000  O
  O3       1.0000 0.93086  0.42926  0.19570  Biso   1.000  O
  O4       1.0000 0.92996  0.31513  0.44298  Biso   1.000  O
  O5       1.0000 0.56901  0.12796  0.25762  Biso   1.000  O
  O6       1.0000 0.54165  0.13107  0.50369  Biso   1.000  O
  O7       1.0000 0.46063  0.38134  0.50080  Biso   1.000  O
  O8       1.0000 0.45549  0.37024  0.25144  Biso   1.000  O
  Hf4      1.0000 0.26378  0.01693  0.62888  Biso   1.000  Hf
  Hf5      1.0000 0.26548  0.23729  0.87385  Biso   1.000  Hf
  Hf6      1.0000 0.73141  0.26702  0.62472  Biso   1.000  Hf
  Hf7      1.0000 0.72922  0.48421  0.87571  Biso   1.000  Hf
  O9       1.0000 0.07748  0.18945  0.69007  Biso   1.000  O
  O10      1.0000 0.06904  0.06544  0.91112  Biso   1.000  O
  O11      1.0000 0.92581  0.43493  0.69465  Biso   1.000  O
  O12      1.0000 0.91839  0.31329  0.94255  Biso   1.000  O
  O13      1.0000 0.54318  0.12037  0.75124  Biso   1.000  O
  O14      1.0000 0.53188  0.12883  0.00227  Biso   1.000  O
  O15      1.0000 0.45631  0.38107  0.00127  Biso   1.000  O
  O16      1.0000 0.45618  0.36984  0.74986  Biso   1.000  O
  Hf8      1.0000 0.27132  0.51631  0.12948  Biso   1.000  Hf
  Hf9      1.0000 0.27504  0.73544  0.37676  Biso   1.000  Hf
  Hf10     1.0000 0.73821  0.76401  0.12656  Biso   1.000  Hf
  Hf11     1.0000 0.73505  0.98485  0.37612  Biso   1.000  Hf
  O17      1.0000 0.07858  0.68418  0.19660  Biso   1.000  O
  O18      1.0000 0.07512  0.56526  0.44516  Biso   1.000  O
  O19      1.0000 0.93693  0.93489  0.19176  Biso   1.000  O
  O20      1.0000 0.93461  0.81634  0.44756  Biso   1.000  O
  O21      1.0000 0.54735  0.61347  0.24952  Biso   1.000  O
  O22      1.0000 0.54241  0.63274  0.50024  Biso   1.000  O
  O23      1.0000 0.45947  0.88324  0.50404  Biso   1.000  O
  O24      1.0000 0.49866  0.85899  0.25888  Biso   1.000  O
  Hf12     1.0000 0.26713  0.51767  0.62553  Biso   1.000  Hf
  Hf13     1.0000 0.26039  0.73141  0.87851  Biso   1.000  Hf
  Hf14     1.0000 0.73156  0.76681  0.62571  Biso   1.000  Hf
  Hf15     1.0000 0.71527  0.98043  0.87464  Biso   1.000  Hf
  O25      1.0000 0.06832  0.68385  0.69745  Biso   1.000  O
  O26      1.0000 0.06685  0.56448  0.94819  Biso   1.000  O
  O27      1.0000 0.91643  0.93498  0.69077  Biso   1.000  O
  O28      1.0000 0.91417  0.81589  0.94137  Biso   1.000  O
  O29      1.0000 0.53634  0.61782  0.75097  Biso   1.000  O
  O30      1.0000 0.53754  0.63216  0.00039  Biso   1.000  O
  O31      1.0000 0.44396  0.87977  0.00735  Biso   1.000  O
  O32      1.0000 0.45096  0.86743  0.75343  Biso   1.000  O
