data_image0
_cell_length_a       10.2959
_cell_length_b       10.3821
_cell_length_c       5.31379
_cell_angle_alpha    90.2849
_cell_angle_beta     79.0667
_cell_angle_gamma    90.1028

_symmetry_space_group_name_H-M    "P 1"
_symmetry_int_tables_number       1

loop_
  _symmetry_equiv_pos_as_xyz
  'x, y, z'

loop_
  _atom_site_label
  _atom_site_occupancy
  _atom_site_fract_x
  _atom_site_fract_y
  _atom_site_fract_z
  _atom_site_thermal_displace_type
  _atom_site_B_iso_or_equiv
  _atom_site_type_symbol
  Zr1      1.0000 0.13333  0.02142  0.28598  Biso   1.000  Zr
  Zr2      1.0000 0.13498  0.22941  0.77949  Biso   1.000  Zr
  Zr3      1.0000 0.35096  0.27756  0.19235  Biso   1.000  Zr
  Zr4      1.0000 0.35663  0.48317  0.70027  Biso   1.000  Zr
  O1       1.0000 0.03479  0.16861  0.15175  Biso   1.000  O
  O2       1.0000 0.02864  0.08289  0.65474  Biso   1.000  O
  O3       1.0000 0.46335  0.42324  0.34595  Biso   1.000  O
  O4       1.0000 0.47994  0.35639  0.87730  Biso   1.000  O
  O5       1.0000 0.26347  0.12538  0.46673  Biso   1.000  O
  O6       1.0000 0.27427  0.12153  0.97001  Biso   1.000  O
  O7       1.0000 0.22187  0.38093  0.00225  Biso   1.000  O
  O8       1.0000 0.21218  0.37628  0.50156  Biso   1.000  O
  Zr5      1.0000 0.13669  0.52410  0.28750  Biso   1.000  Zr
  Zr6      1.0000 0.13496  0.72831  0.79360  Biso   1.000  Zr
  Zr7      1.0000 0.35941  0.77082  0.21266  Biso   1.000  Zr
  Zr8      1.0000 0.35936  0.96854  0.71515  Biso   1.000  Zr
  O9       1.0000 0.02924  0.66702  0.15495  Biso   1.000  O
  O10      1.0000 0.03130  0.58622  0.65373  Biso   1.000  O
  O11      1.0000 0.46476  0.91767  0.34916  Biso   1.000  O
  O12      1.0000 0.46221  0.82843  0.84903  Biso   1.000  O
  O13      1.0000 0.27259  0.62881  0.48151  Biso   1.000  O
  O14      1.0000 0.27228  0.62407  0.98239  Biso   1.000  O
  O15      1.0000 0.22285  0.87744  0.02373  Biso   1.000  O
  O16      1.0000 0.22260  0.87002  0.52326  Biso   1.000  O
  Zr9      1.0000 0.63966  0.01880  0.30005  Biso   1.000  Zr
  Zr10     1.0000 0.65241  0.23105  0.81937  Biso   1.000  Zr
  Zr11     1.0000 0.86333  0.27303  0.22054  Biso   1.000  Zr
  Zr12     1.0000 0.86114  0.47985  0.71280  Biso   1.000  Zr
  O17      1.0000 0.53125  0.16657  0.16244  Biso   1.000  O
  O18      1.0000 0.54788  0.06248  0.68897  Biso   1.000  O
  O19      1.0000 0.96422  0.41921  0.34478  Biso   1.000  O
  O20      1.0000 0.96324  0.33382  0.84419  Biso   1.000  O
  O21      1.0000 0.77586  0.13043  0.49091  Biso   1.000  O
  O22      1.0000 0.77836  0.12001  0.99595  Biso   1.000  O
  O23      1.0000 0.72773  0.37768  0.03567  Biso   1.000  O
  O24      1.0000 0.72403  0.37249  0.53347  Biso   1.000  O
  Zr13     1.0000 0.63668  0.52384  0.29912  Biso   1.000  Zr
  Zr14     1.0000 0.63709  0.72688  0.79592  Biso   1.000  Zr
  Zr15     1.0000 0.85815  0.77098  0.21124  Biso   1.000  Zr
  Zr16     1.0000 0.85917  0.97671  0.71193  Biso   1.000  Zr
  O25      1.0000 0.53220  0.66753  0.15965  Biso   1.000  O
  O26      1.0000 0.53041  0.58882  0.65482  Biso   1.000  O
  O27      1.0000 0.96234  0.91552  0.34667  Biso   1.000  O
  O28      1.0000 0.96362  0.83434  0.84699  Biso   1.000  O
  O29      1.0000 0.77421  0.62876  0.48510  Biso   1.000  O
  O30      1.0000 0.77252  0.62127  0.98426  Biso   1.000  O
  O31      1.0000 0.72206  0.87855  0.02592  Biso   1.000  O
  O32      1.0000 0.72320  0.87008  0.52295  Biso   1.000  O
  Ag1      1.0000 0.43790  0.22314  0.60122  Biso   1.000  Ag
