data_image0
_cell_length_a       10.0187
_cell_length_b       5.07473
_cell_length_c       10.4196
_cell_angle_alpha    90.0777
_cell_angle_beta     90.7449
_cell_angle_gamma    89.483

_symmetry_space_group_name_H-M    "P 1"
_symmetry_int_tables_number       1

loop_
  _symmetry_equiv_pos_as_xyz
  'x, y, z'

loop_
  _atom_site_label
  _atom_site_occupancy
  _atom_site_fract_x
  _atom_site_fract_y
  _atom_site_fract_z
  _atom_site_thermal_displace_type
  _atom_site_B_iso_or_equiv
  _atom_site_type_symbol
  Al1      1.0000 0.12375  0.01905  0.18824  Biso   1.000  Al
  Hf1      1.0000 0.13721  0.45488  0.41526  Biso   1.000  Hf
  Hf2      1.0000 0.35196  0.54999  0.17017  Biso   1.000  Hf
  Hf3      1.0000 0.35551  0.96185  0.41721  Biso   1.000  Hf
  Hf4      1.0000 0.64102  0.03999  0.07779  Biso   1.000  Hf
  Hf5      1.0000 0.63629  0.45809  0.32698  Biso   1.000  Hf
  Hf6      1.0000 0.87099  0.53120  0.08321  Biso   1.000  Hf
  Hf7      1.0000 0.85897  0.95613  0.33008  Biso   1.000  Hf
  O1       1.0000 0.04819  0.30630  0.09037  Biso   1.000  O
  O2       1.0000 0.03185  0.15996  0.33349  Biso   1.000  O
  O3       1.0000 0.46981  0.82820  0.08340  Biso   1.000  O
  O4       1.0000 0.46301  0.66808  0.33435  Biso   1.000  O
  O5       1.0000 0.26821  0.23750  0.28172  Biso   1.000  O
  O6       1.0000 0.30056  0.30288  0.02578  Biso   1.000  O
  O7       1.0000 0.21447  0.75137  0.29445  Biso   1.000  O
  O8       1.0000 0.21713  0.79829  0.05332  Biso   1.000  O
  O9       1.0000 0.53207  0.33226  0.16437  Biso   1.000  O
  O10      1.0000 0.53015  0.16756  0.41290  Biso   1.000  O
  O11      1.0000 0.97106  0.82450  0.17026  Biso   1.000  O
  O12      1.0000 0.96345  0.66304  0.41682  Biso   1.000  O
  O13      1.0000 0.77375  0.24593  0.45544  Biso   1.000  O
  O14      1.0000 0.77694  0.24884  0.20526  Biso   1.000  O
  O15      1.0000 0.72108  0.74639  0.45604  Biso   1.000  O
  O16      1.0000 0.72637  0.74709  0.20549  Biso   1.000  O
  Hf8      1.0000 0.13869  0.04119  0.66964  Biso   1.000  Hf
  Hf9      1.0000 0.14369  0.45817  0.92402  Biso   1.000  Hf
  Hf10     1.0000 0.36000  0.54489  0.67103  Biso   1.000  Hf
  Hf11     1.0000 0.35819  0.96522  0.92546  Biso   1.000  Hf
  Hf12     1.0000 0.63664  0.04082  0.57850  Biso   1.000  Hf
  Hf13     1.0000 0.64052  0.45995  0.82984  Biso   1.000  Hf
  Hf14     1.0000 0.85963  0.53853  0.57995  Biso   1.000  Hf
  Hf15     1.0000 0.86369  0.95581  0.83150  Biso   1.000  Hf
  O17      1.0000 0.03215  0.32691  0.58161  Biso   1.000  O
  O18      1.0000 0.03439  0.17277  0.83455  Biso   1.000  O
  O19      1.0000 0.46446  0.83548  0.58332  Biso   1.000  O
  O20      1.0000 0.46914  0.67553  0.83301  Biso   1.000  O
  O21      1.0000 0.27568  0.24521  0.78805  Biso   1.000  O
  O22      1.0000 0.27575  0.25613  0.53933  Biso   1.000  O
  O23      1.0000 0.22456  0.74701  0.79787  Biso   1.000  O
  O24      1.0000 0.22135  0.75350  0.54397  Biso   1.000  O
  O25      1.0000 0.53332  0.33592  0.66447  Biso   1.000  O
  O26      1.0000 0.53694  0.16485  0.91322  Biso   1.000  O
  O27      1.0000 0.96778  0.82509  0.66905  Biso   1.000  O
  O28      1.0000 0.96999  0.66682  0.92268  Biso   1.000  O
  O29      1.0000 0.78048  0.24390  0.95671  Biso   1.000  O
  O30      1.0000 0.77695  0.25110  0.70596  Biso   1.000  O
  O31      1.0000 0.72808  0.74254  0.95731  Biso   1.000  O
  O32      1.0000 0.72413  0.75331  0.70651  Biso   1.000  O
