data_image0
_cell_length_a       10.1087
_cell_length_b       5.11199
_cell_length_c       10.481
_cell_angle_alpha    90.0192
_cell_angle_beta     80.6018
_cell_angle_gamma    89.5198

_symmetry_space_group_name_H-M    "P 1"
_symmetry_int_tables_number       1

loop_
  _symmetry_equiv_pos_as_xyz
  'x, y, z'

loop_
  _atom_site_label
  _atom_site_occupancy
  _atom_site_fract_x
  _atom_site_fract_y
  _atom_site_fract_z
  _atom_site_thermal_displace_type
  _atom_site_B_iso_or_equiv
  _atom_site_type_symbol
  As1      1.0000 0.11435  0.03867  0.16045  Biso   1.000  As
  Hf1      1.0000 0.14068  0.45933  0.39428  Biso   1.000  Hf
  Hf2      1.0000 0.35525  0.54605  0.10248  Biso   1.000  Hf
  Hf3      1.0000 0.35939  0.95877  0.35072  Biso   1.000  Hf
  O1       1.0000 0.03946  0.31298  0.07969  Biso   1.000  O
  O2       1.0000 0.03334  0.16271  0.32193  Biso   1.000  O
  O3       1.0000 0.46477  0.83360  0.17202  Biso   1.000  O
  O4       1.0000 0.46500  0.66678  0.42122  Biso   1.000  O
  O5       1.0000 0.27397  0.26371  0.24051  Biso   1.000  O
  O6       1.0000 0.27691  0.24244  0.48860  Biso   1.000  O
  O7       1.0000 0.22259  0.76864  0.00773  Biso   1.000  O
  O8       1.0000 0.22047  0.74333  0.25948  Biso   1.000  O
  Hf4      1.0000 0.13948  0.04174  0.64478  Biso   1.000  Hf
  Hf5      1.0000 0.14480  0.45686  0.89408  Biso   1.000  Hf
  Hf6      1.0000 0.36210  0.54535  0.60357  Biso   1.000  Hf
  Hf7      1.0000 0.36069  0.96461  0.85603  Biso   1.000  Hf
  O9       1.0000 0.03284  0.32347  0.57267  Biso   1.000  O
  O10      1.0000 0.03610  0.16786  0.82666  Biso   1.000  O
  O11      1.0000 0.46582  0.83559  0.67210  Biso   1.000  O
  O12      1.0000 0.46906  0.67973  0.92364  Biso   1.000  O
  O13      1.0000 0.27618  0.25735  0.73527  Biso   1.000  O
  O14      1.0000 0.28871  0.26843  0.97794  Biso   1.000  O
  O15      1.0000 0.22261  0.75635  0.50792  Biso   1.000  O
  O16      1.0000 0.22546  0.74213  0.75866  Biso   1.000  O
  Hf8      1.0000 0.63569  0.04292  0.14509  Biso   1.000  Hf
  Hf9      1.0000 0.63683  0.45500  0.39598  Biso   1.000  Hf
  Hf10     1.0000 0.86130  0.53397  0.10390  Biso   1.000  Hf
  Hf11     1.0000 0.85441  0.95315  0.35837  Biso   1.000  Hf
  O17      1.0000 0.53525  0.33808  0.07850  Biso   1.000  O
  O18      1.0000 0.53511  0.16266  0.32851  Biso   1.000  O
  O19      1.0000 0.96610  0.83570  0.17349  Biso   1.000  O
  O20      1.0000 0.96410  0.66573  0.42185  Biso   1.000  O
  O21      1.0000 0.77597  0.25279  0.24042  Biso   1.000  O
  O22      1.0000 0.77644  0.23986  0.49086  Biso   1.000  O
  O23      1.0000 0.72645  0.75716  0.01179  Biso   1.000  O
  O24      1.0000 0.72742  0.73742  0.25978  Biso   1.000  O
  Hf12     1.0000 0.63820  0.04263  0.64834  Biso   1.000  Hf
  Hf13     1.0000 0.63797  0.46031  0.89706  Biso   1.000  Hf
  Hf14     1.0000 0.86136  0.54023  0.60550  Biso   1.000  Hf
  Hf15     1.0000 0.86480  0.95528  0.85537  Biso   1.000  Hf
  O25      1.0000 0.53578  0.33512  0.57784  Biso   1.000  O
  O26      1.0000 0.53652  0.17054  0.82752  Biso   1.000  O
  O27      1.0000 0.96786  0.82456  0.67447  Biso   1.000  O
  O28      1.0000 0.96776  0.66271  0.92808  Biso   1.000  O
  O29      1.0000 0.77840  0.25679  0.74086  Biso   1.000  O
  O30      1.0000 0.77836  0.24271  0.99123  Biso   1.000  O
  O31      1.0000 0.72216  0.75488  0.51134  Biso   1.000  O
  O32      1.0000 0.72572  0.74333  0.76144  Biso   1.000  O
