data_image0
_cell_length_a       10.1917
_cell_length_b       5.1668
_cell_length_c       10.6464
_cell_angle_alpha    89.5299
_cell_angle_beta     90.2922
_cell_angle_gamma    90.0133

_symmetry_space_group_name_H-M    "P 1"
_symmetry_int_tables_number       1

loop_
  _symmetry_equiv_pos_as_xyz
  'x, y, z'

loop_
  _atom_site_label
  _atom_site_occupancy
  _atom_site_fract_x
  _atom_site_fract_y
  _atom_site_fract_z
  _atom_site_thermal_displace_type
  _atom_site_B_iso_or_equiv
  _atom_site_type_symbol
  Zr1      1.0000 0.13430  0.04274  0.17159  Biso   1.000  Zr
  Zr2      1.0000 0.13731  0.45401  0.42639  Biso   1.000  Zr
  Zr3      1.0000 0.34240  0.54475  0.18042  Biso   1.000  Zr
  Zr4      1.0000 0.36390  0.95511  0.42351  Biso   1.000  Zr
  Zr5      1.0000 0.65062  0.04387  0.07626  Biso   1.000  Zr
  Zr6      1.0000 0.64192  0.46433  0.33552  Biso   1.000  Zr
  Zr7      1.0000 0.86227  0.54255  0.08039  Biso   1.000  Zr
  Zr8      1.0000 0.86521  0.96298  0.33599  Biso   1.000  Zr
  O1       1.0000 0.03102  0.32089  0.08017  Biso   1.000  O
  O2       1.0000 0.03182  0.18342  0.32968  Biso   1.000  O
  O3       1.0000 0.45393  0.85417  0.09670  Biso   1.000  O
  O4       1.0000 0.46627  0.66977  0.33308  Biso   1.000  O
  O5       1.0000 0.27176  0.24849  0.29827  Biso   1.000  O
  O6       1.0000 0.27422  0.25529  0.04557  Biso   1.000  O
  O7       1.0000 0.22063  0.75097  0.30075  Biso   1.000  O
  O8       1.0000 0.22091  0.75245  0.04802  Biso   1.000  O
  O9       1.0000 0.51797  0.32358  0.17457  Biso   1.000  O
  O10      1.0000 0.53296  0.17361  0.41875  Biso   1.000  O
  O11      1.0000 0.97005  0.82395  0.17379  Biso   1.000  O
  O12      1.0000 0.97056  0.67630  0.42540  Biso   1.000  O
  O13      1.0000 0.77459  0.24915  0.45776  Biso   1.000  O
  O14      1.0000 0.77447  0.25609  0.21189  Biso   1.000  O
  O15      1.0000 0.72614  0.74466  0.46018  Biso   1.000  O
  O16      1.0000 0.73630  0.77026  0.22139  Biso   1.000  O
  Zr9      1.0000 0.14218  0.03837  0.67291  Biso   1.000  Zr
  Zr10     1.0000 0.13816  0.45802  0.92214  Biso   1.000  Zr
  Zr11     1.0000 0.36158  0.54077  0.67255  Biso   1.000  Zr
  Zr12     1.0000 0.36064  0.95997  0.92143  Biso   1.000  Zr
  Zr13     1.0000 0.63946  0.03654  0.57885  Biso   1.000  Zr
  Zr14     1.0000 0.63812  0.44856  0.81914  Biso   1.000  Zr
  Zr15     1.0000 0.86396  0.53969  0.58152  Biso   1.000  Zr
  Zr16     1.0000 0.86831  0.95842  0.82599  Biso   1.000  Zr
  O17      1.0000 0.03143  0.31506  0.58089  Biso   1.000  O
  O18      1.0000 0.03679  0.17650  0.82846  Biso   1.000  O
  O19      1.0000 0.47091  0.81882  0.57876  Biso   1.000  O
  O20      1.0000 0.46785  0.67507  0.82464  Biso   1.000  O
  O21      1.0000 0.27844  0.24520  0.79606  Biso   1.000  O
  O22      1.0000 0.27524  0.24665  0.54654  Biso   1.000  O
  O23      1.0000 0.22629  0.74539  0.79720  Biso   1.000  O
  O24      1.0000 0.22759  0.74794  0.54784  Biso   1.000  O
  O25      1.0000 0.52955  0.31586  0.66758  Biso   1.000  O
  O26      1.0000 0.53861  0.13151  0.91198  Biso   1.000  O
  O27      1.0000 0.97427  0.81684  0.67059  Biso   1.000  O
  O28      1.0000 0.97475  0.67930  0.92275  Biso   1.000  O
  O29      1.0000 0.78830  0.24594  0.94777  Biso   1.000  O
  O30      1.0000 0.77605  0.24273  0.70093  Biso   1.000  O
  O31      1.0000 0.73930  0.76261  0.94713  Biso   1.000  O
  O32      1.0000 0.72847  0.74480  0.70365  Biso   1.000  O
  As1      1.0000 0.59090  0.54641  0.05193  Biso   1.000  As
