data_image0
_cell_length_a       10.0632
_cell_length_b       10.1972
_cell_length_c       5.03313
_cell_angle_alpha    89.8261
_cell_angle_beta     90.8596
_cell_angle_gamma    90.0971

_symmetry_space_group_name_H-M    "P 1"
_symmetry_int_tables_number       1

loop_
  _symmetry_equiv_pos_as_xyz
  'x, y, z'

loop_
  _atom_site_label
  _atom_site_occupancy
  _atom_site_fract_x
  _atom_site_fract_y
  _atom_site_fract_z
  _atom_site_thermal_displace_type
  _atom_site_B_iso_or_equiv
  _atom_site_type_symbol
  As1      1.0000 0.12457  0.01055  0.24678  Biso   1.000  As
  Zr1      1.0000 0.12480  0.49870  0.25096  Biso   1.000  Zr
  Zr2      1.0000 0.62523  0.00009  0.25103  Biso   1.000  Zr
  Zr3      1.0000 0.62423  0.50169  0.25016  Biso   1.000  Zr
  Zr4      1.0000 0.12290  0.24965  0.75083  Biso   1.000  Zr
  Zr5      1.0000 0.12410  0.74519  0.74818  Biso   1.000  Zr
  Zr6      1.0000 0.62426  0.24895  0.75164  Biso   1.000  Zr
  Zr7      1.0000 0.62540  0.75290  0.75074  Biso   1.000  Zr
  Zr8      1.0000 0.37600  0.24955  0.25481  Biso   1.000  Zr
  Zr9      1.0000 0.37330  0.74972  0.23438  Biso   1.000  Zr
  Zr10     1.0000 0.87297  0.25071  0.25141  Biso   1.000  Zr
  Zr11     1.0000 0.87703  0.74977  0.26460  Biso   1.000  Zr
  Zr12     1.0000 0.37420  0.99930  0.73829  Biso   1.000  Zr
  Zr13     1.0000 0.37665  0.50086  0.74719  Biso   1.000  Zr
  Zr14     1.0000 0.87670  0.00119  0.75953  Biso   1.000  Zr
  Zr15     1.0000 0.87243  0.50121  0.75382  Biso   1.000  Zr
  O1       1.0000 0.98872  0.14813  0.98554  Biso   1.000  O
  O2       1.0000 0.99573  0.64778  0.00043  Biso   1.000  O
  O3       1.0000 0.48679  0.14458  0.98043  Biso   1.000  O
  O4       1.0000 0.49689  0.64422  0.99328  Biso   1.000  O
  O5       1.0000 0.00600  0.10312  0.49925  Biso   1.000  O
  O6       1.0000 0.00307  0.60247  0.50062  Biso   1.000  O
  O7       1.0000 0.50700  0.10746  0.48823  Biso   1.000  O
  O8       1.0000 0.50317  0.60689  0.49768  Biso   1.000  O
  O9       1.0000 0.99692  0.35454  0.50278  Biso   1.000  O
  O10      1.0000 0.97853  0.84880  0.55844  Biso   1.000  O
  O11      1.0000 0.49638  0.35719  0.50630  Biso   1.000  O
  O12      1.0000 0.48631  0.85622  0.50406  Biso   1.000  O
  O13      1.0000 0.00097  0.39613  0.00095  Biso   1.000  O
  O14      1.0000 0.02273  0.89870  0.04367  Biso   1.000  O
  O15      1.0000 0.50144  0.39369  0.00420  Biso   1.000  O
  O16      1.0000 0.51319  0.89439  0.99528  Biso   1.000  O
  O17      1.0000 0.26227  0.14988  0.53109  Biso   1.000  O
  O18      1.0000 0.25320  0.64775  0.49626  Biso   1.000  O
  O19      1.0000 0.75924  0.14454  0.51799  Biso   1.000  O
  O20      1.0000 0.75312  0.64484  0.50660  Biso   1.000  O
  O21      1.0000 0.24133  0.09380  0.01647  Biso   1.000  O
  O22      1.0000 0.24611  0.60023  0.99774  Biso   1.000  O
  O23      1.0000 0.74214  0.10791  0.00952  Biso   1.000  O
  O24      1.0000 0.74611  0.60695  0.00276  Biso   1.000  O
  O25      1.0000 0.25088  0.35027  0.00281  Biso   1.000  O
  O26      1.0000 0.27593  0.84323  0.92590  Biso   1.000  O
  O27      1.0000 0.75181  0.35732  0.99625  Biso   1.000  O
  O28      1.0000 0.76574  0.85651  0.99572  Biso   1.000  O
  O29      1.0000 0.24702  0.39624  0.50295  Biso   1.000  O
  O30      1.0000 0.23399  0.90055  0.43713  Biso   1.000  O
  O31      1.0000 0.74686  0.39413  0.49851  Biso   1.000  O
  O32      1.0000 0.73877  0.89449  0.50480  Biso   1.000  O
