data_image0
_cell_length_a       5.05687
_cell_length_b       10.2563
_cell_length_c       10.4718
_cell_angle_alpha    89.6473
_cell_angle_beta     81.1509
_cell_angle_gamma    89.6538

_symmetry_space_group_name_H-M    "P 1"
_symmetry_int_tables_number       1

loop_
  _symmetry_equiv_pos_as_xyz
  'x, y, z'

loop_
  _atom_site_label
  _atom_site_occupancy
  _atom_site_fract_x
  _atom_site_fract_y
  _atom_site_fract_z
  _atom_site_thermal_displace_type
  _atom_site_B_iso_or_equiv
  _atom_site_type_symbol
  Au1      1.0000 0.24825  0.01338  0.16759  Biso   1.000  Au
  Hf1      1.0000 0.27270  0.23420  0.39769  Biso   1.000  Hf
  Hf2      1.0000 0.72607  0.26634  0.10244  Biso   1.000  Hf
  Hf3      1.0000 0.72056  0.48009  0.35289  Biso   1.000  Hf
  O1       1.0000 0.08809  0.16360  0.08297  Biso   1.000  O
  O2       1.0000 0.03825  0.08925  0.34818  Biso   1.000  O
  O3       1.0000 0.93020  0.41714  0.17160  Biso   1.000  O
  O4       1.0000 0.92659  0.33635  0.42464  Biso   1.000  O
  O5       1.0000 0.53531  0.12326  0.23596  Biso   1.000  O
  O6       1.0000 0.54669  0.12250  0.48786  Biso   1.000  O
  O7       1.0000 0.45562  0.37971  0.01080  Biso   1.000  O
  O8       1.0000 0.45274  0.36860  0.25947  Biso   1.000  O
  Hf4      1.0000 0.27462  0.02136  0.64453  Biso   1.000  Hf
  Hf5      1.0000 0.29024  0.22399  0.89608  Biso   1.000  Hf
  Hf6      1.0000 0.72134  0.27280  0.60580  Biso   1.000  Hf
  Hf7      1.0000 0.73109  0.47684  0.85641  Biso   1.000  Hf
  O9       1.0000 0.07177  0.17289  0.58192  Biso   1.000  O
  O10      1.0000 0.08138  0.07943  0.82779  Biso   1.000  O
  O11      1.0000 0.93218  0.41726  0.67418  Biso   1.000  O
  O12      1.0000 0.94609  0.33346  0.92735  Biso   1.000  O
  O13      1.0000 0.55470  0.12762  0.73438  Biso   1.000  O
  O14      1.0000 0.59092  0.13277  0.97455  Biso   1.000  O
  O15      1.0000 0.44383  0.38037  0.51015  Biso   1.000  O
  O16      1.0000 0.45411  0.36984  0.76129  Biso   1.000  O
  Hf8      1.0000 0.27662  0.51978  0.14413  Biso   1.000  Hf
  Hf9      1.0000 0.26957  0.72539  0.39610  Biso   1.000  Hf
  Hf10     1.0000 0.72169  0.76982  0.09768  Biso   1.000  Hf
  Hf11     1.0000 0.70614  0.97796  0.35771  Biso   1.000  Hf
  O17      1.0000 0.07647  0.67054  0.07847  Biso   1.000  O
  O18      1.0000 0.07211  0.57932  0.32822  Biso   1.000  O
  O19      1.0000 0.90631  0.92146  0.17083  Biso   1.000  O
  O20      1.0000 0.92256  0.83022  0.41828  Biso   1.000  O
  O21      1.0000 0.55100  0.63071  0.23966  Biso   1.000  O
  O22      1.0000 0.55135  0.62090  0.49038  Biso   1.000  O
  O23      1.0000 0.45900  0.87945  0.00168  Biso   1.000  O
  O24      1.0000 0.43341  0.86844  0.25556  Biso   1.000  O
  Hf12     1.0000 0.27892  0.52108  0.64815  Biso   1.000  Hf
  Hf13     1.0000 0.28315  0.73139  0.89393  Biso   1.000  Hf
  Hf14     1.0000 0.72069  0.77118  0.60422  Biso   1.000  Hf
  Hf15     1.0000 0.72564  0.98191  0.85300  Biso   1.000  Hf
  O25      1.0000 0.06973  0.66733  0.57849  Biso   1.000  O
  O26      1.0000 0.07611  0.58166  0.82957  Biso   1.000  O
  O27      1.0000 0.92803  0.91918  0.66738  Biso   1.000  O
  O28      1.0000 0.93306  0.83094  0.91789  Biso   1.000  O
  O29      1.0000 0.55687  0.62863  0.74020  Biso   1.000  O
  O30      1.0000 0.55722  0.62018  0.98963  Biso   1.000  O
  O31      1.0000 0.44169  0.87887  0.50685  Biso   1.000  O
  O32      1.0000 0.44931  0.87058  0.75548  Biso   1.000  O
