data_image0
_cell_length_a       5.07458
_cell_length_b       10.4463
_cell_length_c       10.2161
_cell_angle_alpha    89.0983
_cell_angle_beta     91.3986
_cell_angle_gamma    91.2319

_symmetry_space_group_name_H-M    "P 1"
_symmetry_int_tables_number       1

loop_
  _symmetry_equiv_pos_as_xyz
  'x, y, z'

loop_
  _atom_site_label
  _atom_site_occupancy
  _atom_site_fract_x
  _atom_site_fract_y
  _atom_site_fract_z
  _atom_site_thermal_displace_type
  _atom_site_B_iso_or_equiv
  _atom_site_type_symbol
  Zr1      1.0000 0.27397  0.98943  0.10144  Biso   1.000  Zr
  Zr2      1.0000 0.24210  0.23091  0.40347  Biso   1.000  Zr
  Zr3      1.0000 0.61545  0.25845  0.15200  Biso   1.000  Zr
  Zr4      1.0000 0.73340  0.48874  0.37889  Biso   1.000  Zr
  O1       1.0000 0.90729  0.18220  0.27232  Biso   1.000  O
  O2       1.0000 0.07115  0.06031  0.46359  Biso   1.000  O
  O3       1.0000 0.89572  0.43548  0.19649  Biso   1.000  O
  O4       1.0000 0.94828  0.33553  0.46607  Biso   1.000  O
  O5       1.0000 0.43065  0.10489  0.25633  Biso   1.000  O
  O6       1.0000 0.55724  0.13951  0.50088  Biso   1.000  O
  O7       1.0000 0.47777  0.38673  0.50602  Biso   1.000  O
  O8       1.0000 0.40958  0.37346  0.26858  Biso   1.000  O
  Zr5      1.0000 0.29488  0.01169  0.62667  Biso   1.000  Zr
  Zr6      1.0000 0.30658  0.22936  0.85886  Biso   1.000  Zr
  Zr7      1.0000 0.75761  0.27359  0.63328  Biso   1.000  Zr
  Zr8      1.0000 0.74137  0.48552  0.87331  Biso   1.000  Zr
  O9       1.0000 0.11417  0.18741  0.67600  Biso   1.000  O
  O10      1.0000 0.11672  0.05203  0.91531  Biso   1.000  O
  O11      1.0000 0.93457  0.44760  0.69163  Biso   1.000  O
  O12      1.0000 0.94553  0.31082  0.89092  Biso   1.000  O
  O13      1.0000 0.57410  0.11654  0.74914  Biso   1.000  O
  O14      1.0000 0.57700  0.12024  0.00338  Biso   1.000  O
  O15      1.0000 0.48788  0.38469  0.00143  Biso   1.000  O
  O16      1.0000 0.47358  0.37258  0.74758  Biso   1.000  O
  Zr9      1.0000 0.25277  0.51899  0.13021  Biso   1.000  Zr
  Zr10     1.0000 0.27437  0.74155  0.37547  Biso   1.000  Zr
  Zr11     1.0000 0.73921  0.76074  0.12663  Biso   1.000  Zr
  Zr12     1.0000 0.74491  0.99935  0.36307  Biso   1.000  Zr
  O17      1.0000 0.07513  0.68301  0.19736  Biso   1.000  O
  O18      1.0000 0.07044  0.57657  0.44539  Biso   1.000  O
  O19      1.0000 0.93346  0.94068  0.18825  Biso   1.000  O
  O20      1.0000 0.93669  0.82253  0.43726  Biso   1.000  O
  O21      1.0000 0.53590  0.61781  0.24997  Biso   1.000  O
  O22      1.0000 0.54163  0.63802  0.49713  Biso   1.000  O
  O23      1.0000 0.47744  0.88992  0.49329  Biso   1.000  O
  O24      1.0000 0.47625  0.86270  0.24068  Biso   1.000  O
  Zr13     1.0000 0.27496  0.51736  0.62123  Biso   1.000  Zr
  Zr14     1.0000 0.28266  0.73070  0.87067  Biso   1.000  Zr
  Zr15     1.0000 0.75243  0.76879  0.61764  Biso   1.000  Zr
  Zr16     1.0000 0.75929  0.97827  0.87029  Biso   1.000  Zr
  O25      1.0000 0.08318  0.68644  0.69431  Biso   1.000  O
  O26      1.0000 0.07612  0.56579  0.94973  Biso   1.000  O
  O27      1.0000 0.95504  0.92955  0.69638  Biso   1.000  O
  O28      1.0000 0.97327  0.81818  0.95872  Biso   1.000  O
  O29      1.0000 0.54823  0.61776  0.74803  Biso   1.000  O
  O30      1.0000 0.54427  0.63145  0.99988  Biso   1.000  O
  O31      1.0000 0.49536  0.87245  0.99043  Biso   1.000  O
  O32      1.0000 0.49044  0.86379  0.74522  Biso   1.000  O
  Au1      1.0000 0.08788  0.23895  0.08692  Biso   1.000  Au
