data_image0
_cell_length_a       9.99562
_cell_length_b       10.3991
_cell_length_c       10.0571
_cell_angle_alpha    90.0188
_cell_angle_beta     90.0147
_cell_angle_gamma    90.0593

_symmetry_space_group_name_H-M    "P 1"
_symmetry_int_tables_number       1

loop_
  _symmetry_equiv_pos_as_xyz
  'x, y, z'

loop_
  _atom_site_label
  _atom_site_occupancy
  _atom_site_fract_x
  _atom_site_fract_y
  _atom_site_fract_z
  _atom_site_thermal_displace_type
  _atom_site_B_iso_or_equiv
  _atom_site_type_symbol
  Ba1      1.0000 0.11192  0.99809  0.12305  Biso   1.000  Ba
  Hf1      1.0000 0.13354  0.01795  0.62905  Biso   1.000  Hf
  Hf2      1.0000 0.13459  0.51590  0.12556  Biso   1.000  Hf
  Hf3      1.0000 0.13507  0.51684  0.62626  Biso   1.000  Hf
  Hf4      1.0000 0.63788  0.01776  0.12457  Biso   1.000  Hf
  Hf5      1.0000 0.63172  0.01744  0.62640  Biso   1.000  Hf
  Hf6      1.0000 0.63214  0.51336  0.12668  Biso   1.000  Hf
  Hf7      1.0000 0.63360  0.51512  0.62668  Biso   1.000  Hf
  Hf8      1.0000 0.13642  0.23347  0.37857  Biso   1.000  Hf
  Hf9      1.0000 0.13429  0.23535  0.87036  Biso   1.000  Hf
  Hf10     1.0000 0.13612  0.73293  0.37876  Biso   1.000  Hf
  Hf11     1.0000 0.13683  0.73181  0.87596  Biso   1.000  Hf
  Hf12     1.0000 0.63190  0.23418  0.37484  Biso   1.000  Hf
  Hf13     1.0000 0.63537  0.23351  0.87607  Biso   1.000  Hf
  Hf14     1.0000 0.63113  0.73117  0.38025  Biso   1.000  Hf
  Hf15     1.0000 0.63454  0.73168  0.87332  Biso   1.000  Hf
  Hf16     1.0000 0.36309  0.26407  0.12799  Biso   1.000  Hf
  Hf17     1.0000 0.36621  0.26588  0.62585  Biso   1.000  Hf
  Hf18     1.0000 0.37181  0.76119  0.12638  Biso   1.000  Hf
  Hf19     1.0000 0.36538  0.76775  0.62694  Biso   1.000  Hf
  Hf20     1.0000 0.86217  0.26958  0.12718  Biso   1.000  Hf
  Hf21     1.0000 0.86739  0.26909  0.62393  Biso   1.000  Hf
  Hf22     1.0000 0.86120  0.75556  0.12190  Biso   1.000  Hf
  Hf23     1.0000 0.86748  0.76426  0.62289  Biso   1.000  Hf
  Hf24     1.0000 0.36434  0.48225  0.37603  Biso   1.000  Hf
  Hf25     1.0000 0.36673  0.48178  0.87696  Biso   1.000  Hf
  Hf26     1.0000 0.36578  0.98440  0.37593  Biso   1.000  Hf
  Hf27     1.0000 0.36979  0.98655  0.87486  Biso   1.000  Hf
  Hf28     1.0000 0.86624  0.48389  0.37675  Biso   1.000  Hf
  Hf29     1.0000 0.86708  0.48155  0.87549  Biso   1.000  Hf
  Hf30     1.0000 0.86032  0.98751  0.38841  Biso   1.000  Hf
  Hf31     1.0000 0.86286  0.98148  0.86814  Biso   1.000  Hf
  O1       1.0000 0.02802  0.20101  0.20546  Biso   1.000  O
  O2       1.0000 0.04336  0.19335  0.67672  Biso   1.000  O
  O3       1.0000 0.03950  0.69455  0.19248  Biso   1.000  O
  O4       1.0000 0.03718  0.68532  0.69491  Biso   1.000  O
  O5       1.0000 0.53957  0.18593  0.18974  Biso   1.000  O
  O6       1.0000 0.53602  0.18423  0.69583  Biso   1.000  O
  O7       1.0000 0.53955  0.68167  0.19877  Biso   1.000  O
  O8       1.0000 0.53532  0.68268  0.69457  Biso   1.000  O
  O9       1.0000 0.03685  0.06322  0.43874  Biso   1.000  O
  O10      1.0000 0.03492  0.06945  0.89593  Biso   1.000  O
  O11      1.0000 0.03605  0.56649  0.44590  Biso   1.000  O
  O12      1.0000 0.03420  0.56897  0.94558  Biso   1.000  O
  O13      1.0000 0.53661  0.06664  0.44612  Biso   1.000  O
  O14      1.0000 0.54109  0.06561  0.94325  Biso   1.000  O
  O15      1.0000 0.53530  0.56506  0.44553  Biso   1.000  O
  O16      1.0000 0.53422  0.56661  0.94780  Biso   1.000  O
  O17      1.0000 0.46358  0.43284  0.19624  Biso   1.000  O
  O18      1.0000 0.46524  0.43326  0.69583  Biso   1.000  O
  O19      1.0000 0.47164  0.93281  0.19632  Biso   1.000  O
  O20      1.0000 0.46455  0.93377  0.69623  Biso   1.000  O
  O21      1.0000 0.95992  0.44179  0.19243  Biso   1.000  O
  O22      1.0000 0.96514  0.43588  0.69630  Biso   1.000  O
  O23      1.0000 0.91234  0.93562  0.19647  Biso   1.000  O
  O24      1.0000 0.95733  0.93493  0.68213  Biso   1.000  O
  O25      1.0000 0.46261  0.31571  0.44495  Biso   1.000  O
  O26      1.0000 0.46542  0.31587  0.94393  Biso   1.000  O
  O27      1.0000 0.46693  0.81701  0.45126  Biso   1.000  O
  O28      1.0000 0.47114  0.81763  0.94514  Biso   1.000  O
  O29      1.0000 0.96321  0.31905  0.44413  Biso   1.000  O
  O30      1.0000 0.96535  0.31719  0.94645  Biso   1.000  O
  O31      1.0000 0.96260  0.81571  0.44052  Biso   1.000  O
  O32      1.0000 0.97149  0.82215  0.95107  Biso   1.000  O
  O33      1.0000 0.28393  0.12855  0.25935  Biso   1.000  O
  O34      1.0000 0.27415  0.11950  0.74858  Biso   1.000  O
  O35      1.0000 0.26910  0.61218  0.24969  Biso   1.000  O
  O36      1.0000 0.27093  0.61773  0.75082  Biso   1.000  O
  O37      1.0000 0.76622  0.12023  0.25523  Biso   1.000  O
  O38      1.0000 0.76997  0.11853  0.74846  Biso   1.000  O
  O39      1.0000 0.77024  0.61668  0.24917  Biso   1.000  O
  O40      1.0000 0.77125  0.61607  0.74844  Biso   1.000  O
  O41      1.0000 0.26969  0.12995  0.50385  Biso   1.000  O
  O42      1.0000 0.27409  0.13641  0.99271  Biso   1.000  O
  O43      1.0000 0.27178  0.63215  0.50101  Biso   1.000  O
  O44      1.0000 0.27147  0.62917  0.00068  Biso   1.000  O
  O45      1.0000 0.76833  0.13456  0.50240  Biso   1.000  O
  O46      1.0000 0.77640  0.13095  0.99993  Biso   1.000  O
  O47      1.0000 0.76961  0.63145  0.49897  Biso   1.000  O
  O48      1.0000 0.76891  0.62825  0.99663  Biso   1.000  O
  O49      1.0000 0.22981  0.38281  0.50071  Biso   1.000  O
  O50      1.0000 0.22994  0.38325  0.00067  Biso   1.000  O
  O51      1.0000 0.22807  0.88314  0.50266  Biso   1.000  O
  O52      1.0000 0.24822  0.87045  0.99241  Biso   1.000  O
  O53      1.0000 0.72890  0.38289  0.49985  Biso   1.000  O
  O54      1.0000 0.72833  0.38197  0.99928  Biso   1.000  O
  O55      1.0000 0.72697  0.88110  0.50170  Biso   1.000  O
  O56      1.0000 0.72963  0.87714  0.99837  Biso   1.000  O
  O57      1.0000 0.22676  0.36951  0.25055  Biso   1.000  O
  O58      1.0000 0.23121  0.36960  0.74881  Biso   1.000  O
  O59      1.0000 0.25239  0.85117  0.26154  Biso   1.000  O
  O60      1.0000 0.22842  0.86944  0.74990  Biso   1.000  O
  O61      1.0000 0.72822  0.36971  0.25092  Biso   1.000  O
  O62      1.0000 0.73077  0.36750  0.75000  Biso   1.000  O
  O63      1.0000 0.72409  0.86657  0.24917  Biso   1.000  O
  O64      1.0000 0.72996  0.86529  0.74794  Biso   1.000  O
