data_image0
_cell_length_a       10.2019
_cell_length_b       5.19328
_cell_length_c       10.7126
_cell_angle_alpha    89.9531
_cell_angle_beta     78.8634
_cell_angle_gamma    90.222

_symmetry_space_group_name_H-M    "P 1"
_symmetry_int_tables_number       1

loop_
  _symmetry_equiv_pos_as_xyz
  'x, y, z'

loop_
  _atom_site_label
  _atom_site_occupancy
  _atom_site_fract_x
  _atom_site_fract_y
  _atom_site_fract_z
  _atom_site_thermal_displace_type
  _atom_site_B_iso_or_equiv
  _atom_site_type_symbol
  Hf1      1.0000 0.13045  0.04103  0.14819  Biso   1.000  Hf
  Hf2      1.0000 0.13206  0.45473  0.39353  Biso   1.000  Hf
  Hf3      1.0000 0.34248  0.54771  0.07493  Biso   1.000  Hf
  Hf4      1.0000 0.35948  0.95130  0.36210  Biso   1.000  Hf
  O1       1.0000 0.03041  0.32802  0.07398  Biso   1.000  O
  O2       1.0000 0.02450  0.16706  0.32878  Biso   1.000  O
  O3       1.0000 0.46203  0.87772  0.17154  Biso   1.000  O
  O4       1.0000 0.47672  0.71304  0.45470  Biso   1.000  O
  O5       1.0000 0.25965  0.24746  0.23647  Biso   1.000  O
  O6       1.0000 0.27940  0.25570  0.48593  Biso   1.000  O
  O7       1.0000 0.20996  0.77615  0.00058  Biso   1.000  O
  O8       1.0000 0.22457  0.73219  0.25330  Biso   1.000  O
  Hf5      1.0000 0.13759  0.04714  0.64402  Biso   1.000  Hf
  Hf6      1.0000 0.12878  0.45753  0.89135  Biso   1.000  Hf
  Hf7      1.0000 0.36059  0.55349  0.60999  Biso   1.000  Hf
  Hf8      1.0000 0.35627  0.96724  0.85008  Biso   1.000  Hf
  O9       1.0000 0.03438  0.33005  0.57648  Biso   1.000  O
  O10      1.0000 0.02825  0.17344  0.82376  Biso   1.000  O
  O11      1.0000 0.46791  0.82534  0.68456  Biso   1.000  O
  O12      1.0000 0.46501  0.69181  0.92087  Biso   1.000  O
  O13      1.0000 0.27147  0.25600  0.73752  Biso   1.000  O
  O14      1.0000 0.26745  0.25201  0.98269  Biso   1.000  O
  O15      1.0000 0.22015  0.75936  0.51088  Biso   1.000  O
  O16      1.0000 0.22138  0.74468  0.75789  Biso   1.000  O
  Hf9      1.0000 0.64408  0.03391  0.15054  Biso   1.000  Hf
  Hf10     1.0000 0.65353  0.45014  0.42009  Biso   1.000  Hf
  Hf11     1.0000 0.85762  0.53673  0.10746  Biso   1.000  Hf
  Hf12     1.0000 0.85528  0.95127  0.35671  Biso   1.000  Hf
  O17      1.0000 0.52240  0.32515  0.05868  Biso   1.000  O
  O18      1.0000 0.56302  0.11183  0.34783  Biso   1.000  O
  O19      1.0000 0.96144  0.82121  0.17860  Biso   1.000  O
  O20      1.0000 0.96348  0.66821  0.42650  Biso   1.000  O
  O21      1.0000 0.78319  0.25234  0.24394  Biso   1.000  O
  O22      1.0000 0.78310  0.23094  0.50203  Biso   1.000  O
  O23      1.0000 0.72133  0.75242  0.01452  Biso   1.000  O
  O24      1.0000 0.71945  0.72408  0.26296  Biso   1.000  O
  Hf13     1.0000 0.63789  0.04348  0.65314  Biso   1.000  Hf
  Hf14     1.0000 0.63554  0.45631  0.89727  Biso   1.000  Hf
  Hf15     1.0000 0.86451  0.54650  0.61122  Biso   1.000  Hf
  Hf16     1.0000 0.85709  0.95699  0.85820  Biso   1.000  Hf
  O25      1.0000 0.53271  0.32924  0.58523  Biso   1.000  O
  O26      1.0000 0.52717  0.18552  0.82293  Biso   1.000  O
  O27      1.0000 0.96726  0.82937  0.67809  Biso   1.000  O
  O28      1.0000 0.96124  0.67229  0.92522  Biso   1.000  O
  O29      1.0000 0.77424  0.26112  0.74602  Biso   1.000  O
  O30      1.0000 0.77312  0.24356  0.99396  Biso   1.000  O
  O31      1.0000 0.72803  0.75217  0.52030  Biso   1.000  O
  O32      1.0000 0.72380  0.75029  0.76526  Biso   1.000  O
  Ba1      1.0000 0.45985  0.46466  0.27417  Biso   1.000  Ba
