data_image0
_cell_length_a       10.1871
_cell_length_b       10.4204
_cell_length_c       5.35947
_cell_angle_alpha    89.8421
_cell_angle_beta     91.3602
_cell_angle_gamma    90.4882

_symmetry_space_group_name_H-M    "P 1"
_symmetry_int_tables_number       1

loop_
  _symmetry_equiv_pos_as_xyz
  'x, y, z'

loop_
  _atom_site_label
  _atom_site_occupancy
  _atom_site_fract_x
  _atom_site_fract_y
  _atom_site_fract_z
  _atom_site_thermal_displace_type
  _atom_site_B_iso_or_equiv
  _atom_site_type_symbol
  Zr1      1.0000 0.14175  0.02062  0.35007  Biso   1.000  Zr
  Zr2      1.0000 0.14243  0.22705  0.85526  Biso   1.000  Zr
  Zr3      1.0000 0.34427  0.27698  0.38295  Biso   1.000  Zr
  Zr4      1.0000 0.35709  0.48881  0.85668  Biso   1.000  Zr
  Zr5      1.0000 0.64327  0.00099  0.15627  Biso   1.000  Zr
  Zr6      1.0000 0.64662  0.21682  0.60287  Biso   1.000  Zr
  Zr7      1.0000 0.87434  0.27300  0.14470  Biso   1.000  Zr
  Zr8      1.0000 0.86387  0.47894  0.65466  Biso   1.000  Zr
  O1       1.0000 0.03601  0.15906  0.16018  Biso   1.000  O
  O2       1.0000 0.03340  0.08925  0.66048  Biso   1.000  O
  O3       1.0000 0.44428  0.44652  0.20472  Biso   1.000  O
  O4       1.0000 0.46816  0.33589  0.66896  Biso   1.000  O
  O5       1.0000 0.27228  0.12559  0.60742  Biso   1.000  O
  O6       1.0000 0.28192  0.12757  0.10201  Biso   1.000  O
  O7       1.0000 0.21961  0.37862  0.61510  Biso   1.000  O
  O8       1.0000 0.21848  0.37678  0.10746  Biso   1.000  O
  O9       1.0000 0.52262  0.11213  0.38763  Biso   1.000  O
  O10      1.0000 0.53437  0.06936  0.84212  Biso   1.000  O
  O11      1.0000 0.97123  0.41124  0.34729  Biso   1.000  O
  O12      1.0000 0.97646  0.33729  0.84078  Biso   1.000  O
  O13      1.0000 0.77488  0.12607  0.89219  Biso   1.000  O
  O14      1.0000 0.78573  0.12004  0.38476  Biso   1.000  O
  O15      1.0000 0.74247  0.38620  0.90557  Biso   1.000  O
  O16      1.0000 0.72393  0.37608  0.39549  Biso   1.000  O
  Zr9      1.0000 0.13900  0.52349  0.34743  Biso   1.000  Zr
  Zr10     1.0000 0.13718  0.73129  0.84408  Biso   1.000  Zr
  Zr11     1.0000 0.36138  0.77113  0.35005  Biso   1.000  Zr
  Zr12     1.0000 0.36366  0.97325  0.85062  Biso   1.000  Zr
  Zr13     1.0000 0.64265  0.53836  0.15869  Biso   1.000  Zr
  Zr14     1.0000 0.64145  0.73073  0.65808  Biso   1.000  Zr
  Zr15     1.0000 0.86857  0.77144  0.16029  Biso   1.000  Zr
  Zr16     1.0000 0.86629  0.98155  0.65869  Biso   1.000  Zr
  O17      1.0000 0.03222  0.66089  0.16032  Biso   1.000  O
  O18      1.0000 0.03205  0.59012  0.66174  Biso   1.000  O
  O19      1.0000 0.47269  0.89412  0.14664  Biso   1.000  O
  O20      1.0000 0.47012  0.83522  0.65919  Biso   1.000  O
  O21      1.0000 0.27298  0.62771  0.59240  Biso   1.000  O
  O22      1.0000 0.27086  0.63070  0.08868  Biso   1.000  O
  O23      1.0000 0.22715  0.87493  0.59695  Biso   1.000  O
  O24      1.0000 0.22509  0.87790  0.10039  Biso   1.000  O
  O25      1.0000 0.53575  0.66881  0.34393  Biso   1.000  O
  O26      1.0000 0.53242  0.58870  0.84139  Biso   1.000  O
  O27      1.0000 0.97412  0.91131  0.34650  Biso   1.000  O
  O28      1.0000 0.97246  0.84141  0.84734  Biso   1.000  O
  O29      1.0000 0.77730  0.63070  0.90783  Biso   1.000  O
  O30      1.0000 0.78018  0.62696  0.41236  Biso   1.000  O
  O31      1.0000 0.73156  0.87249  0.91060  Biso   1.000  O
  O32      1.0000 0.73331  0.87002  0.41580  Biso   1.000  O
  Ba1      1.0000 0.55879  0.26603  0.06490  Biso   1.000  Ba
