data_image0
_cell_length_a       10.0398
_cell_length_b       10.2445
_cell_length_c       5.25534
_cell_angle_alpha    89.9418
_cell_angle_beta     91.0695
_cell_angle_gamma    90.0498

_symmetry_space_group_name_H-M    "P 1"
_symmetry_int_tables_number       1

loop_
  _symmetry_equiv_pos_as_xyz
  'x, y, z'

loop_
  _atom_site_label
  _atom_site_occupancy
  _atom_site_fract_x
  _atom_site_fract_y
  _atom_site_fract_z
  _atom_site_thermal_displace_type
  _atom_site_B_iso_or_equiv
  _atom_site_type_symbol
  Hf1      1.0000 0.13912  0.02020  0.34598  Biso   1.000  Hf
  Hf2      1.0000 0.13468  0.22576  0.85162  Biso   1.000  Hf
  Hf3      1.0000 0.35045  0.26907  0.36439  Biso   1.000  Hf
  Hf4      1.0000 0.36063  0.47810  0.84639  Biso   1.000  Hf
  Hf5      1.0000 0.64360  0.03106  0.15049  Biso   1.000  Hf
  Hf6      1.0000 0.64176  0.22753  0.69604  Biso   1.000  Hf
  Hf7      1.0000 0.85369  0.26616  0.14789  Biso   1.000  Hf
  Hf8      1.0000 0.86625  0.47968  0.64720  Biso   1.000  Hf
  O1       1.0000 0.03432  0.16606  0.17327  Biso   1.000  O
  O2       1.0000 0.03796  0.08005  0.66945  Biso   1.000  O
  O3       1.0000 0.48338  0.39331  0.15161  Biso   1.000  O
  O4       1.0000 0.46683  0.33812  0.66874  Biso   1.000  O
  O5       1.0000 0.27657  0.12384  0.59902  Biso   1.000  O
  O6       1.0000 0.27706  0.12462  0.09781  Biso   1.000  O
  O7       1.0000 0.21996  0.37345  0.60092  Biso   1.000  O
  O8       1.0000 0.22792  0.37757  0.10149  Biso   1.000  O
  O9       1.0000 0.52734  0.16756  0.35557  Biso   1.000  O
  O10      1.0000 0.53340  0.07706  0.82764  Biso   1.000  O
  O11      1.0000 0.96120  0.41554  0.32953  Biso   1.000  O
  O12      1.0000 0.96814  0.33361  0.83094  Biso   1.000  O
  O13      1.0000 0.79608  0.11312  0.90257  Biso   1.000  O
  O14      1.0000 0.77828  0.12761  0.42261  Biso   1.000  O
  O15      1.0000 0.73221  0.38786  0.88798  Biso   1.000  O
  O16      1.0000 0.70593  0.36913  0.38341  Biso   1.000  O
  Hf9      1.0000 0.13640  0.52084  0.34275  Biso   1.000  Hf
  Hf10     1.0000 0.14093  0.72854  0.84528  Biso   1.000  Hf
  Hf11     1.0000 0.36254  0.77236  0.34670  Biso   1.000  Hf
  Hf12     1.0000 0.36254  0.97618  0.85226  Biso   1.000  Hf
  Hf13     1.0000 0.64421  0.53232  0.14440  Biso   1.000  Hf
  Hf14     1.0000 0.64038  0.73198  0.65233  Biso   1.000  Hf
  Hf15     1.0000 0.86303  0.77419  0.15221  Biso   1.000  Hf
  Hf16     1.0000 0.86271  0.97588  0.65182  Biso   1.000  Hf
  O17      1.0000 0.03427  0.66482  0.16675  Biso   1.000  O
  O18      1.0000 0.03480  0.58323  0.66930  Biso   1.000  O
  O19      1.0000 0.46889  0.91621  0.17378  Biso   1.000  O
  O20      1.0000 0.46787  0.83313  0.66947  Biso   1.000  O
  O21      1.0000 0.27627  0.62154  0.59124  Biso   1.000  O
  O22      1.0000 0.27788  0.62364  0.09414  Biso   1.000  O
  O23      1.0000 0.22526  0.87203  0.59422  Biso   1.000  O
  O24      1.0000 0.22403  0.87399  0.09472  Biso   1.000  O
  O25      1.0000 0.53094  0.66030  0.33687  Biso   1.000  O
  O26      1.0000 0.52961  0.58951  0.83955  Biso   1.000  O
  O27      1.0000 0.96956  0.91532  0.32777  Biso   1.000  O
  O28      1.0000 0.96938  0.83185  0.83118  Biso   1.000  O
  O29      1.0000 0.77765  0.62902  0.90112  Biso   1.000  O
  O30      1.0000 0.77805  0.62611  0.40224  Biso   1.000  O
  O31      1.0000 0.72429  0.87479  0.90842  Biso   1.000  O
  O32      1.0000 0.72601  0.87447  0.40587  Biso   1.000  O
  Be1      1.0000 0.59460  0.28198  0.20360  Biso   1.000  Be
