data_image0
_cell_length_a       9.97879
_cell_length_b       10.3878
_cell_length_c       10.0166
_cell_angle_alpha    89.7263
_cell_angle_beta     90.4968
_cell_angle_gamma    90.2683

_symmetry_space_group_name_H-M    "P 1"
_symmetry_int_tables_number       1

loop_
  _symmetry_equiv_pos_as_xyz
  'x, y, z'

loop_
  _atom_site_label
  _atom_site_occupancy
  _atom_site_fract_x
  _atom_site_fract_y
  _atom_site_fract_z
  _atom_site_thermal_displace_type
  _atom_site_B_iso_or_equiv
  _atom_site_type_symbol
  Hf1      1.0000 0.13731  0.02677  0.11596  Biso   1.000  Hf
  Hf2      1.0000 0.13176  0.23201  0.38492  Biso   1.000  Hf
  Hf3      1.0000 0.35738  0.26265  0.11761  Biso   1.000  Hf
  Hf4      1.0000 0.37082  0.48669  0.37417  Biso   1.000  Hf
  O1       1.0000 0.01728  0.18357  0.20958  Biso   1.000  O
  O2       1.0000 0.03425  0.06747  0.45000  Biso   1.000  O
  O3       1.0000 0.45418  0.43259  0.19395  Biso   1.000  O
  O4       1.0000 0.46085  0.31573  0.44151  Biso   1.000  O
  O5       1.0000 0.26756  0.11978  0.25217  Biso   1.000  O
  O6       1.0000 0.27098  0.13156  0.50050  Biso   1.000  O
  O7       1.0000 0.23054  0.38396  0.49177  Biso   1.000  O
  O8       1.0000 0.19651  0.35733  0.22788  Biso   1.000  O
  Hf5      1.0000 0.13551  0.01625  0.62823  Biso   1.000  Hf
  Hf6      1.0000 0.15004  0.22689  0.87919  Biso   1.000  Hf
  Hf7      1.0000 0.36853  0.26567  0.62462  Biso   1.000  Hf
  Hf8      1.0000 0.37031  0.48563  0.87131  Biso   1.000  Hf
  O9       1.0000 0.03753  0.18238  0.69690  Biso   1.000  O
  O10      1.0000 0.04147  0.06464  0.93746  Biso   1.000  O
  O11      1.0000 0.46795  0.43288  0.69212  Biso   1.000  O
  O12      1.0000 0.46733  0.31496  0.93994  Biso   1.000  O
  O13      1.0000 0.27597  0.11513  0.74620  Biso   1.000  O
  O14      1.0000 0.30000  0.11717  0.98745  Biso   1.000  O
  O15      1.0000 0.23836  0.39086  0.99291  Biso   1.000  O
  O16      1.0000 0.23413  0.36611  0.74483  Biso   1.000  O
  Hf9      1.0000 0.12734  0.52461  0.12124  Biso   1.000  Hf
  Hf10     1.0000 0.13362  0.73503  0.37624  Biso   1.000  Hf
  Hf11     1.0000 0.36240  0.76659  0.12652  Biso   1.000  Hf
  Hf12     1.0000 0.36328  0.98277  0.37424  Biso   1.000  Hf
  O17      1.0000 0.03423  0.68587  0.19571  Biso   1.000  O
  O18      1.0000 0.03284  0.56841  0.44804  Biso   1.000  O
  O19      1.0000 0.46334  0.93325  0.19415  Biso   1.000  O
  O20      1.0000 0.46328  0.81448  0.44257  Biso   1.000  O
  O21      1.0000 0.26578  0.61454  0.24893  Biso   1.000  O
  O22      1.0000 0.27048  0.63232  0.49794  Biso   1.000  O
  O23      1.0000 0.22917  0.88281  0.49955  Biso   1.000  O
  O24      1.0000 0.23091  0.86644  0.24991  Biso   1.000  O
  Hf13     1.0000 0.13419  0.51448  0.62525  Biso   1.000  Hf
  Hf14     1.0000 0.13434  0.73667  0.87357  Biso   1.000  Hf
  Hf15     1.0000 0.36869  0.76420  0.62315  Biso   1.000  Hf
  Hf16     1.0000 0.37309  0.97522  0.87160  Biso   1.000  Hf
  O25      1.0000 0.03770  0.68238  0.69196  Biso   1.000  O
  O26      1.0000 0.03450  0.57074  0.94279  Biso   1.000  O
  O27      1.0000 0.46866  0.93031  0.69000  Biso   1.000  O
  O28      1.0000 0.46875  0.81274  0.94842  Biso   1.000  O
  O29      1.0000 0.27071  0.61659  0.74750  Biso   1.000  O
  O30      1.0000 0.26937  0.63525  0.99773  Biso   1.000  O
  O31      1.0000 0.23035  0.88036  0.99815  Biso   1.000  O
  O32      1.0000 0.23395  0.86519  0.74712  Biso   1.000  O
  Hf17     1.0000 0.63005  0.01610  0.12324  Biso   1.000  Hf
  Hf18     1.0000 0.62810  0.23047  0.37697  Biso   1.000  Hf
  Hf19     1.0000 0.84645  0.26966  0.13433  Biso   1.000  Hf
  Hf20     1.0000 0.86373  0.48613  0.37839  Biso   1.000  Hf
  O33      1.0000 0.53253  0.18200  0.19168  Biso   1.000  O
  O34      1.0000 0.53400  0.06437  0.44524  Biso   1.000  O
  O35      1.0000 0.95271  0.44065  0.19902  Biso   1.000  O
  O36      1.0000 0.96539  0.32033  0.45132  Biso   1.000  O
  O37      1.0000 0.76239  0.11734  0.25126  Biso   1.000  O
  O38      1.0000 0.77090  0.13321  0.49864  Biso   1.000  O
  O39      1.0000 0.72908  0.38218  0.50254  Biso   1.000  O
  O40      1.0000 0.71768  0.37170  0.25465  Biso   1.000  O
  Hf21     1.0000 0.63734  0.01559  0.62452  Biso   1.000  Hf
  Hf22     1.0000 0.63348  0.23139  0.87355  Biso   1.000  Hf
  Hf23     1.0000 0.86848  0.26491  0.62755  Biso   1.000  Hf
  Hf24     1.0000 0.86699  0.48327  0.88031  Biso   1.000  Hf
  O41      1.0000 0.53991  0.18406  0.69014  Biso   1.000  O
  O42      1.0000 0.54798  0.05933  0.93512  Biso   1.000  O
  O43      1.0000 0.96929  0.42993  0.70740  Biso   1.000  O
  O44      1.0000 0.99143  0.31878  0.98689  Biso   1.000  O
  O45      1.0000 0.77362  0.11620  0.74868  Biso   1.000  O
  O46      1.0000 0.77539  0.13500  0.99951  Biso   1.000  O
  O47      1.0000 0.73087  0.38224  0.00094  Biso   1.000  O
  O48      1.0000 0.73499  0.36603  0.75294  Biso   1.000  O
  Hf25     1.0000 0.62848  0.51804  0.12820  Biso   1.000  Hf
  Hf26     1.0000 0.63442  0.73575  0.37607  Biso   1.000  Hf
  Hf27     1.0000 0.86572  0.77025  0.12685  Biso   1.000  Hf
  Hf28     1.0000 0.86754  0.98497  0.37261  Biso   1.000  Hf
  O49      1.0000 0.53133  0.68088  0.19824  Biso   1.000  O
  O50      1.0000 0.53520  0.56619  0.44739  Biso   1.000  O
  O51      1.0000 0.96539  0.93750  0.19296  Biso   1.000  O
  O52      1.0000 0.96375  0.81717  0.44372  Biso   1.000  O
  O53      1.0000 0.76662  0.62042  0.25234  Biso   1.000  O
  O54      1.0000 0.76835  0.63390  0.50248  Biso   1.000  O
  O55      1.0000 0.73144  0.88375  0.49828  Biso   1.000  O
  O56      1.0000 0.72851  0.86855  0.24873  Biso   1.000  O
  Hf29     1.0000 0.63791  0.51535  0.62818  Biso   1.000  Hf
  Hf30     1.0000 0.63746  0.73351  0.87672  Biso   1.000  Hf
  Hf31     1.0000 0.86883  0.76698  0.62568  Biso   1.000  Hf
  Hf32     1.0000 0.86771  0.98347  0.87606  Biso   1.000  Hf
  O57      1.0000 0.53797  0.68179  0.69661  Biso   1.000  O
  O58      1.0000 0.53820  0.56581  0.94594  Biso   1.000  O
  O59      1.0000 0.96722  0.93139  0.69694  Biso   1.000  O
  O60      1.0000 0.96449  0.81562  0.94492  Biso   1.000  O
  O61      1.0000 0.77465  0.61559  0.75389  Biso   1.000  O
  O62      1.0000 0.77065  0.63164  0.00317  Biso   1.000  O
  O63      1.0000 0.73203  0.88245  0.99974  Biso   1.000  O
  O64      1.0000 0.73274  0.86610  0.74919  Biso   1.000  O
  Be1      1.0000 0.09772  0.27507  0.11435  Biso   1.000  Be
