data_image0
_cell_length_a       10.0302
_cell_length_b       5.12522
_cell_length_c       10.508
_cell_angle_alpha    90.1276
_cell_angle_beta     91.0527
_cell_angle_gamma    90.043

_symmetry_space_group_name_H-M    "P 1"
_symmetry_int_tables_number       1

loop_
  _symmetry_equiv_pos_as_xyz
  'x, y, z'

loop_
  _atom_site_label
  _atom_site_occupancy
  _atom_site_fract_x
  _atom_site_fract_y
  _atom_site_fract_z
  _atom_site_thermal_displace_type
  _atom_site_B_iso_or_equiv
  _atom_site_type_symbol
  Hf1      1.0000 0.13116  0.04085  0.17206  Biso   1.000  Hf
  Hf2      1.0000 0.13500  0.45276  0.42489  Biso   1.000  Hf
  Hf3      1.0000 0.34811  0.54089  0.17994  Biso   1.000  Hf
  Hf4      1.0000 0.35906  0.95277  0.42600  Biso   1.000  Hf
  Hf5      1.0000 0.64982  0.08659  0.06443  Biso   1.000  Hf
  Hf6      1.0000 0.63729  0.45077  0.33902  Biso   1.000  Hf
  Hf7      1.0000 0.85444  0.54029  0.07193  Biso   1.000  Hf
  Hf8      1.0000 0.85827  0.95181  0.32719  Biso   1.000  Hf
  O1       1.0000 0.03469  0.33537  0.08585  Biso   1.000  O
  O2       1.0000 0.03034  0.15685  0.33771  Biso   1.000  O
  O3       1.0000 0.48162  0.79829  0.07841  Biso   1.000  O
  O4       1.0000 0.46348  0.66778  0.33633  Biso   1.000  O
  O5       1.0000 0.27097  0.24571  0.29710  Biso   1.000  O
  O6       1.0000 0.27834  0.24747  0.04851  Biso   1.000  O
  O7       1.0000 0.21755  0.74581  0.29909  Biso   1.000  O
  O8       1.0000 0.22646  0.75547  0.05027  Biso   1.000  O
  O9       1.0000 0.52711  0.34086  0.17176  Biso   1.000  O
  O10      1.0000 0.52997  0.16808  0.41993  Biso   1.000  O
  O11      1.0000 0.95746  0.83519  0.16603  Biso   1.000  O
  O12      1.0000 0.96325  0.65812  0.41476  Biso   1.000  O
  O13      1.0000 0.77550  0.23984  0.45802  Biso   1.000  O
  O14      1.0000 0.77677  0.25390  0.21112  Biso   1.000  O
  O15      1.0000 0.72209  0.74454  0.45360  Biso   1.000  O
  O16      1.0000 0.70634  0.73867  0.19544  Biso   1.000  O
  Hf9      1.0000 0.14348  0.03870  0.67223  Biso   1.000  Hf
  Hf10     1.0000 0.14018  0.45540  0.92333  Biso   1.000  Hf
  Hf11     1.0000 0.36544  0.53682  0.67483  Biso   1.000  Hf
  Hf12     1.0000 0.36310  0.95405  0.92258  Biso   1.000  Hf
  Hf13     1.0000 0.63954  0.04116  0.58300  Biso   1.000  Hf
  Hf14     1.0000 0.64462  0.46509  0.83558  Biso   1.000  Hf
  Hf15     1.0000 0.86217  0.53816  0.57975  Biso   1.000  Hf
  Hf16     1.0000 0.86932  0.95704  0.82304  Biso   1.000  Hf
  O17      1.0000 0.03481  0.32857  0.58590  Biso   1.000  O
  O18      1.0000 0.04274  0.16392  0.83329  Biso   1.000  O
  O19      1.0000 0.46815  0.82668  0.58509  Biso   1.000  O
  O20      1.0000 0.47068  0.67050  0.83453  Biso   1.000  O
  O21      1.0000 0.28236  0.24406  0.79677  Biso   1.000  O
  O22      1.0000 0.27681  0.24682  0.54685  Biso   1.000  O
  O23      1.0000 0.22710  0.74358  0.79807  Biso   1.000  O
  O24      1.0000 0.22489  0.74554  0.54738  Biso   1.000  O
  O25      1.0000 0.53564  0.32793  0.66923  Biso   1.000  O
  O26      1.0000 0.53288  0.16436  0.91125  Biso   1.000  O
  O27      1.0000 0.97223  0.82792  0.66195  Biso   1.000  O
  O28      1.0000 0.97286  0.66820  0.91541  Biso   1.000  O
  O29      1.0000 0.79889  0.24364  0.94412  Biso   1.000  O
  O30      1.0000 0.77978  0.25341  0.70412  Biso   1.000  O
  O31      1.0000 0.73465  0.77876  0.94666  Biso   1.000  O
  O32      1.0000 0.72700  0.74997  0.70245  Biso   1.000  O
  Be1      1.0000 0.59440  0.58162  0.09843  Biso   1.000  Be
