data_image0
_cell_length_a       5.0175
_cell_length_b       10.3642
_cell_length_c       10.1236
_cell_angle_alpha    89.5718
_cell_angle_beta     88.8771
_cell_angle_gamma    90.6327

_symmetry_space_group_name_H-M    "P 1"
_symmetry_int_tables_number       1

loop_
  _symmetry_equiv_pos_as_xyz
  'x, y, z'

loop_
  _atom_site_label
  _atom_site_occupancy
  _atom_site_fract_x
  _atom_site_fract_y
  _atom_site_fract_z
  _atom_site_thermal_displace_type
  _atom_site_B_iso_or_equiv
  _atom_site_type_symbol
  Be1      1.0000 0.15043  0.94454  0.04081  Biso   1.000  Be
  Zr1      1.0000 0.27457  0.01276  0.62377  Biso   1.000  Zr
  Zr2      1.0000 0.26511  0.51575  0.12753  Biso   1.000  Zr
  Zr3      1.0000 0.27230  0.51660  0.62516  Biso   1.000  Zr
  Zr4      1.0000 0.26885  0.23011  0.37820  Biso   1.000  Zr
  Zr5      1.0000 0.26326  0.23083  0.87816  Biso   1.000  Zr
  Zr6      1.0000 0.28687  0.74225  0.37631  Biso   1.000  Zr
  Zr7      1.0000 0.27389  0.73148  0.87346  Biso   1.000  Zr
  Zr8      1.0000 0.70771  0.26234  0.12569  Biso   1.000  Zr
  Zr9      1.0000 0.73492  0.26454  0.62544  Biso   1.000  Zr
  Zr10     1.0000 0.73299  0.76391  0.12479  Biso   1.000  Zr
  Zr11     1.0000 0.74227  0.77259  0.62042  Biso   1.000  Zr
  Zr12     1.0000 0.73490  0.48720  0.37573  Biso   1.000  Zr
  Zr13     1.0000 0.73252  0.48349  0.87525  Biso   1.000  Zr
  Zr14     1.0000 0.76654  0.00112  0.34394  Biso   1.000  Zr
  Zr15     1.0000 0.71448  0.98912  0.87779  Biso   1.000  Zr
  O1       1.0000 0.98412  0.17020  0.23924  Biso   1.000  O
  O2       1.0000 0.06410  0.18267  0.70300  Biso   1.000  O
  O3       1.0000 0.06831  0.68498  0.20141  Biso   1.000  O
  O4       1.0000 0.06925  0.68307  0.69801  Biso   1.000  O
  O5       1.0000 0.05995  0.07027  0.46371  Biso   1.000  O
  O6       1.0000 0.06855  0.06251  0.94782  Biso   1.000  O
  O7       1.0000 0.06813  0.57176  0.44938  Biso   1.000  O
  O8       1.0000 0.06074  0.57144  0.95133  Biso   1.000  O
  O9       1.0000 0.92878  0.42920  0.19864  Biso   1.000  O
  O10      1.0000 0.93803  0.43199  0.70044  Biso   1.000  O
  O11      1.0000 0.98200  0.93296  0.17837  Biso   1.000  O
  O12      1.0000 0.94065  0.93139  0.70411  Biso   1.000  O
  O13      1.0000 0.94104  0.32592  0.45259  Biso   1.000  O
  O14      1.0000 0.93648  0.31986  0.95352  Biso   1.000  O
  O15      1.0000 0.95367  0.82823  0.44620  Biso   1.000  O
  O16      1.0000 0.94679  0.82882  0.95367  Biso   1.000  O
  O17      1.0000 0.50511  0.12324  0.24545  Biso   1.000  O
  O18      1.0000 0.53540  0.11500  0.74457  Biso   1.000  O
  O19      1.0000 0.53624  0.61274  0.24688  Biso   1.000  O
  O20      1.0000 0.54030  0.61615  0.74781  Biso   1.000  O
  O21      1.0000 0.54464  0.13812  0.49511  Biso   1.000  O
  O22      1.0000 0.55413  0.14103  0.98651  Biso   1.000  O
  O23      1.0000 0.54508  0.63731  0.49749  Biso   1.000  O
  O24      1.0000 0.54038  0.63394  0.99662  Biso   1.000  O
  O25      1.0000 0.46548  0.38616  0.49966  Biso   1.000  O
  O26      1.0000 0.45555  0.38545  0.99953  Biso   1.000  O
  O27      1.0000 0.47749  0.88853  0.49899  Biso   1.000  O
  O28      1.0000 0.43937  0.88178  0.00181  Biso   1.000  O
  O29      1.0000 0.44728  0.36797  0.24924  Biso   1.000  O
  O30      1.0000 0.46541  0.36526  0.74996  Biso   1.000  O
  O31      1.0000 0.52207  0.85831  0.25888  Biso   1.000  O
  O32      1.0000 0.47013  0.86567  0.74962  Biso   1.000  O
