data_image0
_cell_length_a       10.0438
_cell_length_b       10.4067
_cell_length_c       10.0791
_cell_angle_alpha    89.9327
_cell_angle_beta     89.5535
_cell_angle_gamma    90.0753

_symmetry_space_group_name_H-M    "P 1"
_symmetry_int_tables_number       1

loop_
  _symmetry_equiv_pos_as_xyz
  'x, y, z'

loop_
  _atom_site_label
  _atom_site_occupancy
  _atom_site_fract_x
  _atom_site_fract_y
  _atom_site_fract_z
  _atom_site_thermal_displace_type
  _atom_site_B_iso_or_equiv
  _atom_site_type_symbol
  Be1      1.0000 0.07099  0.94405  0.04517  Biso   1.000  Be
  Zr1      1.0000 0.13532  0.01656  0.63095  Biso   1.000  Zr
  Zr2      1.0000 0.13629  0.51550  0.12709  Biso   1.000  Zr
  Zr3      1.0000 0.13438  0.51499  0.62662  Biso   1.000  Zr
  Zr4      1.0000 0.63224  0.01594  0.12107  Biso   1.000  Zr
  Zr5      1.0000 0.63059  0.01379  0.61836  Biso   1.000  Zr
  Zr6      1.0000 0.63302  0.51643  0.12598  Biso   1.000  Zr
  Zr7      1.0000 0.63425  0.51628  0.62489  Biso   1.000  Zr
  Zr8      1.0000 0.13775  0.23158  0.37510  Biso   1.000  Zr
  Zr9      1.0000 0.13486  0.23024  0.88310  Biso   1.000  Zr
  Zr10     1.0000 0.13793  0.73559  0.37811  Biso   1.000  Zr
  Zr11     1.0000 0.13756  0.73090  0.87680  Biso   1.000  Zr
  Zr12     1.0000 0.63290  0.23401  0.37313  Biso   1.000  Zr
  Zr13     1.0000 0.63134  0.23441  0.87183  Biso   1.000  Zr
  Zr14     1.0000 0.63497  0.73809  0.37485  Biso   1.000  Zr
  Zr15     1.0000 0.63146  0.73603  0.87416  Biso   1.000  Zr
  Zr16     1.0000 0.36285  0.26385  0.12800  Biso   1.000  Zr
  Zr17     1.0000 0.36544  0.26638  0.62713  Biso   1.000  Zr
  Zr18     1.0000 0.36374  0.76665  0.12840  Biso   1.000  Zr
  Zr19     1.0000 0.36730  0.76898  0.62793  Biso   1.000  Zr
  Zr20     1.0000 0.86297  0.26412  0.12306  Biso   1.000  Zr
  Zr21     1.0000 0.86739  0.26469  0.62332  Biso   1.000  Zr
  Zr22     1.0000 0.86486  0.76540  0.12473  Biso   1.000  Zr
  Zr23     1.0000 0.86773  0.76686  0.62105  Biso   1.000  Zr
  Zr24     1.0000 0.36715  0.48504  0.37681  Biso   1.000  Zr
  Zr25     1.0000 0.36645  0.48358  0.87627  Biso   1.000  Zr
  Zr26     1.0000 0.36028  0.98515  0.37160  Biso   1.000  Zr
  Zr27     1.0000 0.35930  0.98517  0.88489  Biso   1.000  Zr
  Zr28     1.0000 0.86657  0.48511  0.37665  Biso   1.000  Zr
  Zr29     1.0000 0.86573  0.48487  0.87439  Biso   1.000  Zr
  Zr30     1.0000 0.87710  0.99031  0.36434  Biso   1.000  Zr
  Zr31     1.0000 0.86180  0.98860  0.86849  Biso   1.000  Zr
  O1       1.0000 0.01814  0.18955  0.21667  Biso   1.000  O
  O2       1.0000 0.03165  0.18147  0.70385  Biso   1.000  O
  O3       1.0000 0.03312  0.68301  0.19839  Biso   1.000  O
  O4       1.0000 0.03436  0.68393  0.69736  Biso   1.000  O
  O5       1.0000 0.53876  0.18631  0.18936  Biso   1.000  O
  O6       1.0000 0.53547  0.18468  0.69108  Biso   1.000  O
  O7       1.0000 0.53494  0.68473  0.19744  Biso   1.000  O
  O8       1.0000 0.53433  0.68312  0.69686  Biso   1.000  O
  O9       1.0000 0.03457  0.06898  0.45523  Biso   1.000  O
  O10      1.0000 0.03401  0.06100  0.94656  Biso   1.000  O
  O11      1.0000 0.03412  0.56751  0.44881  Biso   1.000  O
  O12      1.0000 0.03212  0.56959  0.94842  Biso   1.000  O
  O13      1.0000 0.53388  0.06753  0.44167  Biso   1.000  O
  O14      1.0000 0.53558  0.06614  0.94182  Biso   1.000  O
  O15      1.0000 0.53570  0.56913  0.44556  Biso   1.000  O
  O16      1.0000 0.53441  0.56867  0.94642  Biso   1.000  O
  O17      1.0000 0.46541  0.43361  0.19650  Biso   1.000  O
  O18      1.0000 0.46508  0.43426  0.69564  Biso   1.000  O
  O19      1.0000 0.46840  0.93345  0.19566  Biso   1.000  O
  O20      1.0000 0.46527  0.93476  0.70017  Biso   1.000  O
  O21      1.0000 0.96642  0.43296  0.19693  Biso   1.000  O
  O22      1.0000 0.96549  0.43314  0.69693  Biso   1.000  O
  O23      1.0000 0.97998  0.93400  0.18154  Biso   1.000  O
  O24      1.0000 0.96575  0.93122  0.69587  Biso   1.000  O
  O25      1.0000 0.46597  0.31804  0.44616  Biso   1.000  O
  O26      1.0000 0.46579  0.31855  0.94333  Biso   1.000  O
  O27      1.0000 0.47103  0.82136  0.45311  Biso   1.000  O
  O28      1.0000 0.46100  0.81858  0.94719  Biso   1.000  O
  O29      1.0000 0.96928  0.32185  0.45065  Biso   1.000  O
  O30      1.0000 0.96624  0.31809  0.94831  Biso   1.000  O
  O31      1.0000 0.96726  0.81982  0.44063  Biso   1.000  O
  O32      1.0000 0.97485  0.82772  0.95388  Biso   1.000  O
  O33      1.0000 0.28205  0.13014  0.25857  Biso   1.000  O
  O34      1.0000 0.27005  0.11775  0.75198  Biso   1.000  O
  O35      1.0000 0.26875  0.61364  0.24946  Biso   1.000  O
  O36      1.0000 0.26925  0.61691  0.74993  Biso   1.000  O
  O37      1.0000 0.76575  0.11400  0.24322  Biso   1.000  O
  O38      1.0000 0.76581  0.11510  0.74215  Biso   1.000  O
  O39      1.0000 0.76984  0.61605  0.24765  Biso   1.000  O
  O40      1.0000 0.76890  0.61698  0.74769  Biso   1.000  O
  O41      1.0000 0.26955  0.13164  0.50454  Biso   1.000  O
  O42      1.0000 0.27789  0.13770  0.99598  Biso   1.000  O
  O43      1.0000 0.27166  0.63391  0.50066  Biso   1.000  O
  O44      1.0000 0.27055  0.63155  0.99989  Biso   1.000  O
  O45      1.0000 0.77153  0.13622  0.49203  Biso   1.000  O
  O46      1.0000 0.76927  0.13498  0.99256  Biso   1.000  O
  O47      1.0000 0.76880  0.63551  0.49731  Biso   1.000  O
  O48      1.0000 0.76922  0.63639  0.99680  Biso   1.000  O
  O49      1.0000 0.23236  0.38344  0.50088  Biso   1.000  O
  O50      1.0000 0.23032  0.38326  0.00091  Biso   1.000  O
  O51      1.0000 0.22996  0.88351  0.50509  Biso   1.000  O
  O52      1.0000 0.21679  0.88141  0.00768  Biso   1.000  O
  O53      1.0000 0.73080  0.38462  0.49801  Biso   1.000  O
  O54      1.0000 0.72918  0.38559  0.99710  Biso   1.000  O
  O55      1.0000 0.73738  0.88814  0.49276  Biso   1.000  O
  O56      1.0000 0.73185  0.88357  0.99401  Biso   1.000  O
  O57      1.0000 0.22750  0.37028  0.25025  Biso   1.000  O
  O58      1.0000 0.22946  0.36622  0.75201  Biso   1.000  O
  O59      1.0000 0.24598  0.85533  0.26203  Biso   1.000  O
  O60      1.0000 0.23115  0.86824  0.75437  Biso   1.000  O
  O61      1.0000 0.73171  0.36717  0.24827  Biso   1.000  O
  O62      1.0000 0.73175  0.36637  0.74728  Biso   1.000  O
  O63      1.0000 0.73607  0.86720  0.24493  Biso   1.000  O
  O64      1.0000 0.73079  0.86539  0.74428  Biso   1.000  O
