data_image0
_cell_length_a       10.4321
_cell_length_b       5.23993
_cell_length_c       10.7737
_cell_angle_alpha    93.1267
_cell_angle_beta     77.602
_cell_angle_gamma    91.4414

_symmetry_space_group_name_H-M    "P 1"
_symmetry_int_tables_number       1

loop_
  _symmetry_equiv_pos_as_xyz
  'x, y, z'

loop_
  _atom_site_label
  _atom_site_occupancy
  _atom_site_fract_x
  _atom_site_fract_y
  _atom_site_fract_z
  _atom_site_thermal_displace_type
  _atom_site_B_iso_or_equiv
  _atom_site_type_symbol
  Zr1      1.0000 0.12316  0.08314  0.14256  Biso   1.000  Zr
  Zr2      1.0000 0.13529  0.43637  0.40458  Biso   1.000  Zr
  Zr3      1.0000 0.33455  0.62377  0.08618  Biso   1.000  Zr
  Zr4      1.0000 0.37661  0.91383  0.36509  Biso   1.000  Zr
  O1       1.0000 0.01408  0.31374  0.05821  Biso   1.000  O
  O2       1.0000 0.03470  0.13699  0.33969  Biso   1.000  O
  O3       1.0000 0.49247  0.83080  0.18120  Biso   1.000  O
  O4       1.0000 0.48157  0.62511  0.43432  Biso   1.000  O
  O5       1.0000 0.19070  0.42514  0.21109  Biso   1.000  O
  O6       1.0000 0.27312  0.21864  0.48620  Biso   1.000  O
  O7       1.0000 0.20704  0.80107  0.99674  Biso   1.000  O
  O8       1.0000 0.25870  0.90941  0.23086  Biso   1.000  O
  Zr5      1.0000 0.13521  0.03191  0.64183  Biso   1.000  Zr
  Zr6      1.0000 0.12876  0.46688  0.88713  Biso   1.000  Zr
  Zr7      1.0000 0.36617  0.52835  0.60807  Biso   1.000  Zr
  Zr8      1.0000 0.35150  0.98426  0.84711  Biso   1.000  Zr
  O9       1.0000 0.02865  0.30597  0.58079  Biso   1.000  O
  O10      1.0000 0.02503  0.17614  0.81946  Biso   1.000  O
  O11      1.0000 0.46342  0.83907  0.66865  Biso   1.000  O
  O12      1.0000 0.46009  0.72562  0.91558  Biso   1.000  O
  O13      1.0000 0.26787  0.25212  0.73168  Biso   1.000  O
  O14      1.0000 0.26022  0.28671  0.97466  Biso   1.000  O
  O15      1.0000 0.23155  0.72984  0.50698  Biso   1.000  O
  O16      1.0000 0.22297  0.74082  0.75306  Biso   1.000  O
  Zr9      1.0000 0.66897  0.00495  0.17066  Biso   1.000  Zr
  Zr10     1.0000 0.65940  0.42877  0.41431  Biso   1.000  Zr
  Zr11     1.0000 0.85789  0.53024  0.10486  Biso   1.000  Zr
  Zr12     1.0000 0.87118  0.92789  0.36655  Biso   1.000  Zr
  O17      1.0000 0.48339  0.36063  0.04750  Biso   1.000  O
  O18      1.0000 0.56018  0.08371  0.37765  Biso   1.000  O
  O19      1.0000 0.96495  0.82354  0.17653  Biso   1.000  O
  O20      1.0000 0.97409  0.65259  0.43395  Biso   1.000  O
  O21      1.0000 0.79545  0.24057  0.25648  Biso   1.000  O
  O22      1.0000 0.78247  0.21913  0.50496  Biso   1.000  O
  O23      1.0000 0.72578  0.73963  0.01860  Biso   1.000  O
  O24      1.0000 0.73480  0.71946  0.27289  Biso   1.000  O
  Zr13     1.0000 0.63722  0.04009  0.65210  Biso   1.000  Zr
  Zr14     1.0000 0.62372  0.47021  0.90070  Biso   1.000  Zr
  Zr15     1.0000 0.86069  0.52874  0.61760  Biso   1.000  Zr
  Zr16     1.0000 0.85574  0.95651  0.86299  Biso   1.000  Zr
  O25      1.0000 0.54110  0.33928  0.59428  Biso   1.000  O
  O26      1.0000 0.52389  0.19258  0.82016  Biso   1.000  O
  O27      1.0000 0.96659  0.81191  0.68200  Biso   1.000  O
  O28      1.0000 0.96042  0.68167  0.92686  Biso   1.000  O
  O29      1.0000 0.76986  0.26121  0.75362  Biso   1.000  O
  O30      1.0000 0.75246  0.23349  0.00658  Biso   1.000  O
  O31      1.0000 0.73499  0.73294  0.52280  Biso   1.000  O
  O32      1.0000 0.72086  0.75157  0.77029  Biso   1.000  O
  Bi1      1.0000 0.47178  0.38315  0.24833  Biso   1.000  Bi
