data_image0
_cell_length_a       10.1271
_cell_length_b       5.27738
_cell_length_c       10.4325
_cell_angle_alpha    91.2835
_cell_angle_beta     91.1459
_cell_angle_gamma    87.4196

_symmetry_space_group_name_H-M    "P 1"
_symmetry_int_tables_number       1

loop_
  _symmetry_equiv_pos_as_xyz
  'x, y, z'

loop_
  _atom_site_label
  _atom_site_occupancy
  _atom_site_fract_x
  _atom_site_fract_y
  _atom_site_fract_z
  _atom_site_thermal_displace_type
  _atom_site_B_iso_or_equiv
  _atom_site_type_symbol
  Zr1      1.0000 0.10839  0.15952  0.11014  Biso   1.000  Zr
  Zr2      1.0000 0.15052  0.49924  0.41509  Biso   1.000  Zr
  Zr3      1.0000 0.40413  0.43489  0.09970  Biso   1.000  Zr
  Zr4      1.0000 0.36354  0.97129  0.35014  Biso   1.000  Zr
  O1       1.0000 0.99569  0.35829  0.97484  Biso   1.000  O
  O2       1.0000 0.93693  0.13897  0.22054  Biso   1.000  O
  O3       1.0000 0.95454  0.60204  0.31559  Biso   1.000  O
  O4       1.0000 0.04918  0.88446  0.94902  Biso   1.000  O
  O5       1.0000 0.23492  0.29391  0.26451  Biso   1.000  O
  O6       1.0000 0.28180  0.14567  0.01559  Biso   1.000  O
  O7       1.0000 0.28943  0.62462  0.95655  Biso   1.000  O
  O8       1.0000 0.17428  0.83963  0.32247  Biso   1.000  O
  Zr5      1.0000 0.15541  0.00638  0.61483  Biso   1.000  Zr
  Zr6      1.0000 0.10965  0.52661  0.84280  Biso   1.000  Zr
  Zr7      1.0000 0.37757  0.45809  0.65408  Biso   1.000  Zr
  Zr8      1.0000 0.38617  0.93971  0.87944  Biso   1.000  Zr
  O9       1.0000 0.02075  0.23641  0.48664  Biso   1.000  O
  O10      1.0000 0.99830  0.19762  0.72504  Biso   1.000  O
  O11      1.0000 0.95134  0.68874  0.75520  Biso   1.000  O
  O12      1.0000 0.02212  0.74642  0.53206  Biso   1.000  O
  O13      1.0000 0.23777  0.26727  0.75218  Biso   1.000  O
  O14      1.0000 0.27738  0.21048  0.50642  Biso   1.000  O
  O15      1.0000 0.28595  0.70429  0.51747  Biso   1.000  O
  O16      1.0000 0.23946  0.76857  0.74582  Biso   1.000  O
  Zr9      1.0000 0.64449  0.01826  0.10884  Biso   1.000  Zr
  Zr10     1.0000 0.61884  0.56328  0.39044  Biso   1.000  Zr
  Zr11     1.0000 0.84113  0.49384  0.15579  Biso   1.000  Zr
  Zr12     1.0000 0.89635  0.95408  0.38794  Biso   1.000  Zr
  O17      1.0000 0.52363  0.24197  0.96953  Biso   1.000  O
  O18      1.0000 0.46919  0.11118  0.20658  Biso   1.000  O
  O19      1.0000 0.44575  0.62564  0.27629  Biso   1.000  O
  O20      1.0000 0.52405  0.74391  0.01952  Biso   1.000  O
  O21      1.0000 0.68161  0.34370  0.22823  Biso   1.000  O
  O22      1.0000 0.76485  0.24248  0.99823  Biso   1.000  O
  O23      1.0000 0.78137  0.74506  0.01146  Biso   1.000  O
  O24      1.0000 0.73328  0.81087  0.26153  Biso   1.000  O
  Zr13     1.0000 0.63663  0.05105  0.61315  Biso   1.000  Zr
  Zr14     1.0000 0.65768  0.53661  0.88350  Biso   1.000  Zr
  Zr15     1.0000 0.88716  0.46341  0.60180  Biso   1.000  Zr
  Zr16     1.0000 0.88081  0.02325  0.85849  Biso   1.000  Zr
  O25      1.0000 0.53471  0.39216  0.53529  Biso   1.000  O
  O26      1.0000 0.47095  0.10753  0.71802  Biso   1.000  O
  O27      1.0000 0.49134  0.62787  0.78255  Biso   1.000  O
  O28      1.0000 0.52783  0.90009  0.46341  Biso   1.000  O
  O29      1.0000 0.74976  0.32380  0.73575  Biso   1.000  O
  O30      1.0000 0.76689  0.23287  0.48065  Biso   1.000  O
  O31      1.0000 0.76174  0.74302  0.51706  Biso   1.000  O
  O32      1.0000 0.71324  0.85651  0.77846  Biso   1.000  O
  Bi1      1.0000 0.12613  0.66896  0.13151  Biso   1.000  Bi
