data_image0
_cell_length_a       10.194
_cell_length_b       5.20916
_cell_length_c       10.7345
_cell_angle_alpha    89.6674
_cell_angle_beta     92.6237
_cell_angle_gamma    90.1201

_symmetry_space_group_name_H-M    "P 1"
_symmetry_int_tables_number       1

loop_
  _symmetry_equiv_pos_as_xyz
  'x, y, z'

loop_
  _atom_site_label
  _atom_site_occupancy
  _atom_site_fract_x
  _atom_site_fract_y
  _atom_site_fract_z
  _atom_site_thermal_displace_type
  _atom_site_B_iso_or_equiv
  _atom_site_type_symbol
  Zr1      1.0000 0.13013  0.03734  0.17655  Biso   1.000  Zr
  Zr2      1.0000 0.13543  0.45293  0.42893  Biso   1.000  Zr
  Zr3      1.0000 0.34331  0.53857  0.19990  Biso   1.000  Zr
  Zr4      1.0000 0.36226  0.95796  0.43190  Biso   1.000  Zr
  Zr5      1.0000 0.65370  0.03207  0.07269  Biso   1.000  Zr
  Zr6      1.0000 0.63741  0.46107  0.33125  Biso   1.000  Zr
  Zr7      1.0000 0.86231  0.53687  0.07671  Biso   1.000  Zr
  Zr8      1.0000 0.85959  0.95919  0.32881  Biso   1.000  Zr
  O1       1.0000 0.02941  0.32725  0.08413  Biso   1.000  O
  O2       1.0000 0.02621  0.17734  0.33352  Biso   1.000  O
  O3       1.0000 0.47147  0.87761  0.09900  Biso   1.000  O
  O4       1.0000 0.46748  0.68719  0.33714  Biso   1.000  O
  O5       1.0000 0.26481  0.24939  0.30430  Biso   1.000  O
  O6       1.0000 0.26059  0.22543  0.05291  Biso   1.000  O
  O7       1.0000 0.21702  0.75404  0.31089  Biso   1.000  O
  O8       1.0000 0.21970  0.74426  0.06244  Biso   1.000  O
  O9       1.0000 0.51688  0.31270  0.19709  Biso   1.000  O
  O10      1.0000 0.52739  0.18777  0.42907  Biso   1.000  O
  O11      1.0000 0.96159  0.82744  0.17123  Biso   1.000  O
  O12      1.0000 0.96994  0.67715  0.42170  Biso   1.000  O
  O13      1.0000 0.77592  0.25160  0.44991  Biso   1.000  O
  O14      1.0000 0.77273  0.25185  0.20029  Biso   1.000  O
  O15      1.0000 0.72985  0.75543  0.45545  Biso   1.000  O
  O16      1.0000 0.72368  0.74476  0.20672  Biso   1.000  O
  Zr9      1.0000 0.14608  0.04082  0.67630  Biso   1.000  Zr
  Zr10     1.0000 0.14334  0.46315  0.92840  Biso   1.000  Zr
  Zr11     1.0000 0.36826  0.53893  0.67386  Biso   1.000  Zr
  Zr12     1.0000 0.35192  0.96796  0.93246  Biso   1.000  Zr
  Zr13     1.0000 0.64341  0.04204  0.57320  Biso   1.000  Zr
  Zr14     1.0000 0.66236  0.46147  0.80520  Biso   1.000  Zr
  Zr15     1.0000 0.87025  0.54710  0.57618  Biso   1.000  Zr
  Zr16     1.0000 0.87553  0.96269  0.82857  Biso   1.000  Zr
  O17      1.0000 0.03573  0.32288  0.58341  Biso   1.000  O
  O18      1.0000 0.04408  0.17257  0.83389  Biso   1.000  O
  O19      1.0000 0.47828  0.81222  0.57603  Biso   1.000  O
  O20      1.0000 0.48881  0.68731  0.80799  Biso   1.000  O
  O21      1.0000 0.28197  0.25526  0.79840  Biso   1.000  O
  O22      1.0000 0.27583  0.24457  0.54966  Biso   1.000  O
  O23      1.0000 0.23293  0.74817  0.80482  Biso   1.000  O
  O24      1.0000 0.22975  0.74840  0.55520  Biso   1.000  O
  O25      1.0000 0.53818  0.31277  0.66799  Biso   1.000  O
  O26      1.0000 0.53415  0.12236  0.90617  Biso   1.000  O
  O27      1.0000 0.97945  0.82268  0.67159  Biso   1.000  O
  O28      1.0000 0.97623  0.67275  0.92097  Biso   1.000  O
  O29      1.0000 0.78594  0.25578  0.94267  Biso   1.000  O
  O30      1.0000 0.78865  0.24599  0.69422  Biso   1.000  O
  O31      1.0000 0.74506  0.77463  0.95222  Biso   1.000  O
  O32      1.0000 0.74086  0.75064  0.70081  Biso   1.000  O
  Bi1      1.0000 0.50283  0.50004  0.00254  Biso   1.000  Bi
