data_image0
_cell_length_a       10.1447
_cell_length_b       5.17549
_cell_length_c       10.5432
_cell_angle_alpha    89.916
_cell_angle_beta     90.1644
_cell_angle_gamma    89.9693

_symmetry_space_group_name_H-M    "P 1"
_symmetry_int_tables_number       1

loop_
  _symmetry_equiv_pos_as_xyz
  'x, y, z'

loop_
  _atom_site_label
  _atom_site_occupancy
  _atom_site_fract_x
  _atom_site_fract_y
  _atom_site_fract_z
  _atom_site_thermal_displace_type
  _atom_site_B_iso_or_equiv
  _atom_site_type_symbol
  Bi1      1.0000 0.13369  0.03524  0.17073  Biso   1.000  Bi
  Zr1      1.0000 0.13896  0.04127  0.67078  Biso   1.000  Zr
  Zr2      1.0000 0.13841  0.45756  0.42354  Biso   1.000  Zr
  Zr3      1.0000 0.13988  0.45996  0.91714  Biso   1.000  Zr
  Zr4      1.0000 0.36396  0.53895  0.16959  Biso   1.000  Zr
  Zr5      1.0000 0.36164  0.54095  0.67047  Biso   1.000  Zr
  Zr6      1.0000 0.36314  0.95695  0.42201  Biso   1.000  Zr
  Zr7      1.0000 0.36395  0.95771  0.91884  Biso   1.000  Zr
  Zr8      1.0000 0.63873  0.04028  0.07915  Biso   1.000  Zr
  Zr9      1.0000 0.63858  0.04230  0.58042  Biso   1.000  Zr
  Zr10     1.0000 0.63780  0.45782  0.32974  Biso   1.000  Zr
  Zr11     1.0000 0.63904  0.45748  0.82808  Biso   1.000  Zr
  Zr12     1.0000 0.85674  0.53850  0.07726  Biso   1.000  Zr
  Zr13     1.0000 0.86196  0.54301  0.57973  Biso   1.000  Zr
  Zr14     1.0000 0.85528  0.95810  0.33269  Biso   1.000  Zr
  Zr15     1.0000 0.86230  0.95775  0.82896  Biso   1.000  Zr
  O1       1.0000 0.03335  0.35398  0.08122  Biso   1.000  O
  O2       1.0000 0.03367  0.33652  0.58715  Biso   1.000  O
  O3       1.0000 0.02836  0.16867  0.34108  Biso   1.000  O
  O4       1.0000 0.03446  0.16369  0.83474  Biso   1.000  O
  O5       1.0000 0.46905  0.83046  0.08243  Biso   1.000  O
  O6       1.0000 0.46839  0.82909  0.58353  Biso   1.000  O
  O7       1.0000 0.46982  0.67329  0.33210  Biso   1.000  O
  O8       1.0000 0.46882  0.66923  0.83141  Biso   1.000  O
  O9       1.0000 0.27967  0.25235  0.29974  Biso   1.000  O
  O10      1.0000 0.27590  0.24823  0.79252  Biso   1.000  O
  O11      1.0000 0.28097  0.25843  0.03817  Biso   1.000  O
  O12      1.0000 0.27517  0.24979  0.54562  Biso   1.000  O
  O13      1.0000 0.22842  0.73571  0.29712  Biso   1.000  O
  O14      1.0000 0.22585  0.74879  0.79225  Biso   1.000  O
  O15      1.0000 0.23278  0.73906  0.03817  Biso   1.000  O
  O16      1.0000 0.22542  0.75143  0.54482  Biso   1.000  O
  O17      1.0000 0.53348  0.32789  0.16728  Biso   1.000  O
  O18      1.0000 0.53279  0.32912  0.66695  Biso   1.000  O
  O19      1.0000 0.53298  0.16997  0.41832  Biso   1.000  O
  O20      1.0000 0.53430  0.16941  0.91623  Biso   1.000  O
  O21      1.0000 0.94969  0.83996  0.16452  Biso   1.000  O
  O22      1.0000 0.96671  0.83442  0.66549  Biso   1.000  O
  O23      1.0000 0.96617  0.66951  0.41644  Biso   1.000  O
  O24      1.0000 0.96667  0.66851  0.91515  Biso   1.000  O
  O25      1.0000 0.77539  0.24662  0.95496  Biso   1.000  O
  O26      1.0000 0.77449  0.24906  0.45700  Biso   1.000  O
  O27      1.0000 0.77418  0.25278  0.20647  Biso   1.000  O
  O28      1.0000 0.77572  0.25205  0.70563  Biso   1.000  O
  O29      1.0000 0.72394  0.74769  0.95487  Biso   1.000  O
  O30      1.0000 0.72346  0.74816  0.45693  Biso   1.000  O
  O31      1.0000 0.72019  0.75105  0.20696  Biso   1.000  O
  O32      1.0000 0.72566  0.75126  0.70557  Biso   1.000  O
