data_image0
_cell_length_a       9.97409
_cell_length_b       10.3774
_cell_length_c       5.02566
_cell_angle_alpha    90.2643
_cell_angle_beta     89.3034
_cell_angle_gamma    90.8838

_symmetry_space_group_name_H-M    "P 1"
_symmetry_int_tables_number       1

loop_
  _symmetry_equiv_pos_as_xyz
  'x, y, z'

loop_
  _atom_site_label
  _atom_site_occupancy
  _atom_site_fract_x
  _atom_site_fract_y
  _atom_site_fract_z
  _atom_site_thermal_displace_type
  _atom_site_B_iso_or_equiv
  _atom_site_type_symbol
  Hf1      1.0000 0.14766  0.01792  0.26001  Biso   1.000  Hf
  Hf2      1.0000 0.13479  0.23073  0.81435  Biso   1.000  Hf
  Hf3      1.0000 0.36430  0.25962  0.24425  Biso   1.000  Hf
  Hf4      1.0000 0.38027  0.49217  0.74849  Biso   1.000  Hf
  O1       1.0000 0.02990  0.17687  0.44296  Biso   1.000  O
  O2       1.0000 0.03415  0.06883  0.92846  Biso   1.000  O
  O3       1.0000 0.45448  0.43024  0.38732  Biso   1.000  O
  O4       1.0000 0.46678  0.31647  0.88241  Biso   1.000  O
  O5       1.0000 0.27203  0.11783  0.52403  Biso   1.000  O
  O6       1.0000 0.29523  0.11480  0.00050  Biso   1.000  O
  O7       1.0000 0.23993  0.39008  0.96832  Biso   1.000  O
  O8       1.0000 0.18487  0.34339  0.44319  Biso   1.000  O
  Hf5      1.0000 0.12562  0.51757  0.23016  Biso   1.000  Hf
  Hf6      1.0000 0.13350  0.73354  0.74722  Biso   1.000  Hf
  Hf7      1.0000 0.36751  0.76163  0.25036  Biso   1.000  Hf
  Hf8      1.0000 0.37402  0.97724  0.75059  Biso   1.000  Hf
  O9       1.0000 0.03900  0.68734  0.37768  Biso   1.000  O
  O10      1.0000 0.03293  0.56756  0.87853  Biso   1.000  O
  O11      1.0000 0.46894  0.93001  0.38267  Biso   1.000  O
  O12      1.0000 0.46842  0.81320  0.89721  Biso   1.000  O
  O13      1.0000 0.26313  0.60479  0.49377  Biso   1.000  O
  O14      1.0000 0.27001  0.63487  0.99068  Biso   1.000  O
  O15      1.0000 0.22989  0.87896  0.00155  Biso   1.000  O
  O16      1.0000 0.23722  0.86298  0.50067  Biso   1.000  O
  Hf9      1.0000 0.63730  0.02040  0.24901  Biso   1.000  Hf
  Hf10     1.0000 0.63691  0.23296  0.74822  Biso   1.000  Hf
  Hf11     1.0000 0.87442  0.27477  0.23481  Biso   1.000  Hf
  Hf12     1.0000 0.85993  0.48701  0.74576  Biso   1.000  Hf
  O17      1.0000 0.53449  0.18274  0.38318  Biso   1.000  O
  O18      1.0000 0.54687  0.06139  0.87709  Biso   1.000  O
  O19      1.0000 0.94742  0.45093  0.37131  Biso   1.000  O
  O20      1.0000 0.95359  0.32002  0.84844  Biso   1.000  O
  O21      1.0000 0.77339  0.12036  0.49337  Biso   1.000  O
  O22      1.0000 0.77429  0.13626  0.99498  Biso   1.000  O
  O23      1.0000 0.72698  0.38356  0.00008  Biso   1.000  O
  O24      1.0000 0.72395  0.37112  0.49548  Biso   1.000  O
  Hf13     1.0000 0.63506  0.51601  0.25978  Biso   1.000  Hf
  Hf14     1.0000 0.63998  0.73790  0.75646  Biso   1.000  Hf
  Hf15     1.0000 0.87094  0.77129  0.25129  Biso   1.000  Hf
  Hf16     1.0000 0.86775  0.98783  0.74871  Biso   1.000  Hf
  O25      1.0000 0.52848  0.67639  0.41507  Biso   1.000  O
  O26      1.0000 0.53883  0.56952  0.90785  Biso   1.000  O
  O27      1.0000 0.97303  0.93394  0.40147  Biso   1.000  O
  O28      1.0000 0.96474  0.81828  0.88545  Biso   1.000  O
  O29      1.0000 0.76740  0.62384  0.50282  Biso   1.000  O
  O30      1.0000 0.76924  0.63464  0.00636  Biso   1.000  O
  O31      1.0000 0.73484  0.88518  0.00108  Biso   1.000  O
  O32      1.0000 0.73235  0.87103  0.49928  Biso   1.000  O
  C1       1.0000 0.10849  0.25511  0.27072  Biso   1.000  C
