data_image0
_cell_length_a       10.0083
_cell_length_b       10.1416
_cell_length_c       10.009
_cell_angle_alpha    91.4302
_cell_angle_beta     89.0288
_cell_angle_gamma    91.4671

_symmetry_space_group_name_H-M    "P 1"
_symmetry_int_tables_number       1

loop_
  _symmetry_equiv_pos_as_xyz
  'x, y, z'

loop_
  _atom_site_label
  _atom_site_occupancy
  _atom_site_fract_x
  _atom_site_fract_y
  _atom_site_fract_z
  _atom_site_thermal_displace_type
  _atom_site_B_iso_or_equiv
  _atom_site_type_symbol
  C1       1.0000 0.14028  0.98539  0.14043  Biso   1.000  C
  Hf1      1.0000 0.12876  0.24568  0.36704  Biso   1.000  Hf
  Hf2      1.0000 0.36726  0.24573  0.12883  Biso   1.000  Hf
  Hf3      1.0000 0.37516  0.00234  0.37509  Biso   1.000  Hf
  O1       1.0000 0.97903  0.15111  0.97907  Biso   1.000  O
  O2       1.0000 0.06041  0.06259  0.23001  Biso   1.000  O
  O3       1.0000 0.00671  0.33298  0.23684  Biso   1.000  O
  O4       1.0000 0.99369  0.40548  0.99357  Biso   1.000  O
  O5       1.0000 0.29197  0.16150  0.29204  Biso   1.000  O
  O6       1.0000 0.22965  0.06274  0.06058  Biso   1.000  O
  O7       1.0000 0.23724  0.33322  0.00639  Biso   1.000  O
  O8       1.0000 0.25163  0.39740  0.25140  Biso   1.000  O
  Hf4      1.0000 0.12685  0.99903  0.63905  Biso   1.000  Hf
  Hf5      1.0000 0.10749  0.26119  0.86614  Biso   1.000  Hf
  Hf6      1.0000 0.36865  0.24405  0.62819  Biso   1.000  Hf
  Hf7      1.0000 0.37306  0.99358  0.88380  Biso   1.000  Hf
  O9       1.0000 0.98741  0.14743  0.47335  Biso   1.000  O
  O10      1.0000 0.99702  0.11983  0.72964  Biso   1.000  O
  O11      1.0000 0.98996  0.36654  0.74391  Biso   1.000  O
  O12      1.0000 0.00275  0.39627  0.49168  Biso   1.000  O
  O13      1.0000 0.25138  0.14009  0.78210  Biso   1.000  O
  O14      1.0000 0.24715  0.10198  0.52152  Biso   1.000  O
  O15      1.0000 0.25164  0.35183  0.50180  Biso   1.000  O
  O16      1.0000 0.24144  0.39302  0.75050  Biso   1.000  O
  Hf8      1.0000 0.12821  0.48871  0.12821  Biso   1.000  Hf
  Hf9      1.0000 0.12460  0.74662  0.37216  Biso   1.000  Hf
  Hf10     1.0000 0.37223  0.74678  0.12445  Biso   1.000  Hf
  Hf11     1.0000 0.38195  0.49242  0.38201  Biso   1.000  Hf
  O17      1.0000 0.98822  0.65825  0.98820  Biso   1.000  O
  O18      1.0000 0.99466  0.59162  0.23913  Biso   1.000  O
  O19      1.0000 0.96882  0.82967  0.29094  Biso   1.000  O
  O20      1.0000 0.06120  0.90184  0.06154  Biso   1.000  O
  O21      1.0000 0.24337  0.64660  0.24324  Biso   1.000  O
  O22      1.0000 0.23904  0.59173  0.99453  Biso   1.000  O
  O23      1.0000 0.29070  0.82988  0.96884  Biso   1.000  O
  O24      1.0000 0.22680  0.90666  0.22687  Biso   1.000  O
  Hf12     1.0000 0.12599  0.50053  0.62288  Biso   1.000  Hf
  Hf13     1.0000 0.13032  0.75082  0.87778  Biso   1.000  Hf
  Hf14     1.0000 0.37353  0.75295  0.62092  Biso   1.000  Hf
  Hf15     1.0000 0.37729  0.50216  0.87174  Biso   1.000  Hf
  O25      1.0000 0.99789  0.64509  0.49566  Biso   1.000  O
  O26      1.0000 0.00401  0.61572  0.74207  Biso   1.000  O
  O27      1.0000 0.99282  0.86862  0.78246  Biso   1.000  O
  O28      1.0000 0.00112  0.89838  0.52281  Biso   1.000  O
  O29      1.0000 0.25546  0.64171  0.74826  Biso   1.000  O
  O30      1.0000 0.24898  0.60425  0.49554  Biso   1.000  O
  O31      1.0000 0.25948  0.85346  0.48248  Biso   1.000  O
  O32      1.0000 0.24750  0.88940  0.73988  Biso   1.000  O
  Hf16     1.0000 0.63892  0.99872  0.12694  Biso   1.000  Hf
  Hf17     1.0000 0.62863  0.24383  0.36830  Biso   1.000  Hf
  Hf18     1.0000 0.86617  0.26119  0.10736  Biso   1.000  Hf
  Hf19     1.0000 0.88411  0.99349  0.37315  Biso   1.000  Hf
  O33      1.0000 0.47301  0.14753  0.98705  Biso   1.000  O
  O34      1.0000 0.52132  0.10225  0.24655  Biso   1.000  O
  O35      1.0000 0.50193  0.35197  0.25209  Biso   1.000  O
  O36      1.0000 0.49180  0.39629  0.00314  Biso   1.000  O
  O37      1.0000 0.78204  0.14014  0.25149  Biso   1.000  O
  O38      1.0000 0.72953  0.11977  0.99716  Biso   1.000  O
  O39      1.0000 0.74395  0.36657  0.98990  Biso   1.000  O
  O40      1.0000 0.75075  0.39302  0.24136  Biso   1.000  O
  Hf20     1.0000 0.62411  0.00155  0.62405  Biso   1.000  Hf
  Hf21     1.0000 0.61222  0.25329  0.87193  Biso   1.000  Hf
  Hf22     1.0000 0.87191  0.25338  0.61213  Biso   1.000  Hf
  Hf23     1.0000 0.86625  0.01679  0.86635  Biso   1.000  Hf
  O41      1.0000 0.49338  0.14463  0.49302  Biso   1.000  O
  O42      1.0000 0.49858  0.10654  0.74345  Biso   1.000  O
  O43      1.0000 0.49041  0.35795  0.75317  Biso   1.000  O
  O44      1.0000 0.50253  0.39045  0.50332  Biso   1.000  O
  O45      1.0000 0.75243  0.14928  0.75251  Biso   1.000  O
  O46      1.0000 0.74379  0.10656  0.49864  Biso   1.000  O
  O47      1.0000 0.75274  0.35806  0.49046  Biso   1.000  O
  O48      1.0000 0.74296  0.39757  0.74292  Biso   1.000  O
  Hf24     1.0000 0.62293  0.50065  0.12619  Biso   1.000  Hf
  Hf25     1.0000 0.62102  0.75297  0.37359  Biso   1.000  Hf
  Hf26     1.0000 0.87806  0.75100  0.13025  Biso   1.000  Hf
  Hf27     1.0000 0.87145  0.50251  0.37749  Biso   1.000  Hf
  O49      1.0000 0.49560  0.64508  0.99803  Biso   1.000  O
  O50      1.0000 0.49569  0.60437  0.24914  Biso   1.000  O
  O51      1.0000 0.48279  0.85365  0.25918  Biso   1.000  O
  O52      1.0000 0.52274  0.89842  0.00090  Biso   1.000  O
  O53      1.0000 0.74841  0.64180  0.25555  Biso   1.000  O
  O54      1.0000 0.74211  0.61573  0.00407  Biso   1.000  O
  O55      1.0000 0.78234  0.86858  0.99290  Biso   1.000  O
  O56      1.0000 0.74011  0.88948  0.24761  Biso   1.000  O
  Hf28     1.0000 0.62512  0.50147  0.62537  Biso   1.000  Hf
  Hf29     1.0000 0.62605  0.75584  0.87752  Biso   1.000  Hf
  Hf30     1.0000 0.87758  0.75590  0.62616  Biso   1.000  Hf
  Hf31     1.0000 0.87036  0.51327  0.87045  Biso   1.000  Hf
  O57      1.0000 0.49982  0.64170  0.49990  Biso   1.000  O
  O58      1.0000 0.50641  0.60877  0.75167  Biso   1.000  O
  O59      1.0000 0.49293  0.85585  0.75728  Biso   1.000  O
  O60      1.0000 0.50354  0.89384  0.50333  Biso   1.000  O
  O61      1.0000 0.75651  0.65015  0.75658  Biso   1.000  O
  O62      1.0000 0.75143  0.60888  0.50651  Biso   1.000  O
  O63      1.0000 0.75742  0.85587  0.49302  Biso   1.000  O
  O64      1.0000 0.74318  0.89751  0.74323  Biso   1.000  O
