data_image0
_cell_length_a       5.1307
_cell_length_b       10.2523
_cell_length_c       10.549
_cell_angle_alpha    90.1316
_cell_angle_beta     80.0983
_cell_angle_gamma    89.8592

_symmetry_space_group_name_H-M    "P 1"
_symmetry_int_tables_number       1

loop_
  _symmetry_equiv_pos_as_xyz
  'x, y, z'

loop_
  _atom_site_label
  _atom_site_occupancy
  _atom_site_fract_x
  _atom_site_fract_y
  _atom_site_fract_z
  _atom_site_thermal_displace_type
  _atom_site_B_iso_or_equiv
  _atom_site_type_symbol
  C1       1.0000 0.04502  0.06011  0.17496  Biso   1.000  C
  Zr1      1.0000 0.27534  0.01794  0.64847  Biso   1.000  Zr
  Zr2      1.0000 0.26924  0.52258  0.14430  Biso   1.000  Zr
  Zr3      1.0000 0.28549  0.52074  0.64750  Biso   1.000  Zr
  Zr4      1.0000 0.29487  0.23022  0.39421  Biso   1.000  Zr
  Zr5      1.0000 0.29384  0.22650  0.89250  Biso   1.000  Zr
  Zr6      1.0000 0.28573  0.72566  0.39355  Biso   1.000  Zr
  Zr7      1.0000 0.28770  0.73364  0.89718  Biso   1.000  Zr
  Zr8      1.0000 0.69584  0.26909  0.10689  Biso   1.000  Zr
  Zr9      1.0000 0.73443  0.26758  0.60239  Biso   1.000  Zr
  Zr10     1.0000 0.71498  0.77249  0.09831  Biso   1.000  Zr
  Zr11     1.0000 0.73146  0.76919  0.60516  Biso   1.000  Zr
  Zr12     1.0000 0.72702  0.47644  0.35107  Biso   1.000  Zr
  Zr13     1.0000 0.73859  0.47454  0.85665  Biso   1.000  Zr
  Zr14     1.0000 0.70489  0.97596  0.36346  Biso   1.000  Zr
  Zr15     1.0000 0.72057  0.97914  0.85845  Biso   1.000  Zr
  O1       1.0000 0.06886  0.14655  0.08742  Biso   1.000  O
  O2       1.0000 0.05767  0.14680  0.55789  Biso   1.000  O
  O3       1.0000 0.06858  0.67188  0.07967  Biso   1.000  O
  O4       1.0000 0.07102  0.65930  0.57459  Biso   1.000  O
  O5       1.0000 0.07897  0.08948  0.29077  Biso   1.000  O
  O6       1.0000 0.06888  0.09040  0.82316  Biso   1.000  O
  O7       1.0000 0.06121  0.58674  0.32542  Biso   1.000  O
  O8       1.0000 0.07478  0.58395  0.82675  Biso   1.000  O
  O9       1.0000 0.93063  0.40949  0.17362  Biso   1.000  O
  O10      1.0000 0.95286  0.40402  0.67736  Biso   1.000  O
  O11      1.0000 0.94914  0.94711  0.16371  Biso   1.000  O
  O12      1.0000 0.93892  0.90830  0.67838  Biso   1.000  O
  O13      1.0000 0.94063  0.33312  0.42231  Biso   1.000  O
  O14      1.0000 0.94519  0.33370  0.93362  Biso   1.000  O
  O15      1.0000 0.95070  0.84275  0.42298  Biso   1.000  O
  O16      1.0000 0.95192  0.84151  0.92619  Biso   1.000  O
  O17      1.0000 0.58489  0.13950  0.25640  Biso   1.000  O
  O18      1.0000 0.55401  0.12559  0.73682  Biso   1.000  O
  O19      1.0000 0.54665  0.62298  0.23742  Biso   1.000  O
  O20      1.0000 0.56134  0.62582  0.74005  Biso   1.000  O
  O21      1.0000 0.54565  0.11773  0.49611  Biso   1.000  O
  O22      1.0000 0.57257  0.13377  0.97902  Biso   1.000  O
  O23      1.0000 0.55596  0.61896  0.48923  Biso   1.000  O
  O24      1.0000 0.55817  0.61959  0.99186  Biso   1.000  O
  O25      1.0000 0.44573  0.37888  0.00988  Biso   1.000  O
  O26      1.0000 0.45578  0.37298  0.50836  Biso   1.000  O
  O27      1.0000 0.47210  0.87123  0.99987  Biso   1.000  O
  O28      1.0000 0.45265  0.87404  0.51262  Biso   1.000  O
  O29      1.0000 0.43751  0.37413  0.25807  Biso   1.000  O
  O30      1.0000 0.46404  0.36863  0.75969  Biso   1.000  O
  O31      1.0000 0.49782  0.86072  0.26588  Biso   1.000  O
  O32      1.0000 0.45472  0.87104  0.75702  Biso   1.000  O
