data_image0
_cell_length_a       5.09175
_cell_length_b       10.4056
_cell_length_c       10.1197
_cell_angle_alpha    89.9638
_cell_angle_beta     90.3056
_cell_angle_gamma    93.7625

_symmetry_space_group_name_H-M    "P 1"
_symmetry_int_tables_number       1

loop_
  _symmetry_equiv_pos_as_xyz
  'x, y, z'

loop_
  _atom_site_label
  _atom_site_occupancy
  _atom_site_fract_x
  _atom_site_fract_y
  _atom_site_fract_z
  _atom_site_thermal_displace_type
  _atom_site_B_iso_or_equiv
  _atom_site_type_symbol
  Hf1      1.0000 0.27492  0.97471  0.08100  Biso   1.000  Hf
  Hf2      1.0000 0.22871  0.23440  0.38865  Biso   1.000  Hf
  Hf3      1.0000 0.67538  0.26824  0.11888  Biso   1.000  Hf
  Hf4      1.0000 0.74864  0.48447  0.37055  Biso   1.000  Hf
  O1       1.0000 0.89784  0.18781  0.26464  Biso   1.000  O
  O2       1.0000 0.03243  0.06895  0.46484  Biso   1.000  O
  O3       1.0000 0.93771  0.43052  0.19673  Biso   1.000  O
  O4       1.0000 0.94175  0.33472  0.47102  Biso   1.000  O
  O5       1.0000 0.41440  0.11440  0.22959  Biso   1.000  O
  O6       1.0000 0.52263  0.13399  0.48486  Biso   1.000  O
  O7       1.0000 0.46524  0.38745  0.49660  Biso   1.000  O
  O8       1.0000 0.43918  0.37192  0.24973  Biso   1.000  O
  Hf5      1.0000 0.27133  0.97900  0.58872  Biso   1.000  Hf
  Hf6      1.0000 0.21346  0.24322  0.84267  Biso   1.000  Hf
  Hf7      1.0000 0.70162  0.26666  0.61872  Biso   1.000  Hf
  Hf8      1.0000 0.74430  0.48227  0.88036  Biso   1.000  Hf
  O9       1.0000 0.93376  0.15996  0.72639  Biso   1.000  O
  O10      1.0000 0.01252  0.07804  0.96886  Biso   1.000  O
  O11      1.0000 0.97692  0.41066  0.72086  Biso   1.000  O
  O12      1.0000 0.90714  0.31920  0.95389  Biso   1.000  O
  O13      1.0000 0.43938  0.11202  0.72947  Biso   1.000  O
  O14      1.0000 0.48329  0.14007  0.97838  Biso   1.000  O
  O15      1.0000 0.43750  0.39308  0.99639  Biso   1.000  O
  O16      1.0000 0.47860  0.36743  0.74457  Biso   1.000  O
  Hf9      1.0000 0.27685  0.53117  0.12775  Biso   1.000  Hf
  Hf10     1.0000 0.31722  0.73506  0.37700  Biso   1.000  Hf
  Hf11     1.0000 0.77683  0.76929  0.12685  Biso   1.000  Hf
  Hf12     1.0000 0.71445  0.02091  0.33549  Biso   1.000  Hf
  O17      1.0000 0.08336  0.68108  0.21355  Biso   1.000  O
  O18      1.0000 0.08485  0.57259  0.45119  Biso   1.000  O
  O19      1.0000 0.96699  0.93304  0.21093  Biso   1.000  O
  O20      1.0000 0.06325  0.82118  0.49318  Biso   1.000  O
  O21      1.0000 0.56772  0.62180  0.24972  Biso   1.000  O
  O22      1.0000 0.56878  0.63470  0.49784  Biso   1.000  O
  O23      1.0000 0.55676  0.88624  0.48104  Biso   1.000  O
  O24      1.0000 0.48560  0.86559  0.23126  Biso   1.000  O
  Hf13     1.0000 0.27224  0.51378  0.62269  Biso   1.000  Hf
  Hf14     1.0000 0.30965  0.73001  0.86981  Biso   1.000  Hf
  Hf15     1.0000 0.77676  0.76291  0.62732  Biso   1.000  Hf
  Hf16     1.0000 0.72441  0.01691  0.83798  Biso   1.000  Hf
  O25      1.0000 0.07754  0.66633  0.70927  Biso   1.000  O
  O26      1.0000 0.07685  0.57442  0.95593  Biso   1.000  O
  O27      1.0000 0.97702  0.91867  0.72199  Biso   1.000  O
  O28      1.0000 0.06441  0.82224  0.98800  Biso   1.000  O
  O29      1.0000 0.55676  0.61049  0.74764  Biso   1.000  O
  O30      1.0000 0.56481  0.63909  0.99789  Biso   1.000  O
  O31      1.0000 0.56116  0.88504  0.97825  Biso   1.000  O
  O32      1.0000 0.48992  0.86013  0.73109  Biso   1.000  O
  Ca1      1.0000 0.17451  0.24786  0.11036  Biso   1.000  Ca
