data_image0
_cell_length_a       10.1158
_cell_length_b       10.273
_cell_length_c       10.1162
_cell_angle_alpha    89.6112
_cell_angle_beta     90.001
_cell_angle_gamma    89.9958

_symmetry_space_group_name_H-M    "P 1"
_symmetry_int_tables_number       1

loop_
  _symmetry_equiv_pos_as_xyz
  'x, y, z'

loop_
  _atom_site_label
  _atom_site_occupancy
  _atom_site_fract_x
  _atom_site_fract_y
  _atom_site_fract_z
  _atom_site_thermal_displace_type
  _atom_site_B_iso_or_equiv
  _atom_site_type_symbol
  Zr1      1.0000 0.11628  0.97314  0.11723  Biso   1.000  Zr
  Zr2      1.0000 0.12438  0.24860  0.39533  Biso   1.000  Zr
  Zr3      1.0000 0.40083  0.25007  0.12565  Biso   1.000  Zr
  Zr4      1.0000 0.37357  0.00941  0.37358  Biso   1.000  Zr
  O1       1.0000 0.00001  0.14174  0.99200  Biso   1.000  O
  O2       1.0000 0.01579  0.10343  0.24742  Biso   1.000  O
  O3       1.0000 1.00000  0.35842  0.25928  Biso   1.000  O
  O4       1.0000 0.01579  0.39672  0.00387  Biso   1.000  O
  O5       1.0000 0.27683  0.16748  0.27605  Biso   1.000  O
  O6       1.0000 0.25657  0.09009  0.02160  Biso   1.000  O
  O7       1.0000 0.27683  0.33265  0.97526  Biso   1.000  O
  O8       1.0000 0.25657  0.41004  0.22970  Biso   1.000  O
  Zr5      1.0000 0.12579  0.99404  0.62877  Biso   1.000  Zr
  Zr6      1.0000 0.12439  0.25155  0.85598  Biso   1.000  Zr
  Zr7      1.0000 0.37675  0.25008  0.62566  Biso   1.000  Zr
  Zr8      1.0000 0.37245  0.00279  0.87901  Biso   1.000  Zr
  O9       1.0000 0.99094  0.14249  0.49911  Biso   1.000  O
  O10      1.0000 0.00038  0.10498  0.74490  Biso   1.000  O
  O11      1.0000 0.99094  0.35766  0.75219  Biso   1.000  O
  O12      1.0000 0.00036  0.39518  0.50640  Biso   1.000  O
  O13      1.0000 0.25662  0.14024  0.75638  Biso   1.000  O
  O14      1.0000 0.24783  0.10524  0.51138  Biso   1.000  O
  O15      1.0000 0.25660  0.35991  0.49492  Biso   1.000  O
  O16      1.0000 0.24783  0.39491  0.73993  Biso   1.000  O
  Zr9      1.0000 0.11626  0.52700  0.13407  Biso   1.000  Zr
  Zr10     1.0000 0.12426  0.75680  0.38256  Biso   1.000  Zr
  Zr11     1.0000 0.37869  0.75010  0.12570  Biso   1.000  Zr
  Zr12     1.0000 0.37242  0.49735  0.37228  Biso   1.000  Zr
  O17      1.0000 0.99557  0.64655  0.00266  Biso   1.000  O
  O18      1.0000 0.98848  0.61342  0.25581  Biso   1.000  O
  O19      1.0000 0.99561  0.85360  0.24865  Biso   1.000  O
  O20      1.0000 0.98848  0.88672  0.99551  Biso   1.000  O
  O21      1.0000 0.24050  0.65752  0.24665  Biso   1.000  O
  O22      1.0000 0.24601  0.59637  0.99513  Biso   1.000  O
  O23      1.0000 0.24051  0.84260  0.00465  Biso   1.000  O
  O24      1.0000 0.24607  0.90374  0.25614  Biso   1.000  O
  Zr13     1.0000 0.12578  0.50611  0.62253  Biso   1.000  Zr
  Zr14     1.0000 0.12426  0.74333  0.86877  Biso   1.000  Zr
  Zr15     1.0000 0.37833  0.75008  0.62567  Biso   1.000  Zr
  Zr16     1.0000 0.37355  0.49074  0.87772  Biso   1.000  Zr
  O25      1.0000 0.99935  0.64669  0.50357  Biso   1.000  O
  O26      1.0000 0.00409  0.60368  0.75330  Biso   1.000  O
  O27      1.0000 0.99935  0.85347  0.74774  Biso   1.000  O
  O28      1.0000 0.00410  0.89647  0.49801  Biso   1.000  O
  O29      1.0000 0.25213  0.64349  0.74631  Biso   1.000  O
  O30      1.0000 0.24730  0.60780  0.49445  Biso   1.000  O
  O31      1.0000 0.25214  0.85665  0.50498  Biso   1.000  O
  O32      1.0000 0.24730  0.89235  0.75686  Biso   1.000  O
  Zr17     1.0000 0.62354  0.99470  0.12033  Biso   1.000  Zr
  Zr18     1.0000 0.62834  0.24806  0.37749  Biso   1.000  Zr
  Zr19     1.0000 0.86821  0.25007  0.12565  Biso   1.000  Zr
  Zr20     1.0000 0.87902  0.00411  0.37101  Biso   1.000  Zr
  O33      1.0000 0.50668  0.13896  0.99330  Biso   1.000  O
  O34      1.0000 0.51338  0.10498  0.24934  Biso   1.000  O
  O35      1.0000 0.50667  0.36119  0.25799  Biso   1.000  O
  O36      1.0000 0.51338  0.39518  0.00197  Biso   1.000  O
  O37      1.0000 0.76112  0.14618  0.26114  Biso   1.000  O
  O38      1.0000 0.75241  0.10310  0.00528  Biso   1.000  O
  O39      1.0000 0.76113  0.35397  0.99016  Biso   1.000  O
  O40      1.0000 0.75239  0.39704  0.24603  Biso   1.000  O
  Zr21     1.0000 0.62370  0.99933  0.62572  Biso   1.000  Zr
  Zr22     1.0000 0.62834  0.25209  0.87382  Biso   1.000  Zr
  Zr23     1.0000 0.87145  0.25008  0.62566  Biso   1.000  Zr
  Zr24     1.0000 0.87401  0.00415  0.87333  Biso   1.000  Zr
  O41      1.0000 0.49744  0.14870  0.49747  Biso   1.000  O
  O42      1.0000 0.50030  0.10245  0.74768  Biso   1.000  O
  O43      1.0000 0.49745  0.35145  0.75381  Biso   1.000  O
  O44      1.0000 0.50029  0.39771  0.50362  Biso   1.000  O
  O45      1.0000 0.75239  0.14611  0.75436  Biso   1.000  O
  O46      1.0000 0.74763  0.10312  0.50403  Biso   1.000  O
  O47      1.0000 0.75237  0.35405  0.49695  Biso   1.000  O
  O48      1.0000 0.74763  0.39704  0.74727  Biso   1.000  O
  Zr25     1.0000 0.62350  0.50547  0.13098  Biso   1.000  Zr
  Zr26     1.0000 0.62294  0.75468  0.37836  Biso   1.000  Zr
  Zr27     1.0000 0.86378  0.75008  0.12567  Biso   1.000  Zr
  Zr28     1.0000 0.87398  0.49600  0.37795  Biso   1.000  Zr
  O49      1.0000 0.49649  0.64351  0.99849  Biso   1.000  O
  O50      1.0000 0.49259  0.60814  0.24675  Biso   1.000  O
  O51      1.0000 0.49653  0.85665  0.25286  Biso   1.000  O
  O52      1.0000 0.49259  0.89203  0.00461  Biso   1.000  O
  O53      1.0000 0.74089  0.64679  0.25235  Biso   1.000  O
  O54      1.0000 0.74952  0.60344  0.00364  Biso   1.000  O
  O55      1.0000 0.74088  0.85336  0.99897  Biso   1.000  O
  O56      1.0000 0.74954  0.89670  0.24769  Biso   1.000  O
  Zr29     1.0000 0.62367  0.50082  0.62559  Biso   1.000  Zr
  Zr30     1.0000 0.62293  0.74545  0.87302  Biso   1.000  Zr
  Zr31     1.0000 0.87237  0.75007  0.62568  Biso   1.000  Zr
  Zr32     1.0000 0.87900  0.49604  0.88029  Biso   1.000  Zr
  O57      1.0000 0.49836  0.64763  0.49865  Biso   1.000  O
  O58      1.0000 0.50157  0.60171  0.74987  Biso   1.000  O
  O59      1.0000 0.49835  0.85252  0.75272  Biso   1.000  O
  O60      1.0000 0.50158  0.89843  0.50148  Biso   1.000  O
  O61      1.0000 0.75326  0.64615  0.75403  Biso   1.000  O
  O62      1.0000 0.74957  0.60393  0.50275  Biso   1.000  O
  O63      1.0000 0.75327  0.85400  0.49730  Biso   1.000  O
  O64      1.0000 0.74958  0.89622  0.74858  Biso   1.000  O
  Ca1      1.0000 0.13721  0.25007  0.12565  Biso   1.000  Ca
