data_image0
_cell_length_a       10.0939
_cell_length_b       5.15596
_cell_length_c       10.5731
_cell_angle_alpha    89.7314
_cell_angle_beta     91.6415
_cell_angle_gamma    90.0948

_symmetry_space_group_name_H-M    "P 1"
_symmetry_int_tables_number       1

loop_
  _symmetry_equiv_pos_as_xyz
  'x, y, z'

loop_
  _atom_site_label
  _atom_site_occupancy
  _atom_site_fract_x
  _atom_site_fract_y
  _atom_site_fract_z
  _atom_site_thermal_displace_type
  _atom_site_B_iso_or_equiv
  _atom_site_type_symbol
  Hf1      1.0000 0.13186  0.04118  0.17246  Biso   1.000  Hf
  Hf2      1.0000 0.13441  0.45255  0.42640  Biso   1.000  Hf
  Hf3      1.0000 0.34489  0.54122  0.18984  Biso   1.000  Hf
  Hf4      1.0000 0.36152  0.95651  0.42906  Biso   1.000  Hf
  Hf5      1.0000 0.64804  0.06713  0.07124  Biso   1.000  Hf
  Hf6      1.0000 0.63695  0.45479  0.33370  Biso   1.000  Hf
  Hf7      1.0000 0.85916  0.54194  0.07401  Biso   1.000  Hf
  Hf8      1.0000 0.85905  0.95564  0.32800  Biso   1.000  Hf
  O1       1.0000 0.03415  0.33063  0.08309  Biso   1.000  O
  O2       1.0000 0.02942  0.16845  0.33321  Biso   1.000  O
  O3       1.0000 0.45739  0.85960  0.09611  Biso   1.000  O
  O4       1.0000 0.46537  0.67545  0.33864  Biso   1.000  O
  O5       1.0000 0.26707  0.24892  0.30125  Biso   1.000  O
  O6       1.0000 0.27743  0.25339  0.04769  Biso   1.000  O
  O7       1.0000 0.21825  0.74967  0.30353  Biso   1.000  O
  O8       1.0000 0.22137  0.75226  0.05227  Biso   1.000  O
  O9       1.0000 0.51263  0.29895  0.19474  Biso   1.000  O
  O10      1.0000 0.52936  0.17690  0.42752  Biso   1.000  O
  O11      1.0000 0.96314  0.82939  0.16852  Biso   1.000  O
  O12      1.0000 0.96581  0.66725  0.41795  Biso   1.000  O
  O13      1.0000 0.77520  0.24497  0.45286  Biso   1.000  O
  O14      1.0000 0.77617  0.25945  0.20596  Biso   1.000  O
  O15      1.0000 0.72462  0.74738  0.45684  Biso   1.000  O
  O16      1.0000 0.72031  0.75733  0.20797  Biso   1.000  O
  Hf9      1.0000 0.14378  0.03778  0.67291  Biso   1.000  Hf
  Hf10     1.0000 0.14155  0.45960  0.92402  Biso   1.000  Hf
  Hf11     1.0000 0.36549  0.53731  0.67611  Biso   1.000  Hf
  Hf12     1.0000 0.35973  0.96331  0.92390  Biso   1.000  Hf
  Hf13     1.0000 0.64177  0.03683  0.57790  Biso   1.000  Hf
  Hf14     1.0000 0.65137  0.44899  0.81645  Biso   1.000  Hf
  Hf15     1.0000 0.86528  0.54060  0.57748  Biso   1.000  Hf
  Hf16     1.0000 0.87349  0.95964  0.82531  Biso   1.000  Hf
  O17      1.0000 0.03417  0.32300  0.58334  Biso   1.000  O
  O18      1.0000 0.04433  0.16685  0.83211  Biso   1.000  O
  O19      1.0000 0.47127  0.82222  0.58628  Biso   1.000  O
  O20      1.0000 0.47148  0.66049  0.83568  Biso   1.000  O
  O21      1.0000 0.28156  0.24757  0.79690  Biso   1.000  O
  O22      1.0000 0.27628  0.24691  0.54880  Biso   1.000  O
  O23      1.0000 0.22924  0.74568  0.79906  Biso   1.000  O
  O24      1.0000 0.22716  0.74637  0.54993  Biso   1.000  O
  O25      1.0000 0.53544  0.32148  0.66767  Biso   1.000  O
  O26      1.0000 0.53729  0.13515  0.90655  Biso   1.000  O
  O27      1.0000 0.97466  0.82308  0.66490  Biso   1.000  O
  O28      1.0000 0.97559  0.66965  0.91676  Biso   1.000  O
  O29      1.0000 0.79689  0.25291  0.94007  Biso   1.000  O
  O30      1.0000 0.78290  0.24245  0.69677  Biso   1.000  O
  O31      1.0000 0.74665  0.78958  0.95179  Biso   1.000  O
  O32      1.0000 0.73168  0.74342  0.70376  Biso   1.000  O
  Cd1      1.0000 0.56624  0.54879  0.03797  Biso   1.000  Cd
