data_image0
_cell_length_a       10.1459
_cell_length_b       10.2908
_cell_length_c       5.31828
_cell_angle_alpha    89.9464
_cell_angle_beta     92.0324
_cell_angle_gamma    89.5484

_symmetry_space_group_name_H-M    "P 1"
_symmetry_int_tables_number       1

loop_
  _symmetry_equiv_pos_as_xyz
  'x, y, z'

loop_
  _atom_site_label
  _atom_site_occupancy
  _atom_site_fract_x
  _atom_site_fract_y
  _atom_site_fract_z
  _atom_site_thermal_displace_type
  _atom_site_B_iso_or_equiv
  _atom_site_type_symbol
  Hf1      1.0000 0.13755  0.01931  0.34996  Biso   1.000  Hf
  Hf2      1.0000 0.14199  0.22755  0.85302  Biso   1.000  Hf
  Hf3      1.0000 0.35136  0.26756  0.37933  Biso   1.000  Hf
  Hf4      1.0000 0.36099  0.48143  0.86184  Biso   1.000  Hf
  Hf5      1.0000 0.63496  0.99530  0.16129  Biso   1.000  Hf
  Hf6      1.0000 0.64619  0.22665  0.60507  Biso   1.000  Hf
  Hf7      1.0000 0.87658  0.27643  0.13554  Biso   1.000  Hf
  Hf8      1.0000 0.86641  0.48202  0.64452  Biso   1.000  Hf
  O1       1.0000 0.03356  0.15563  0.15061  Biso   1.000  O
  O2       1.0000 0.03014  0.09239  0.65339  Biso   1.000  O
  O3       1.0000 0.45873  0.42982  0.20339  Biso   1.000  O
  O4       1.0000 0.47338  0.33125  0.69295  Biso   1.000  O
  O5       1.0000 0.26971  0.12351  0.60810  Biso   1.000  O
  O6       1.0000 0.27562  0.12303  0.10567  Biso   1.000  O
  O7       1.0000 0.22460  0.37601  0.61396  Biso   1.000  O
  O8       1.0000 0.22351  0.37351  0.10844  Biso   1.000  O
  O9       1.0000 0.50738  0.12803  0.38120  Biso   1.000  O
  O10      1.0000 0.52807  0.08099  0.85596  Biso   1.000  O
  O11      1.0000 0.97418  0.41396  0.34147  Biso   1.000  O
  O12      1.0000 0.97908  0.34292  0.83641  Biso   1.000  O
  O13      1.0000 0.77583  0.13057  0.87427  Biso   1.000  O
  O14      1.0000 0.77136  0.12305  0.36364  Biso   1.000  O
  O15      1.0000 0.73799  0.38802  0.88265  Biso   1.000  O
  O16      1.0000 0.72872  0.38070  0.38759  Biso   1.000  O
  Hf9      1.0000 0.14209  0.52127  0.35043  Biso   1.000  Hf
  Hf10     1.0000 0.13709  0.73039  0.84850  Biso   1.000  Hf
  Hf11     1.0000 0.35877  0.76834  0.35848  Biso   1.000  Hf
  Hf12     1.0000 0.36007  0.97538  0.85555  Biso   1.000  Hf
  Hf13     1.0000 0.64247  0.53704  0.15358  Biso   1.000  Hf
  Hf14     1.0000 0.64054  0.73004  0.65902  Biso   1.000  Hf
  Hf15     1.0000 0.86799  0.77141  0.15889  Biso   1.000  Hf
  Hf16     1.0000 0.86355  0.98434  0.65467  Biso   1.000  Hf
  O17      1.0000 0.03461  0.66174  0.16037  Biso   1.000  O
  O18      1.0000 0.03433  0.59179  0.65852  Biso   1.000  O
  O19      1.0000 0.46587  0.89651  0.15877  Biso   1.000  O
  O20      1.0000 0.47024  0.83939  0.66447  Biso   1.000  O
  O21      1.0000 0.27615  0.62449  0.60079  Biso   1.000  O
  O22      1.0000 0.27428  0.62541  0.09691  Biso   1.000  O
  O23      1.0000 0.22443  0.87293  0.60202  Biso   1.000  O
  O24      1.0000 0.22256  0.87537  0.10289  Biso   1.000  O
  O25      1.0000 0.53259  0.66559  0.35000  Biso   1.000  O
  O26      1.0000 0.53001  0.58948  0.84290  Biso   1.000  O
  O27      1.0000 0.96996  0.91248  0.34407  Biso   1.000  O
  O28      1.0000 0.96952  0.84246  0.84469  Biso   1.000  O
  O29      1.0000 0.77950  0.63029  0.90425  Biso   1.000  O
  O30      1.0000 0.78057  0.63003  0.40717  Biso   1.000  O
  O31      1.0000 0.72852  0.87489  0.91455  Biso   1.000  O
  O32      1.0000 0.73088  0.86974  0.42245  Biso   1.000  O
  Ce1      1.0000 0.59439  0.25990  0.08633  Biso   1.000  Ce
