data_image0
_cell_length_a       10.154
_cell_length_b       10.359
_cell_length_c       5.20464
_cell_angle_alpha    86.7733
_cell_angle_beta     89.8483
_cell_angle_gamma    91.2582

_symmetry_space_group_name_H-M    "P 1"
_symmetry_int_tables_number       1

loop_
  _symmetry_equiv_pos_as_xyz
  'x, y, z'

loop_
  _atom_site_label
  _atom_site_occupancy
  _atom_site_fract_x
  _atom_site_fract_y
  _atom_site_fract_z
  _atom_site_thermal_displace_type
  _atom_site_B_iso_or_equiv
  _atom_site_type_symbol
  Zr1      1.0000 0.11170  0.97795  0.26191  Biso   1.000  Zr
  Zr2      1.0000 0.13014  0.25770  0.65161  Biso   1.000  Zr
  Zr3      1.0000 0.41086  0.24024  0.25873  Biso   1.000  Zr
  Zr4      1.0000 0.38057  0.49531  0.68454  Biso   1.000  Zr
  O1       1.0000 0.00031  0.13113  0.43961  Biso   1.000  O
  O2       1.0000 0.04335  0.08838  0.92290  Biso   1.000  O
  O3       1.0000 0.51710  0.38958  0.47329  Biso   1.000  O
  O4       1.0000 0.48778  0.37083  0.97044  Biso   1.000  O
  O5       1.0000 0.25652  0.11850  0.43551  Biso   1.000  O
  O6       1.0000 0.29569  0.18833  0.88679  Biso   1.000  O
  O7       1.0000 0.21426  0.43705  0.89045  Biso   1.000  O
  O8       1.0000 0.26732  0.38415  0.40889  Biso   1.000  O
  Zr5      1.0000 0.13790  0.53702  0.23304  Biso   1.000  Zr
  Zr6      1.0000 0.10357  0.74091  0.72753  Biso   1.000  Zr
  Zr7      1.0000 0.36278  0.78099  0.26517  Biso   1.000  Zr
  Zr8      1.0000 0.37256  0.01619  0.74337  Biso   1.000  Zr
  O9       1.0000 0.99766  0.63440  0.46476  Biso   1.000  O
  O10      1.0000 0.98881  0.59370  0.96210  Biso   1.000  O
  O11      1.0000 0.49504  0.90130  0.47414  Biso   1.000  O
  O12      1.0000 0.50076  0.86272  0.96995  Biso   1.000  O
  O13      1.0000 0.25095  0.63191  0.50756  Biso   1.000  O
  O14      1.0000 0.23148  0.68891  0.02483  Biso   1.000  O
  O15      1.0000 0.27383  0.93648  0.06026  Biso   1.000  O
  O16      1.0000 0.24417  0.87217  0.54879  Biso   1.000  O
  Zr9      1.0000 0.64562  0.97620  0.19378  Biso   1.000  Zr
  Zr10     1.0000 0.61953  0.25520  0.77253  Biso   1.000  Zr
  Zr11     1.0000 0.84930  0.24454  0.23481  Biso   1.000  Zr
  Zr12     1.0000 0.87649  0.47940  0.69510  Biso   1.000  Zr
  O17      1.0000 0.50899  0.14261  0.54658  Biso   1.000  O
  O18      1.0000 0.51487  0.11264  0.03835  Biso   1.000  O
  O19      1.0000 0.00217  0.39066  0.40538  Biso   1.000  O
  O20      1.0000 0.96624  0.32490  0.88391  Biso   1.000  O
  O21      1.0000 0.76192  0.07279  0.44146  Biso   1.000  O
  O22      1.0000 0.76227  0.12864  0.95531  Biso   1.000  O
  O23      1.0000 0.73675  0.38539  0.00879  Biso   1.000  O
  O24      1.0000 0.76366  0.32374  0.53561  Biso   1.000  O
  Zr13     1.0000 0.60728  0.51364  0.17721  Biso   1.000  Zr
  Zr14     1.0000 0.60485  0.75750  0.71349  Biso   1.000  Zr
  Zr15     1.0000 0.85857  0.72266  0.18793  Biso   1.000  Zr
  Zr16     1.0000 0.89154  0.00779  0.72920  Biso   1.000  Zr
  O25      1.0000 0.50145  0.64402  0.42871  Biso   1.000  O
  O26      1.0000 0.48639  0.61485  0.92157  Biso   1.000  O
  O27      1.0000 0.98361  0.87512  0.51628  Biso   1.000  O
  O28      1.0000 0.00666  0.84521  0.01411  Biso   1.000  O
  O29      1.0000 0.76132  0.56640  0.40341  Biso   1.000  O
  O30      1.0000 0.73810  0.63436  0.91755  Biso   1.000  O
  O31      1.0000 0.75331  0.87948  0.92008  Biso   1.000  O
  O32      1.0000 0.72605  0.81503  0.40261  Biso   1.000  O
  Ce1      1.0000 0.13393  0.25845  0.14380  Biso   1.000  Ce
