data_image0
_cell_length_a       10.2291
_cell_length_b       5.22587
_cell_length_c       10.7418
_cell_angle_alpha    89.9149
_cell_angle_beta     78.726
_cell_angle_gamma    91.0286

_symmetry_space_group_name_H-M    "P 1"
_symmetry_int_tables_number       1

loop_
  _symmetry_equiv_pos_as_xyz
  'x, y, z'

loop_
  _atom_site_label
  _atom_site_occupancy
  _atom_site_fract_x
  _atom_site_fract_y
  _atom_site_fract_z
  _atom_site_thermal_displace_type
  _atom_site_B_iso_or_equiv
  _atom_site_type_symbol
  Zr1      1.0000 0.13497  0.04603  0.14816  Biso   1.000  Zr
  Zr2      1.0000 0.13703  0.46492  0.39481  Biso   1.000  Zr
  Zr3      1.0000 0.34130  0.55352  0.07798  Biso   1.000  Zr
  Zr4      1.0000 0.35151  0.96144  0.35460  Biso   1.000  Zr
  O1       1.0000 0.02950  0.33363  0.07751  Biso   1.000  O
  O2       1.0000 0.03342  0.16491  0.32972  Biso   1.000  O
  O3       1.0000 0.45472  0.85869  0.16462  Biso   1.000  O
  O4       1.0000 0.47651  0.69245  0.44487  Biso   1.000  O
  O5       1.0000 0.27679  0.26354  0.23857  Biso   1.000  O
  O6       1.0000 0.28127  0.26582  0.48545  Biso   1.000  O
  O7       1.0000 0.20884  0.77510  0.99961  Biso   1.000  O
  O8       1.0000 0.21144  0.74097  0.25027  Biso   1.000  O
  Zr5      1.0000 0.13846  0.04921  0.64367  Biso   1.000  Zr
  Zr6      1.0000 0.12898  0.45690  0.89258  Biso   1.000  Zr
  Zr7      1.0000 0.36032  0.55136  0.60873  Biso   1.000  Zr
  Zr8      1.0000 0.35449  0.96412  0.85028  Biso   1.000  Zr
  O9       1.0000 0.03582  0.33566  0.57976  Biso   1.000  O
  O10      1.0000 0.02958  0.16690  0.82673  Biso   1.000  O
  O11      1.0000 0.46693  0.83052  0.67956  Biso   1.000  O
  O12      1.0000 0.46310  0.67748  0.91583  Biso   1.000  O
  O13      1.0000 0.27292  0.25609  0.73830  Biso   1.000  O
  O14      1.0000 0.26629  0.24802  0.98408  Biso   1.000  O
  O15      1.0000 0.22016  0.76666  0.51109  Biso   1.000  O
  O16      1.0000 0.22071  0.74237  0.75620  Biso   1.000  O
  Zr9      1.0000 0.64329  0.02756  0.15111  Biso   1.000  Zr
  Zr10     1.0000 0.65702  0.44775  0.42237  Biso   1.000  Zr
  Zr11     1.0000 0.85674  0.53451  0.10848  Biso   1.000  Zr
  Zr12     1.0000 0.85891  0.95230  0.35612  Biso   1.000  Zr
  O17      1.0000 0.52230  0.32864  0.06961  Biso   1.000  O
  O18      1.0000 0.54536  0.12413  0.34126  Biso   1.000  O
  O19      1.0000 0.95808  0.83223  0.17542  Biso   1.000  O
  O20      1.0000 0.96445  0.66690  0.42644  Biso   1.000  O
  O21      1.0000 0.78283  0.25151  0.24972  Biso   1.000  O
  O22      1.0000 0.78651  0.22719  0.50346  Biso   1.000  O
  O23      1.0000 0.72000  0.74744  0.01394  Biso   1.000  O
  O24      1.0000 0.71053  0.72293  0.26314  Biso   1.000  O
  Zr13     1.0000 0.64018  0.04013  0.65455  Biso   1.000  Zr
  Zr14     1.0000 0.63518  0.45350  0.89850  Biso   1.000  Zr
  Zr15     1.0000 0.86589  0.54533  0.61193  Biso   1.000  Zr
  Zr16     1.0000 0.85682  0.95411  0.86001  Biso   1.000  Zr
  O25      1.0000 0.53443  0.32768  0.58799  Biso   1.000  O
  O26      1.0000 0.52895  0.17334  0.82843  Biso   1.000  O
  O27      1.0000 0.96632  0.83392  0.67761  Biso   1.000  O
  O28      1.0000 0.95941  0.66402  0.92376  Biso   1.000  O
  O29      1.0000 0.77490  0.25967  0.74865  Biso   1.000  O
  O30      1.0000 0.77158  0.23751  0.99619  Biso   1.000  O
  O31      1.0000 0.72857  0.75338  0.51951  Biso   1.000  O
  O32      1.0000 0.72295  0.74480  0.76555  Biso   1.000  O
  Ce1      1.0000 0.47504  0.48340  0.26827  Biso   1.000  Ce
