data_image0
_cell_length_a       10.1953
_cell_length_b       5.27247
_cell_length_c       10.2111
_cell_angle_alpha    89.59
_cell_angle_beta     89.9697
_cell_angle_gamma    89.4669

_symmetry_space_group_name_H-M    "P 1"
_symmetry_int_tables_number       1

loop_
  _symmetry_equiv_pos_as_xyz
  'x, y, z'

loop_
  _atom_site_label
  _atom_site_occupancy
  _atom_site_fract_x
  _atom_site_fract_y
  _atom_site_fract_z
  _atom_site_thermal_displace_type
  _atom_site_B_iso_or_equiv
  _atom_site_type_symbol
  Zr1      1.0000 0.13288  0.01901  0.12353  Biso   1.000  Zr
  Zr2      1.0000 0.13174  0.46134  0.38733  Biso   1.000  Zr
  Zr3      1.0000 0.38663  0.53926  0.11131  Biso   1.000  Zr
  Zr4      1.0000 0.36601  0.97895  0.36959  Biso   1.000  Zr
  O1       1.0000 0.98900  0.28440  0.24438  Biso   1.000  O
  O2       1.0000 0.03278  0.13298  0.46599  Biso   1.000  O
  O3       1.0000 0.46818  0.87106  0.19632  Biso   1.000  O
  O4       1.0000 0.47321  0.65412  0.44863  Biso   1.000  O
  O5       1.0000 0.25648  0.23936  0.24350  Biso   1.000  O
  O6       1.0000 0.27466  0.26662  0.49495  Biso   1.000  O
  O7       1.0000 0.23776  0.77099  0.49559  Biso   1.000  O
  O8       1.0000 0.24396  0.73146  0.25115  Biso   1.000  O
  Zr5      1.0000 0.13804  0.01541  0.62410  Biso   1.000  Zr
  Zr6      1.0000 0.12607  0.48955  0.83763  Biso   1.000  Zr
  Zr7      1.0000 0.37669  0.53513  0.61675  Biso   1.000  Zr
  Zr8      1.0000 0.36943  0.99125  0.86979  Biso   1.000  Zr
  O9       1.0000 0.01798  0.31803  0.69953  Biso   1.000  O
  O10      1.0000 0.02323  0.15639  0.96320  Biso   1.000  O
  O11      1.0000 0.47633  0.86895  0.69676  Biso   1.000  O
  O12      1.0000 0.47722  0.66458  0.94287  Biso   1.000  O
  O13      1.0000 0.26420  0.23441  0.73752  Biso   1.000  O
  O14      1.0000 0.26819  0.28895  0.98355  Biso   1.000  O
  O15      1.0000 0.23924  0.79389  0.98813  Biso   1.000  O
  O16      1.0000 0.24973  0.73381  0.74118  Biso   1.000  O
  Zr9      1.0000 0.62841  0.02909  0.12188  Biso   1.000  Zr
  Zr10     1.0000 0.63303  0.47075  0.37624  Biso   1.000  Zr
  Zr11     1.0000 0.84055  0.51364  0.12593  Biso   1.000  Zr
  Zr12     1.0000 0.87965  0.98286  0.36478  Biso   1.000  Zr
  O17      1.0000 0.53033  0.36036  0.20592  Biso   1.000  O
  O18      1.0000 0.53136  0.14770  0.45062  Biso   1.000  O
  O19      1.0000 0.97161  0.81058  0.20461  Biso   1.000  O
  O20      1.0000 0.97454  0.65247  0.46122  Biso   1.000  O
  O21      1.0000 0.75206  0.21665  0.24748  Biso   1.000  O
  O22      1.0000 0.77030  0.27991  0.49441  Biso   1.000  O
  O23      1.0000 0.73935  0.78014  0.49598  Biso   1.000  O
  O24      1.0000 0.72695  0.73130  0.24901  Biso   1.000  O
  Zr13     1.0000 0.63691  0.02843  0.61866  Biso   1.000  Zr
  Zr14     1.0000 0.63555  0.47276  0.86758  Biso   1.000  Zr
  Zr15     1.0000 0.86496  0.52953  0.62041  Biso   1.000  Zr
  Zr16     1.0000 0.87070  0.96854  0.87666  Biso   1.000  Zr
  O25      1.0000 0.53495  0.36580  0.69849  Biso   1.000  O
  O26      1.0000 0.52591  0.16612  0.95340  Biso   1.000  O
  O27      1.0000 0.99397  0.81257  0.72169  Biso   1.000  O
  O28      1.0000 0.96136  0.63985  0.95164  Biso   1.000  O
  O29      1.0000 0.76700  0.22073  0.74516  Biso   1.000  O
  O30      1.0000 0.76187  0.26395  0.99314  Biso   1.000  O
  O31      1.0000 0.72883  0.77149  0.99600  Biso   1.000  O
  O32      1.0000 0.74118  0.72860  0.74553  Biso   1.000  O
  Ce1      1.0000 0.11299  0.51451  0.10804  Biso   1.000  Ce
