data_image0
_cell_length_a       9.90736
_cell_length_b       10.3633
_cell_length_c       4.98511
_cell_angle_alpha    90.7265
_cell_angle_beta     89.0934
_cell_angle_gamma    90.4379

_symmetry_space_group_name_H-M    "P 1"
_symmetry_int_tables_number       1

loop_
  _symmetry_equiv_pos_as_xyz
  'x, y, z'

loop_
  _atom_site_label
  _atom_site_occupancy
  _atom_site_fract_x
  _atom_site_fract_y
  _atom_site_fract_z
  _atom_site_thermal_displace_type
  _atom_site_B_iso_or_equiv
  _atom_site_type_symbol
  Co1      1.0000 0.12570  0.03991  0.21199  Biso   1.000  Co
  Hf1      1.0000 0.13482  0.51466  0.25279  Biso   1.000  Hf
  Hf2      1.0000 0.63043  0.01508  0.24379  Biso   1.000  Hf
  Hf3      1.0000 0.63403  0.51882  0.25465  Biso   1.000  Hf
  Hf4      1.0000 0.13173  0.23204  0.74078  Biso   1.000  Hf
  Hf5      1.0000 0.13425  0.73310  0.76443  Biso   1.000  Hf
  Hf6      1.0000 0.63168  0.23307  0.74931  Biso   1.000  Hf
  Hf7      1.0000 0.63436  0.73722  0.75291  Biso   1.000  Hf
  Hf8      1.0000 0.36512  0.26331  0.24898  Biso   1.000  Hf
  Hf9      1.0000 0.36544  0.76747  0.26473  Biso   1.000  Hf
  Hf10     1.0000 0.86370  0.26592  0.24308  Biso   1.000  Hf
  Hf11     1.0000 0.87578  0.76880  0.24105  Biso   1.000  Hf
  Hf12     1.0000 0.36656  0.48441  0.75237  Biso   1.000  Hf
  Hf13     1.0000 0.35701  0.98143  0.76209  Biso   1.000  Hf
  Hf14     1.0000 0.86378  0.48491  0.74858  Biso   1.000  Hf
  Hf15     1.0000 0.86811  0.98784  0.73771  Biso   1.000  Hf
  O1       1.0000 0.03603  0.18205  0.37307  Biso   1.000  O
  O2       1.0000 0.03763  0.68490  0.39376  Biso   1.000  O
  O3       1.0000 0.53149  0.18305  0.39454  Biso   1.000  O
  O4       1.0000 0.53509  0.68401  0.40033  Biso   1.000  O
  O5       1.0000 0.03459  0.06491  0.90274  Biso   1.000  O
  O6       1.0000 0.03272  0.56459  0.89748  Biso   1.000  O
  O7       1.0000 0.52946  0.06990  0.89934  Biso   1.000  O
  O8       1.0000 0.53703  0.56774  0.89161  Biso   1.000  O
  O9       1.0000 0.46367  0.43256  0.38725  Biso   1.000  O
  O10      1.0000 0.47111  0.93145  0.41175  Biso   1.000  O
  O11      1.0000 0.96441  0.43065  0.38820  Biso   1.000  O
  O12      1.0000 0.98948  0.94426  0.37580  Biso   1.000  O
  O13      1.0000 0.46035  0.31504  0.88782  Biso   1.000  O
  O14      1.0000 0.46522  0.82096  0.90864  Biso   1.000  O
  O15      1.0000 0.96020  0.31330  0.87499  Biso   1.000  O
  O16      1.0000 0.96198  0.81945  0.87543  Biso   1.000  O
  O17      1.0000 0.25607  0.10390  0.48749  Biso   1.000  O
  O18      1.0000 0.26808  0.60946  0.50380  Biso   1.000  O
  O19      1.0000 0.76826  0.11703  0.48805  Biso   1.000  O
  O20      1.0000 0.77201  0.61783  0.49949  Biso   1.000  O
  O21      1.0000 0.25977  0.13331  0.00054  Biso   1.000  O
  O22      1.0000 0.27082  0.63482  0.00492  Biso   1.000  O
  O23      1.0000 0.76940  0.13353  0.98705  Biso   1.000  O
  O24      1.0000 0.77007  0.63675  0.00117  Biso   1.000  O
  O25      1.0000 0.22718  0.38235  0.99578  Biso   1.000  O
  O26      1.0000 0.22139  0.89449  0.04580  Biso   1.000  O
  O27      1.0000 0.72807  0.38328  0.99856  Biso   1.000  O
  O28      1.0000 0.73153  0.88660  0.98922  Biso   1.000  O
  O29      1.0000 0.23035  0.36270  0.49689  Biso   1.000  O
  O30      1.0000 0.24696  0.85016  0.54591  Biso   1.000  O
  O31      1.0000 0.72725  0.36749  0.49657  Biso   1.000  O
  O32      1.0000 0.74180  0.86751  0.48864  Biso   1.000  O
