data_image0
_cell_length_a       9.99465
_cell_length_b       5.20941
_cell_length_c       10.0419
_cell_angle_alpha    89.7441
_cell_angle_beta     90.2007
_cell_angle_gamma    90.0441

_symmetry_space_group_name_H-M    "P 1"
_symmetry_int_tables_number       1

loop_
  _symmetry_equiv_pos_as_xyz
  'x, y, z'

loop_
  _atom_site_label
  _atom_site_occupancy
  _atom_site_fract_x
  _atom_site_fract_y
  _atom_site_fract_z
  _atom_site_thermal_displace_type
  _atom_site_B_iso_or_equiv
  _atom_site_type_symbol
  Hf1      1.0000 0.13438  0.07530  0.12019  Biso   1.000  Hf
  Hf2      1.0000 0.13632  0.46576  0.38402  Biso   1.000  Hf
  Hf3      1.0000 0.36426  0.53178  0.12369  Biso   1.000  Hf
  Hf4      1.0000 0.36625  0.96637  0.37515  Biso   1.000  Hf
  O1       1.0000 0.01867  0.35615  0.21517  Biso   1.000  O
  O2       1.0000 0.03590  0.13183  0.45026  Biso   1.000  O
  O3       1.0000 0.46134  0.86637  0.19444  Biso   1.000  O
  O4       1.0000 0.46384  0.62996  0.44377  Biso   1.000  O
  O5       1.0000 0.27129  0.24367  0.25307  Biso   1.000  O
  O6       1.0000 0.27219  0.26146  0.50141  Biso   1.000  O
  O7       1.0000 0.23179  0.76436  0.50077  Biso   1.000  O
  O8       1.0000 0.22578  0.73784  0.25035  Biso   1.000  O
  Hf5      1.0000 0.13471  0.02776  0.62761  Biso   1.000  Hf
  Hf6      1.0000 0.14094  0.45806  0.87226  Biso   1.000  Hf
  Hf7      1.0000 0.36965  0.52971  0.62515  Biso   1.000  Hf
  Hf8      1.0000 0.37125  0.95972  0.87326  Biso   1.000  Hf
  O9       1.0000 0.03770  0.36326  0.69321  Biso   1.000  O
  O10      1.0000 0.03837  0.12972  0.93972  Biso   1.000  O
  O11      1.0000 0.46866  0.86296  0.69257  Biso   1.000  O
  O12      1.0000 0.46765  0.62801  0.94399  Biso   1.000  O
  O13      1.0000 0.27315  0.22840  0.74763  Biso   1.000  O
  O14      1.0000 0.28635  0.25085  0.99264  Biso   1.000  O
  O15      1.0000 0.23191  0.76735  0.99925  Biso   1.000  O
  O16      1.0000 0.23492  0.72979  0.74873  Biso   1.000  O
  Hf9      1.0000 0.63024  0.03034  0.12548  Biso   1.000  Hf
  Hf10     1.0000 0.63216  0.46283  0.37651  Biso   1.000  Hf
  Hf11     1.0000 0.85112  0.53032  0.12748  Biso   1.000  Hf
  Hf12     1.0000 0.86846  0.96735  0.37491  Biso   1.000  Hf
  O17      1.0000 0.53460  0.36337  0.19420  Biso   1.000  O
  O18      1.0000 0.53522  0.12913  0.44558  Biso   1.000  O
  O19      1.0000 0.96122  0.87129  0.19289  Biso   1.000  O
  O20      1.0000 0.96695  0.63704  0.44826  Biso   1.000  O
  O21      1.0000 0.76416  0.23011  0.25092  Biso   1.000  O
  O22      1.0000 0.77101  0.26527  0.49921  Biso   1.000  O
  O23      1.0000 0.73187  0.76448  0.49941  Biso   1.000  O
  O24      1.0000 0.72488  0.73564  0.25159  Biso   1.000  O
  Hf13     1.0000 0.63769  0.02914  0.62503  Biso   1.000  Hf
  Hf14     1.0000 0.63504  0.46139  0.87379  Biso   1.000  Hf
  Hf15     1.0000 0.86819  0.53024  0.62579  Biso   1.000  Hf
  Hf16     1.0000 0.86716  0.96088  0.87671  Biso   1.000  Hf
  O25      1.0000 0.53911  0.36406  0.69316  Biso   1.000  O
  O26      1.0000 0.54156  0.12495  0.94053  Biso   1.000  O
  O27      1.0000 0.96742  0.86014  0.69972  Biso   1.000  O
  O28      1.0000 0.96775  0.62801  0.95043  Biso   1.000  O
  O29      1.0000 0.77362  0.22990  0.74960  Biso   1.000  O
  O30      1.0000 0.77127  0.25909  0.99967  Biso   1.000  O
  O31      1.0000 0.72809  0.75978  0.99979  Biso   1.000  O
  O32      1.0000 0.73284  0.73046  0.74996  Biso   1.000  O
  Co1      1.0000 0.09638  0.61066  0.10780  Biso   1.000  Co
