data_image0
_cell_length_a       10.0516
_cell_length_b       5.11889
_cell_length_c       10.4509
_cell_angle_alpha    90.0937
_cell_angle_beta     90.8101
_cell_angle_gamma    89.2913

_symmetry_space_group_name_H-M    "P 1"
_symmetry_int_tables_number       1

loop_
  _symmetry_equiv_pos_as_xyz
  'x, y, z'

loop_
  _atom_site_label
  _atom_site_occupancy
  _atom_site_fract_x
  _atom_site_fract_y
  _atom_site_fract_z
  _atom_site_thermal_displace_type
  _atom_site_B_iso_or_equiv
  _atom_site_type_symbol
  Co1      1.0000 0.12088  0.02471  0.19350  Biso   1.000  Co
  Zr1      1.0000 0.13827  0.04066  0.66839  Biso   1.000  Zr
  Zr2      1.0000 0.13696  0.46042  0.41470  Biso   1.000  Zr
  Zr3      1.0000 0.14585  0.45846  0.92176  Biso   1.000  Zr
  Zr4      1.0000 0.35255  0.55598  0.16563  Biso   1.000  Zr
  Zr5      1.0000 0.36142  0.54569  0.66964  Biso   1.000  Zr
  Zr6      1.0000 0.35592  0.96506  0.41611  Biso   1.000  Zr
  Zr7      1.0000 0.36007  0.96622  0.92359  Biso   1.000  Zr
  Zr8      1.0000 0.63991  0.04330  0.07823  Biso   1.000  Zr
  Zr9      1.0000 0.63567  0.03985  0.58101  Biso   1.000  Zr
  Zr10     1.0000 0.63310  0.45622  0.32779  Biso   1.000  Zr
  Zr11     1.0000 0.64037  0.46119  0.83162  Biso   1.000  Zr
  Zr12     1.0000 0.87124  0.52939  0.08515  Biso   1.000  Zr
  Zr13     1.0000 0.85856  0.53651  0.58160  Biso   1.000  Zr
  Zr14     1.0000 0.85549  0.95433  0.33296  Biso   1.000  Zr
  Zr15     1.0000 0.86535  0.95442  0.83348  Biso   1.000  Zr
  O1       1.0000 0.05061  0.29958  0.09651  Biso   1.000  O
  O2       1.0000 0.02987  0.31816  0.57566  Biso   1.000  O
  O3       1.0000 0.03396  0.15326  0.33208  Biso   1.000  O
  O4       1.0000 0.03507  0.17306  0.83372  Biso   1.000  O
  O5       1.0000 0.46853  0.83955  0.08585  Biso   1.000  O
  O6       1.0000 0.46143  0.84549  0.58529  Biso   1.000  O
  O7       1.0000 0.45485  0.65321  0.33887  Biso   1.000  O
  O8       1.0000 0.46812  0.66979  0.83397  Biso   1.000  O
  O9       1.0000 0.26318  0.24101  0.27826  Biso   1.000  O
  O10      1.0000 0.27593  0.24451  0.78549  Biso   1.000  O
  O11      1.0000 0.30262  0.30768  0.02288  Biso   1.000  O
  O12      1.0000 0.27484  0.25724  0.53713  Biso   1.000  O
  O13      1.0000 0.21053  0.76231  0.29053  Biso   1.000  O
  O14      1.0000 0.22495  0.74652  0.79642  Biso   1.000  O
  O15      1.0000 0.21653  0.79875  0.05091  Biso   1.000  O
  O16      1.0000 0.22098  0.75234  0.54130  Biso   1.000  O
  O17      1.0000 0.53498  0.34497  0.16159  Biso   1.000  O
  O18      1.0000 0.53597  0.34483  0.66086  Biso   1.000  O
  O19      1.0000 0.53193  0.15620  0.40926  Biso   1.000  O
  O20      1.0000 0.54044  0.15870  0.91028  Biso   1.000  O
  O21      1.0000 0.97579  0.82766  0.17166  Biso   1.000  O
  O22      1.0000 0.96938  0.81791  0.67124  Biso   1.000  O
  O23      1.0000 0.96179  0.66023  0.41619  Biso   1.000  O
  O24      1.0000 0.97102  0.66226  0.92660  Biso   1.000  O
  O25      1.0000 0.78272  0.24696  0.95935  Biso   1.000  O
  O26      1.0000 0.77260  0.24425  0.45647  Biso   1.000  O
  O27      1.0000 0.77743  0.24591  0.20709  Biso   1.000  O
  O28      1.0000 0.77739  0.24872  0.70775  Biso   1.000  O
  O29      1.0000 0.72972  0.74409  0.95915  Biso   1.000  O
  O30      1.0000 0.71972  0.74398  0.45750  Biso   1.000  O
  O31      1.0000 0.73030  0.74540  0.20695  Biso   1.000  O
  O32      1.0000 0.72519  0.75306  0.70806  Biso   1.000  O
