data_image0
_cell_length_a       9.98135
_cell_length_b       10.4188
_cell_length_c       5.01861
_cell_angle_alpha    90.7607
_cell_angle_beta     89.0042
_cell_angle_gamma    90.4657

_symmetry_space_group_name_H-M    "P 1"
_symmetry_int_tables_number       1

loop_
  _symmetry_equiv_pos_as_xyz
  'x, y, z'

loop_
  _atom_site_label
  _atom_site_occupancy
  _atom_site_fract_x
  _atom_site_fract_y
  _atom_site_fract_z
  _atom_site_thermal_displace_type
  _atom_site_B_iso_or_equiv
  _atom_site_type_symbol
  Co1      1.0000 0.12546  0.04062  0.21234  Biso   1.000  Co
  Zr1      1.0000 0.13503  0.51387  0.25213  Biso   1.000  Zr
  Zr2      1.0000 0.62988  0.01372  0.24223  Biso   1.000  Zr
  Zr3      1.0000 0.63393  0.51847  0.25357  Biso   1.000  Zr
  Zr4      1.0000 0.13132  0.23285  0.73968  Biso   1.000  Zr
  Zr5      1.0000 0.13431  0.73416  0.76468  Biso   1.000  Zr
  Zr6      1.0000 0.63162  0.23397  0.74864  Biso   1.000  Zr
  Zr7      1.0000 0.63436  0.73888  0.75147  Biso   1.000  Zr
  Zr8      1.0000 0.36609  0.26222  0.24712  Biso   1.000  Zr
  Zr9      1.0000 0.36587  0.76689  0.26488  Biso   1.000  Zr
  Zr10     1.0000 0.86380  0.26507  0.24161  Biso   1.000  Zr
  Zr11     1.0000 0.87690  0.76773  0.23865  Biso   1.000  Zr
  Zr12     1.0000 0.36718  0.48553  0.75138  Biso   1.000  Zr
  Zr13     1.0000 0.35647  0.98277  0.76318  Biso   1.000  Zr
  Zr14     1.0000 0.86407  0.48611  0.74695  Biso   1.000  Zr
  Zr15     1.0000 0.86931  0.98928  0.73490  Biso   1.000  Zr
  O1       1.0000 0.03511  0.18081  0.37395  Biso   1.000  O
  O2       1.0000 0.03684  0.68440  0.39519  Biso   1.000  O
  O3       1.0000 0.52947  0.18178  0.39929  Biso   1.000  O
  O4       1.0000 0.53402  0.68312  0.40310  Biso   1.000  O
  O5       1.0000 0.03319  0.06506  0.90831  Biso   1.000  O
  O6       1.0000 0.03137  0.56586  0.89988  Biso   1.000  O
  O7       1.0000 0.52667  0.07234  0.90527  Biso   1.000  O
  O8       1.0000 0.53596  0.56940  0.89349  Biso   1.000  O
  O9       1.0000 0.46493  0.43188  0.38872  Biso   1.000  O
  O10      1.0000 0.47356  0.93012  0.41846  Biso   1.000  O
  O11      1.0000 0.96561  0.42970  0.38891  Biso   1.000  O
  O12      1.0000 0.99325  0.94423  0.37594  Biso   1.000  O
  O13      1.0000 0.46183  0.31686  0.89021  Biso   1.000  O
  O14      1.0000 0.46657  0.82294  0.91338  Biso   1.000  O
  O15      1.0000 0.96088  0.31370  0.87481  Biso   1.000  O
  O16      1.0000 0.96251  0.82027  0.87495  Biso   1.000  O
  O17      1.0000 0.25338  0.10149  0.48515  Biso   1.000  O
  O18      1.0000 0.26692  0.60886  0.50286  Biso   1.000  O
  O19      1.0000 0.76680  0.11631  0.48545  Biso   1.000  O
  O20      1.0000 0.77100  0.61720  0.49721  Biso   1.000  O
  O21      1.0000 0.25758  0.13439  0.99977  Biso   1.000  O
  O22      1.0000 0.27000  0.63576  0.00405  Biso   1.000  O
  O23      1.0000 0.76791  0.13448  0.98458  Biso   1.000  O
  O24      1.0000 0.76878  0.63804  0.99863  Biso   1.000  O
  O25      1.0000 0.22816  0.38344  0.99326  Biso   1.000  O
  O26      1.0000 0.22172  0.89604  0.04728  Biso   1.000  O
  O27      1.0000 0.72945  0.38441  0.99652  Biso   1.000  O
  O28      1.0000 0.73271  0.88803  0.98529  Biso   1.000  O
  O29      1.0000 0.23198  0.36135  0.49463  Biso   1.000  O
  O30      1.0000 0.24879  0.84944  0.54683  Biso   1.000  O
  O31      1.0000 0.72846  0.36676  0.49438  Biso   1.000  O
  O32      1.0000 0.74430  0.86691  0.48530  Biso   1.000  O
