data_image0
_cell_length_a       10.1834
_cell_length_b       10.3075
_cell_length_c       5.29817
_cell_angle_alpha    89.4821
_cell_angle_beta     90.9924
_cell_angle_gamma    89.831

_symmetry_space_group_name_H-M    "P 1"
_symmetry_int_tables_number       1

loop_
  _symmetry_equiv_pos_as_xyz
  'x, y, z'

loop_
  _atom_site_label
  _atom_site_occupancy
  _atom_site_fract_x
  _atom_site_fract_y
  _atom_site_fract_z
  _atom_site_thermal_displace_type
  _atom_site_B_iso_or_equiv
  _atom_site_type_symbol
  Zr1      1.0000 0.14048  0.01918  0.34092  Biso   1.000  Zr
  Zr2      1.0000 0.13974  0.22694  0.83938  Biso   1.000  Zr
  Zr3      1.0000 0.35512  0.26954  0.35411  Biso   1.000  Zr
  Zr4      1.0000 0.36148  0.47913  0.84470  Biso   1.000  Zr
  Zr5      1.0000 0.63955  0.01820  0.14341  Biso   1.000  Zr
  Zr6      1.0000 0.63809  0.22728  0.69233  Biso   1.000  Zr
  Zr7      1.0000 0.87280  0.27046  0.15646  Biso   1.000  Zr
  Zr8      1.0000 0.86553  0.48139  0.65805  Biso   1.000  Zr
  O1       1.0000 0.03528  0.15685  0.14803  Biso   1.000  O
  O2       1.0000 0.02947  0.09316  0.64348  Biso   1.000  O
  O3       1.0000 0.47608  0.40441  0.16523  Biso   1.000  O
  O4       1.0000 0.46535  0.33621  0.67305  Biso   1.000  O
  O5       1.0000 0.27180  0.12311  0.59333  Biso   1.000  O
  O6       1.0000 0.27506  0.12410  0.08954  Biso   1.000  O
  O7       1.0000 0.22311  0.37476  0.59484  Biso   1.000  O
  O8       1.0000 0.22640  0.37638  0.09207  Biso   1.000  O
  O9       1.0000 0.51247  0.14576  0.34881  Biso   1.000  O
  O10      1.0000 0.52910  0.07737  0.83145  Biso   1.000  O
  O11      1.0000 0.97198  0.41325  0.34291  Biso   1.000  O
  O12      1.0000 0.97167  0.34113  0.83903  Biso   1.000  O
  O13      1.0000 0.79086  0.11632  0.89356  Biso   1.000  O
  O14      1.0000 0.75538  0.14149  0.38995  Biso   1.000  O
  O15      1.0000 0.72222  0.37039  0.94490  Biso   1.000  O
  O16      1.0000 0.72624  0.38357  0.43223  Biso   1.000  O
  Zr9      1.0000 0.13959  0.52205  0.34233  Biso   1.000  Zr
  Zr10     1.0000 0.13889  0.72859  0.84294  Biso   1.000  Zr
  Zr11     1.0000 0.36219  0.77044  0.34641  Biso   1.000  Zr
  Zr12     1.0000 0.36074  0.97474  0.84654  Biso   1.000  Zr
  Zr13     1.0000 0.64282  0.53039  0.15763  Biso   1.000  Zr
  Zr14     1.0000 0.63994  0.73007  0.65443  Biso   1.000  Zr
  Zr15     1.0000 0.86374  0.77377  0.15478  Biso   1.000  Zr
  Zr16     1.0000 0.86347  0.97862  0.65097  Biso   1.000  Zr
  O17      1.0000 0.03201  0.66186  0.15520  Biso   1.000  O
  O18      1.0000 0.03172  0.59100  0.65483  Biso   1.000  O
  O19      1.0000 0.46839  0.90573  0.15779  Biso   1.000  O
  O20      1.0000 0.46923  0.83635  0.65967  Biso   1.000  O
  O21      1.0000 0.27464  0.62290  0.59372  Biso   1.000  O
  O22      1.0000 0.27616  0.62412  0.09273  Biso   1.000  O
  O23      1.0000 0.22528  0.87243  0.59271  Biso   1.000  O
  O24      1.0000 0.22372  0.87363  0.09284  Biso   1.000  O
  O25      1.0000 0.52952  0.65940  0.34751  Biso   1.000  O
  O26      1.0000 0.53113  0.58962  0.84364  Biso   1.000  O
  O27      1.0000 0.97023  0.91325  0.33241  Biso   1.000  O
  O28      1.0000 0.97051  0.84067  0.83551  Biso   1.000  O
  O29      1.0000 0.77822  0.62388  0.90327  Biso   1.000  O
  O30      1.0000 0.77853  0.63215  0.40625  Biso   1.000  O
  O31      1.0000 0.72662  0.87141  0.90641  Biso   1.000  O
  O32      1.0000 0.72823  0.87793  0.40823  Biso   1.000  O
  Cr1      1.0000 0.61796  0.27483  0.22001  Biso   1.000  Cr
