data_image0
_cell_length_a       10.3055
_cell_length_b       5.19612
_cell_length_c       10.5448
_cell_angle_alpha    90.2515
_cell_angle_beta     79.5475
_cell_angle_gamma    90.0265

_symmetry_space_group_name_H-M    "P 1"
_symmetry_int_tables_number       1

loop_
  _symmetry_equiv_pos_as_xyz
  'x, y, z'

loop_
  _atom_site_label
  _atom_site_occupancy
  _atom_site_fract_x
  _atom_site_fract_y
  _atom_site_fract_z
  _atom_site_thermal_displace_type
  _atom_site_B_iso_or_equiv
  _atom_site_type_symbol
  Zr1      1.0000 0.13527  0.04461  0.14484  Biso   1.000  Zr
  Zr2      1.0000 0.12746  0.45167  0.39486  Biso   1.000  Zr
  Zr3      1.0000 0.35779  0.54786  0.10787  Biso   1.000  Zr
  Zr4      1.0000 0.35748  0.93324  0.34385  Biso   1.000  Zr
  O1       1.0000 0.02976  0.33712  0.07529  Biso   1.000  O
  O2       1.0000 0.02746  0.16716  0.32258  Biso   1.000  O
  O3       1.0000 0.46405  0.85363  0.16020  Biso   1.000  O
  O4       1.0000 0.48888  0.70351  0.42552  Biso   1.000  O
  O5       1.0000 0.27723  0.26125  0.24925  Biso   1.000  O
  O6       1.0000 0.26932  0.20711  0.49071  Biso   1.000  O
  O7       1.0000 0.22270  0.76044  0.00694  Biso   1.000  O
  O8       1.0000 0.20700  0.75132  0.25244  Biso   1.000  O
  Zr5      1.0000 0.13831  0.04036  0.64820  Biso   1.000  Zr
  Zr6      1.0000 0.13730  0.46255  0.89766  Biso   1.000  Zr
  Zr7      1.0000 0.36783  0.53801  0.61696  Biso   1.000  Zr
  Zr8      1.0000 0.36079  0.95973  0.85821  Biso   1.000  Zr
  O9       1.0000 0.03089  0.32898  0.57784  Biso   1.000  O
  O10      1.0000 0.03341  0.17273  0.82414  Biso   1.000  O
  O11      1.0000 0.46788  0.83602  0.67825  Biso   1.000  O
  O12      1.0000 0.46376  0.66574  0.92137  Biso   1.000  O
  O13      1.0000 0.27451  0.25788  0.74585  Biso   1.000  O
  O14      1.0000 0.27292  0.24694  0.99527  Biso   1.000  O
  O15      1.0000 0.24597  0.69970  0.49597  Biso   1.000  O
  O16      1.0000 0.22178  0.75089  0.75955  Biso   1.000  O
  Zr9      1.0000 0.63853  0.05115  0.14228  Biso   1.000  Zr
  Zr10     1.0000 0.64705  0.45816  0.39883  Biso   1.000  Zr
  Zr11     1.0000 0.85911  0.54730  0.10287  Biso   1.000  Zr
  Zr12     1.0000 0.85901  0.95619  0.35256  Biso   1.000  Zr
  O17      1.0000 0.53480  0.34532  0.08020  Biso   1.000  O
  O18      1.0000 0.52586  0.19053  0.32482  Biso   1.000  O
  O19      1.0000 0.96234  0.83889  0.16679  Biso   1.000  O
  O20      1.0000 0.96210  0.67222  0.42188  Biso   1.000  O
  O21      1.0000 0.77336  0.25950  0.23961  Biso   1.000  O
  O22      1.0000 0.77911  0.24042  0.49160  Biso   1.000  O
  O23      1.0000 0.72427  0.76356  0.00908  Biso   1.000  O
  O24      1.0000 0.72315  0.74762  0.25895  Biso   1.000  O
  Zr13     1.0000 0.64041  0.04158  0.64838  Biso   1.000  Zr
  Zr14     1.0000 0.63584  0.46169  0.89687  Biso   1.000  Zr
  Zr15     1.0000 0.86097  0.54245  0.60630  Biso   1.000  Zr
  Zr16     1.0000 0.86141  0.96012  0.85408  Biso   1.000  Zr
  O25      1.0000 0.53940  0.33005  0.58062  Biso   1.000  O
  O26      1.0000 0.53373  0.16804  0.83212  Biso   1.000  O
  O27      1.0000 0.96937  0.83058  0.67058  Biso   1.000  O
  O28      1.0000 0.96485  0.67028  0.91964  Biso   1.000  O
  O29      1.0000 0.77442  0.25834  0.74152  Biso   1.000  O
  O30      1.0000 0.77371  0.24704  0.98947  Biso   1.000  O
  O31      1.0000 0.72647  0.75620  0.51264  Biso   1.000  O
  O32      1.0000 0.72712  0.74518  0.76107  Biso   1.000  O
  Cr1      1.0000 0.38521  0.43934  0.37863  Biso   1.000  Cr
