data_image0
_cell_length_a       5.10821
_cell_length_b       10.3977
_cell_length_c       10.6528
_cell_angle_alpha    90.4487
_cell_angle_beta     79.4409
_cell_angle_gamma    90.4665

_symmetry_space_group_name_H-M    "P 1"
_symmetry_int_tables_number       1

loop_
  _symmetry_equiv_pos_as_xyz
  'x, y, z'

loop_
  _atom_site_label
  _atom_site_occupancy
  _atom_site_fract_x
  _atom_site_fract_y
  _atom_site_fract_z
  _atom_site_thermal_displace_type
  _atom_site_B_iso_or_equiv
  _atom_site_type_symbol
  Hf1      1.0000 0.27495  0.01196  0.14618  Biso   1.000  Hf
  Hf2      1.0000 0.29711  0.23542  0.41202  Biso   1.000  Hf
  Hf3      1.0000 0.68876  0.27775  0.08050  Biso   1.000  Hf
  Hf4      1.0000 0.72218  0.48647  0.35540  Biso   1.000  Hf
  O1       1.0000 0.04685  0.15361  0.05557  Biso   1.000  O
  O2       1.0000 0.10838  0.03685  0.37196  Biso   1.000  O
  O3       1.0000 0.92238  0.43090  0.16079  Biso   1.000  O
  O4       1.0000 0.96423  0.37205  0.45262  Biso   1.000  O
  O5       1.0000 0.47475  0.14636  0.22630  Biso   1.000  O
  O6       1.0000 0.56556  0.11654  0.49022  Biso   1.000  O
  O7       1.0000 0.42587  0.38573  0.00470  Biso   1.000  O
  O8       1.0000 0.44253  0.38273  0.25883  Biso   1.000  O
  Hf5      1.0000 0.27423  0.02176  0.64005  Biso   1.000  Hf
  Hf6      1.0000 0.26065  0.22327  0.88818  Biso   1.000  Hf
  Hf7      1.0000 0.73254  0.27924  0.61276  Biso   1.000  Hf
  Hf8      1.0000 0.71157  0.48438  0.85662  Biso   1.000  Hf
  O9       1.0000 0.07865  0.17558  0.58669  Biso   1.000  O
  O10      1.0000 0.05891  0.08303  0.81644  Biso   1.000  O
  O11      1.0000 0.93250  0.41774  0.68716  Biso   1.000  O
  O12      1.0000 0.92138  0.33656  0.91565  Biso   1.000  O
  O13      1.0000 0.54516  0.12790  0.73661  Biso   1.000  O
  O14      1.0000 0.53987  0.12358  0.98017  Biso   1.000  O
  O15      1.0000 0.46305  0.37703  0.51640  Biso   1.000  O
  O16      1.0000 0.44764  0.37292  0.76125  Biso   1.000  O
  Hf9      1.0000 0.27042  0.52688  0.14746  Biso   1.000  Hf
  Hf10     1.0000 0.28199  0.72504  0.39839  Biso   1.000  Hf
  Hf11     1.0000 0.71743  0.77294  0.10609  Biso   1.000  Hf
  Hf12     1.0000 0.74237  0.95685  0.37010  Biso   1.000  Hf
  O17      1.0000 0.06840  0.67753  0.08039  Biso   1.000  O
  O18      1.0000 0.06820  0.58935  0.32334  Biso   1.000  O
  O19      1.0000 0.91860  0.92100  0.18239  Biso   1.000  O
  O20      1.0000 0.91516  0.80798  0.42603  Biso   1.000  O
  O21      1.0000 0.55544  0.63319  0.24382  Biso   1.000  O
  O22      1.0000 0.54146  0.61768  0.49398  Biso   1.000  O
  O23      1.0000 0.44937  0.88113  0.01124  Biso   1.000  O
  O24      1.0000 0.44939  0.86747  0.26099  Biso   1.000  O
  Hf13     1.0000 0.27194  0.52087  0.64994  Biso   1.000  Hf
  Hf14     1.0000 0.26679  0.73186  0.89929  Biso   1.000  Hf
  Hf15     1.0000 0.71972  0.76463  0.61115  Biso   1.000  Hf
  Hf16     1.0000 0.71735  0.97859  0.85073  Biso   1.000  Hf
  O25      1.0000 0.06535  0.66202  0.58154  Biso   1.000  O
  O26      1.0000 0.06098  0.58922  0.83096  Biso   1.000  O
  O27      1.0000 0.92723  0.91397  0.66879  Biso   1.000  O
  O28      1.0000 0.92947  0.84040  0.92537  Biso   1.000  O
  O29      1.0000 0.54545  0.62703  0.74385  Biso   1.000  O
  O30      1.0000 0.54672  0.62709  0.99352  Biso   1.000  O
  O31      1.0000 0.45073  0.87084  0.51590  Biso   1.000  O
  O32      1.0000 0.44410  0.87037  0.76280  Biso   1.000  O
  Cs1      1.0000 0.89886  0.21668  0.28384  Biso   1.000  Cs
