data_image0
_cell_length_a       10.0722
_cell_length_b       10.2795
_cell_length_c       10.549
_cell_angle_alpha    89.9693
_cell_angle_beta     90.5735
_cell_angle_gamma    90.1754

_symmetry_space_group_name_H-M    "P 1"
_symmetry_int_tables_number       1

loop_
  _symmetry_equiv_pos_as_xyz
  'x, y, z'

loop_
  _atom_site_label
  _atom_site_occupancy
  _atom_site_fract_x
  _atom_site_fract_y
  _atom_site_fract_z
  _atom_site_thermal_displace_type
  _atom_site_B_iso_or_equiv
  _atom_site_type_symbol
  Hf1      1.0000 0.13906  0.02003  0.17186  Biso   1.000  Hf
  Hf2      1.0000 0.13581  0.22744  0.42774  Biso   1.000  Hf
  Hf3      1.0000 0.33995  0.27315  0.18909  Biso   1.000  Hf
  Hf4      1.0000 0.36322  0.47918  0.42210  Biso   1.000  Hf
  Hf5      1.0000 0.64026  0.00645  0.07990  Biso   1.000  Hf
  Hf6      1.0000 0.63419  0.21898  0.33214  Biso   1.000  Hf
  Hf7      1.0000 0.87050  0.27258  0.07535  Biso   1.000  Hf
  Hf8      1.0000 0.85955  0.47819  0.32752  Biso   1.000  Hf
  O1       1.0000 0.03689  0.16381  0.08147  Biso   1.000  O
  O2       1.0000 0.02955  0.08831  0.33095  Biso   1.000  O
  O3       1.0000 0.43985  0.45278  0.10740  Biso   1.000  O
  O4       1.0000 0.46467  0.33171  0.33402  Biso   1.000  O
  O5       1.0000 0.26743  0.12617  0.30259  Biso   1.000  O
  O6       1.0000 0.28102  0.12585  0.04744  Biso   1.000  O
  O7       1.0000 0.21558  0.37726  0.30347  Biso   1.000  O
  O8       1.0000 0.21934  0.37602  0.04819  Biso   1.000  O
  O9       1.0000 0.51706  0.10758  0.21176  Biso   1.000  O
  O10      1.0000 0.52758  0.09446  0.44058  Biso   1.000  O
  O11      1.0000 0.96883  0.41425  0.16981  Biso   1.000  O
  O12      1.0000 0.96819  0.33776  0.41909  Biso   1.000  O
  O13      1.0000 0.77554  0.12183  0.45242  Biso   1.000  O
  O14      1.0000 0.77291  0.12936  0.20061  Biso   1.000  O
  O15      1.0000 0.72496  0.37362  0.45487  Biso   1.000  O
  O16      1.0000 0.72208  0.37955  0.20605  Biso   1.000  O
  Hf9      1.0000 0.14071  0.02048  0.67285  Biso   1.000  Hf
  Hf10     1.0000 0.14361  0.22781  0.92140  Biso   1.000  Hf
  Hf11     1.0000 0.36308  0.27350  0.67364  Biso   1.000  Hf
  Hf12     1.0000 0.35805  0.48685  0.92532  Biso   1.000  Hf
  Hf13     1.0000 0.64119  0.01718  0.58009  Biso   1.000  Hf
  Hf14     1.0000 0.65009  0.22634  0.80742  Biso   1.000  Hf
  Hf15     1.0000 0.86390  0.27307  0.57469  Biso   1.000  Hf
  Hf16     1.0000 0.86729  0.48103  0.82771  Biso   1.000  Hf
  O17      1.0000 0.03096  0.16172  0.58239  Biso   1.000  O
  O18      1.0000 0.03621  0.08481  0.83196  Biso   1.000  O
  O19      1.0000 0.47071  0.41242  0.57862  Biso   1.000  O
  O20      1.0000 0.47203  0.34391  0.82613  Biso   1.000  O
  O21      1.0000 0.27925  0.12438  0.79612  Biso   1.000  O
  O22      1.0000 0.27478  0.12525  0.54867  Biso   1.000  O
  O23      1.0000 0.22629  0.37429  0.79769  Biso   1.000  O
  O24      1.0000 0.22600  0.37577  0.54863  Biso   1.000  O
  O25      1.0000 0.53242  0.16184  0.66857  Biso   1.000  O
  O26      1.0000 0.54045  0.06444  0.90086  Biso   1.000  O
  O27      1.0000 0.97098  0.41316  0.66782  Biso   1.000  O
  O28      1.0000 0.97571  0.33522  0.91601  Biso   1.000  O
  O29      1.0000 0.78041  0.12376  0.94898  Biso   1.000  O
  O30      1.0000 0.78301  0.12235  0.69751  Biso   1.000  O
  O31      1.0000 0.74317  0.38550  0.95230  Biso   1.000  O
  O32      1.0000 0.72922  0.37596  0.70089  Biso   1.000  O
  Hf17     1.0000 0.13834  0.52471  0.17216  Biso   1.000  Hf
  Hf18     1.0000 0.13870  0.72935  0.42159  Biso   1.000  Hf
  Hf19     1.0000 0.36029  0.77308  0.17347  Biso   1.000  Hf
  Hf20     1.0000 0.36439  0.98027  0.42438  Biso   1.000  Hf
  Hf21     1.0000 0.63900  0.53420  0.08193  Biso   1.000  Hf
  Hf22     1.0000 0.63952  0.73137  0.33111  Biso   1.000  Hf
  Hf23     1.0000 0.86421  0.77048  0.07871  Biso   1.000  Hf
  Hf24     1.0000 0.86335  0.98021  0.32808  Biso   1.000  Hf
  O33      1.0000 0.03227  0.66364  0.08065  Biso   1.000  O
  O34      1.0000 0.03120  0.58844  0.33061  Biso   1.000  O
  O35      1.0000 0.46902  0.90347  0.07412  Biso   1.000  O
  O36      1.0000 0.46915  0.83895  0.33391  Biso   1.000  O
  O37      1.0000 0.27485  0.62640  0.29534  Biso   1.000  O
  O38      1.0000 0.27207  0.63284  0.04288  Biso   1.000  O
  O39      1.0000 0.22524  0.87596  0.29574  Biso   1.000  O
  O40      1.0000 0.22276  0.87837  0.04640  Biso   1.000  O
  O41      1.0000 0.53716  0.67557  0.16913  Biso   1.000  O
  O42      1.0000 0.53306  0.58654  0.41631  Biso   1.000  O
  O43      1.0000 0.96816  0.91568  0.16777  Biso   1.000  O
  O44      1.0000 0.96801  0.83708  0.41836  Biso   1.000  O
  O45      1.0000 0.77698  0.62414  0.45465  Biso   1.000  O
  O46      1.0000 0.77831  0.62860  0.20624  Biso   1.000  O
  O47      1.0000 0.72542  0.87449  0.45690  Biso   1.000  O
  O48      1.0000 0.72811  0.87407  0.20697  Biso   1.000  O
  Hf25     1.0000 0.14090  0.52054  0.67159  Biso   1.000  Hf
  Hf26     1.0000 0.13926  0.73229  0.92059  Biso   1.000  Hf
  Hf27     1.0000 0.36328  0.76858  0.67046  Biso   1.000  Hf
  Hf28     1.0000 0.36492  0.97500  0.91855  Biso   1.000  Hf
  Hf29     1.0000 0.64076  0.52087  0.57577  Biso   1.000  Hf
  Hf30     1.0000 0.64035  0.72723  0.82661  Biso   1.000  Hf
  Hf31     1.0000 0.86445  0.77060  0.57927  Biso   1.000  Hf
  Hf32     1.0000 0.86437  0.97872  0.82980  Biso   1.000  Hf
  O49      1.0000 0.03459  0.66364  0.58155  Biso   1.000  O
  O50      1.0000 0.03620  0.58771  0.83167  Biso   1.000  O
  O51      1.0000 0.47070  0.90943  0.58302  Biso   1.000  O
  O52      1.0000 0.46641  0.82721  0.83095  Biso   1.000  O
  O53      1.0000 0.27690  0.62456  0.79464  Biso   1.000  O
  O54      1.0000 0.27659  0.62458  0.54417  Biso   1.000  O
  O55      1.0000 0.22587  0.87344  0.79408  Biso   1.000  O
  O56      1.0000 0.22646  0.87607  0.54481  Biso   1.000  O
  O57      1.0000 0.53394  0.66088  0.66677  Biso   1.000  O
  O58      1.0000 0.53401  0.58467  0.91974  Biso   1.000  O
  O59      1.0000 0.97044  0.91232  0.66888  Biso   1.000  O
  O60      1.0000 0.96943  0.83775  0.91952  Biso   1.000  O
  O61      1.0000 0.77759  0.62862  0.95383  Biso   1.000  O
  O62      1.0000 0.77825  0.62477  0.70377  Biso   1.000  O
  O63      1.0000 0.72723  0.87132  0.95629  Biso   1.000  O
  O64      1.0000 0.72757  0.87314  0.70760  Biso   1.000  O
  Cs1      1.0000 0.55524  0.26107  0.04126  Biso   1.000  Cs
