data_image0
_cell_length_a       10.1881
_cell_length_b       5.22636
_cell_length_c       10.1882
_cell_angle_alpha    90.002
_cell_angle_beta     90
_cell_angle_gamma    90.0023

_symmetry_space_group_name_H-M    "P 1"
_symmetry_int_tables_number       1

loop_
  _symmetry_equiv_pos_as_xyz
  'x, y, z'

loop_
  _atom_site_label
  _atom_site_occupancy
  _atom_site_fract_x
  _atom_site_fract_y
  _atom_site_fract_z
  _atom_site_thermal_displace_type
  _atom_site_B_iso_or_equiv
  _atom_site_type_symbol
  Hf1      1.0000 0.12492  0.00011  0.12493  Biso   1.000  Hf
  Hf2      1.0000 0.12490  0.50010  0.40253  Biso   1.000  Hf
  Hf3      1.0000 0.40253  0.50009  0.12490  Biso   1.000  Hf
  Hf4      1.0000 0.37589  0.02021  0.37589  Biso   1.000  Hf
  O1       1.0000 0.96487  0.33853  0.96487  Biso   1.000  O
  O2       1.0000 0.99829  0.15952  0.25157  Biso   1.000  O
  O3       1.0000 0.96488  0.66174  0.28493  Biso   1.000  O
  O4       1.0000 0.99828  0.84076  0.99828  Biso   1.000  O
  O5       1.0000 0.28492  0.33845  0.28492  Biso   1.000  O
  O6       1.0000 0.25157  0.15949  0.99830  Biso   1.000  O
  O7       1.0000 0.28494  0.66172  0.96488  Biso   1.000  O
  O8       1.0000 0.25155  0.84067  0.25156  Biso   1.000  O
  Hf5      1.0000 0.12491  0.00010  0.62491  Biso   1.000  Hf
  Hf6      1.0000 0.12490  0.50013  0.84727  Biso   1.000  Hf
  Hf7      1.0000 0.37838  0.50011  0.62491  Biso   1.000  Hf
  Hf8      1.0000 0.37589  0.98000  0.87394  Biso   1.000  Hf
  O9       1.0000 0.99347  0.28942  0.50225  Biso   1.000  O
  O10      1.0000 0.00502  0.20645  0.74333  Biso   1.000  O
  O11      1.0000 0.99346  0.71081  0.74757  Biso   1.000  O
  O12      1.0000 0.00502  0.79377  0.50648  Biso   1.000  O
  O13      1.0000 0.25635  0.28942  0.74758  Biso   1.000  O
  O14      1.0000 0.24479  0.20644  0.50649  Biso   1.000  O
  O15      1.0000 0.25635  0.71079  0.50224  Biso   1.000  O
  O16      1.0000 0.24480  0.79378  0.74333  Biso   1.000  O
  Hf9      1.0000 0.62491  0.00010  0.12491  Biso   1.000  Hf
  Hf10     1.0000 0.62490  0.50011  0.37838  Biso   1.000  Hf
  Hf11     1.0000 0.84727  0.50013  0.12490  Biso   1.000  Hf
  Hf12     1.0000 0.87393  0.98001  0.37589  Biso   1.000  Hf
  O17      1.0000 0.50225  0.28941  0.99347  Biso   1.000  O
  O18      1.0000 0.50648  0.20643  0.24479  Biso   1.000  O
  O19      1.0000 0.50224  0.71078  0.25635  Biso   1.000  O
  O20      1.0000 0.50649  0.79376  0.00502  Biso   1.000  O
  O21      1.0000 0.74758  0.28943  0.25635  Biso   1.000  O
  O22      1.0000 0.74333  0.20644  0.00503  Biso   1.000  O
  O23      1.0000 0.74757  0.71080  0.99346  Biso   1.000  O
  O24      1.0000 0.74333  0.79378  0.24480  Biso   1.000  O
  Hf13     1.0000 0.62491  0.00010  0.62491  Biso   1.000  Hf
  Hf14     1.0000 0.62491  0.50011  0.87143  Biso   1.000  Hf
  Hf15     1.0000 0.87142  0.50011  0.62490  Biso   1.000  Hf
  Hf16     1.0000 0.87393  0.02022  0.87393  Biso   1.000  Hf
  O25      1.0000 0.49569  0.30623  0.49569  Biso   1.000  O
  O26      1.0000 0.50364  0.19636  0.74618  Biso   1.000  O
  O27      1.0000 0.49569  0.69399  0.75412  Biso   1.000  O
  O28      1.0000 0.50364  0.80385  0.50363  Biso   1.000  O
  O29      1.0000 0.75412  0.30622  0.75412  Biso   1.000  O
  O30      1.0000 0.74618  0.19636  0.50364  Biso   1.000  O
  O31      1.0000 0.75412  0.69399  0.49569  Biso   1.000  O
  O32      1.0000 0.74618  0.80385  0.74618  Biso   1.000  O
  Cs1      1.0000 0.12490  0.50011  0.12490  Biso   1.000  Cs
