data_image0
_cell_length_a       10.1067
_cell_length_b       10.4289
_cell_length_c       5.2319
_cell_angle_alpha    89.9009
_cell_angle_beta     81.1356
_cell_angle_gamma    90.509

_symmetry_space_group_name_H-M    "P 1"
_symmetry_int_tables_number       1

loop_
  _symmetry_equiv_pos_as_xyz
  'x, y, z'

loop_
  _atom_site_label
  _atom_site_occupancy
  _atom_site_fract_x
  _atom_site_fract_y
  _atom_site_fract_z
  _atom_site_thermal_displace_type
  _atom_site_B_iso_or_equiv
  _atom_site_type_symbol
  Cs1      1.0000 0.11394  0.01607  0.23611  Biso   1.000  Cs
  Hf1      1.0000 0.13898  0.52064  0.28347  Biso   1.000  Hf
  Hf2      1.0000 0.64008  0.02196  0.29839  Biso   1.000  Hf
  Hf3      1.0000 0.63633  0.51886  0.29137  Biso   1.000  Hf
  Hf4      1.0000 0.13588  0.23578  0.78084  Biso   1.000  Hf
  Hf5      1.0000 0.14171  0.72540  0.78189  Biso   1.000  Hf
  Hf6      1.0000 0.63540  0.22821  0.79516  Biso   1.000  Hf
  Hf7      1.0000 0.63878  0.72744  0.78824  Biso   1.000  Hf
  Hf8      1.0000 0.35914  0.26959  0.21483  Biso   1.000  Hf
  Hf9      1.0000 0.36563  0.76756  0.20317  Biso   1.000  Hf
  Hf10     1.0000 0.85471  0.27732  0.21188  Biso   1.000  Hf
  Hf11     1.0000 0.85920  0.76151  0.20394  Biso   1.000  Hf
  Hf12     1.0000 0.36061  0.47697  0.70644  Biso   1.000  Hf
  Hf13     1.0000 0.36132  0.97544  0.68798  Biso   1.000  Hf
  Hf14     1.0000 0.85978  0.48013  0.70494  Biso   1.000  Hf
  Hf15     1.0000 0.85689  0.98142  0.73749  Biso   1.000  Hf
  O1       1.0000 0.04582  0.22076  0.17909  Biso   1.000  O
  O2       1.0000 0.04019  0.67456  0.16382  Biso   1.000  O
  O3       1.0000 0.53584  0.16963  0.16487  Biso   1.000  O
  O4       1.0000 0.54003  0.66771  0.15820  Biso   1.000  O
  O5       1.0000 0.02760  0.08221  0.71559  Biso   1.000  O
  O6       1.0000 0.03591  0.57830  0.65824  Biso   1.000  O
  O7       1.0000 0.54034  0.07622  0.66298  Biso   1.000  O
  O8       1.0000 0.53648  0.57726  0.66175  Biso   1.000  O
  O9       1.0000 0.46284  0.41733  0.33930  Biso   1.000  O
  O10      1.0000 0.46860  0.91800  0.33291  Biso   1.000  O
  O11      1.0000 0.95325  0.43473  0.32537  Biso   1.000  O
  O12      1.0000 0.95036  0.91101  0.37745  Biso   1.000  O
  O13      1.0000 0.46107  0.32458  0.83660  Biso   1.000  O
  O14      1.0000 0.47411  0.83155  0.83232  Biso   1.000  O
  O15      1.0000 0.95654  0.33026  0.82504  Biso   1.000  O
  O16      1.0000 0.96814  0.83371  0.85646  Biso   1.000  O
  O17      1.0000 0.28668  0.13861  0.50226  Biso   1.000  O
  O18      1.0000 0.27879  0.62223  0.47235  Biso   1.000  O
  O19      1.0000 0.78146  0.13034  0.48740  Biso   1.000  O
  O20      1.0000 0.77330  0.62782  0.48030  Biso   1.000  O
  O21      1.0000 0.27094  0.11790  0.98099  Biso   1.000  O
  O22      1.0000 0.27655  0.61706  0.97439  Biso   1.000  O
  O23      1.0000 0.77375  0.12305  0.99543  Biso   1.000  O
  O24      1.0000 0.77855  0.62032  0.97895  Biso   1.000  O
  O25      1.0000 0.22757  0.38150  0.01121  Biso   1.000  O
  O26      1.0000 0.24529  0.86245  0.98166  Biso   1.000  O
  O27      1.0000 0.71946  0.38159  0.01763  Biso   1.000  O
  O28      1.0000 0.72544  0.87888  0.02776  Biso   1.000  O
  O29      1.0000 0.21913  0.37407  0.51163  Biso   1.000  O
  O30      1.0000 0.23450  0.85562  0.50979  Biso   1.000  O
  O31      1.0000 0.72002  0.36952  0.51931  Biso   1.000  O
  O32      1.0000 0.72832  0.86920  0.52293  Biso   1.000  O
