data_image0
_cell_length_a       10.1104
_cell_length_b       10.269
_cell_length_c       10.1113
_cell_angle_alpha    90.4402
_cell_angle_beta     90.2554
_cell_angle_gamma    90.5588

_symmetry_space_group_name_H-M    "P 1"
_symmetry_int_tables_number       1

loop_
  _symmetry_equiv_pos_as_xyz
  'x, y, z'

loop_
  _atom_site_label
  _atom_site_occupancy
  _atom_site_fract_x
  _atom_site_fract_y
  _atom_site_fract_z
  _atom_site_thermal_displace_type
  _atom_site_B_iso_or_equiv
  _atom_site_type_symbol
  Cs1      1.0000 0.12489  0.00732  0.12444  Biso   1.000  Cs
  Zr1      1.0000 0.13032  0.00267  0.62821  Biso   1.000  Zr
  Zr2      1.0000 0.12591  0.49721  0.12587  Biso   1.000  Zr
  Zr3      1.0000 0.12563  0.50023  0.62519  Biso   1.000  Zr
  Zr4      1.0000 0.62540  0.00311  0.13245  Biso   1.000  Zr
  Zr5      1.0000 0.62642  0.99958  0.62591  Biso   1.000  Zr
  Zr6      1.0000 0.62538  0.50006  0.12521  Biso   1.000  Zr
  Zr7      1.0000 0.62718  0.50066  0.62734  Biso   1.000  Zr
  Zr8      1.0000 0.11490  0.25358  0.37644  Biso   1.000  Zr
  Zr9      1.0000 0.12237  0.25433  0.86908  Biso   1.000  Zr
  Zr10     1.0000 0.13311  0.74380  0.37622  Biso   1.000  Zr
  Zr11     1.0000 0.13353  0.74881  0.87567  Biso   1.000  Zr
  Zr12     1.0000 0.62248  0.25202  0.37759  Biso   1.000  Zr
  Zr13     1.0000 0.62473  0.24918  0.87495  Biso   1.000  Zr
  Zr14     1.0000 0.62579  0.74846  0.37774  Biso   1.000  Zr
  Zr15     1.0000 0.63037  0.75104  0.87922  Biso   1.000  Zr
  Zr16     1.0000 0.37618  0.25283  0.11892  Biso   1.000  Zr
  Zr17     1.0000 0.37588  0.25094  0.62251  Biso   1.000  Zr
  Zr18     1.0000 0.37721  0.74298  0.13184  Biso   1.000  Zr
  Zr19     1.0000 0.37764  0.74883  0.62549  Biso   1.000  Zr
  Zr20     1.0000 0.86856  0.25457  0.12649  Biso   1.000  Zr
  Zr21     1.0000 0.87428  0.24963  0.62492  Biso   1.000  Zr
  Zr22     1.0000 0.87678  0.74937  0.13167  Biso   1.000  Zr
  Zr23     1.0000 0.87982  0.75184  0.62930  Biso   1.000  Zr
  Zr24     1.0000 0.37674  0.99421  0.37934  Biso   1.000  Zr
  Zr25     1.0000 0.38728  0.99214  0.87733  Biso   1.000  Zr
  Zr26     1.0000 0.37457  0.49466  0.37494  Biso   1.000  Zr
  Zr27     1.0000 0.37672  0.50156  0.87536  Biso   1.000  Zr
  Zr28     1.0000 0.87787  0.99478  0.38611  Biso   1.000  Zr
  Zr29     1.0000 0.87241  0.00726  0.87442  Biso   1.000  Zr
  Zr30     1.0000 0.87592  0.50391  0.37616  Biso   1.000  Zr
  Zr31     1.0000 0.87529  0.50501  0.87484  Biso   1.000  Zr
  O1       1.0000 0.98217  0.16397  0.98608  Biso   1.000  O
  O2       1.0000 0.00500  0.14657  0.51018  Biso   1.000  O
  O3       1.0000 0.00556  0.65456  0.00483  Biso   1.000  O
  O4       1.0000 0.00386  0.64543  0.50602  Biso   1.000  O
  O5       1.0000 0.50330  0.14607  0.00242  Biso   1.000  O
  O6       1.0000 0.50212  0.14532  0.50228  Biso   1.000  O
  O7       1.0000 0.50712  0.64467  0.00403  Biso   1.000  O
  O8       1.0000 0.50346  0.64559  0.50377  Biso   1.000  O
  O9       1.0000 0.97189  0.12584  0.26853  Biso   1.000  O
  O10      1.0000 0.99922  0.10323  0.75008  Biso   1.000  O
  O11      1.0000 0.00034  0.60482  0.25287  Biso   1.000  O
  O12      1.0000 0.00363  0.60465  0.75335  Biso   1.000  O
  O13      1.0000 0.48503  0.10137  0.24877  Biso   1.000  O
  O14      1.0000 0.50007  0.10274  0.74963  Biso   1.000  O
  O15      1.0000 0.49941  0.60102  0.25411  Biso   1.000  O
  O16      1.0000 0.50262  0.60273  0.75317  Biso   1.000  O
  O17      1.0000 0.00403  0.36060  0.24261  Biso   1.000  O
  O18      1.0000 0.00120  0.35729  0.74207  Biso   1.000  O
  O19      1.0000 0.99782  0.84923  0.26704  Biso   1.000  O
  O20      1.0000 0.00049  0.85302  0.76132  Biso   1.000  O
  O21      1.0000 0.50222  0.35288  0.24875  Biso   1.000  O
  O22      1.0000 0.50070  0.35281  0.75010  Biso   1.000  O
  O23      1.0000 0.51524  0.85097  0.24327  Biso   1.000  O
  O24      1.0000 0.50469  0.85154  0.74824  Biso   1.000  O
  O25      1.0000 0.99686  0.40498  0.99550  Biso   1.000  O
  O26      1.0000 0.00067  0.39524  0.49341  Biso   1.000  O
  O27      1.0000 0.00877  0.89929  0.00338  Biso   1.000  O
  O28      1.0000 0.99596  0.89651  0.51253  Biso   1.000  O
  O29      1.0000 0.49331  0.39462  0.00223  Biso   1.000  O
  O30      1.0000 0.49974  0.39610  0.50048  Biso   1.000  O
  O31      1.0000 0.51669  0.89619  0.99420  Biso   1.000  O
  O32      1.0000 0.49992  0.89324  0.49912  Biso   1.000  O
  O33      1.0000 0.23634  0.13866  0.23914  Biso   1.000  O
  O34      1.0000 0.24228  0.15316  0.73476  Biso   1.000  O
  O35      1.0000 0.24868  0.63133  0.24789  Biso   1.000  O
  O36      1.0000 0.25239  0.64656  0.74776  Biso   1.000  O
  O37      1.0000 0.72907  0.15462  0.23995  Biso   1.000  O
  O38      1.0000 0.74983  0.14681  0.74949  Biso   1.000  O
  O39      1.0000 0.74921  0.64804  0.25158  Biso   1.000  O
  O40      1.0000 0.75251  0.64756  0.75148  Biso   1.000  O
  O41      1.0000 0.26205  0.11885  0.97529  Biso   1.000  O
  O42      1.0000 0.24979  0.10242  0.48925  Biso   1.000  O
  O43      1.0000 0.25304  0.60117  0.99932  Biso   1.000  O
  O44      1.0000 0.25327  0.60202  0.49821  Biso   1.000  O
  O45      1.0000 0.74458  0.10233  0.99721  Biso   1.000  O
  O46      1.0000 0.75001  0.10426  0.49868  Biso   1.000  O
  O47      1.0000 0.75384  0.60443  0.00328  Biso   1.000  O
  O48      1.0000 0.75230  0.60320  0.50175  Biso   1.000  O
  O49      1.0000 0.24267  0.35534  0.00492  Biso   1.000  O
  O50      1.0000 0.24740  0.35352  0.50382  Biso   1.000  O
  O51      1.0000 0.27238  0.84472  0.99392  Biso   1.000  O
  O52      1.0000 0.24444  0.85203  0.51392  Biso   1.000  O
  O53      1.0000 0.74160  0.35659  0.00325  Biso   1.000  O
  O54      1.0000 0.74898  0.35373  0.50294  Biso   1.000  O
  O55      1.0000 0.76607  0.85222  0.99710  Biso   1.000  O
  O56      1.0000 0.74885  0.85217  0.50375  Biso   1.000  O
  O57      1.0000 0.25210  0.38531  0.25323  Biso   1.000  O
  O58      1.0000 0.24983  0.39960  0.75356  Biso   1.000  O
  O59      1.0000 0.27020  0.86770  0.26919  Biso   1.000  O
  O60      1.0000 0.25229  0.89995  0.75540  Biso   1.000  O
  O61      1.0000 0.75216  0.40048  0.25252  Biso   1.000  O
  O62      1.0000 0.75055  0.39683  0.75283  Biso   1.000  O
  O63      1.0000 0.75740  0.90150  0.25040  Biso   1.000  O
  O64      1.0000 0.75085  0.89893  0.74945  Biso   1.000  O
