data_image0
_cell_length_a       10.0086
_cell_length_b       5.018
_cell_length_c       10.1843
_cell_angle_alpha    90.5251
_cell_angle_beta     90.4972
_cell_angle_gamma    87.4763

_symmetry_space_group_name_H-M    "P 1"
_symmetry_int_tables_number       1

loop_
  _symmetry_equiv_pos_as_xyz
  'x, y, z'

loop_
  _atom_site_label
  _atom_site_occupancy
  _atom_site_fract_x
  _atom_site_fract_y
  _atom_site_fract_z
  _atom_site_thermal_displace_type
  _atom_site_B_iso_or_equiv
  _atom_site_type_symbol
  Cu1      1.0000 0.13018  0.01630  0.10089  Biso   1.000  Cu
  Hf1      1.0000 0.11900  0.47847  0.39476  Biso   1.000  Hf
  Hf2      1.0000 0.36098  0.55865  0.13633  Biso   1.000  Hf
  Hf3      1.0000 0.36104  0.01411  0.38190  Biso   1.000  Hf
  O1       1.0000 0.01479  0.21718  0.98776  Biso   1.000  O
  O2       1.0000 0.02762  0.20022  0.22991  Biso   1.000  O
  O3       1.0000 0.98457  0.68319  0.28668  Biso   1.000  O
  O4       1.0000 0.99310  0.72151  0.02337  Biso   1.000  O
  O5       1.0000 0.28319  0.35421  0.29360  Biso   1.000  O
  O6       1.0000 0.26447  0.29069  0.02493  Biso   1.000  O
  O7       1.0000 0.23850  0.78927  0.98542  Biso   1.000  O
  O8       1.0000 0.23847  0.84929  0.22619  Biso   1.000  O
  Hf4      1.0000 0.12171  0.98554  0.64009  Biso   1.000  Hf
  Hf5      1.0000 0.12656  0.49890  0.88085  Biso   1.000  Hf
  Hf6      1.0000 0.38318  0.50906  0.61184  Biso   1.000  Hf
  Hf7      1.0000 0.38253  0.99337  0.87035  Biso   1.000  Hf
  O9       1.0000 0.99747  0.21582  0.48412  Biso   1.000  O
  O10      1.0000 0.98848  0.26776  0.73954  Biso   1.000  O
  O11      1.0000 0.00959  0.77469  0.78007  Biso   1.000  O
  O12      1.0000 0.99827  0.72147  0.53415  Biso   1.000  O
  O13      1.0000 0.22640  0.19163  0.78626  Biso   1.000  O
  O14      1.0000 0.24518  0.24609  0.53486  Biso   1.000  O
  O15      1.0000 0.24323  0.75718  0.48346  Biso   1.000  O
  O16      1.0000 0.25118  0.69919  0.73603  Biso   1.000  O
  Hf8      1.0000 0.62504  0.00942  0.11621  Biso   1.000  Hf
  Hf9      1.0000 0.62202  0.50828  0.35783  Biso   1.000  Hf
  Hf10     1.0000 0.89159  0.47077  0.13699  Biso   1.000  Hf
  Hf11     1.0000 0.87356  0.97104  0.37706  Biso   1.000  Hf
  O17      1.0000 0.51996  0.21845  0.95664  Biso   1.000  O
  O18      1.0000 0.52281  0.32241  0.20254  Biso   1.000  O
  O19      1.0000 0.49693  0.80853  0.26595  Biso   1.000  O
  O20      1.0000 0.49479  0.74283  0.01563  Biso   1.000  O
  O21      1.0000 0.76418  0.23983  0.26953  Biso   1.000  O
  O22      1.0000 0.76167  0.26656  0.01818  Biso   1.000  O
  O23      1.0000 0.74090  0.77774  0.97382  Biso   1.000  O
  O24      1.0000 0.74590  0.73686  0.22234  Biso   1.000  O
  Hf12     1.0000 0.62467  0.99630  0.61957  Biso   1.000  Hf
  Hf13     1.0000 0.63093  0.50831  0.88113  Biso   1.000  Hf
  Hf14     1.0000 0.86407  0.48088  0.62022  Biso   1.000  Hf
  Hf15     1.0000 0.87174  0.00149  0.87676  Biso   1.000  Hf
  O25      1.0000 0.49898  0.26381  0.46390  Biso   1.000  O
  O26      1.0000 0.47397  0.20666  0.71182  Biso   1.000  O
  O27      1.0000 0.50318  0.72064  0.76039  Biso   1.000  O
  O28      1.0000 0.49664  0.76131  0.51080  Biso   1.000  O
  O29      1.0000 0.73613  0.24249  0.76383  Biso   1.000  O
  O30      1.0000 0.74479  0.24027  0.51607  Biso   1.000  O
  O31      1.0000 0.74662  0.74102  0.47592  Biso   1.000  O
  O32      1.0000 0.75548  0.75015  0.72877  Biso   1.000  O
