data_image0
_cell_length_a       10.1778
_cell_length_b       5.14351
_cell_length_c       10.5155
_cell_angle_alpha    90.4262
_cell_angle_beta     80.5103
_cell_angle_gamma    89.477

_symmetry_space_group_name_H-M    "P 1"
_symmetry_int_tables_number       1

loop_
  _symmetry_equiv_pos_as_xyz
  'x, y, z'

loop_
  _atom_site_label
  _atom_site_occupancy
  _atom_site_fract_x
  _atom_site_fract_y
  _atom_site_fract_z
  _atom_site_thermal_displace_type
  _atom_site_B_iso_or_equiv
  _atom_site_type_symbol
  Cu1      1.0000 0.12491  0.01922  0.16818  Biso   1.000  Cu
  Zr1      1.0000 0.13874  0.03826  0.64346  Biso   1.000  Zr
  Zr2      1.0000 0.63655  0.04378  0.14393  Biso   1.000  Zr
  Zr3      1.0000 0.63760  0.04289  0.64689  Biso   1.000  Zr
  Zr4      1.0000 0.13902  0.45045  0.39162  Biso   1.000  Zr
  Zr5      1.0000 0.13917  0.45538  0.89545  Biso   1.000  Zr
  Zr6      1.0000 0.63823  0.45519  0.39482  Biso   1.000  Zr
  Zr7      1.0000 0.63741  0.46475  0.89764  Biso   1.000  Zr
  Zr8      1.0000 0.35450  0.54697  0.10219  Biso   1.000  Zr
  Zr9      1.0000 0.36149  0.54491  0.60617  Biso   1.000  Zr
  Zr10     1.0000 0.86820  0.53178  0.10488  Biso   1.000  Zr
  Zr11     1.0000 0.86013  0.53869  0.60548  Biso   1.000  Zr
  Zr12     1.0000 0.36117  0.95231  0.35180  Biso   1.000  Zr
  Zr13     1.0000 0.35994  0.97471  0.85847  Biso   1.000  Zr
  Zr14     1.0000 0.85767  0.95115  0.35571  Biso   1.000  Zr
  Zr15     1.0000 0.86238  0.95650  0.85638  Biso   1.000  Zr
  O1       1.0000 0.04360  0.32919  0.08038  Biso   1.000  O
  O2       1.0000 0.02978  0.31180  0.56902  Biso   1.000  O
  O3       1.0000 0.53214  0.33275  0.07661  Biso   1.000  O
  O4       1.0000 0.53402  0.33137  0.57608  Biso   1.000  O
  O5       1.0000 0.03546  0.15403  0.32271  Biso   1.000  O
  O6       1.0000 0.03320  0.17201  0.82470  Biso   1.000  O
  O7       1.0000 0.53138  0.17078  0.32621  Biso   1.000  O
  O8       1.0000 0.53535  0.17798  0.82555  Biso   1.000  O
  O9       1.0000 0.46882  0.82412  0.17480  Biso   1.000  O
  O10      1.0000 0.46580  0.83382  0.67421  Biso   1.000  O
  O11      1.0000 0.96770  0.83972  0.17235  Biso   1.000  O
  O12      1.0000 0.96867  0.81731  0.67576  Biso   1.000  O
  O13      1.0000 0.46678  0.67073  0.42412  Biso   1.000  O
  O14      1.0000 0.46718  0.68918  0.92649  Biso   1.000  O
  O15      1.0000 0.96511  0.66121  0.42173  Biso   1.000  O
  O16      1.0000 0.96670  0.66714  0.92708  Biso   1.000  O
  O17      1.0000 0.26467  0.23325  0.22892  Biso   1.000  O
  O18      1.0000 0.27300  0.25484  0.73274  Biso   1.000  O
  O19      1.0000 0.77490  0.25237  0.24060  Biso   1.000  O
  O20      1.0000 0.77682  0.25728  0.74068  Biso   1.000  O
  O21      1.0000 0.27609  0.24248  0.48447  Biso   1.000  O
  O22      1.0000 0.29324  0.29582  0.96954  Biso   1.000  O
  O23      1.0000 0.77519  0.23868  0.48990  Biso   1.000  O
  O24      1.0000 0.77665  0.24653  0.99096  Biso   1.000  O
  O25      1.0000 0.22166  0.81001  0.02250  Biso   1.000  O
  O26      1.0000 0.22309  0.75123  0.50982  Biso   1.000  O
  O27      1.0000 0.72701  0.75838  0.01108  Biso   1.000  O
  O28      1.0000 0.72359  0.75259  0.51097  Biso   1.000  O
  O29      1.0000 0.22527  0.72727  0.26204  Biso   1.000  O
  O30      1.0000 0.22580  0.74459  0.76427  Biso   1.000  O
  O31      1.0000 0.72943  0.73886  0.25945  Biso   1.000  O
  O32      1.0000 0.72481  0.74573  0.76120  Biso   1.000  O
