data_image0
_cell_length_a       10.07
_cell_length_b       10.3163
_cell_length_c       10.462
_cell_angle_alpha    89.7718
_cell_angle_beta     90.6353
_cell_angle_gamma    89.8893

_symmetry_space_group_name_H-M    "P 1"
_symmetry_int_tables_number       1

loop_
  _symmetry_equiv_pos_as_xyz
  'x, y, z'

loop_
  _atom_site_label
  _atom_site_occupancy
  _atom_site_fract_x
  _atom_site_fract_y
  _atom_site_fract_z
  _atom_site_thermal_displace_type
  _atom_site_B_iso_or_equiv
  _atom_site_type_symbol
  Cu1      1.0000 0.12009  0.02046  0.20112  Biso   1.000  Cu
  Zr1      1.0000 0.13854  0.01995  0.66605  Biso   1.000  Zr
  Zr2      1.0000 0.13900  0.52148  0.16927  Biso   1.000  Zr
  Zr3      1.0000 0.13909  0.52029  0.67193  Biso   1.000  Zr
  Zr4      1.0000 0.13788  0.23470  0.41812  Biso   1.000  Zr
  Zr5      1.0000 0.14565  0.22230  0.92355  Biso   1.000  Zr
  Zr6      1.0000 0.13471  0.72921  0.41891  Biso   1.000  Zr
  Zr7      1.0000 0.14292  0.73203  0.91920  Biso   1.000  Zr
  Zr8      1.0000 0.35861  0.26892  0.16582  Biso   1.000  Zr
  Zr9      1.0000 0.36107  0.27092  0.66987  Biso   1.000  Zr
  Zr10     1.0000 0.35773  0.77459  0.16476  Biso   1.000  Zr
  Zr11     1.0000 0.36131  0.77070  0.66821  Biso   1.000  Zr
  Zr12     1.0000 0.36011  0.48072  0.41968  Biso   1.000  Zr
  Zr13     1.0000 0.36162  0.47790  0.92056  Biso   1.000  Zr
  Zr14     1.0000 0.35675  0.98061  0.41584  Biso   1.000  Zr
  Zr15     1.0000 0.36202  0.97956  0.91953  Biso   1.000  Zr
  Zr16     1.0000 0.64069  0.02190  0.07823  Biso   1.000  Zr
  Zr17     1.0000 0.63499  0.02069  0.58017  Biso   1.000  Zr
  Zr18     1.0000 0.63993  0.52072  0.07931  Biso   1.000  Zr
  Zr19     1.0000 0.63847  0.52083  0.58083  Biso   1.000  Zr
  Zr20     1.0000 0.63613  0.23011  0.32917  Biso   1.000  Zr
  Zr21     1.0000 0.64060  0.22968  0.83077  Biso   1.000  Zr
  Zr22     1.0000 0.63537  0.72892  0.32742  Biso   1.000  Zr
  Zr23     1.0000 0.64000  0.72945  0.83006  Biso   1.000  Zr
  Zr24     1.0000 0.86767  0.26621  0.08506  Biso   1.000  Zr
  Zr25     1.0000 0.85844  0.27127  0.58065  Biso   1.000  Zr
  Zr26     1.0000 0.86606  0.77262  0.07941  Biso   1.000  Zr
  Zr27     1.0000 0.85909  0.76941  0.58094  Biso   1.000  Zr
  Zr28     1.0000 0.85928  0.48060  0.32999  Biso   1.000  Zr
  Zr29     1.0000 0.86518  0.47641  0.83383  Biso   1.000  Zr
  Zr30     1.0000 0.85538  0.97900  0.33501  Biso   1.000  Zr
  Zr31     1.0000 0.86250  0.98025  0.82947  Biso   1.000  Zr
  O1       1.0000 0.04717  0.16034  0.10068  Biso   1.000  O
  O2       1.0000 0.03340  0.17031  0.58510  Biso   1.000  O
  O3       1.0000 0.03785  0.67301  0.08816  Biso   1.000  O
  O4       1.0000 0.03320  0.66738  0.58686  Biso   1.000  O
  O5       1.0000 0.03030  0.07665  0.36024  Biso   1.000  O
  O6       1.0000 0.03625  0.08103  0.83392  Biso   1.000  O
  O7       1.0000 0.03376  0.57980  0.33692  Biso   1.000  O
  O8       1.0000 0.03684  0.57894  0.83899  Biso   1.000  O
  O9       1.0000 0.46696  0.41759  0.08592  Biso   1.000  O
  O10      1.0000 0.46455  0.42023  0.58590  Biso   1.000  O
  O11      1.0000 0.47142  0.91776  0.08455  Biso   1.000  O
  O12      1.0000 0.46230  0.91949  0.58344  Biso   1.000  O
  O13      1.0000 0.46127  0.32783  0.33797  Biso   1.000  O
  O14      1.0000 0.46791  0.33194  0.83482  Biso   1.000  O
  O15      1.0000 0.45933  0.83183  0.33405  Biso   1.000  O
  O16      1.0000 0.46741  0.83146  0.83324  Biso   1.000  O
  O17      1.0000 0.25945  0.12005  0.28216  Biso   1.000  O
  O18      1.0000 0.27603  0.12153  0.78674  Biso   1.000  O
  O19      1.0000 0.27355  0.62913  0.29299  Biso   1.000  O
  O20      1.0000 0.27758  0.62347  0.79281  Biso   1.000  O
  O21      1.0000 0.29741  0.13838  0.02869  Biso   1.000  O
  O22      1.0000 0.27566  0.12812  0.53733  Biso   1.000  O
  O23      1.0000 0.27697  0.62379  0.04300  Biso   1.000  O
  O24      1.0000 0.27427  0.62566  0.54300  Biso   1.000  O
  O25      1.0000 0.22382  0.37615  0.29361  Biso   1.000  O
  O26      1.0000 0.22511  0.37142  0.79519  Biso   1.000  O
  O27      1.0000 0.21354  0.88021  0.28592  Biso   1.000  O
  O28      1.0000 0.22399  0.87312  0.78834  Biso   1.000  O
  O29      1.0000 0.22205  0.37828  0.04436  Biso   1.000  O
  O30      1.0000 0.22230  0.37665  0.54388  Biso   1.000  O
  O31      1.0000 0.23322  0.87207  0.03460  Biso   1.000  O
  O32      1.0000 0.22218  0.87614  0.53895  Biso   1.000  O
  O33      1.0000 0.53559  0.16927  0.16267  Biso   1.000  O
  O34      1.0000 0.53449  0.16992  0.66225  Biso   1.000  O
  O35      1.0000 0.53300  0.66929  0.16184  Biso   1.000  O
  O36      1.0000 0.53566  0.66960  0.66199  Biso   1.000  O
  O37      1.0000 0.53070  0.08056  0.41114  Biso   1.000  O
  O38      1.0000 0.54028  0.07918  0.91033  Biso   1.000  O
  O39      1.0000 0.53316  0.58117  0.41183  Biso   1.000  O
  O40      1.0000 0.53629  0.58049  0.91276  Biso   1.000  O
  O41      1.0000 0.96528  0.41970  0.16450  Biso   1.000  O
  O42      1.0000 0.96693  0.41487  0.66808  Biso   1.000  O
  O43      1.0000 0.96826  0.92863  0.16855  Biso   1.000  O
  O44      1.0000 0.96453  0.91877  0.66194  Biso   1.000  O
  O45      1.0000 0.96264  0.33196  0.41428  Biso   1.000  O
  O46      1.0000 0.97044  0.32634  0.92221  Biso   1.000  O
  O47      1.0000 0.95963  0.82709  0.41325  Biso   1.000  O
  O48      1.0000 0.96745  0.83181  0.91385  Biso   1.000  O
  O49      1.0000 0.78096  0.12430  0.95765  Biso   1.000  O
  O50      1.0000 0.77200  0.12426  0.45777  Biso   1.000  O
  O51      1.0000 0.77957  0.62500  0.95854  Biso   1.000  O
  O52      1.0000 0.77363  0.62434  0.45648  Biso   1.000  O
  O53      1.0000 0.77683  0.12558  0.20888  Biso   1.000  O
  O54      1.0000 0.77588  0.12618  0.70642  Biso   1.000  O
  O55      1.0000 0.77534  0.62676  0.20627  Biso   1.000  O
  O56      1.0000 0.77753  0.62428  0.70839  Biso   1.000  O
  O57      1.0000 0.72825  0.37324  0.95851  Biso   1.000  O
  O58      1.0000 0.72211  0.37496  0.45697  Biso   1.000  O
  O59      1.0000 0.72703  0.87454  0.95581  Biso   1.000  O
  O60      1.0000 0.71905  0.87386  0.45615  Biso   1.000  O
  O61      1.0000 0.72510  0.37455  0.20695  Biso   1.000  O
  O62      1.0000 0.72514  0.37613  0.70741  Biso   1.000  O
  O63      1.0000 0.72942  0.87541  0.20539  Biso   1.000  O
  O64      1.0000 0.72388  0.87579  0.70588  Biso   1.000  O
