data_image0
_cell_length_a       9.99228
_cell_length_b       10.1859
_cell_length_c       9.99227
_cell_angle_alpha    90.019
_cell_angle_beta     90.677
_cell_angle_gamma    89.98

_symmetry_space_group_name_H-M    "P 1"
_symmetry_int_tables_number       1

loop_
  _symmetry_equiv_pos_as_xyz
  'x, y, z'

loop_
  _atom_site_label
  _atom_site_occupancy
  _atom_site_fract_x
  _atom_site_fract_y
  _atom_site_fract_z
  _atom_site_thermal_displace_type
  _atom_site_B_iso_or_equiv
  _atom_site_type_symbol
  Fe1      1.0000 0.12507  0.02406  0.12480  Biso   1.000  Fe
  Hf1      1.0000 0.12563  0.24975  0.37599  Biso   1.000  Hf
  Hf2      1.0000 0.37591  0.24978  0.12562  Biso   1.000  Hf
  Hf3      1.0000 0.36602  0.99917  0.36588  Biso   1.000  Hf
  O1       1.0000 0.99936  0.14686  0.99932  Biso   1.000  O
  O2       1.0000 0.00824  0.09273  0.24162  Biso   1.000  O
  O3       1.0000 0.00184  0.34757  0.24804  Biso   1.000  O
  O4       1.0000 0.99840  0.39724  0.99880  Biso   1.000  O
  O5       1.0000 0.25054  0.14686  0.25050  Biso   1.000  O
  O6       1.0000 0.24177  0.09279  0.00809  Biso   1.000  O
  O7       1.0000 0.24761  0.34763  0.00226  Biso   1.000  O
  O8       1.0000 0.25108  0.39724  0.25148  Biso   1.000  O
  Hf4      1.0000 0.12493  0.00597  0.62484  Biso   1.000  Hf
  Hf5      1.0000 0.12426  0.24977  0.87397  Biso   1.000  Hf
  Hf6      1.0000 0.37680  0.24885  0.62495  Biso   1.000  Hf
  Hf7      1.0000 0.37685  0.99551  0.87302  Biso   1.000  Hf
  O9       1.0000 0.99198  0.14686  0.49117  Biso   1.000  O
  O10      1.0000 0.00442  0.10504  0.74861  Biso   1.000  O
  O11      1.0000 0.99849  0.35377  0.74939  Biso   1.000  O
  O12      1.0000 0.00166  0.39630  0.49857  Biso   1.000  O
  O13      1.0000 0.25789  0.14703  0.75864  Biso   1.000  O
  O14      1.0000 0.24547  0.10497  0.50114  Biso   1.000  O
  O15      1.0000 0.25122  0.35373  0.50079  Biso   1.000  O
  O16      1.0000 0.24806  0.39646  0.75171  Biso   1.000  O
  Hf8      1.0000 0.12485  0.49545  0.12502  Biso   1.000  Hf
  Hf9      1.0000 0.11972  0.74616  0.37263  Biso   1.000  Hf
  Hf10     1.0000 0.37206  0.74636  0.12015  Biso   1.000  Hf
  Hf11     1.0000 0.37616  0.50171  0.37625  Biso   1.000  Hf
  O17      1.0000 0.00063  0.64998  0.00092  Biso   1.000  O
  O18      1.0000 0.00032  0.59657  0.24956  Biso   1.000  O
  O19      1.0000 0.97011  0.84024  0.27976  Biso   1.000  O
  O20      1.0000 0.02636  0.90795  0.02546  Biso   1.000  O
  O21      1.0000 0.24896  0.64998  0.24925  Biso   1.000  O
  O22      1.0000 0.24925  0.59667  0.00062  Biso   1.000  O
  O23      1.0000 0.28035  0.84003  0.96952  Biso   1.000  O
  O24      1.0000 0.22441  0.90795  0.22351  Biso   1.000  O
  Hf12     1.0000 0.12490  0.50011  0.62508  Biso   1.000  Hf
  Hf13     1.0000 0.12972  0.74637  0.87781  Biso   1.000  Hf
  Hf14     1.0000 0.37275  0.75311  0.62061  Biso   1.000  Hf
  Hf15     1.0000 0.37780  0.50100  0.87208  Biso   1.000  Hf
  O25      1.0000 0.99795  0.64678  0.50133  Biso   1.000  O
  O26      1.0000 0.00146  0.60344  0.75021  Biso   1.000  O
  O27      1.0000 0.99466  0.85370  0.77115  Biso   1.000  O
  O28      1.0000 0.99831  0.89705  0.51729  Biso   1.000  O
  O29      1.0000 0.25178  0.64705  0.74879  Biso   1.000  O
  O30      1.0000 0.24833  0.60338  0.50003  Biso   1.000  O
  O31      1.0000 0.25551  0.85358  0.47822  Biso   1.000  O
  O32      1.0000 0.25197  0.89740  0.73211  Biso   1.000  O
  Hf16     1.0000 0.62502  0.00596  0.12495  Biso   1.000  Hf
  Hf17     1.0000 0.62486  0.24882  0.37679  Biso   1.000  Hf
  Hf18     1.0000 0.87389  0.24975  0.12425  Biso   1.000  Hf
  Hf19     1.0000 0.87321  0.99549  0.37665  Biso   1.000  Hf
  O33      1.0000 0.49122  0.14703  0.99199  Biso   1.000  O
  O34      1.0000 0.50126  0.10504  0.24546  Biso   1.000  O
  O35      1.0000 0.50049  0.35377  0.25139  Biso   1.000  O
  O36      1.0000 0.49816  0.39645  0.00181  Biso   1.000  O
  O37      1.0000 0.75870  0.14686  0.25790  Biso   1.000  O
  O38      1.0000 0.74873  0.10497  0.00441  Biso   1.000  O
  O39      1.0000 0.74908  0.35373  0.99865  Biso   1.000  O
  O40      1.0000 0.75131  0.39630  0.24821  Biso   1.000  O
  Hf20     1.0000 0.62498  0.99761  0.62488  Biso   1.000  Hf
  Hf21     1.0000 0.62493  0.24885  0.87308  Biso   1.000  Hf
  Hf22     1.0000 0.87309  0.24882  0.62502  Biso   1.000  Hf
  Hf23     1.0000 0.88398  0.99917  0.88384  Biso   1.000  Hf
  O41      1.0000 0.49184  0.14767  0.49185  Biso   1.000  O
  O42      1.0000 0.50476  0.10410  0.74512  Biso   1.000  O
  O43      1.0000 0.49826  0.35493  0.75161  Biso   1.000  O
  O44      1.0000 0.50137  0.39688  0.50148  Biso   1.000  O
  O45      1.0000 0.75804  0.14768  0.75805  Biso   1.000  O
  O46      1.0000 0.74519  0.10401  0.50470  Biso   1.000  O
  O47      1.0000 0.75149  0.35480  0.49838  Biso   1.000  O
  O48      1.0000 0.74839  0.39688  0.74851  Biso   1.000  O
  Hf24     1.0000 0.62480  0.50010  0.12496  Biso   1.000  Hf
  Hf25     1.0000 0.62043  0.75310  0.37295  Biso   1.000  Hf
  Hf26     1.0000 0.87725  0.74616  0.13015  Biso   1.000  Hf
  Hf27     1.0000 0.87198  0.50061  0.37789  Biso   1.000  Hf
  O49      1.0000 0.50108  0.64705  0.99809  Biso   1.000  O
  O50      1.0000 0.49966  0.60344  0.24841  Biso   1.000  O
  O51      1.0000 0.47873  0.85370  0.25521  Biso   1.000  O
  O52      1.0000 0.51776  0.89740  0.99790  Biso   1.000  O
  O53      1.0000 0.74854  0.64678  0.25191  Biso   1.000  O
  O54      1.0000 0.74985  0.60338  0.00154  Biso   1.000  O
  O55      1.0000 0.77165  0.85358  0.99436  Biso   1.000  O
  O56      1.0000 0.73258  0.89706  0.25157  Biso   1.000  O
  Hf28     1.0000 0.62492  0.50325  0.62496  Biso   1.000  Hf
  Hf29     1.0000 0.62927  0.75311  0.87712  Biso   1.000  Hf
  Hf30     1.0000 0.87692  0.75310  0.62945  Biso   1.000  Hf
  Hf31     1.0000 0.87362  0.50170  0.87372  Biso   1.000  Hf
  O57      1.0000 0.49773  0.64767  0.49778  Biso   1.000  O
  O58      1.0000 0.50132  0.60513  0.74854  Biso   1.000  O
  O59      1.0000 0.49785  0.85308  0.75201  Biso   1.000  O
  O60      1.0000 0.49986  0.89853  0.49961  Biso   1.000  O
  O61      1.0000 0.75208  0.64767  0.75213  Biso   1.000  O
  O62      1.0000 0.74844  0.60503  0.50142  Biso   1.000  O
  O63      1.0000 0.75230  0.85304  0.49757  Biso   1.000  O
  O64      1.0000 0.75026  0.89853  0.75001  Biso   1.000  O
