data_image0
_cell_length_a       9.9826
_cell_length_b       5.0799
_cell_length_c       10.4134
_cell_angle_alpha    90.0859
_cell_angle_beta     90.7468
_cell_angle_gamma    89.313

_symmetry_space_group_name_H-M    "P 1"
_symmetry_int_tables_number       1

loop_
  _symmetry_equiv_pos_as_xyz
  'x, y, z'

loop_
  _atom_site_label
  _atom_site_occupancy
  _atom_site_fract_x
  _atom_site_fract_y
  _atom_site_fract_z
  _atom_site_thermal_displace_type
  _atom_site_B_iso_or_equiv
  _atom_site_type_symbol
  Fe1      1.0000 0.11916  0.02623  0.19156  Biso   1.000  Fe
  Hf1      1.0000 0.13767  0.46031  0.41581  Biso   1.000  Hf
  Hf2      1.0000 0.35279  0.55452  0.16670  Biso   1.000  Hf
  Hf3      1.0000 0.35615  0.96446  0.41648  Biso   1.000  Hf
  Hf4      1.0000 0.63903  0.04264  0.07786  Biso   1.000  Hf
  Hf5      1.0000 0.63361  0.45586  0.32738  Biso   1.000  Hf
  Hf6      1.0000 0.86890  0.52947  0.08331  Biso   1.000  Hf
  Hf7      1.0000 0.85559  0.95392  0.33260  Biso   1.000  Hf
  O1       1.0000 0.04994  0.30013  0.09529  Biso   1.000  O
  O2       1.0000 0.03272  0.15615  0.33238  Biso   1.000  O
  O3       1.0000 0.46771  0.83783  0.08538  Biso   1.000  O
  O4       1.0000 0.45772  0.65854  0.33714  Biso   1.000  O
  O5       1.0000 0.26509  0.24249  0.28088  Biso   1.000  O
  O6       1.0000 0.30242  0.30578  0.02370  Biso   1.000  O
  O7       1.0000 0.21177  0.75949  0.29138  Biso   1.000  O
  O8       1.0000 0.21558  0.79556  0.05083  Biso   1.000  O
  O9       1.0000 0.53464  0.34228  0.16238  Biso   1.000  O
  O10      1.0000 0.53208  0.15954  0.41066  Biso   1.000  O
  O11      1.0000 0.97592  0.82396  0.17209  Biso   1.000  O
  O12      1.0000 0.96222  0.66180  0.41654  Biso   1.000  O
  O13      1.0000 0.77401  0.24344  0.45631  Biso   1.000  O
  O14      1.0000 0.77838  0.24578  0.20634  Biso   1.000  O
  O15      1.0000 0.71952  0.74374  0.45685  Biso   1.000  O
  O16      1.0000 0.72928  0.74594  0.20609  Biso   1.000  O
  Hf8      1.0000 0.13841  0.04147  0.66920  Biso   1.000  Hf
  Hf9      1.0000 0.14606  0.45925  0.92192  Biso   1.000  Hf
  Hf10     1.0000 0.36138  0.54603  0.67013  Biso   1.000  Hf
  Hf11     1.0000 0.35970  0.96590  0.92414  Biso   1.000  Hf
  Hf12     1.0000 0.63592  0.04025  0.58023  Biso   1.000  Hf
  Hf13     1.0000 0.63987  0.46034  0.83057  Biso   1.000  Hf
  Hf14     1.0000 0.85908  0.53735  0.58100  Biso   1.000  Hf
  Hf15     1.0000 0.86525  0.95437  0.83253  Biso   1.000  Hf
  O17      1.0000 0.03102  0.32096  0.57720  Biso   1.000  O
  O18      1.0000 0.03552  0.17271  0.83450  Biso   1.000  O
  O19      1.0000 0.46197  0.84279  0.58429  Biso   1.000  O
  O20      1.0000 0.46766  0.67060  0.83360  Biso   1.000  O
  O21      1.0000 0.27679  0.24395  0.78609  Biso   1.000  O
  O22      1.0000 0.27602  0.25808  0.53815  Biso   1.000  O
  O23      1.0000 0.22396  0.74581  0.79662  Biso   1.000  O
  O24      1.0000 0.22039  0.75392  0.54182  Biso   1.000  O
  O25      1.0000 0.53573  0.34250  0.66194  Biso   1.000  O
  O26      1.0000 0.54029  0.15890  0.91079  Biso   1.000  O
  O27      1.0000 0.96886  0.81997  0.67084  Biso   1.000  O
  O28      1.0000 0.97044  0.66356  0.92615  Biso   1.000  O
  O29      1.0000 0.78304  0.24513  0.95888  Biso   1.000  O
  O30      1.0000 0.77818  0.24997  0.70733  Biso   1.000  O
  O31      1.0000 0.72824  0.74256  0.95864  Biso   1.000  O
  O32      1.0000 0.72432  0.75375  0.70750  Biso   1.000  O
