data_image0
_cell_length_a       10.2089
_cell_length_b       5.16467
_cell_length_c       10.535
_cell_angle_alpha    90.1513
_cell_angle_beta     79.1222
_cell_angle_gamma    89.8701

_symmetry_space_group_name_H-M    "P 1"
_symmetry_int_tables_number       1

loop_
  _symmetry_equiv_pos_as_xyz
  'x, y, z'

loop_
  _atom_site_label
  _atom_site_occupancy
  _atom_site_fract_x
  _atom_site_fract_y
  _atom_site_fract_z
  _atom_site_thermal_displace_type
  _atom_site_B_iso_or_equiv
  _atom_site_type_symbol
  Hf1      1.0000 0.13066  0.04385  0.14100  Biso   1.000  Hf
  Hf2      1.0000 0.13953  0.45430  0.39272  Biso   1.000  Hf
  Hf3      1.0000 0.35166  0.54838  0.09953  Biso   1.000  Hf
  Hf4      1.0000 0.34844  0.93439  0.34749  Biso   1.000  Hf
  O1       1.0000 0.02898  0.34094  0.07709  Biso   1.000  O
  O2       1.0000 0.02971  0.17010  0.32779  Biso   1.000  O
  O3       1.0000 0.45675  0.86842  0.15764  Biso   1.000  O
  O4       1.0000 0.47865  0.68689  0.43998  Biso   1.000  O
  O5       1.0000 0.26446  0.23334  0.23432  Biso   1.000  O
  O6       1.0000 0.28002  0.23747  0.48655  Biso   1.000  O
  O7       1.0000 0.21810  0.76460  0.00410  Biso   1.000  O
  O8       1.0000 0.20333  0.74226  0.25133  Biso   1.000  O
  Hf5      1.0000 0.14027  0.04356  0.64475  Biso   1.000  Hf
  Hf6      1.0000 0.13432  0.45950  0.89479  Biso   1.000  Hf
  Hf7      1.0000 0.36256  0.54450  0.61066  Biso   1.000  Hf
  Hf8      1.0000 0.35982  0.95912  0.85544  Biso   1.000  Hf
  O9       1.0000 0.03798  0.33406  0.57850  Biso   1.000  O
  O10      1.0000 0.03346  0.16704  0.82770  Biso   1.000  O
  O11      1.0000 0.46802  0.82941  0.67855  Biso   1.000  O
  O12      1.0000 0.46279  0.66530  0.92128  Biso   1.000  O
  O13      1.0000 0.27552  0.25515  0.73945  Biso   1.000  O
  O14      1.0000 0.27110  0.25059  0.98760  Biso   1.000  O
  O15      1.0000 0.22432  0.74921  0.50979  Biso   1.000  O
  O16      1.0000 0.22409  0.74322  0.75882  Biso   1.000  O
  Hf9      1.0000 0.63675  0.04078  0.14693  Biso   1.000  Hf
  Hf10     1.0000 0.65671  0.46391  0.40883  Biso   1.000  Hf
  Hf11     1.0000 0.85581  0.54469  0.10757  Biso   1.000  Hf
  Hf12     1.0000 0.86263  0.95720  0.35628  Biso   1.000  Hf
  O17      1.0000 0.53229  0.34290  0.08246  Biso   1.000  O
  O18      1.0000 0.52775  0.14855  0.33629  Biso   1.000  O
  O19      1.0000 0.95752  0.84007  0.17031  Biso   1.000  O
  O20      1.0000 0.96445  0.66366  0.42324  Biso   1.000  O
  O21      1.0000 0.77269  0.26107  0.24618  Biso   1.000  O
  O22      1.0000 0.78313  0.23602  0.49864  Biso   1.000  O
  O23      1.0000 0.72022  0.75754  0.01366  Biso   1.000  O
  O24      1.0000 0.72165  0.74933  0.26528  Biso   1.000  O
  Hf13     1.0000 0.63950  0.04398  0.65239  Biso   1.000  Hf
  Hf14     1.0000 0.63661  0.45962  0.89963  Biso   1.000  Hf
  Hf15     1.0000 0.86605  0.54376  0.60887  Biso   1.000  Hf
  Hf16     1.0000 0.86050  0.95898  0.85659  Biso   1.000  Hf
  O25      1.0000 0.53659  0.32953  0.58217  Biso   1.000  O
  O26      1.0000 0.53303  0.16818  0.83288  Biso   1.000  O
  O27      1.0000 0.96755  0.83528  0.67365  Biso   1.000  O
  O28      1.0000 0.96112  0.66675  0.92234  Biso   1.000  O
  O29      1.0000 0.77547  0.26015  0.74509  Biso   1.000  O
  O30      1.0000 0.77252  0.24205  0.99417  Biso   1.000  O
  O31      1.0000 0.72814  0.75680  0.51717  Biso   1.000  O
  O32      1.0000 0.72540  0.74473  0.76475  Biso   1.000  O
  Ga1      1.0000 0.44268  0.45876  0.30271  Biso   1.000  Ga
