data_image0
_cell_length_a       10.0438
_cell_length_b       5.20404
_cell_length_c       10.0991
_cell_angle_alpha    90.021
_cell_angle_beta     89.3814
_cell_angle_gamma    90.3507

_symmetry_space_group_name_H-M    "P 1"
_symmetry_int_tables_number       1

loop_
  _symmetry_equiv_pos_as_xyz
  'x, y, z'

loop_
  _atom_site_label
  _atom_site_occupancy
  _atom_site_fract_x
  _atom_site_fract_y
  _atom_site_fract_z
  _atom_site_thermal_displace_type
  _atom_site_B_iso_or_equiv
  _atom_site_type_symbol
  Hf1      1.0000 0.13753  0.08717  0.11602  Biso   1.000  Hf
  Hf2      1.0000 0.13629  0.45341  0.39738  Biso   1.000  Hf
  Hf3      1.0000 0.37219  0.52935  0.12057  Biso   1.000  Hf
  Hf4      1.0000 0.36727  0.96379  0.37721  Biso   1.000  Hf
  O1       1.0000 0.00549  0.33434  0.23936  Biso   1.000  O
  O2       1.0000 0.03864  0.12469  0.46045  Biso   1.000  O
  O3       1.0000 0.45963  0.86571  0.19690  Biso   1.000  O
  O4       1.0000 0.46588  0.63048  0.44559  Biso   1.000  O
  O5       1.0000 0.27108  0.23970  0.25606  Biso   1.000  O
  O6       1.0000 0.27611  0.25410  0.50588  Biso   1.000  O
  O7       1.0000 0.23357  0.75875  0.50415  Biso   1.000  O
  O8       1.0000 0.21975  0.72650  0.25282  Biso   1.000  O
  Hf5      1.0000 0.13745  0.02509  0.63275  Biso   1.000  Hf
  Hf6      1.0000 0.13427  0.46569  0.87220  Biso   1.000  Hf
  Hf7      1.0000 0.37111  0.53030  0.62785  Biso   1.000  Hf
  Hf8      1.0000 0.37474  0.96924  0.87109  Biso   1.000  Hf
  O9       1.0000 0.03992  0.36932  0.69141  Biso   1.000  O
  O10      1.0000 0.03812  0.12572  0.93889  Biso   1.000  O
  O11      1.0000 0.46867  0.86520  0.69006  Biso   1.000  O
  O12      1.0000 0.47135  0.63256  0.94215  Biso   1.000  O
  O13      1.0000 0.27097  0.23408  0.75049  Biso   1.000  O
  O14      1.0000 0.28813  0.26150  0.98997  Biso   1.000  O
  O15      1.0000 0.24337  0.78689  0.00054  Biso   1.000  O
  O16      1.0000 0.23507  0.73226  0.75206  Biso   1.000  O
  Hf9      1.0000 0.62928  0.02751  0.12530  Biso   1.000  Hf
  Hf10     1.0000 0.63440  0.46644  0.37621  Biso   1.000  Hf
  Hf11     1.0000 0.84492  0.52390  0.12145  Biso   1.000  Hf
  Hf12     1.0000 0.87556  0.97749  0.37021  Biso   1.000  Hf
  O17      1.0000 0.53531  0.36571  0.19362  Biso   1.000  O
  O18      1.0000 0.53525  0.13080  0.44374  Biso   1.000  O
  O19      1.0000 0.96128  0.86270  0.18809  Biso   1.000  O
  O20      1.0000 0.96982  0.64351  0.45047  Biso   1.000  O
  O21      1.0000 0.75970  0.22703  0.24834  Biso   1.000  O
  O22      1.0000 0.77221  0.27259  0.49580  Biso   1.000  O
  O23      1.0000 0.73521  0.77136  0.49482  Biso   1.000  O
  O24      1.0000 0.72622  0.73436  0.24833  Biso   1.000  O
  Hf13     1.0000 0.63886  0.03090  0.62057  Biso   1.000  Hf
  Hf14     1.0000 0.63702  0.46135  0.87123  Biso   1.000  Hf
  Hf15     1.0000 0.86953  0.53627  0.62484  Biso   1.000  Hf
  Hf16     1.0000 0.86508  0.96050  0.87197  Biso   1.000  Hf
  O25      1.0000 0.53765  0.36189  0.69468  Biso   1.000  O
  O26      1.0000 0.54147  0.12965  0.94374  Biso   1.000  O
  O27      1.0000 0.96592  0.86735  0.69639  Biso   1.000  O
  O28      1.0000 0.94851  0.61930  0.92404  Biso   1.000  O
  O29      1.0000 0.77239  0.23275  0.74539  Biso   1.000  O
  O30      1.0000 0.76952  0.25258  0.99730  Biso   1.000  O
  O31      1.0000 0.72533  0.75684  0.99915  Biso   1.000  O
  O32      1.0000 0.72859  0.73646  0.74530  Biso   1.000  O
  Ga1      1.0000 0.09964  0.58722  0.12391  Biso   1.000  Ga
