data_image0
_cell_length_a       10.1199
_cell_length_b       10.236
_cell_length_c       10.4547
_cell_angle_alpha    90.0692
_cell_angle_beta     80.4136
_cell_angle_gamma    89.8038

_symmetry_space_group_name_H-M    "P 1"
_symmetry_int_tables_number       1

loop_
  _symmetry_equiv_pos_as_xyz
  'x, y, z'

loop_
  _atom_site_label
  _atom_site_occupancy
  _atom_site_fract_x
  _atom_site_fract_y
  _atom_site_fract_z
  _atom_site_thermal_displace_type
  _atom_site_B_iso_or_equiv
  _atom_site_type_symbol
  Ga1      1.0000 0.12535  0.01187  0.15713  Biso   1.000  Ga
  Hf1      1.0000 0.13798  0.22632  0.39101  Biso   1.000  Hf
  Hf2      1.0000 0.35741  0.26689  0.10295  Biso   1.000  Hf
  Hf3      1.0000 0.36048  0.47818  0.35323  Biso   1.000  Hf
  O1       1.0000 0.04369  0.15900  0.07892  Biso   1.000  O
  O2       1.0000 0.03241  0.07986  0.33036  Biso   1.000  O
  O3       1.0000 0.46514  0.41569  0.17104  Biso   1.000  O
  O4       1.0000 0.46578  0.33324  0.42106  Biso   1.000  O
  O5       1.0000 0.27056  0.12233  0.23271  Biso   1.000  O
  O6       1.0000 0.27611  0.12236  0.48579  Biso   1.000  O
  O7       1.0000 0.22416  0.38241  0.00893  Biso   1.000  O
  O8       1.0000 0.22397  0.36934  0.25880  Biso   1.000  O
  Hf4      1.0000 0.13811  0.02123  0.64361  Biso   1.000  Hf
  Hf5      1.0000 0.14236  0.22522  0.89571  Biso   1.000  Hf
  Hf6      1.0000 0.36004  0.27168  0.60284  Biso   1.000  Hf
  Hf7      1.0000 0.36054  0.47970  0.85475  Biso   1.000  Hf
  O9       1.0000 0.03468  0.16722  0.57674  Biso   1.000  O
  O10      1.0000 0.03448  0.08297  0.82676  Biso   1.000  O
  O11      1.0000 0.46528  0.41727  0.67135  Biso   1.000  O
  O12      1.0000 0.46951  0.33786  0.92225  Biso   1.000  O
  O13      1.0000 0.27534  0.12751  0.73446  Biso   1.000  O
  O14      1.0000 0.29284  0.13547  0.97395  Biso   1.000  O
  O15      1.0000 0.22299  0.37917  0.50852  Biso   1.000  O
  O16      1.0000 0.22503  0.37081  0.75948  Biso   1.000  O
  Hf8      1.0000 0.13992  0.52211  0.14550  Biso   1.000  Hf
  Hf9      1.0000 0.13908  0.72840  0.39575  Biso   1.000  Hf
  Hf10     1.0000 0.35730  0.77550  0.10461  Biso   1.000  Hf
  Hf11     1.0000 0.35797  0.97936  0.35074  Biso   1.000  Hf
  O17      1.0000 0.03474  0.66797  0.07949  Biso   1.000  O
  O18      1.0000 0.03476  0.58186  0.32929  Biso   1.000  O
  O19      1.0000 0.46649  0.91662  0.17120  Biso   1.000  O
  O20      1.0000 0.46388  0.83283  0.42041  Biso   1.000  O
  O21      1.0000 0.27652  0.62826  0.24008  Biso   1.000  O
  O22      1.0000 0.27668  0.62124  0.49058  Biso   1.000  O
  O23      1.0000 0.22147  0.89193  0.01421  Biso   1.000  O
  O24      1.0000 0.22107  0.86904  0.26008  Biso   1.000  O
  Hf12     1.0000 0.14008  0.52131  0.64629  Biso   1.000  Hf
  Hf13     1.0000 0.13939  0.73252  0.89691  Biso   1.000  Hf
  Hf14     1.0000 0.36079  0.77251  0.60450  Biso   1.000  Hf
  Hf15     1.0000 0.36048  0.98260  0.85544  Biso   1.000  Hf
  O25      1.0000 0.03462  0.66684  0.58005  Biso   1.000  O
  O26      1.0000 0.03606  0.58381  0.83060  Biso   1.000  O
  O27      1.0000 0.46538  0.91830  0.67088  Biso   1.000  O
  O28      1.0000 0.46295  0.83362  0.92171  Biso   1.000  O
  O29      1.0000 0.27637  0.62997  0.74053  Biso   1.000  O
  O30      1.0000 0.27620  0.62539  0.99024  Biso   1.000  O
  O31      1.0000 0.22299  0.87901  0.50925  Biso   1.000  O
  O32      1.0000 0.22354  0.87220  0.76016  Biso   1.000  O
  Hf16     1.0000 0.63910  0.02173  0.14610  Biso   1.000  Hf
  Hf17     1.0000 0.63920  0.22850  0.39550  Biso   1.000  Hf
  Hf18     1.0000 0.86814  0.26654  0.10504  Biso   1.000  Hf
  Hf19     1.0000 0.86042  0.47867  0.35409  Biso   1.000  Hf
  O33      1.0000 0.53580  0.16797  0.07898  Biso   1.000  O
  O34      1.0000 0.53295  0.08385  0.32803  Biso   1.000  O
  O35      1.0000 0.96739  0.41609  0.17176  Biso   1.000  O
  O36      1.0000 0.96438  0.33216  0.42082  Biso   1.000  O
  O37      1.0000 0.77624  0.12747  0.24127  Biso   1.000  O
  O38      1.0000 0.77587  0.12114  0.49123  Biso   1.000  O
  O39      1.0000 0.72760  0.37726  0.01110  Biso   1.000  O
  O40      1.0000 0.72564  0.36970  0.25961  Biso   1.000  O
  Hf20     1.0000 0.63891  0.02167  0.64637  Biso   1.000  Hf
  Hf21     1.0000 0.64028  0.23013  0.89714  Biso   1.000  Hf
  Hf22     1.0000 0.86132  0.27159  0.60440  Biso   1.000  Hf
  Hf23     1.0000 0.86303  0.47804  0.85625  Biso   1.000  Hf
  O41      1.0000 0.53432  0.16754  0.57847  Biso   1.000  O
  O42      1.0000 0.53798  0.08280  0.82887  Biso   1.000  O
  O43      1.0000 0.96655  0.41659  0.67285  Biso   1.000  O
  O44      1.0000 0.96828  0.33178  0.92418  Biso   1.000  O
  O45      1.0000 0.77772  0.12970  0.74039  Biso   1.000  O
  O46      1.0000 0.77806  0.12080  0.99120  Biso   1.000  O
  O47      1.0000 0.72327  0.37880  0.51026  Biso   1.000  O
  O48      1.0000 0.72490  0.37218  0.76064  Biso   1.000  O
  Hf24     1.0000 0.63805  0.51968  0.14544  Biso   1.000  Hf
  Hf25     1.0000 0.63776  0.72864  0.39583  Biso   1.000  Hf
  Hf26     1.0000 0.86034  0.77165  0.10508  Biso   1.000  Hf
  Hf27     1.0000 0.85975  0.97749  0.35551  Biso   1.000  Hf
  O49      1.0000 0.53319  0.66749  0.07935  Biso   1.000  O
  O50      1.0000 0.53484  0.58138  0.32920  Biso   1.000  O
  O51      1.0000 0.96312  0.91544  0.17332  Biso   1.000  O
  O52      1.0000 0.96392  0.83063  0.42234  Biso   1.000  O
  O53      1.0000 0.77586  0.62818  0.24048  Biso   1.000  O
  O54      1.0000 0.77582  0.62069  0.49104  Biso   1.000  O
  O55      1.0000 0.72275  0.87907  0.00990  Biso   1.000  O
  O56      1.0000 0.72235  0.87057  0.26033  Biso   1.000  O
  Hf28     1.0000 0.63895  0.52126  0.64661  Biso   1.000  Hf
  Hf29     1.0000 0.63770  0.72926  0.89725  Biso   1.000  Hf
  Hf30     1.0000 0.86010  0.77013  0.60530  Biso   1.000  Hf
  Hf31     1.0000 0.86088  0.97911  0.85429  Biso   1.000  Hf
  O57      1.0000 0.53446  0.66767  0.57910  Biso   1.000  O
  O58      1.0000 0.53383  0.58443  0.82834  Biso   1.000  O
  O59      1.0000 0.96447  0.91691  0.67099  Biso   1.000  O
  O60      1.0000 0.96400  0.83268  0.92172  Biso   1.000  O
  O61      1.0000 0.77631  0.62839  0.74160  Biso   1.000  O
  O62      1.0000 0.77543  0.62055  0.99069  Biso   1.000  O
  O63      1.0000 0.72249  0.87806  0.51053  Biso   1.000  O
  O64      1.0000 0.72333  0.87113  0.76039  Biso   1.000  O
