data_image0
_cell_length_a       10.1587
_cell_length_b       5.19204
_cell_length_c       10.1587
_cell_angle_alpha    90.9706
_cell_angle_beta     87.4434
_cell_angle_gamma    90.9697

_symmetry_space_group_name_H-M    "P 1"
_symmetry_int_tables_number       1

loop_
  _symmetry_equiv_pos_as_xyz
  'x, y, z'

loop_
  _atom_site_label
  _atom_site_occupancy
  _atom_site_fract_x
  _atom_site_fract_y
  _atom_site_fract_z
  _atom_site_thermal_displace_type
  _atom_site_B_iso_or_equiv
  _atom_site_type_symbol
  Zr1      1.0000 0.12820  0.84419  0.12813  Biso   1.000  Zr
  Zr2      1.0000 0.13659  0.50148  0.38089  Biso   1.000  Zr
  Zr3      1.0000 0.38097  0.50146  0.13651  Biso   1.000  Zr
  Zr4      1.0000 0.38552  0.01177  0.38543  Biso   1.000  Zr
  O1       1.0000 0.97653  0.30056  0.97644  Biso   1.000  O
  O2       1.0000 0.03743  0.15023  0.24474  Biso   1.000  O
  O3       1.0000 0.98341  0.67518  0.26327  Biso   1.000  O
  O4       1.0000 0.98714  0.80968  0.98705  Biso   1.000  O
  O5       1.0000 0.29347  0.31619  0.29339  Biso   1.000  O
  O6       1.0000 0.24483  0.15021  0.03735  Biso   1.000  O
  O7       1.0000 0.26334  0.67514  0.98333  Biso   1.000  O
  O8       1.0000 0.26412  0.80629  0.26405  Biso   1.000  O
  Zr5      1.0000 0.12096  0.00049  0.62292  Biso   1.000  Zr
  Zr6      1.0000 0.10903  0.52923  0.85314  Biso   1.000  Zr
  Zr7      1.0000 0.37231  0.50484  0.62980  Biso   1.000  Zr
  Zr8      1.0000 0.36942  0.00130  0.88202  Biso   1.000  Zr
  O9       1.0000 0.99637  0.29264  0.48838  Biso   1.000  O
  O10      1.0000 0.99950  0.23535  0.73735  Biso   1.000  O
  O11      1.0000 0.98582  0.73181  0.74141  Biso   1.000  O
  O12      1.0000 0.00758  0.79850  0.49652  Biso   1.000  O
  O13      1.0000 0.25568  0.30491  0.77325  Biso   1.000  O
  O14      1.0000 0.25407  0.21587  0.52124  Biso   1.000  O
  O15      1.0000 0.25617  0.71351  0.50733  Biso   1.000  O
  O16      1.0000 0.23612  0.81038  0.75166  Biso   1.000  O
  Zr9      1.0000 0.62299  0.00049  0.12087  Biso   1.000  Zr
  Zr10     1.0000 0.62988  0.50485  0.37223  Biso   1.000  Zr
  Zr11     1.0000 0.85324  0.52924  0.10896  Biso   1.000  Zr
  Zr12     1.0000 0.88210  0.00133  0.36933  Biso   1.000  Zr
  O17      1.0000 0.48848  0.29260  0.99630  Biso   1.000  O
  O18      1.0000 0.52132  0.21587  0.25399  Biso   1.000  O
  O19      1.0000 0.50740  0.71351  0.25610  Biso   1.000  O
  O20      1.0000 0.49659  0.79846  0.00750  Biso   1.000  O
  O21      1.0000 0.77333  0.30494  0.25561  Biso   1.000  O
  O22      1.0000 0.73744  0.23534  0.99942  Biso   1.000  O
  O23      1.0000 0.74150  0.73181  0.98573  Biso   1.000  O
  O24      1.0000 0.75174  0.81040  0.23604  Biso   1.000  O
  Zr13     1.0000 0.62489  0.01472  0.62480  Biso   1.000  Zr
  Zr14     1.0000 0.61224  0.50813  0.87016  Biso   1.000  Zr
  Zr15     1.0000 0.87023  0.50815  0.61216  Biso   1.000  Zr
  Zr16     1.0000 0.86638  0.01875  0.86630  Biso   1.000  Zr
  O25      1.0000 0.50271  0.30530  0.50263  Biso   1.000  O
  O26      1.0000 0.50026  0.21377  0.75070  Biso   1.000  O
  O27      1.0000 0.48500  0.71504  0.76129  Biso   1.000  O
  O28      1.0000 0.50750  0.79815  0.50743  Biso   1.000  O
  O29      1.0000 0.74997  0.30948  0.74989  Biso   1.000  O
  O30      1.0000 0.75077  0.21382  0.50018  Biso   1.000  O
  O31      1.0000 0.76136  0.71509  0.48492  Biso   1.000  O
  O32      1.0000 0.73969  0.80446  0.73960  Biso   1.000  O
  Ga1      1.0000 0.11329  0.35822  0.11320  Biso   1.000  Ga
