data_image0
_cell_length_a       5.01719
_cell_length_b       10.3937
_cell_length_c       10.0731
_cell_angle_alpha    90.6198
_cell_angle_beta     89.4472
_cell_angle_gamma    90.3333

_symmetry_space_group_name_H-M    "P 1"
_symmetry_int_tables_number       1

loop_
  _symmetry_equiv_pos_as_xyz
  'x, y, z'

loop_
  _atom_site_label
  _atom_site_occupancy
  _atom_site_fract_x
  _atom_site_fract_y
  _atom_site_fract_z
  _atom_site_thermal_displace_type
  _atom_site_B_iso_or_equiv
  _atom_site_type_symbol
  Ga1      1.0000 0.24906  0.02488  0.10987  Biso   1.000  Ga
  Zr1      1.0000 0.26555  0.01489  0.62384  Biso   1.000  Zr
  Zr2      1.0000 0.26913  0.51403  0.12549  Biso   1.000  Zr
  Zr3      1.0000 0.26987  0.51726  0.62520  Biso   1.000  Zr
  Zr4      1.0000 0.26681  0.22824  0.37195  Biso   1.000  Zr
  Zr5      1.0000 0.26176  0.23756  0.87200  Biso   1.000  Zr
  Zr6      1.0000 0.27705  0.73537  0.37699  Biso   1.000  Zr
  Zr7      1.0000 0.26518  0.73971  0.87943  Biso   1.000  Zr
  Zr8      1.0000 0.72483  0.26061  0.12066  Biso   1.000  Zr
  Zr9      1.0000 0.73085  0.26550  0.62255  Biso   1.000  Zr
  Zr10     1.0000 0.74261  0.76471  0.12319  Biso   1.000  Zr
  Zr11     1.0000 0.73597  0.76889  0.62735  Biso   1.000  Zr
  Zr12     1.0000 0.73423  0.48257  0.37542  Biso   1.000  Zr
  Zr13     1.0000 0.73062  0.48823  0.87412  Biso   1.000  Zr
  Zr14     1.0000 0.73542  0.98513  0.36657  Biso   1.000  Zr
  Zr15     1.0000 0.72084  0.98854  0.87888  Biso   1.000  Zr
  O1       1.0000 0.04430  0.17745  0.20092  Biso   1.000  O
  O2       1.0000 0.06676  0.18493  0.69482  Biso   1.000  O
  O3       1.0000 0.07065  0.68152  0.20040  Biso   1.000  O
  O4       1.0000 0.06841  0.68393  0.69874  Biso   1.000  O
  O5       1.0000 0.06560  0.06688  0.45034  Biso   1.000  O
  O6       1.0000 0.05701  0.07251  0.94898  Biso   1.000  O
  O7       1.0000 0.07038  0.56648  0.44711  Biso   1.000  O
  O8       1.0000 0.06157  0.57234  0.95056  Biso   1.000  O
  O9       1.0000 0.93536  0.42856  0.19679  Biso   1.000  O
  O10      1.0000 0.93129  0.43397  0.69553  Biso   1.000  O
  O11      1.0000 0.97320  0.93077  0.19560  Biso   1.000  O
  O12      1.0000 0.93124  0.93514  0.70004  Biso   1.000  O
  O13      1.0000 0.93426  0.31660  0.44512  Biso   1.000  O
  O14      1.0000 0.92818  0.32147  0.94526  Biso   1.000  O
  O15      1.0000 0.94482  0.82015  0.45179  Biso   1.000  O
  O16      1.0000 0.91779  0.82042  0.94169  Biso   1.000  O
  O17      1.0000 0.51085  0.10210  0.23761  Biso   1.000  O
  O18      1.0000 0.53640  0.11785  0.74425  Biso   1.000  O
  O19      1.0000 0.54038  0.60689  0.24743  Biso   1.000  O
  O20      1.0000 0.53647  0.61974  0.74994  Biso   1.000  O
  O21      1.0000 0.54235  0.13381  0.49180  Biso   1.000  O
  O22      1.0000 0.52765  0.13889  0.99141  Biso   1.000  O
  O23      1.0000 0.54303  0.63436  0.49930  Biso   1.000  O
  O24      1.0000 0.53312  0.63665  0.99898  Biso   1.000  O
  O25      1.0000 0.46150  0.38292  0.49713  Biso   1.000  O
  O26      1.0000 0.45883  0.38666  0.99577  Biso   1.000  O
  O27      1.0000 0.47115  0.88554  0.50108  Biso   1.000  O
  O28      1.0000 0.44864  0.89134  0.01012  Biso   1.000  O
  O29      1.0000 0.46211  0.35919  0.24599  Biso   1.000  O
  O30      1.0000 0.46101  0.36909  0.74647  Biso   1.000  O
  O31      1.0000 0.50904  0.84918  0.25913  Biso   1.000  O
  O32      1.0000 0.45833  0.86875  0.75223  Biso   1.000  O
