data_image0
_cell_length_a       10.0576
_cell_length_b       5.0011
_cell_length_c       10.0584
_cell_angle_alpha    89.9984
_cell_angle_beta     89.9971
_cell_angle_gamma    89.9987

_symmetry_space_group_name_H-M    "P 1"
_symmetry_int_tables_number       1

loop_
  _symmetry_equiv_pos_as_xyz
  'x, y, z'

loop_
  _atom_site_label
  _atom_site_occupancy
  _atom_site_fract_x
  _atom_site_fract_y
  _atom_site_fract_z
  _atom_site_thermal_displace_type
  _atom_site_B_iso_or_equiv
  _atom_site_type_symbol
  Ge1      1.0000 0.12504  0.99932  0.12505  Biso   1.000  Ge
  Hf1      1.0000 0.12504  0.49932  0.37591  Biso   1.000  Hf
  Hf2      1.0000 0.37588  0.49932  0.12504  Biso   1.000  Hf
  Hf3      1.0000 0.37385  0.00901  0.37386  Biso   1.000  Hf
  O1       1.0000 0.97519  0.30619  0.97516  Biso   1.000  O
  O2       1.0000 0.02291  0.20491  0.22710  Biso   1.000  O
  O3       1.0000 0.97520  0.69250  0.27493  Biso   1.000  O
  O4       1.0000 0.02292  0.79375  0.02298  Biso   1.000  O
  O5       1.0000 0.27488  0.30612  0.27492  Biso   1.000  O
  O6       1.0000 0.22715  0.20491  0.02297  Biso   1.000  O
  O7       1.0000 0.27488  0.69250  0.97516  Biso   1.000  O
  O8       1.0000 0.22716  0.79372  0.22711  Biso   1.000  O
  Hf4      1.0000 0.12501  0.99930  0.62503  Biso   1.000  Hf
  Hf5      1.0000 0.12504  0.49935  0.87418  Biso   1.000  Hf
  Hf6      1.0000 0.37577  0.49933  0.62504  Biso   1.000  Hf
  Hf7      1.0000 0.37383  0.98965  0.87623  Biso   1.000  Hf
  O9       1.0000 0.98725  0.26178  0.47950  Biso   1.000  O
  O10      1.0000 0.01096  0.24536  0.73242  Biso   1.000  O
  O11      1.0000 0.98724  0.73687  0.77058  Biso   1.000  O
  O12      1.0000 0.01094  0.75329  0.51767  Biso   1.000  O
  O13      1.0000 0.26285  0.26188  0.77058  Biso   1.000  O
  O14      1.0000 0.23913  0.24531  0.51767  Biso   1.000  O
  O15      1.0000 0.26282  0.73682  0.47950  Biso   1.000  O
  O16      1.0000 0.23913  0.75339  0.73242  Biso   1.000  O
  Hf8      1.0000 0.62502  0.99931  0.12502  Biso   1.000  Hf
  Hf9      1.0000 0.62504  0.49933  0.37575  Biso   1.000  Hf
  Hf10     1.0000 0.87419  0.49935  0.12504  Biso   1.000  Hf
  Hf11     1.0000 0.87623  0.98965  0.37384  Biso   1.000  Hf
  O17      1.0000 0.47954  0.26186  0.98717  Biso   1.000  O
  O18      1.0000 0.51760  0.24529  0.23905  Biso   1.000  O
  O19      1.0000 0.47954  0.73674  0.26291  Biso   1.000  O
  O20      1.0000 0.51760  0.75332  0.01103  Biso   1.000  O
  O21      1.0000 0.77054  0.26197  0.26294  Biso   1.000  O
  O22      1.0000 0.73248  0.24534  0.01105  Biso   1.000  O
  O23      1.0000 0.77053  0.73679  0.98717  Biso   1.000  O
  O24      1.0000 0.73248  0.75342  0.23905  Biso   1.000  O
  Hf12     1.0000 0.62504  0.99930  0.62504  Biso   1.000  Hf
  Hf13     1.0000 0.62503  0.49931  0.87432  Biso   1.000  Hf
  Hf14     1.0000 0.87429  0.49931  0.62504  Biso   1.000  Hf
  Hf15     1.0000 0.87625  0.00904  0.87625  Biso   1.000  Hf
  O25      1.0000 0.48743  0.26029  0.48735  Biso   1.000  O
  O26      1.0000 0.51190  0.24635  0.73810  Biso   1.000  O
  O27      1.0000 0.48743  0.73840  0.76272  Biso   1.000  O
  O28      1.0000 0.51188  0.75236  0.51197  Biso   1.000  O
  O29      1.0000 0.76264  0.26020  0.76273  Biso   1.000  O
  O30      1.0000 0.73817  0.24636  0.51200  Biso   1.000  O
  O31      1.0000 0.76263  0.73841  0.48736  Biso   1.000  O
  O32      1.0000 0.73817  0.75224  0.73809  Biso   1.000  O
