data_image0
_cell_length_a       10.0899
_cell_length_b       10.2386
_cell_length_c       10.4575
_cell_angle_alpha    90.1271
_cell_angle_beta     80.6265
_cell_angle_gamma    89.66

_symmetry_space_group_name_H-M    "P 1"
_symmetry_int_tables_number       1

loop_
  _symmetry_equiv_pos_as_xyz
  'x, y, z'

loop_
  _atom_site_label
  _atom_site_occupancy
  _atom_site_fract_x
  _atom_site_fract_y
  _atom_site_fract_z
  _atom_site_thermal_displace_type
  _atom_site_B_iso_or_equiv
  _atom_site_type_symbol
  Ge1      1.0000 0.12237  0.01214  0.16168  Biso   1.000  Ge
  Hf1      1.0000 0.13752  0.22707  0.39042  Biso   1.000  Hf
  Hf2      1.0000 0.35861  0.26864  0.10035  Biso   1.000  Hf
  Hf3      1.0000 0.36131  0.47806  0.35298  Biso   1.000  Hf
  O1       1.0000 0.04889  0.15328  0.08041  Biso   1.000  O
  O2       1.0000 0.03439  0.07632  0.32620  Biso   1.000  O
  O3       1.0000 0.46417  0.41792  0.17026  Biso   1.000  O
  O4       1.0000 0.46536  0.33237  0.42050  Biso   1.000  O
  O5       1.0000 0.26419  0.11777  0.22486  Biso   1.000  O
  O6       1.0000 0.27678  0.12257  0.48190  Biso   1.000  O
  O7       1.0000 0.22411  0.38453  0.00831  Biso   1.000  O
  O8       1.0000 0.22540  0.36739  0.25837  Biso   1.000  O
  Hf4      1.0000 0.13704  0.02081  0.64311  Biso   1.000  Hf
  Hf5      1.0000 0.14359  0.22507  0.89350  Biso   1.000  Hf
  Hf6      1.0000 0.36087  0.27204  0.60208  Biso   1.000  Hf
  Hf7      1.0000 0.36130  0.48039  0.85457  Biso   1.000  Hf
  O9       1.0000 0.03486  0.16585  0.57410  Biso   1.000  O
  O10      1.0000 0.03513  0.08273  0.82608  Biso   1.000  O
  O11      1.0000 0.46454  0.41832  0.67104  Biso   1.000  O
  O12      1.0000 0.47091  0.33958  0.92247  Biso   1.000  O
  O13      1.0000 0.27504  0.12739  0.73145  Biso   1.000  O
  O14      1.0000 0.29682  0.14049  0.96860  Biso   1.000  O
  O15      1.0000 0.22203  0.37855  0.50762  Biso   1.000  O
  O16      1.0000 0.22532  0.37036  0.75908  Biso   1.000  O
  Hf8      1.0000 0.13967  0.52277  0.14578  Biso   1.000  Hf
  Hf9      1.0000 0.13762  0.72770  0.39705  Biso   1.000  Hf
  Hf10     1.0000 0.35752  0.77621  0.10521  Biso   1.000  Hf
  Hf11     1.0000 0.35974  0.97787  0.35162  Biso   1.000  Hf
  O17      1.0000 0.03518  0.66873  0.07972  Biso   1.000  O
  O18      1.0000 0.03574  0.58000  0.33019  Biso   1.000  O
  O19      1.0000 0.46529  0.91743  0.17207  Biso   1.000  O
  O20      1.0000 0.46306  0.83132  0.42008  Biso   1.000  O
  O21      1.0000 0.27631  0.63026  0.24072  Biso   1.000  O
  O22      1.0000 0.27697  0.62049  0.49079  Biso   1.000  O
  O23      1.0000 0.21847  0.90395  0.02175  Biso   1.000  O
  O24      1.0000 0.21597  0.87182  0.26008  Biso   1.000  O
  Hf12     1.0000 0.14025  0.52062  0.64560  Biso   1.000  Hf
  Hf13     1.0000 0.13730  0.73061  0.89579  Biso   1.000  Hf
  Hf14     1.0000 0.36106  0.77231  0.60571  Biso   1.000  Hf
  Hf15     1.0000 0.36129  0.98492  0.85498  Biso   1.000  Hf
  O25      1.0000 0.03482  0.66678  0.58036  Biso   1.000  O
  O26      1.0000 0.03656  0.58300  0.83053  Biso   1.000  O
  O27      1.0000 0.46427  0.91979  0.67051  Biso   1.000  O
  O28      1.0000 0.45830  0.83281  0.92238  Biso   1.000  O
  O29      1.0000 0.27602  0.62965  0.74008  Biso   1.000  O
  O30      1.0000 0.27576  0.62804  0.99022  Biso   1.000  O
  O31      1.0000 0.22308  0.87859  0.50973  Biso   1.000  O
  O32      1.0000 0.22325  0.87174  0.76286  Biso   1.000  O
  Hf16     1.0000 0.63847  0.02244  0.14578  Biso   1.000  Hf
  Hf17     1.0000 0.63922  0.22860  0.39550  Biso   1.000  Hf
  Hf18     1.0000 0.86863  0.26620  0.10610  Biso   1.000  Hf
  Hf19     1.0000 0.86075  0.47812  0.35415  Biso   1.000  Hf
  O33      1.0000 0.53623  0.16882  0.07902  Biso   1.000  O
  O34      1.0000 0.53309  0.08333  0.32807  Biso   1.000  O
  O35      1.0000 0.96841  0.41498  0.17234  Biso   1.000  O
  O36      1.0000 0.96343  0.32990  0.42038  Biso   1.000  O
  O37      1.0000 0.77695  0.12664  0.24136  Biso   1.000  O
  O38      1.0000 0.77679  0.12008  0.49104  Biso   1.000  O
  O39      1.0000 0.72874  0.37717  0.01207  Biso   1.000  O
  O40      1.0000 0.72622  0.36873  0.25914  Biso   1.000  O
  Hf20     1.0000 0.63839  0.02176  0.64661  Biso   1.000  Hf
  Hf21     1.0000 0.64042  0.23046  0.89718  Biso   1.000  Hf
  Hf22     1.0000 0.86154  0.27137  0.60488  Biso   1.000  Hf
  Hf23     1.0000 0.86346  0.47704  0.85698  Biso   1.000  Hf
  O41      1.0000 0.53554  0.16858  0.57836  Biso   1.000  O
  O42      1.0000 0.53946  0.08198  0.82906  Biso   1.000  O
  O43      1.0000 0.96674  0.41561  0.67381  Biso   1.000  O
  O44      1.0000 0.96883  0.33033  0.92665  Biso   1.000  O
  O45      1.0000 0.77821  0.13000  0.74022  Biso   1.000  O
  O46      1.0000 0.77896  0.12092  0.99169  Biso   1.000  O
  O47      1.0000 0.72332  0.37848  0.51046  Biso   1.000  O
  O48      1.0000 0.72505  0.37225  0.76137  Biso   1.000  O
  Hf24     1.0000 0.63730  0.52001  0.14526  Biso   1.000  Hf
  Hf25     1.0000 0.63772  0.72745  0.39598  Biso   1.000  Hf
  Hf26     1.0000 0.86027  0.77090  0.10463  Biso   1.000  Hf
  Hf27     1.0000 0.85710  0.97610  0.35762  Biso   1.000  Hf
  O49      1.0000 0.53368  0.66978  0.08024  Biso   1.000  O
  O50      1.0000 0.53622  0.57978  0.32973  Biso   1.000  O
  O51      1.0000 0.96647  0.91664  0.17368  Biso   1.000  O
  O52      1.0000 0.96238  0.82982  0.42300  Biso   1.000  O
  O53      1.0000 0.77663  0.62789  0.24024  Biso   1.000  O
  O54      1.0000 0.77625  0.61996  0.49120  Biso   1.000  O
  O55      1.0000 0.72204  0.87967  0.01043  Biso   1.000  O
  O56      1.0000 0.72478  0.87013  0.26009  Biso   1.000  O
  Hf28     1.0000 0.63865  0.52137  0.64696  Biso   1.000  Hf
  Hf29     1.0000 0.63629  0.72983  0.89741  Biso   1.000  Hf
  Hf30     1.0000 0.85954  0.76962  0.60630  Biso   1.000  Hf
  Hf31     1.0000 0.86124  0.97945  0.85433  Biso   1.000  Hf
  O57      1.0000 0.53544  0.66863  0.57908  Biso   1.000  O
  O58      1.0000 0.53411  0.58499  0.82816  Biso   1.000  O
  O59      1.0000 0.96374  0.91651  0.67160  Biso   1.000  O
  O60      1.0000 0.96325  0.83265  0.92281  Biso   1.000  O
  O61      1.0000 0.77664  0.62824  0.74232  Biso   1.000  O
  O62      1.0000 0.77571  0.62108  0.99086  Biso   1.000  O
  O63      1.0000 0.72116  0.87770  0.51101  Biso   1.000  O
  O64      1.0000 0.72248  0.87098  0.76106  Biso   1.000  O
