data_image0
_cell_length_a       10.1226
_cell_length_b       10.3308
_cell_length_c       5.24189
_cell_angle_alpha    90.0887
_cell_angle_beta     91.856
_cell_angle_gamma    89.6576

_symmetry_space_group_name_H-M    "P 1"
_symmetry_int_tables_number       1

loop_
  _symmetry_equiv_pos_as_xyz
  'x, y, z'

loop_
  _atom_site_label
  _atom_site_occupancy
  _atom_site_fract_x
  _atom_site_fract_y
  _atom_site_fract_z
  _atom_site_thermal_displace_type
  _atom_site_B_iso_or_equiv
  _atom_site_type_symbol
  Hf1      1.0000 0.13638  0.01778  0.35623  Biso   1.000  Hf
  Hf2      1.0000 0.14124  0.22765  0.86097  Biso   1.000  Hf
  Hf3      1.0000 0.34971  0.26610  0.36937  Biso   1.000  Hf
  Hf4      1.0000 0.36083  0.48428  0.85581  Biso   1.000  Hf
  Hf5      1.0000 0.64522  0.01586  0.15434  Biso   1.000  Hf
  Hf6      1.0000 0.65635  0.23402  0.64078  Biso   1.000  Hf
  Hf7      1.0000 0.86482  0.27248  0.14918  Biso   1.000  Hf
  Hf8      1.0000 0.86968  0.48235  0.65393  Biso   1.000  Hf
  O1       1.0000 0.03438  0.16854  0.18052  Biso   1.000  O
  O2       1.0000 0.03685  0.08171  0.67890  Biso   1.000  O
  O3       1.0000 0.47260  0.43203  0.18646  Biso   1.000  O
  O4       1.0000 0.47647  0.34499  0.65145  Biso   1.000  O
  O5       1.0000 0.27572  0.12437  0.60941  Biso   1.000  O
  O6       1.0000 0.26514  0.11126  0.11283  Biso   1.000  O
  O7       1.0000 0.22429  0.37585  0.61326  Biso   1.000  O
  O8       1.0000 0.22181  0.37704  0.11280  Biso   1.000  O
  O9       1.0000 0.52958  0.15514  0.35871  Biso   1.000  O
  O10      1.0000 0.53346  0.06809  0.82370  Biso   1.000  O
  O11      1.0000 0.96921  0.41842  0.33126  Biso   1.000  O
  O12      1.0000 0.97168  0.33159  0.82964  Biso   1.000  O
  O13      1.0000 0.78424  0.12310  0.89736  Biso   1.000  O
  O14      1.0000 0.78177  0.12428  0.39690  Biso   1.000  O
  O15      1.0000 0.74092  0.38887  0.89732  Biso   1.000  O
  O16      1.0000 0.73034  0.37576  0.40074  Biso   1.000  O
  Hf9      1.0000 0.14056  0.52109  0.34968  Biso   1.000  Hf
  Hf10     1.0000 0.14067  0.73001  0.85022  Biso   1.000  Hf
  Hf11     1.0000 0.36513  0.77004  0.35338  Biso   1.000  Hf
  Hf12     1.0000 0.36023  0.97359  0.85893  Biso   1.000  Hf
  Hf13     1.0000 0.64583  0.52654  0.15122  Biso   1.000  Hf
  Hf14     1.0000 0.64093  0.73009  0.65677  Biso   1.000  Hf
  Hf15     1.0000 0.86539  0.77013  0.15994  Biso   1.000  Hf
  Hf16     1.0000 0.86549  0.97904  0.66048  Biso   1.000  Hf
  O17      1.0000 0.03708  0.66704  0.17406  Biso   1.000  O
  O18      1.0000 0.03916  0.58362  0.67633  Biso   1.000  O
  O19      1.0000 0.47107  0.91434  0.17930  Biso   1.000  O
  O20      1.0000 0.46735  0.82943  0.68003  Biso   1.000  O
  O21      1.0000 0.27831  0.62531  0.59595  Biso   1.000  O
  O22      1.0000 0.27711  0.62394  0.09640  Biso   1.000  O
  O23      1.0000 0.22542  0.87294  0.60266  Biso   1.000  O
  O24      1.0000 0.22631  0.86987  0.10499  Biso   1.000  O
  O25      1.0000 0.53871  0.67069  0.33013  Biso   1.000  O
  O26      1.0000 0.53499  0.58579  0.83087  Biso   1.000  O
  O27      1.0000 0.96690  0.91651  0.33384  Biso   1.000  O
  O28      1.0000 0.96898  0.83310  0.83611  Biso   1.000  O
  O29      1.0000 0.77974  0.63026  0.90518  Biso   1.000  O
  O30      1.0000 0.78064  0.62718  0.40750  Biso   1.000  O
  O31      1.0000 0.72895  0.87619  0.91376  Biso   1.000  O
  O32      1.0000 0.72775  0.87482  0.41421  Biso   1.000  O
  Ge1      1.0000 0.50303  0.25008  0.00508  Biso   1.000  Ge
