data_image0
_cell_length_a       10.0823
_cell_length_b       10.2744
_cell_length_c       10.4933
_cell_angle_alpha    90.076
_cell_angle_beta     90.4887
_cell_angle_gamma    89.6854

_symmetry_space_group_name_H-M    "P 1"
_symmetry_int_tables_number       1

loop_
  _symmetry_equiv_pos_as_xyz
  'x, y, z'

loop_
  _atom_site_label
  _atom_site_occupancy
  _atom_site_fract_x
  _atom_site_fract_y
  _atom_site_fract_z
  _atom_site_thermal_displace_type
  _atom_site_B_iso_or_equiv
  _atom_site_type_symbol
  Ge1      1.0000 0.12107  0.00949  0.18709  Biso   1.000  Ge
  Zr1      1.0000 0.13715  0.02091  0.66758  Biso   1.000  Zr
  Zr2      1.0000 0.13925  0.52314  0.17089  Biso   1.000  Zr
  Zr3      1.0000 0.13952  0.52066  0.67166  Biso   1.000  Zr
  Zr4      1.0000 0.13749  0.22907  0.41496  Biso   1.000  Zr
  Zr5      1.0000 0.14591  0.22508  0.92076  Biso   1.000  Zr
  Zr6      1.0000 0.13614  0.72843  0.42185  Biso   1.000  Zr
  Zr7      1.0000 0.13765  0.73274  0.92126  Biso   1.000  Zr
  Zr8      1.0000 0.35885  0.27017  0.16714  Biso   1.000  Zr
  Zr9      1.0000 0.36099  0.27178  0.66916  Biso   1.000  Zr
  Zr10     1.0000 0.35778  0.77726  0.17033  Biso   1.000  Zr
  Zr11     1.0000 0.36124  0.77183  0.67191  Biso   1.000  Zr
  Zr12     1.0000 0.36022  0.47897  0.42073  Biso   1.000  Zr
  Zr13     1.0000 0.36170  0.47991  0.92110  Biso   1.000  Zr
  Zr14     1.0000 0.35812  0.98063  0.41839  Biso   1.000  Zr
  Zr15     1.0000 0.36105  0.98329  0.92186  Biso   1.000  Zr
  Zr16     1.0000 0.63989  0.02172  0.07782  Biso   1.000  Zr
  Zr17     1.0000 0.63600  0.02075  0.57960  Biso   1.000  Zr
  Zr18     1.0000 0.63906  0.52026  0.07929  Biso   1.000  Zr
  Zr19     1.0000 0.63883  0.52057  0.58033  Biso   1.000  Zr
  Zr20     1.0000 0.63769  0.22919  0.32838  Biso   1.000  Zr
  Zr21     1.0000 0.64002  0.22985  0.83003  Biso   1.000  Zr
  Zr22     1.0000 0.63580  0.72734  0.32868  Biso   1.000  Zr
  Zr23     1.0000 0.63916  0.72927  0.82989  Biso   1.000  Zr
  Zr24     1.0000 0.86965  0.26540  0.08341  Biso   1.000  Zr
  Zr25     1.0000 0.86110  0.27022  0.58031  Biso   1.000  Zr
  Zr26     1.0000 0.86105  0.77077  0.08002  Biso   1.000  Zr
  Zr27     1.0000 0.85914  0.76952  0.58103  Biso   1.000  Zr
  Zr28     1.0000 0.86052  0.47850  0.32996  Biso   1.000  Zr
  Zr29     1.0000 0.86440  0.47646  0.83302  Biso   1.000  Zr
  Zr30     1.0000 0.85582  0.97729  0.33275  Biso   1.000  Zr
  Zr31     1.0000 0.86227  0.98005  0.82946  Biso   1.000  Zr
  O1       1.0000 0.05286  0.14960  0.09006  Biso   1.000  O
  O2       1.0000 0.03233  0.16357  0.57884  Biso   1.000  O
  O3       1.0000 0.03330  0.66683  0.08457  Biso   1.000  O
  O4       1.0000 0.03170  0.66402  0.58464  Biso   1.000  O
  O5       1.0000 0.03306  0.07764  0.33279  Biso   1.000  O
  O6       1.0000 0.03360  0.08601  0.83081  Biso   1.000  O
  O7       1.0000 0.03201  0.58333  0.33485  Biso   1.000  O
  O8       1.0000 0.03448  0.58538  0.83620  Biso   1.000  O
  O9       1.0000 0.46698  0.41772  0.08463  Biso   1.000  O
  O10      1.0000 0.46612  0.41791  0.58456  Biso   1.000  O
  O11      1.0000 0.46793  0.91595  0.08225  Biso   1.000  O
  O12      1.0000 0.46408  0.91808  0.58379  Biso   1.000  O
  O13      1.0000 0.46520  0.33133  0.33568  Biso   1.000  O
  O14      1.0000 0.46843  0.33527  0.83310  Biso   1.000  O
  O15      1.0000 0.46145  0.83298  0.33459  Biso   1.000  O
  O16      1.0000 0.46730  0.83418  0.83397  Biso   1.000  O
  O17      1.0000 0.26517  0.11560  0.27662  Biso   1.000  O
  O18      1.0000 0.27554  0.12216  0.78519  Biso   1.000  O
  O19      1.0000 0.27440  0.62656  0.29431  Biso   1.000  O
  O20      1.0000 0.27565  0.62454  0.79438  Biso   1.000  O
  O21      1.0000 0.30246  0.14710  0.02343  Biso   1.000  O
  O22      1.0000 0.27538  0.12807  0.53610  Biso   1.000  O
  O23      1.0000 0.27694  0.63570  0.04317  Biso   1.000  O
  O24      1.0000 0.27492  0.62578  0.54490  Biso   1.000  O
  O25      1.0000 0.22397  0.37363  0.29445  Biso   1.000  O
  O26      1.0000 0.22606  0.37340  0.79482  Biso   1.000  O
  O27      1.0000 0.21342  0.87749  0.29233  Biso   1.000  O
  O28      1.0000 0.22392  0.87442  0.79734  Biso   1.000  O
  O29      1.0000 0.22195  0.38380  0.04436  Biso   1.000  O
  O30      1.0000 0.22255  0.37586  0.54337  Biso   1.000  O
  O31      1.0000 0.21514  0.89918  0.05375  Biso   1.000  O
  O32      1.0000 0.22321  0.87596  0.54392  Biso   1.000  O
  O33      1.0000 0.53556  0.16758  0.16407  Biso   1.000  O
  O34      1.0000 0.53376  0.16862  0.66383  Biso   1.000  O
  O35      1.0000 0.53133  0.66775  0.16510  Biso   1.000  O
  O36      1.0000 0.53374  0.66745  0.66489  Biso   1.000  O
  O37      1.0000 0.53132  0.08220  0.41296  Biso   1.000  O
  O38      1.0000 0.53907  0.08037  0.91113  Biso   1.000  O
  O39      1.0000 0.53231  0.58287  0.41515  Biso   1.000  O
  O40      1.0000 0.53467  0.58311  0.91524  Biso   1.000  O
  O41      1.0000 0.97007  0.41265  0.16911  Biso   1.000  O
  O42      1.0000 0.96896  0.41232  0.67053  Biso   1.000  O
  O43      1.0000 0.96798  0.91518  0.16953  Biso   1.000  O
  O44      1.0000 0.96688  0.91378  0.66734  Biso   1.000  O
  O45      1.0000 0.96541  0.33237  0.41632  Biso   1.000  O
  O46      1.0000 0.97180  0.33088  0.92408  Biso   1.000  O
  O47      1.0000 0.96341  0.83266  0.41828  Biso   1.000  O
  O48      1.0000 0.96593  0.83514  0.91822  Biso   1.000  O
  O49      1.0000 0.77994  0.12360  0.95717  Biso   1.000  O
  O50      1.0000 0.77410  0.12296  0.45616  Biso   1.000  O
  O51      1.0000 0.77743  0.62322  0.95703  Biso   1.000  O
  O52      1.0000 0.77452  0.62322  0.45613  Biso   1.000  O
  O53      1.0000 0.77814  0.12420  0.20617  Biso   1.000  O
  O54      1.0000 0.77587  0.12606  0.70546  Biso   1.000  O
  O55      1.0000 0.77477  0.62501  0.20617  Biso   1.000  O
  O56      1.0000 0.77682  0.62446  0.70746  Biso   1.000  O
  O57      1.0000 0.72906  0.37194  0.95860  Biso   1.000  O
  O58      1.0000 0.72399  0.37372  0.45672  Biso   1.000  O
  O59      1.0000 0.72496  0.87361  0.95612  Biso   1.000  O
  O60      1.0000 0.72017  0.87248  0.45656  Biso   1.000  O
  O61      1.0000 0.72727  0.37338  0.20578  Biso   1.000  O
  O62      1.0000 0.72574  0.37617  0.70749  Biso   1.000  O
  O63      1.0000 0.72514  0.87534  0.20657  Biso   1.000  O
  O64      1.0000 0.72386  0.87616  0.70622  Biso   1.000  O
