data_image0
_cell_length_a       10.0137
_cell_length_b       10.4373
_cell_length_c       10.0527
_cell_angle_alpha    90.4782
_cell_angle_beta     89.608
_cell_angle_gamma    90.1405

_symmetry_space_group_name_H-M    "P 1"
_symmetry_int_tables_number       1

loop_
  _symmetry_equiv_pos_as_xyz
  'x, y, z'

loop_
  _atom_site_label
  _atom_site_occupancy
  _atom_site_fract_x
  _atom_site_fract_y
  _atom_site_fract_z
  _atom_site_thermal_displace_type
  _atom_site_B_iso_or_equiv
  _atom_site_type_symbol
  Ge1      1.0000 0.12081  0.03129  0.10973  Biso   1.000  Ge
  Zr1      1.0000 0.13449  0.01697  0.62711  Biso   1.000  Zr
  Zr2      1.0000 0.13336  0.51334  0.12489  Biso   1.000  Zr
  Zr3      1.0000 0.13482  0.51619  0.62502  Biso   1.000  Zr
  Zr4      1.0000 0.63430  0.01608  0.12576  Biso   1.000  Zr
  Zr5      1.0000 0.63035  0.01378  0.62207  Biso   1.000  Zr
  Zr6      1.0000 0.63512  0.51703  0.12722  Biso   1.000  Zr
  Zr7      1.0000 0.63324  0.51696  0.62420  Biso   1.000  Zr
  Zr8      1.0000 0.13325  0.22963  0.37087  Biso   1.000  Zr
  Zr9      1.0000 0.13228  0.23976  0.87342  Biso   1.000  Zr
  Zr10     1.0000 0.13607  0.73167  0.37765  Biso   1.000  Zr
  Zr11     1.0000 0.13165  0.73665  0.87862  Biso   1.000  Zr
  Zr12     1.0000 0.63453  0.23279  0.37679  Biso   1.000  Zr
  Zr13     1.0000 0.63277  0.23518  0.87276  Biso   1.000  Zr
  Zr14     1.0000 0.63630  0.73657  0.37550  Biso   1.000  Zr
  Zr15     1.0000 0.63143  0.73648  0.87625  Biso   1.000  Zr
  Zr16     1.0000 0.36872  0.26352  0.12073  Biso   1.000  Zr
  Zr17     1.0000 0.36617  0.26613  0.62354  Biso   1.000  Zr
  Zr18     1.0000 0.36753  0.76276  0.12790  Biso   1.000  Zr
  Zr19     1.0000 0.36604  0.76842  0.62956  Biso   1.000  Zr
  Zr20     1.0000 0.86419  0.26640  0.12298  Biso   1.000  Zr
  Zr21     1.0000 0.86605  0.26524  0.62354  Biso   1.000  Zr
  Zr22     1.0000 0.87370  0.76632  0.12259  Biso   1.000  Zr
  Zr23     1.0000 0.86767  0.76657  0.62435  Biso   1.000  Zr
  Zr24     1.0000 0.36791  0.48229  0.37485  Biso   1.000  Zr
  Zr25     1.0000 0.36628  0.48817  0.87437  Biso   1.000  Zr
  Zr26     1.0000 0.36364  0.98040  0.37277  Biso   1.000  Zr
  Zr27     1.0000 0.36096  0.98787  0.88233  Biso   1.000  Zr
  Zr28     1.0000 0.86646  0.48394  0.37538  Biso   1.000  Zr
  Zr29     1.0000 0.86441  0.48676  0.87375  Biso   1.000  Zr
  Zr30     1.0000 0.87169  0.98574  0.37276  Biso   1.000  Zr
  Zr31     1.0000 0.86317  0.98587  0.87283  Biso   1.000  Zr
  O1       1.0000 0.03518  0.18104  0.18557  Biso   1.000  O
  O2       1.0000 0.03311  0.18390  0.69778  Biso   1.000  O
  O3       1.0000 0.03680  0.68213  0.19578  Biso   1.000  O
  O4       1.0000 0.03534  0.68457  0.69644  Biso   1.000  O
  O5       1.0000 0.52996  0.18081  0.20036  Biso   1.000  O
  O6       1.0000 0.53506  0.18463  0.69307  Biso   1.000  O
  O7       1.0000 0.53655  0.68341  0.19855  Biso   1.000  O
  O8       1.0000 0.53342  0.68311  0.69776  Biso   1.000  O
  O9       1.0000 0.03525  0.06705  0.44939  Biso   1.000  O
  O10      1.0000 0.03290  0.06724  0.94892  Biso   1.000  O
  O11      1.0000 0.03509  0.56404  0.44669  Biso   1.000  O
  O12      1.0000 0.03239  0.56846  0.94670  Biso   1.000  O
  O13      1.0000 0.53523  0.06606  0.44421  Biso   1.000  O
  O14      1.0000 0.52961  0.07167  0.95055  Biso   1.000  O
  O15      1.0000 0.53731  0.56711  0.44348  Biso   1.000  O
  O16      1.0000 0.53322  0.56998  0.94817  Biso   1.000  O
  O17      1.0000 0.46638  0.43182  0.19295  Biso   1.000  O
  O18      1.0000 0.46414  0.43460  0.69437  Biso   1.000  O
  O19      1.0000 0.47273  0.92932  0.19863  Biso   1.000  O
  O20      1.0000 0.46363  0.93551  0.70134  Biso   1.000  O
  O21      1.0000 0.96628  0.43024  0.19635  Biso   1.000  O
  O22      1.0000 0.96467  0.43379  0.69361  Biso   1.000  O
  O23      1.0000 0.98593  0.93717  0.18934  Biso   1.000  O
  O24      1.0000 0.96524  0.93456  0.69508  Biso   1.000  O
  O25      1.0000 0.46687  0.31742  0.44609  Biso   1.000  O
  O26      1.0000 0.46329  0.31838  0.94241  Biso   1.000  O
  O27      1.0000 0.47078  0.81915  0.45427  Biso   1.000  O
  O28      1.0000 0.45770  0.81965  0.94459  Biso   1.000  O
  O29      1.0000 0.96445  0.31333  0.44122  Biso   1.000  O
  O30      1.0000 0.96296  0.31904  0.94335  Biso   1.000  O
  O31      1.0000 0.96662  0.81727  0.44374  Biso   1.000  O
  O32      1.0000 0.96063  0.81794  0.94060  Biso   1.000  O
  O33      1.0000 0.25046  0.09365  0.23904  Biso   1.000  O
  O34      1.0000 0.26982  0.11912  0.74838  Biso   1.000  O
  O35      1.0000 0.26829  0.60547  0.24809  Biso   1.000  O
  O36      1.0000 0.26809  0.61902  0.75046  Biso   1.000  O
  O37      1.0000 0.77046  0.11674  0.24683  Biso   1.000  O
  O38      1.0000 0.76680  0.11599  0.74649  Biso   1.000  O
  O39      1.0000 0.77255  0.61622  0.24869  Biso   1.000  O
  O40      1.0000 0.76782  0.61797  0.74894  Biso   1.000  O
  O41      1.0000 0.27137  0.13353  0.49335  Biso   1.000  O
  O42      1.0000 0.26064  0.13792  0.99824  Biso   1.000  O
  O43      1.0000 0.27235  0.63274  0.50018  Biso   1.000  O
  O44      1.0000 0.26632  0.63724  0.99931  Biso   1.000  O
  O45      1.0000 0.77059  0.13253  0.49693  Biso   1.000  O
  O46      1.0000 0.76709  0.13499  0.99620  Biso   1.000  O
  O47      1.0000 0.76944  0.63451  0.49894  Biso   1.000  O
  O48      1.0000 0.76842  0.63617  0.99913  Biso   1.000  O
  O49      1.0000 0.22972  0.38186  0.49683  Biso   1.000  O
  O50      1.0000 0.23105  0.38676  0.99634  Biso   1.000  O
  O51      1.0000 0.23099  0.88306  0.50616  Biso   1.000  O
  O52      1.0000 0.22093  0.89730  0.01938  Biso   1.000  O
  O53      1.0000 0.73170  0.38321  0.49884  Biso   1.000  O
  O54      1.0000 0.72929  0.38480  0.99775  Biso   1.000  O
  O55      1.0000 0.73488  0.88505  0.49649  Biso   1.000  O
  O56      1.0000 0.72806  0.88545  0.99676  Biso   1.000  O
  O57      1.0000 0.23468  0.35718  0.24643  Biso   1.000  O
  O58      1.0000 0.23008  0.36886  0.74720  Biso   1.000  O
  O59      1.0000 0.25087  0.84568  0.26494  Biso   1.000  O
  O60      1.0000 0.22885  0.86973  0.75800  Biso   1.000  O
  O61      1.0000 0.72951  0.36617  0.24828  Biso   1.000  O
  O62      1.0000 0.73003  0.36736  0.74761  Biso   1.000  O
  O63      1.0000 0.74209  0.86695  0.24614  Biso   1.000  O
  O64      1.0000 0.72945  0.86644  0.74691  Biso   1.000  O
