data_image0
_cell_length_a       10.0579
_cell_length_b       10.4309
_cell_length_c       5.05037
_cell_angle_alpha    89.7658
_cell_angle_beta     90.1094
_cell_angle_gamma    90.3579

_symmetry_space_group_name_H-M    "P 1"
_symmetry_int_tables_number       1

loop_
  _symmetry_equiv_pos_as_xyz
  'x, y, z'

loop_
  _atom_site_label
  _atom_site_occupancy
  _atom_site_fract_x
  _atom_site_fract_y
  _atom_site_fract_z
  _atom_site_thermal_displace_type
  _atom_site_B_iso_or_equiv
  _atom_site_type_symbol
  Zr1      1.0000 0.13860  0.01034  0.23830  Biso   1.000  Zr
  Zr2      1.0000 0.13929  0.23339  0.77306  Biso   1.000  Zr
  Zr3      1.0000 0.36443  0.26515  0.25080  Biso   1.000  Zr
  Zr4      1.0000 0.36804  0.48463  0.74836  Biso   1.000  Zr
  O1       1.0000 0.03098  0.18863  0.39667  Biso   1.000  O
  O2       1.0000 0.03769  0.06670  0.89251  Biso   1.000  O
  O3       1.0000 0.46355  0.43333  0.38890  Biso   1.000  O
  O4       1.0000 0.46495  0.31613  0.88689  Biso   1.000  O
  O5       1.0000 0.26452  0.11614  0.49272  Biso   1.000  O
  O6       1.0000 0.28416  0.12672  0.98718  Biso   1.000  O
  O7       1.0000 0.23420  0.38502  0.99804  Biso   1.000  O
  O8       1.0000 0.22607  0.36475  0.49655  Biso   1.000  O
  Zr5      1.0000 0.13295  0.51604  0.25058  Biso   1.000  Zr
  Zr6      1.0000 0.13466  0.73400  0.74794  Biso   1.000  Zr
  Zr7      1.0000 0.36829  0.76387  0.24589  Biso   1.000  Zr
  Zr8      1.0000 0.36873  0.98291  0.74198  Biso   1.000  Zr
  O9       1.0000 0.03566  0.68315  0.38909  Biso   1.000  O
  O10      1.0000 0.03558  0.56772  0.89012  Biso   1.000  O
  O11      1.0000 0.46643  0.93301  0.38150  Biso   1.000  O
  O12      1.0000 0.46725  0.81580  0.88707  Biso   1.000  O
  O13      1.0000 0.26937  0.61532  0.49531  Biso   1.000  O
  O14      1.0000 0.26971  0.63273  0.99500  Biso   1.000  O
  O15      1.0000 0.23312  0.88037  0.99062  Biso   1.000  O
  O16      1.0000 0.23411  0.86391  0.49136  Biso   1.000  O
  Zr9      1.0000 0.63491  0.01586  0.24578  Biso   1.000  Zr
  Zr10     1.0000 0.63026  0.23262  0.74647  Biso   1.000  Zr
  Zr11     1.0000 0.85159  0.27135  0.24625  Biso   1.000  Zr
  Zr12     1.0000 0.86786  0.48407  0.75160  Biso   1.000  Zr
  O17      1.0000 0.53525  0.18216  0.38604  Biso   1.000  O
  O18      1.0000 0.54026  0.06319  0.88131  Biso   1.000  O
  O19      1.0000 0.96307  0.43244  0.39351  Biso   1.000  O
  O20      1.0000 0.96697  0.31934  0.90516  Biso   1.000  O
  O21      1.0000 0.77172  0.11940  0.49325  Biso   1.000  O
  O22      1.0000 0.77051  0.13414  0.99200  Biso   1.000  O
  O23      1.0000 0.72789  0.38401  0.99728  Biso   1.000  O
  O24      1.0000 0.72581  0.37070  0.49932  Biso   1.000  O
  Zr13     1.0000 0.63272  0.51852  0.25296  Biso   1.000  Zr
  Zr14     1.0000 0.63654  0.73520  0.75170  Biso   1.000  Zr
  Zr15     1.0000 0.86776  0.76711  0.25114  Biso   1.000  Zr
  Zr16     1.0000 0.86801  0.98548  0.74928  Biso   1.000  Zr
  O25      1.0000 0.53610  0.68355  0.39247  Biso   1.000  O
  O26      1.0000 0.53531  0.56777  0.89228  Biso   1.000  O
  O27      1.0000 0.96890  0.93609  0.39404  Biso   1.000  O
  O28      1.0000 0.96767  0.81805  0.89291  Biso   1.000  O
  O29      1.0000 0.77054  0.61862  0.49976  Biso   1.000  O
  O30      1.0000 0.77056  0.63359  1.00000  Biso   1.000  O
  O31      1.0000 0.73352  0.88280  0.99798  Biso   1.000  O
  O32      1.0000 0.73301  0.86857  0.49722  Biso   1.000  O
  H1       1.0000 0.09401  0.24428  0.29048  Biso   1.000  H
