data_image0
_cell_length_a       10.2309
_cell_length_b       10.3344
_cell_length_c       5.25822
_cell_angle_alpha    90.4153
_cell_angle_beta     79.9792
_cell_angle_gamma    89.4737

_symmetry_space_group_name_H-M    "P 1"
_symmetry_int_tables_number       1

loop_
  _symmetry_equiv_pos_as_xyz
  'x, y, z'

loop_
  _atom_site_label
  _atom_site_occupancy
  _atom_site_fract_x
  _atom_site_fract_y
  _atom_site_fract_z
  _atom_site_thermal_displace_type
  _atom_site_B_iso_or_equiv
  _atom_site_type_symbol
  H1       1.0000 0.06771  0.92288  0.28453  Biso   1.000  H
  Zr1      1.0000 0.15926  0.24034  0.78459  Biso   1.000  Zr
  Zr2      1.0000 0.36029  0.26881  0.21133  Biso   1.000  Zr
  Zr3      1.0000 0.36520  0.48451  0.70499  Biso   1.000  Zr
  O1       1.0000 0.01763  0.13139  0.07836  Biso   1.000  O
  O2       1.0000 0.02902  0.08058  0.83031  Biso   1.000  O
  O3       1.0000 0.46892  0.41923  0.34013  Biso   1.000  O
  O4       1.0000 0.46938  0.34041  0.84275  Biso   1.000  O
  O5       1.0000 0.27913  0.13843  0.49401  Biso   1.000  O
  O6       1.0000 0.28879  0.13709  0.96636  Biso   1.000  O
  O7       1.0000 0.22574  0.38243  0.01709  Biso   1.000  O
  O8       1.0000 0.22822  0.37970  0.51456  Biso   1.000  O
  Zr4      1.0000 0.14144  0.52650  0.28951  Biso   1.000  Zr
  Zr5      1.0000 0.14583  0.73544  0.78712  Biso   1.000  Zr
  Zr6      1.0000 0.35580  0.78321  0.20756  Biso   1.000  Zr
  Zr7      1.0000 0.35156  0.98241  0.71095  Biso   1.000  Zr
  O9       1.0000 0.03317  0.66733  0.15562  Biso   1.000  O
  O10      1.0000 0.03329  0.58595  0.65077  Biso   1.000  O
  O11      1.0000 0.46907  0.91986  0.34716  Biso   1.000  O
  O12      1.0000 0.47162  0.84437  0.84692  Biso   1.000  O
  O13      1.0000 0.27655  0.63025  0.47567  Biso   1.000  O
  O14      1.0000 0.27719  0.62331  0.97955  Biso   1.000  O
  O15      1.0000 0.22621  0.87549  0.00853  Biso   1.000  O
  O16      1.0000 0.23003  0.86874  0.52424  Biso   1.000  O
  Zr8      1.0000 0.63613  0.02435  0.29509  Biso   1.000  Zr
  Zr9      1.0000 0.63770  0.23132  0.78517  Biso   1.000  Zr
  Zr10     1.0000 0.85546  0.27471  0.19870  Biso   1.000  Zr
  Zr11     1.0000 0.86590  0.47855  0.70085  Biso   1.000  Zr
  O17      1.0000 0.53831  0.17299  0.15872  Biso   1.000  O
  O18      1.0000 0.53724  0.08631  0.65681  Biso   1.000  O
  O19      1.0000 0.97453  0.40370  0.34063  Biso   1.000  O
  O20      1.0000 0.97018  0.33225  0.84041  Biso   1.000  O
  O21      1.0000 0.78377  0.13009  0.47763  Biso   1.000  O
  O22      1.0000 0.77272  0.12252  0.97755  Biso   1.000  O
  O23      1.0000 0.72793  0.38124  0.01335  Biso   1.000  O
  O24      1.0000 0.72596  0.37383  0.51243  Biso   1.000  O
  Zr12     1.0000 0.63677  0.52610  0.28521  Biso   1.000  Zr
  Zr13     1.0000 0.63667  0.73228  0.79199  Biso   1.000  Zr
  Zr14     1.0000 0.86112  0.76875  0.20632  Biso   1.000  Zr
  Zr15     1.0000 0.85613  0.97723  0.71921  Biso   1.000  Zr
  O25      1.0000 0.53369  0.67062  0.15157  Biso   1.000  O
  O26      1.0000 0.53461  0.58965  0.65043  Biso   1.000  O
  O27      1.0000 0.97120  0.91691  0.35573  Biso   1.000  O
  O28      1.0000 0.96527  0.83476  0.84534  Biso   1.000  O
  O29      1.0000 0.77642  0.62847  0.47593  Biso   1.000  O
  O30      1.0000 0.77696  0.62336  0.97640  Biso   1.000  O
  O31      1.0000 0.72580  0.88094  0.01846  Biso   1.000  O
  O32      1.0000 0.73088  0.87335  0.51666  Biso   1.000  O
