data_image0
_cell_length_a       10.2946
_cell_length_b       10.3674
_cell_length_c       5.36529
_cell_angle_alpha    90.2505
_cell_angle_beta     78.7731
_cell_angle_gamma    89.8005

_symmetry_space_group_name_H-M    "P 1"
_symmetry_int_tables_number       1

loop_
  _symmetry_equiv_pos_as_xyz
  'x, y, z'

loop_
  _atom_site_label
  _atom_site_occupancy
  _atom_site_fract_x
  _atom_site_fract_y
  _atom_site_fract_z
  _atom_site_thermal_displace_type
  _atom_site_B_iso_or_equiv
  _atom_site_type_symbol
  Zr1      1.0000 0.12898  0.01679  0.30135  Biso   1.000  Zr
  Zr2      1.0000 0.12722  0.22875  0.77599  Biso   1.000  Zr
  Zr3      1.0000 0.34673  0.27942  0.15202  Biso   1.000  Zr
  Zr4      1.0000 0.35563  0.49563  0.69909  Biso   1.000  Zr
  O1       1.0000 0.04031  0.16233  0.14520  Biso   1.000  O
  O2       1.0000 0.02676  0.08395  0.65359  Biso   1.000  O
  O3       1.0000 0.47296  0.40852  0.35632  Biso   1.000  O
  O4       1.0000 0.47578  0.35545  0.84258  Biso   1.000  O
  O5       1.0000 0.27509  0.11912  0.43862  Biso   1.000  O
  O6       1.0000 0.29231  0.14053  0.89828  Biso   1.000  O
  O7       1.0000 0.21210  0.39368  0.99506  Biso   1.000  O
  O8       1.0000 0.24182  0.36013  0.50810  Biso   1.000  O
  Zr5      1.0000 0.13385  0.52554  0.28803  Biso   1.000  Zr
  Zr6      1.0000 0.13085  0.73001  0.79650  Biso   1.000  Zr
  Zr7      1.0000 0.36026  0.77176  0.20803  Biso   1.000  Zr
  Zr8      1.0000 0.36014  0.96349  0.70226  Biso   1.000  Zr
  O9       1.0000 0.02527  0.66004  0.15213  Biso   1.000  O
  O10      1.0000 0.03041  0.58951  0.65154  Biso   1.000  O
  O11      1.0000 0.46865  0.90914  0.35481  Biso   1.000  O
  O12      1.0000 0.46628  0.83142  0.85931  Biso   1.000  O
  O13      1.0000 0.27173  0.62608  0.47461  Biso   1.000  O
  O14      1.0000 0.27005  0.63270  0.98077  Biso   1.000  O
  O15      1.0000 0.22243  0.88517  0.02316  Biso   1.000  O
  O16      1.0000 0.21890  0.86456  0.51968  Biso   1.000  O
  Zr9      1.0000 0.63743  0.02549  0.31255  Biso   1.000  Zr
  Zr10     1.0000 0.64615  0.23006  0.81570  Biso   1.000  Zr
  Zr11     1.0000 0.86025  0.27049  0.22969  Biso   1.000  Zr
  Zr12     1.0000 0.86118  0.47876  0.72219  Biso   1.000  Zr
  O17      1.0000 0.51978  0.16938  0.17601  Biso   1.000  O
  O18      1.0000 0.53731  0.07094  0.68725  Biso   1.000  O
  O19      1.0000 0.97444  0.40623  0.36803  Biso   1.000  O
  O20      1.0000 0.96365  0.33934  0.86733  Biso   1.000  O
  O21      1.0000 0.78356  0.12616  0.50162  Biso   1.000  O
  O22      1.0000 0.77786  0.12075  0.00915  Biso   1.000  O
  O23      1.0000 0.72622  0.37702  0.04163  Biso   1.000  O
  O24      1.0000 0.73272  0.37585  0.53904  Biso   1.000  O
  Zr13     1.0000 0.63897  0.52198  0.30132  Biso   1.000  Zr
  Zr14     1.0000 0.63790  0.72670  0.80191  Biso   1.000  Zr
  Zr15     1.0000 0.85516  0.77283  0.22083  Biso   1.000  Zr
  Zr16     1.0000 0.85194  0.97708  0.72610  Biso   1.000  Zr
  O25      1.0000 0.52849  0.65773  0.15299  Biso   1.000  O
  O26      1.0000 0.52974  0.59415  0.64717  Biso   1.000  O
  O27      1.0000 0.96378  0.90614  0.37057  Biso   1.000  O
  O28      1.0000 0.96490  0.84103  0.86877  Biso   1.000  O
  O29      1.0000 0.77464  0.62810  0.48941  Biso   1.000  O
  O30      1.0000 0.77309  0.62214  0.98951  Biso   1.000  O
  O31      1.0000 0.72045  0.87744  0.03453  Biso   1.000  O
  O32      1.0000 0.72083  0.87151  0.53192  Biso   1.000  O
  Hf1      1.0000 0.42637  0.22905  0.56774  Biso   1.000  Hf
