data_image0
_cell_length_a       10.1387
_cell_length_b       10.1387
_cell_length_c       5.13582
_cell_angle_alpha    89.9997
_cell_angle_beta     90.0005
_cell_angle_gamma    90.0005

_symmetry_space_group_name_H-M    "P 1"
_symmetry_int_tables_number       1

loop_
  _symmetry_equiv_pos_as_xyz
  'x, y, z'

loop_
  _atom_site_label
  _atom_site_occupancy
  _atom_site_fract_x
  _atom_site_fract_y
  _atom_site_fract_z
  _atom_site_thermal_displace_type
  _atom_site_B_iso_or_equiv
  _atom_site_type_symbol
  Zr1      1.0000 0.12517  0.98186  0.21336  Biso   1.000  Zr
  Zr2      1.0000 0.12516  0.25017  0.71336  Biso   1.000  Zr
  Zr3      1.0000 0.39348  0.25017  0.21336  Biso   1.000  Zr
  Zr4      1.0000 0.37158  0.49658  0.71189  Biso   1.000  Zr
  O1       1.0000 0.00227  0.12729  0.47502  Biso   1.000  O
  O2       1.0000 0.99686  0.12187  0.98360  Biso   1.000  O
  O3       1.0000 0.49984  0.38496  0.43576  Biso   1.000  O
  O4       1.0000 0.50288  0.36963  0.93048  Biso   1.000  O
  O5       1.0000 0.25347  0.12187  0.44313  Biso   1.000  O
  O6       1.0000 0.24804  0.12728  0.95171  Biso   1.000  O
  O7       1.0000 0.25348  0.37847  0.98359  Biso   1.000  O
  O8       1.0000 0.24804  0.37307  0.47501  Biso   1.000  O
  Zr5      1.0000 0.12517  0.51849  0.21335  Biso   1.000  Zr
  Zr6      1.0000 0.12517  0.75017  0.71336  Biso   1.000  Zr
  Zr7      1.0000 0.37936  0.75017  0.21335  Biso   1.000  Zr
  Zr8      1.0000 0.37158  0.00375  0.71483  Biso   1.000  Zr
  O9       1.0000 0.00571  0.62787  0.49623  Biso   1.000  O
  O10      1.0000 0.99037  0.62486  0.99095  Biso   1.000  O
  O11      1.0000 0.49196  0.88337  0.42570  Biso   1.000  O
  O12      1.0000 0.50539  0.86993  0.92708  Biso   1.000  O
  O13      1.0000 0.25996  0.62486  0.43578  Biso   1.000  O
  O14      1.0000 0.24463  0.62787  0.93049  Biso   1.000  O
  O15      1.0000 0.25995  0.87550  0.99098  Biso   1.000  O
  O16      1.0000 0.24462  0.87248  0.49625  Biso   1.000  O
  Zr9      1.0000 0.62516  0.99596  0.21337  Biso   1.000  Zr
  Zr10     1.0000 0.62517  0.25018  0.71335  Biso   1.000  Zr
  Zr11     1.0000 0.85685  0.25017  0.21336  Biso   1.000  Zr
  Zr12     1.0000 0.87876  0.49659  0.71483  Biso   1.000  Zr
  O17      1.0000 0.50286  0.13072  0.49626  Biso   1.000  O
  O18      1.0000 0.49983  0.11538  0.99097  Biso   1.000  O
  O19      1.0000 0.99686  0.37849  0.44312  Biso   1.000  O
  O20      1.0000 0.00230  0.37307  0.95169  Biso   1.000  O
  O21      1.0000 0.75049  0.11538  0.43574  Biso   1.000  O
  O22      1.0000 0.74746  0.13072  0.93046  Biso   1.000  O
  O23      1.0000 0.75051  0.38497  0.99096  Biso   1.000  O
  O24      1.0000 0.74747  0.36964  0.49624  Biso   1.000  O
  Zr13     1.0000 0.62517  0.50438  0.21334  Biso   1.000  Zr
  Zr14     1.0000 0.62515  0.75017  0.71337  Biso   1.000  Zr
  Zr15     1.0000 0.87096  0.75018  0.21336  Biso   1.000  Zr
  Zr16     1.0000 0.87875  0.00375  0.71189  Biso   1.000  Zr
  O25      1.0000 0.50541  0.63040  0.49965  Biso   1.000  O
  O26      1.0000 0.49197  0.61698  0.00103  Biso   1.000  O
  O27      1.0000 0.99037  0.87551  0.43575  Biso   1.000  O
  O28      1.0000 0.00571  0.87248  0.93046  Biso   1.000  O
  O29      1.0000 0.75836  0.61698  0.42569  Biso   1.000  O
  O30      1.0000 0.74493  0.63041  0.92707  Biso   1.000  O
  O31      1.0000 0.75836  0.88337  0.00105  Biso   1.000  O
  O32      1.0000 0.74493  0.86994  0.49968  Biso   1.000  O
  Hf1      1.0000 0.12517  0.25018  0.21336  Biso   1.000  Hf
