data_image0
_cell_length_a       5.08554
_cell_length_b       10.3542
_cell_length_c       10.4845
_cell_angle_alpha    89.9885
_cell_angle_beta     80.4503
_cell_angle_gamma    89.9861

_symmetry_space_group_name_H-M    "P 1"
_symmetry_int_tables_number       1

loop_
  _symmetry_equiv_pos_as_xyz
  'x, y, z'

loop_
  _atom_site_label
  _atom_site_occupancy
  _atom_site_fract_x
  _atom_site_fract_y
  _atom_site_fract_z
  _atom_site_thermal_displace_type
  _atom_site_B_iso_or_equiv
  _atom_site_type_symbol
  Hf1      1.0000 0.27824  0.02133  0.14575  Biso   1.000  Hf
  Zr1      1.0000 0.27753  0.02128  0.64527  Biso   1.000  Zr
  Zr2      1.0000 0.27804  0.52142  0.14534  Biso   1.000  Zr
  Zr3      1.0000 0.27776  0.52132  0.64542  Biso   1.000  Zr
  Zr4      1.0000 0.27773  0.22868  0.39512  Biso   1.000  Zr
  Zr5      1.0000 0.27778  0.22839  0.89563  Biso   1.000  Zr
  Zr6      1.0000 0.27781  0.72895  0.39525  Biso   1.000  Zr
  Zr7      1.0000 0.27751  0.72878  0.89554  Biso   1.000  Zr
  Zr8      1.0000 0.72306  0.27099  0.10476  Biso   1.000  Zr
  Zr9      1.0000 0.72218  0.27135  0.60470  Biso   1.000  Zr
  Zr10     1.0000 0.72252  0.77194  0.10469  Biso   1.000  Zr
  Zr11     1.0000 0.72220  0.77130  0.60470  Biso   1.000  Zr
  Zr12     1.0000 0.72247  0.47883  0.35467  Biso   1.000  Zr
  Zr13     1.0000 0.72222  0.47865  0.85484  Biso   1.000  Zr
  Zr14     1.0000 0.72272  0.97885  0.35434  Biso   1.000  Zr
  Zr15     1.0000 0.72182  0.97881  0.85479  Biso   1.000  Zr
  O1       1.0000 0.07238  0.16918  0.08129  Biso   1.000  O
  O2       1.0000 0.07210  0.17015  0.58072  Biso   1.000  O
  O3       1.0000 0.07185  0.67020  0.08108  Biso   1.000  O
  O4       1.0000 0.07227  0.67037  0.58102  Biso   1.000  O
  O5       1.0000 0.07316  0.07947  0.33016  Biso   1.000  O
  O6       1.0000 0.07174  0.07980  0.83086  Biso   1.000  O
  O7       1.0000 0.07255  0.57969  0.33115  Biso   1.000  O
  O8       1.0000 0.07215  0.57970  0.83120  Biso   1.000  O
  O9       1.0000 0.92831  0.42019  0.16894  Biso   1.000  O
  O10      1.0000 0.92787  0.42023  0.66902  Biso   1.000  O
  O11      1.0000 0.92982  0.92025  0.16862  Biso   1.000  O
  O12      1.0000 0.92765  0.92033  0.66882  Biso   1.000  O
  O13      1.0000 0.92785  0.32966  0.41885  Biso   1.000  O
  O14      1.0000 0.92788  0.32940  0.91914  Biso   1.000  O
  O15      1.0000 0.92763  0.82967  0.41877  Biso   1.000  O
  O16      1.0000 0.92673  0.82951  0.91878  Biso   1.000  O
  O17      1.0000 0.55125  0.12852  0.24013  Biso   1.000  O
  O18      1.0000 0.55205  0.12900  0.74076  Biso   1.000  O
  O19      1.0000 0.55237  0.62950  0.24077  Biso   1.000  O
  O20      1.0000 0.55217  0.62902  0.74081  Biso   1.000  O
  O21      1.0000 0.55258  0.12104  0.49042  Biso   1.000  O
  O22      1.0000 0.55107  0.12043  0.99137  Biso   1.000  O
  O23      1.0000 0.55224  0.62103  0.49073  Biso   1.000  O
  O24      1.0000 0.55212  0.62115  0.99074  Biso   1.000  O
  O25      1.0000 0.44808  0.37891  0.00947  Biso   1.000  O
  O26      1.0000 0.44783  0.37903  0.50935  Biso   1.000  O
  O27      1.0000 0.44601  0.87986  0.00997  Biso   1.000  O
  O28      1.0000 0.44783  0.87907  0.50915  Biso   1.000  O
  O29      1.0000 0.44845  0.37091  0.25936  Biso   1.000  O
  O30      1.0000 0.44780  0.37093  0.75947  Biso   1.000  O
  O31      1.0000 0.44706  0.87195  0.25886  Biso   1.000  O
  O32      1.0000 0.44757  0.87099  0.75941  Biso   1.000  O
