data_image0
_cell_length_a       10.1233
_cell_length_b       10.3597
_cell_length_c       5.28368
_cell_angle_alpha    89.3467
_cell_angle_beta     90.8042
_cell_angle_gamma    89.9134

_symmetry_space_group_name_H-M    "P 1"
_symmetry_int_tables_number       1

loop_
  _symmetry_equiv_pos_as_xyz
  'x, y, z'

loop_
  _atom_site_label
  _atom_site_occupancy
  _atom_site_fract_x
  _atom_site_fract_y
  _atom_site_fract_z
  _atom_site_thermal_displace_type
  _atom_site_B_iso_or_equiv
  _atom_site_type_symbol
  Hf1      1.0000 0.13867  0.01756  0.34632  Biso   1.000  Hf
  Hf2      1.0000 0.13771  0.22501  0.84971  Biso   1.000  Hf
  Hf3      1.0000 0.34609  0.26686  0.36838  Biso   1.000  Hf
  Hf4      1.0000 0.36159  0.48274  0.84543  Biso   1.000  Hf
  Hf5      1.0000 0.63973  0.01657  0.14208  Biso   1.000  Hf
  Hf6      1.0000 0.63871  0.21066  0.62308  Biso   1.000  Hf
  Hf7      1.0000 0.86833  0.27276  0.15875  Biso   1.000  Hf
  Hf8      1.0000 0.86869  0.48308  0.66418  Biso   1.000  Hf
  O1       1.0000 0.03568  0.16190  0.16707  Biso   1.000  O
  O2       1.0000 0.03484  0.08207  0.66368  Biso   1.000  O
  O3       1.0000 0.45152  0.44086  0.20383  Biso   1.000  O
  O4       1.0000 0.46635  0.33344  0.65651  Biso   1.000  O
  O5       1.0000 0.27022  0.12336  0.60002  Biso   1.000  O
  O6       1.0000 0.27704  0.12132  0.09715  Biso   1.000  O
  O7       1.0000 0.22237  0.37331  0.59972  Biso   1.000  O
  O8       1.0000 0.22478  0.37251  0.09575  Biso   1.000  O
  O9       1.0000 0.50884  0.12815  0.38225  Biso   1.000  O
  O10      1.0000 0.53238  0.06720  0.82696  Biso   1.000  O
  O11      1.0000 0.97346  0.40954  0.34732  Biso   1.000  O
  O12      1.0000 0.97409  0.33104  0.83292  Biso   1.000  O
  O13      1.0000 0.78526  0.12270  0.87799  Biso   1.000  O
  O14      1.0000 0.77620  0.12038  0.38572  Biso   1.000  O
  O15      1.0000 0.76901  0.41459  0.96401  Biso   1.000  O
  O16      1.0000 0.72720  0.37570  0.45141  Biso   1.000  O
  Hf9      1.0000 0.13934  0.51975  0.34227  Biso   1.000  Hf
  Hf10     1.0000 0.13889  0.72887  0.84461  Biso   1.000  Hf
  Hf11     1.0000 0.36180  0.77009  0.34759  Biso   1.000  Hf
  Hf12     1.0000 0.36001  0.97342  0.85008  Biso   1.000  Hf
  Hf13     1.0000 0.64346  0.53485  0.16584  Biso   1.000  Hf
  Hf14     1.0000 0.63942  0.73434  0.65728  Biso   1.000  Hf
  Hf15     1.0000 0.86412  0.77263  0.15705  Biso   1.000  Hf
  Hf16     1.0000 0.86553  0.97778  0.65383  Biso   1.000  Hf
  O17      1.0000 0.03216  0.66114  0.16140  Biso   1.000  O
  O18      1.0000 0.03765  0.58783  0.66113  Biso   1.000  O
  O19      1.0000 0.46904  0.90608  0.16108  Biso   1.000  O
  O20      1.0000 0.46426  0.83010  0.67102  Biso   1.000  O
  O21      1.0000 0.27760  0.62164  0.58961  Biso   1.000  O
  O22      1.0000 0.27436  0.62550  0.08661  Biso   1.000  O
  O23      1.0000 0.22497  0.87205  0.59431  Biso   1.000  O
  O24      1.0000 0.22346  0.87301  0.09645  Biso   1.000  O
  O25      1.0000 0.53636  0.67297  0.33812  Biso   1.000  O
  O26      1.0000 0.53590  0.58186  0.83682  Biso   1.000  O
  O27      1.0000 0.97033  0.91344  0.33367  Biso   1.000  O
  O28      1.0000 0.96996  0.83585  0.83779  Biso   1.000  O
  O29      1.0000 0.77294  0.64214  0.90740  Biso   1.000  O
  O30      1.0000 0.77989  0.62759  0.41118  Biso   1.000  O
  O31      1.0000 0.72760  0.87938  0.90996  Biso   1.000  O
  O32      1.0000 0.72701  0.87433  0.41034  Biso   1.000  O
  Hg1      1.0000 0.57406  0.28034  0.07489  Biso   1.000  Hg
