data_image0
_cell_length_a       10.1749
_cell_length_b       5.15631
_cell_length_c       10.4689
_cell_angle_alpha    90.6811
_cell_angle_beta     80.1855
_cell_angle_gamma    89.9322

_symmetry_space_group_name_H-M    "P 1"
_symmetry_int_tables_number       1

loop_
  _symmetry_equiv_pos_as_xyz
  'x, y, z'

loop_
  _atom_site_label
  _atom_site_occupancy
  _atom_site_fract_x
  _atom_site_fract_y
  _atom_site_fract_z
  _atom_site_thermal_displace_type
  _atom_site_B_iso_or_equiv
  _atom_site_type_symbol
  Hg1      1.0000 0.12500  0.01315  0.16249  Biso   1.000  Hg
  Hf1      1.0000 0.14076  0.45009  0.39834  Biso   1.000  Hf
  Hf2      1.0000 0.36246  0.53378  0.10169  Biso   1.000  Hf
  Hf3      1.0000 0.36533  0.94392  0.35414  Biso   1.000  Hf
  O1       1.0000 0.03869  0.38232  0.08008  Biso   1.000  O
  O2       1.0000 0.02892  0.15982  0.33456  Biso   1.000  O
  O3       1.0000 0.47010  0.82943  0.17118  Biso   1.000  O
  O4       1.0000 0.46782  0.66296  0.42498  Biso   1.000  O
  O5       1.0000 0.27338  0.22139  0.23397  Biso   1.000  O
  O6       1.0000 0.27692  0.23734  0.48715  Biso   1.000  O
  O7       1.0000 0.22845  0.78573  0.01509  Biso   1.000  O
  O8       1.0000 0.24348  0.69302  0.26876  Biso   1.000  O
  Hf4      1.0000 0.13975  0.04053  0.64612  Biso   1.000  Hf
  Hf5      1.0000 0.13657  0.46069  0.89703  Biso   1.000  Hf
  Hf6      1.0000 0.36208  0.54384  0.60721  Biso   1.000  Hf
  Hf7      1.0000 0.36181  0.97314  0.85619  Biso   1.000  Hf
  O9       1.0000 0.03378  0.33052  0.57857  Biso   1.000  O
  O10      1.0000 0.03585  0.16421  0.82965  Biso   1.000  O
  O11      1.0000 0.46549  0.83779  0.67235  Biso   1.000  O
  O12      1.0000 0.46628  0.67806  0.92240  Biso   1.000  O
  O13      1.0000 0.27512  0.25785  0.73531  Biso   1.000  O
  O14      1.0000 0.28818  0.28064  0.97479  Biso   1.000  O
  O15      1.0000 0.22398  0.75137  0.51359  Biso   1.000  O
  O16      1.0000 0.22534  0.74646  0.76387  Biso   1.000  O
  Hf8      1.0000 0.63795  0.04138  0.14418  Biso   1.000  Hf
  Hf9      1.0000 0.63801  0.45296  0.39597  Biso   1.000  Hf
  Hf10     1.0000 0.86045  0.53082  0.09921  Biso   1.000  Hf
  Hf11     1.0000 0.85212  0.95050  0.35797  Biso   1.000  Hf
  O17      1.0000 0.53672  0.33521  0.07754  Biso   1.000  O
  O18      1.0000 0.53394  0.16384  0.32843  Biso   1.000  O
  O19      1.0000 0.94441  0.85997  0.16545  Biso   1.000  O
  O20      1.0000 0.96596  0.66162  0.41710  Biso   1.000  O
  O21      1.0000 0.77388  0.25655  0.24111  Biso   1.000  O
  O22      1.0000 0.77507  0.23958  0.49045  Biso   1.000  O
  O23      1.0000 0.72333  0.76143  0.00751  Biso   1.000  O
  O24      1.0000 0.72328  0.73969  0.26014  Biso   1.000  O
  Hf12     1.0000 0.63786  0.04471  0.64714  Biso   1.000  Hf
  Hf13     1.0000 0.63863  0.46635  0.89494  Biso   1.000  Hf
  Hf14     1.0000 0.86174  0.54310  0.60376  Biso   1.000  Hf
  Hf15     1.0000 0.86181  0.95927  0.85301  Biso   1.000  Hf
  O25      1.0000 0.53528  0.33415  0.57901  Biso   1.000  O
  O26      1.0000 0.53738  0.17126  0.82757  Biso   1.000  O
  O27      1.0000 0.96520  0.83643  0.66876  Biso   1.000  O
  O28      1.0000 0.96118  0.66440  0.91546  Biso   1.000  O
  O29      1.0000 0.77691  0.26324  0.73902  Biso   1.000  O
  O30      1.0000 0.77558  0.24502  0.98839  Biso   1.000  O
  O31      1.0000 0.72347  0.75411  0.51026  Biso   1.000  O
  O32      1.0000 0.72427  0.74635  0.75815  Biso   1.000  O
