data_image0
_cell_length_a       10.0907
_cell_length_b       10.3667
_cell_length_c       5.23769
_cell_angle_alpha    89.4567
_cell_angle_beta     91.2464
_cell_angle_gamma    89.9279

_symmetry_space_group_name_H-M    "P 1"
_symmetry_int_tables_number       1

loop_
  _symmetry_equiv_pos_as_xyz
  'x, y, z'

loop_
  _atom_site_label
  _atom_site_occupancy
  _atom_site_fract_x
  _atom_site_fract_y
  _atom_site_fract_z
  _atom_site_thermal_displace_type
  _atom_site_B_iso_or_equiv
  _atom_site_type_symbol
  Hg1      1.0000 0.12606  0.01901  0.36299  Biso   1.000  Hg
  Zr1      1.0000 0.14015  0.22870  0.84143  Biso   1.000  Zr
  Zr2      1.0000 0.36024  0.27105  0.32765  Biso   1.000  Zr
  Zr3      1.0000 0.36005  0.47902  0.83561  Biso   1.000  Zr
  Zr4      1.0000 0.63905  0.02113  0.16509  Biso   1.000  Zr
  Zr5      1.0000 0.63681  0.22992  0.66258  Biso   1.000  Zr
  Zr6      1.0000 0.85993  0.27032  0.17113  Biso   1.000  Zr
  Zr7      1.0000 0.86241  0.47797  0.66529  Biso   1.000  Zr
  O1       1.0000 0.04967  0.18366  0.21578  Biso   1.000  O
  O2       1.0000 0.02554  0.07762  0.75654  Biso   1.000  O
  O3       1.0000 0.46685  0.41791  0.16609  Biso   1.000  O
  O4       1.0000 0.46457  0.33050  0.66757  Biso   1.000  O
  O5       1.0000 0.27124  0.11989  0.56408  Biso   1.000  O
  O6       1.0000 0.29436  0.13910  0.04721  Biso   1.000  O
  O7       1.0000 0.22455  0.37245  0.58404  Biso   1.000  O
  O8       1.0000 0.22188  0.37896  0.08468  Biso   1.000  O
  O9       1.0000 0.53585  0.16953  0.32465  Biso   1.000  O
  O10      1.0000 0.53817  0.07791  0.82101  Biso   1.000  O
  O11      1.0000 0.96262  0.42136  0.32991  Biso   1.000  O
  O12      1.0000 0.96456  0.32974  0.84409  Biso   1.000  O
  O13      1.0000 0.77399  0.12650  0.92716  Biso   1.000  O
  O14      1.0000 0.77722  0.12740  0.42623  Biso   1.000  O
  O15      1.0000 0.72441  0.37483  0.91669  Biso   1.000  O
  O16      1.0000 0.72460  0.37502  0.41533  Biso   1.000  O
  Zr8      1.0000 0.13847  0.51922  0.33911  Biso   1.000  Zr
  Zr9      1.0000 0.13690  0.72819  0.83516  Biso   1.000  Zr
  Zr10     1.0000 0.36159  0.76910  0.32221  Biso   1.000  Zr
  Zr11     1.0000 0.36279  0.97892  0.83428  Biso   1.000  Zr
  Zr12     1.0000 0.63909  0.52021  0.15749  Biso   1.000  Zr
  Zr13     1.0000 0.63802  0.72980  0.65471  Biso   1.000  Zr
  Zr14     1.0000 0.86081  0.76734  0.15836  Biso   1.000  Zr
  Zr15     1.0000 0.85921  0.98350  0.68225  Biso   1.000  Zr
  O17      1.0000 0.03756  0.67488  0.18071  Biso   1.000  O
  O18      1.0000 0.03718  0.57386  0.67953  Biso   1.000  O
  O19      1.0000 0.46953  0.91801  0.16711  Biso   1.000  O
  O20      1.0000 0.46385  0.83109  0.65962  Biso   1.000  O
  O21      1.0000 0.27500  0.62658  0.58218  Biso   1.000  O
  O22      1.0000 0.27433  0.61997  0.08381  Biso   1.000  O
  O23      1.0000 0.21888  0.87219  0.55823  Biso   1.000  O
  O24      1.0000 0.23778  0.86462  0.05114  Biso   1.000  O
  O25      1.0000 0.53549  0.66817  0.32026  Biso   1.000  O
  O26      1.0000 0.53384  0.58159  0.82223  Biso   1.000  O
  O27      1.0000 0.95056  0.93237  0.31563  Biso   1.000  O
  O28      1.0000 0.96068  0.82306  0.81750  Biso   1.000  O
  O29      1.0000 0.77593  0.62392  0.91374  Biso   1.000  O
  O30      1.0000 0.77624  0.62493  0.41370  Biso   1.000  O
  O31      1.0000 0.72278  0.87449  0.91511  Biso   1.000  O
  O32      1.0000 0.72867  0.87452  0.41309  Biso   1.000  O
