data_image0
_cell_length_a       10.2663
_cell_length_b       10.3741
_cell_length_c       5.27129
_cell_angle_alpha    90.7336
_cell_angle_beta     79.9965
_cell_angle_gamma    89.8647

_symmetry_space_group_name_H-M    "P 1"
_symmetry_int_tables_number       1

loop_
  _symmetry_equiv_pos_as_xyz
  'x, y, z'

loop_
  _atom_site_label
  _atom_site_occupancy
  _atom_site_fract_x
  _atom_site_fract_y
  _atom_site_fract_z
  _atom_site_thermal_displace_type
  _atom_site_B_iso_or_equiv
  _atom_site_type_symbol
  Hg1      1.0000 0.12563  0.00583  0.33072  Biso   1.000  Hg
  Zr1      1.0000 0.13993  0.23088  0.78771  Biso   1.000  Zr
  Zr2      1.0000 0.35953  0.26894  0.19563  Biso   1.000  Zr
  Zr3      1.0000 0.36135  0.47808  0.70453  Biso   1.000  Zr
  O1       1.0000 0.03509  0.17692  0.13453  Biso   1.000  O
  O2       1.0000 0.02686  0.08519  0.65897  Biso   1.000  O
  O3       1.0000 0.46677  0.41399  0.34296  Biso   1.000  O
  O4       1.0000 0.46998  0.33844  0.84434  Biso   1.000  O
  O5       1.0000 0.27093  0.11685  0.45846  Biso   1.000  O
  O6       1.0000 0.29052  0.13846  0.93525  Biso   1.000  O
  O7       1.0000 0.22492  0.38338  0.01067  Biso   1.000  O
  O8       1.0000 0.22692  0.36722  0.50944  Biso   1.000  O
  Zr4      1.0000 0.13935  0.52199  0.28985  Biso   1.000  Zr
  Zr5      1.0000 0.13732  0.72509  0.79981  Biso   1.000  Zr
  Zr6      1.0000 0.36477  0.77054  0.22685  Biso   1.000  Zr
  Zr7      1.0000 0.36632  0.98047  0.71976  Biso   1.000  Zr
  O9       1.0000 0.03332  0.67073  0.16636  Biso   1.000  O
  O10      1.0000 0.03492  0.58248  0.65952  Biso   1.000  O
  O11      1.0000 0.47125  0.91550  0.35275  Biso   1.000  O
  O12      1.0000 0.46534  0.83421  0.85912  Biso   1.000  O
  O13      1.0000 0.27543  0.62117  0.48074  Biso   1.000  O
  O14      1.0000 0.27509  0.62524  0.98469  Biso   1.000  O
  O15      1.0000 0.22907  0.88872  0.04924  Biso   1.000  O
  O16      1.0000 0.24219  0.85530  0.55975  Biso   1.000  O
  Zr8      1.0000 0.63819  0.02488  0.29089  Biso   1.000  Zr
  Zr9      1.0000 0.64055  0.23204  0.78870  Biso   1.000  Zr
  Zr10     1.0000 0.86513  0.27121  0.20123  Biso   1.000  Zr
  Zr11     1.0000 0.86162  0.47837  0.70378  Biso   1.000  Zr
  O17      1.0000 0.53342  0.16674  0.15384  Biso   1.000  O
  O18      1.0000 0.53857  0.08480  0.65527  Biso   1.000  O
  O19      1.0000 0.96515  0.42155  0.33557  Biso   1.000  O
  O20      1.0000 0.96483  0.33545  0.83085  Biso   1.000  O
  O21      1.0000 0.77643  0.12954  0.47842  Biso   1.000  O
  O22      1.0000 0.77407  0.12160  0.97855  Biso   1.000  O
  O23      1.0000 0.72573  0.37913  0.01577  Biso   1.000  O
  O24      1.0000 0.72515  0.37234  0.51689  Biso   1.000  O
  Zr12     1.0000 0.63729  0.51800  0.28986  Biso   1.000  Zr
  Zr13     1.0000 0.63539  0.72722  0.79082  Biso   1.000  Zr
  Zr14     1.0000 0.85682  0.76572  0.20239  Biso   1.000  Zr
  Zr15     1.0000 0.85161  0.97581  0.71726  Biso   1.000  Zr
  O25      1.0000 0.53546  0.66484  0.15731  Biso   1.000  O
  O26      1.0000 0.53191  0.58440  0.65466  Biso   1.000  O
  O27      1.0000 0.95143  0.91902  0.34175  Biso   1.000  O
  O28      1.0000 0.96523  0.83380  0.84141  Biso   1.000  O
  O29      1.0000 0.77288  0.62819  0.47722  Biso   1.000  O
  O30      1.0000 0.77435  0.62179  0.97623  Biso   1.000  O
  O31      1.0000 0.72209  0.87777  0.01991  Biso   1.000  O
  O32      1.0000 0.72391  0.87014  0.51977  Biso   1.000  O
