data_image0
_cell_length_a       10.1439
_cell_length_b       5.15005
_cell_length_c       10.5118
_cell_angle_alpha    89.9156
_cell_angle_beta     90.0398
_cell_angle_gamma    89.9946

_symmetry_space_group_name_H-M    "P 1"
_symmetry_int_tables_number       1

loop_
  _symmetry_equiv_pos_as_xyz
  'x, y, z'

loop_
  _atom_site_label
  _atom_site_occupancy
  _atom_site_fract_x
  _atom_site_fract_y
  _atom_site_fract_z
  _atom_site_thermal_displace_type
  _atom_site_B_iso_or_equiv
  _atom_site_type_symbol
  In1      1.0000 0.13765  0.03313  0.17196  Biso   1.000  In
  Zr1      1.0000 0.13993  0.04191  0.67142  Biso   1.000  Zr
  Zr2      1.0000 0.14047  0.45778  0.42038  Biso   1.000  Zr
  Zr3      1.0000 0.14139  0.45820  0.92254  Biso   1.000  Zr
  Zr4      1.0000 0.35878  0.53789  0.17092  Biso   1.000  Zr
  Zr5      1.0000 0.36105  0.54237  0.67132  Biso   1.000  Zr
  Zr6      1.0000 0.36036  0.95866  0.42023  Biso   1.000  Zr
  Zr7      1.0000 0.36082  0.95878  0.92207  Biso   1.000  Zr
  Zr8      1.0000 0.63895  0.03985  0.07862  Biso   1.000  Zr
  Zr9      1.0000 0.63850  0.04203  0.57854  Biso   1.000  Zr
  Zr10     1.0000 0.63805  0.45961  0.32795  Biso   1.000  Zr
  Zr11     1.0000 0.63909  0.45807  0.82868  Biso   1.000  Zr
  Zr12     1.0000 0.86184  0.53952  0.07858  Biso   1.000  Zr
  Zr13     1.0000 0.86069  0.54195  0.57838  Biso   1.000  Zr
  Zr14     1.0000 0.85894  0.96026  0.32882  Biso   1.000  Zr
  Zr15     1.0000 0.86095  0.95838  0.82890  Biso   1.000  Zr
  O1       1.0000 0.03281  0.33775  0.08215  Biso   1.000  O
  O2       1.0000 0.03285  0.33468  0.58655  Biso   1.000  O
  O3       1.0000 0.02761  0.17420  0.34154  Biso   1.000  O
  O4       1.0000 0.03248  0.16846  0.83372  Biso   1.000  O
  O5       1.0000 0.46963  0.82459  0.08238  Biso   1.000  O
  O6       1.0000 0.46833  0.82858  0.58329  Biso   1.000  O
  O7       1.0000 0.46858  0.67272  0.33286  Biso   1.000  O
  O8       1.0000 0.46875  0.67137  0.83244  Biso   1.000  O
  O9       1.0000 0.27892  0.24975  0.29908  Biso   1.000  O
  O10      1.0000 0.27517  0.24897  0.79449  Biso   1.000  O
  O11      1.0000 0.28031  0.25536  0.04170  Biso   1.000  O
  O12      1.0000 0.27523  0.25131  0.54619  Biso   1.000  O
  O13      1.0000 0.22612  0.74239  0.29614  Biso   1.000  O
  O14      1.0000 0.22572  0.74958  0.79404  Biso   1.000  O
  O15      1.0000 0.22838  0.74666  0.04215  Biso   1.000  O
  O16      1.0000 0.22507  0.75221  0.54537  Biso   1.000  O
  O17      1.0000 0.53206  0.32607  0.16719  Biso   1.000  O
  O18      1.0000 0.53215  0.32875  0.66684  Biso   1.000  O
  O19      1.0000 0.53219  0.17099  0.41714  Biso   1.000  O
  O20      1.0000 0.53262  0.17091  0.91664  Biso   1.000  O
  O21      1.0000 0.95914  0.83126  0.16552  Biso   1.000  O
  O22      1.0000 0.96750  0.83257  0.66484  Biso   1.000  O
  O23      1.0000 0.96772  0.67189  0.41619  Biso   1.000  O
  O24      1.0000 0.96807  0.66922  0.91425  Biso   1.000  O
  O25      1.0000 0.77488  0.24623  0.95398  Biso   1.000  O
  O26      1.0000 0.77390  0.25137  0.45549  Biso   1.000  O
  O27      1.0000 0.77429  0.25236  0.20496  Biso   1.000  O
  O28      1.0000 0.77519  0.25157  0.70465  Biso   1.000  O
  O29      1.0000 0.72504  0.74731  0.95408  Biso   1.000  O
  O30      1.0000 0.72470  0.75018  0.45508  Biso   1.000  O
  O31      1.0000 0.72171  0.75122  0.20524  Biso   1.000  O
  O32      1.0000 0.72546  0.75114  0.70451  Biso   1.000  O
