data_image0
_cell_length_a       10.0187
_cell_length_b       10.213
_cell_length_c       10.4503
_cell_angle_alpha    89.9902
_cell_angle_beta     90.0944
_cell_angle_gamma    89.8524

_symmetry_space_group_name_H-M    "P 1"
_symmetry_int_tables_number       1

loop_
  _symmetry_equiv_pos_as_xyz
  'x, y, z'

loop_
  _atom_site_label
  _atom_site_occupancy
  _atom_site_fract_x
  _atom_site_fract_y
  _atom_site_fract_z
  _atom_site_thermal_displace_type
  _atom_site_B_iso_or_equiv
  _atom_site_type_symbol
  Ir1      1.0000 0.13035  0.01342  0.18490  Biso   1.000  Ir
  Hf1      1.0000 0.14006  0.23104  0.41948  Biso   1.000  Hf
  Hf2      1.0000 0.35921  0.27004  0.16910  Biso   1.000  Hf
  Hf3      1.0000 0.36115  0.47925  0.42125  Biso   1.000  Hf
  Hf4      1.0000 0.63881  0.02184  0.07727  Biso   1.000  Hf
  Hf5      1.0000 0.63751  0.22931  0.32812  Biso   1.000  Hf
  Hf6      1.0000 0.86677  0.26727  0.08115  Biso   1.000  Hf
  Hf7      1.0000 0.86076  0.47866  0.32873  Biso   1.000  Hf
  O1       1.0000 0.03847  0.15808  0.08496  Biso   1.000  O
  O2       1.0000 0.03074  0.08845  0.32862  Biso   1.000  O
  O3       1.0000 0.46602  0.41640  0.08500  Biso   1.000  O
  O4       1.0000 0.46459  0.33154  0.33582  Biso   1.000  O
  O5       1.0000 0.27494  0.11828  0.28969  Biso   1.000  O
  O6       1.0000 0.28930  0.13635  0.03568  Biso   1.000  O
  O7       1.0000 0.22335  0.37380  0.29455  Biso   1.000  O
  O8       1.0000 0.22181  0.38002  0.04490  Biso   1.000  O
  O9       1.0000 0.53441  0.16725  0.16496  Biso   1.000  O
  O10      1.0000 0.53348  0.08257  0.41506  Biso   1.000  O
  O11      1.0000 0.96773  0.41529  0.16783  Biso   1.000  O
  O12      1.0000 0.96718  0.33539  0.41748  Biso   1.000  O
  O13      1.0000 0.77658  0.12309  0.45493  Biso   1.000  O
  O14      1.0000 0.77627  0.12482  0.20538  Biso   1.000  O
  O15      1.0000 0.72342  0.37323  0.45589  Biso   1.000  O
  O16      1.0000 0.72459  0.37479  0.20571  Biso   1.000  O
  Hf8      1.0000 0.13833  0.02102  0.66967  Biso   1.000  Hf
  Hf9      1.0000 0.14145  0.22544  0.92264  Biso   1.000  Hf
  Hf10     1.0000 0.36147  0.27162  0.67124  Biso   1.000  Hf
  Hf11     1.0000 0.36098  0.47906  0.92173  Biso   1.000  Hf
  Hf12     1.0000 0.63788  0.02132  0.57939  Biso   1.000  Hf
  Hf13     1.0000 0.63970  0.22968  0.82922  Biso   1.000  Hf
  Hf14     1.0000 0.86158  0.27103  0.57882  Biso   1.000  Hf
  Hf15     1.0000 0.86308  0.47746  0.83066  Biso   1.000  Hf
  O17      1.0000 0.03231  0.16261  0.57842  Biso   1.000  O
  O18      1.0000 0.03287  0.08590  0.83040  Biso   1.000  O
  O19      1.0000 0.46618  0.41753  0.58484  Biso   1.000  O
  O20      1.0000 0.46713  0.33420  0.83432  Biso   1.000  O
  O21      1.0000 0.27642  0.12263  0.79089  Biso   1.000  O
  O22      1.0000 0.27703  0.12764  0.54174  Biso   1.000  O
  O23      1.0000 0.22440  0.37343  0.79524  Biso   1.000  O
  O24      1.0000 0.22299  0.37632  0.54450  Biso   1.000  O
  O25      1.0000 0.53414  0.16765  0.66497  Biso   1.000  O
  O26      1.0000 0.53572  0.08266  0.91355  Biso   1.000  O
  O27      1.0000 0.96860  0.41276  0.66921  Biso   1.000  O
  O28      1.0000 0.96940  0.33315  0.92048  Biso   1.000  O
  O29      1.0000 0.77770  0.12375  0.95527  Biso   1.000  O
  O30      1.0000 0.77683  0.12643  0.70477  Biso   1.000  O
  O31      1.0000 0.72561  0.37290  0.95645  Biso   1.000  O
  O32      1.0000 0.72448  0.37668  0.70595  Biso   1.000  O
  Hf16     1.0000 0.13892  0.52237  0.17136  Biso   1.000  Hf
  Hf17     1.0000 0.13708  0.72785  0.42238  Biso   1.000  Hf
  Hf18     1.0000 0.35959  0.77472  0.17001  Biso   1.000  Hf
  Hf19     1.0000 0.36108  0.97905  0.42135  Biso   1.000  Hf
  Hf20     1.0000 0.63861  0.51977  0.07881  Biso   1.000  Hf
  Hf21     1.0000 0.63701  0.72771  0.32789  Biso   1.000  Hf
  Hf22     1.0000 0.86065  0.76952  0.07757  Biso   1.000  Hf
  Hf23     1.0000 0.85621  0.97859  0.32978  Biso   1.000  Hf
  O33      1.0000 0.03323  0.66603  0.08381  Biso   1.000  O
  O34      1.0000 0.03208  0.58494  0.33378  Biso   1.000  O
  O35      1.0000 0.46781  0.91608  0.08310  Biso   1.000  O
  O36      1.0000 0.46404  0.83336  0.33409  Biso   1.000  O
  O37      1.0000 0.27604  0.62503  0.29522  Biso   1.000  O
  O38      1.0000 0.27731  0.63043  0.04452  Biso   1.000  O
  O39      1.0000 0.21820  0.87345  0.29371  Biso   1.000  O
  O40      1.0000 0.22036  0.88441  0.04668  Biso   1.000  O
  O41      1.0000 0.53252  0.66679  0.16513  Biso   1.000  O
  O42      1.0000 0.53343  0.58291  0.41528  Biso   1.000  O
  O43      1.0000 0.96705  0.91624  0.16585  Biso   1.000  O
  O44      1.0000 0.96641  0.83682  0.41686  Biso   1.000  O
  O45      1.0000 0.77585  0.62384  0.45520  Biso   1.000  O
  O46      1.0000 0.77551  0.62544  0.20518  Biso   1.000  O
  O47      1.0000 0.72145  0.87314  0.45508  Biso   1.000  O
  O48      1.0000 0.72550  0.87576  0.20538  Biso   1.000  O
  Hf24     1.0000 0.13911  0.52107  0.67284  Biso   1.000  Hf
  Hf25     1.0000 0.13909  0.73168  0.92226  Biso   1.000  Hf
  Hf26     1.0000 0.36131  0.77122  0.67207  Biso   1.000  Hf
  Hf27     1.0000 0.36063  0.98094  0.92182  Biso   1.000  Hf
  Hf28     1.0000 0.63909  0.52090  0.57941  Biso   1.000  Hf
  Hf29     1.0000 0.63855  0.72885  0.82901  Biso   1.000  Hf
  Hf30     1.0000 0.86016  0.77082  0.57911  Biso   1.000  Hf
  Hf31     1.0000 0.86181  0.97949  0.82865  Biso   1.000  Hf
  O49      1.0000 0.03166  0.66410  0.58340  Biso   1.000  O
  O50      1.0000 0.03360  0.58569  0.83468  Biso   1.000  O
  O51      1.0000 0.46603  0.91698  0.58510  Biso   1.000  O
  O52      1.0000 0.46629  0.83330  0.83469  Biso   1.000  O
  O53      1.0000 0.27660  0.62397  0.79527  Biso   1.000  O
  O54      1.0000 0.27589  0.62603  0.54559  Biso   1.000  O
  O55      1.0000 0.22345  0.87397  0.79521  Biso   1.000  O
  O56      1.0000 0.22371  0.87593  0.54440  Biso   1.000  O
  O57      1.0000 0.53397  0.66684  0.66525  Biso   1.000  O
  O58      1.0000 0.53434  0.58281  0.91553  Biso   1.000  O
  O59      1.0000 0.96713  0.91401  0.66690  Biso   1.000  O
  O60      1.0000 0.96646  0.83532  0.91758  Biso   1.000  O
  O61      1.0000 0.77734  0.62346  0.95600  Biso   1.000  O
  O62      1.0000 0.77722  0.62566  0.70604  Biso   1.000  O
  O63      1.0000 0.72336  0.87325  0.95504  Biso   1.000  O
  O64      1.0000 0.72345  0.87647  0.70529  Biso   1.000  O
