data_image0
_cell_length_a       10.1929
_cell_length_b       10.3368
_cell_length_c       5.30391
_cell_angle_alpha    89.9396
_cell_angle_beta     79.172
_cell_angle_gamma    90.1491

_symmetry_space_group_name_H-M    "P 1"
_symmetry_int_tables_number       1

loop_
  _symmetry_equiv_pos_as_xyz
  'x, y, z'

loop_
  _atom_site_label
  _atom_site_occupancy
  _atom_site_fract_x
  _atom_site_fract_y
  _atom_site_fract_z
  _atom_site_thermal_displace_type
  _atom_site_B_iso_or_equiv
  _atom_site_type_symbol
  Hf1      1.0000 0.13386  0.02104  0.28782  Biso   1.000  Hf
  Hf2      1.0000 0.12975  0.22619  0.77801  Biso   1.000  Hf
  Hf3      1.0000 0.34753  0.28144  0.17277  Biso   1.000  Hf
  Hf4      1.0000 0.35782  0.49186  0.71139  Biso   1.000  Hf
  O1       1.0000 0.03656  0.16711  0.14982  Biso   1.000  O
  O2       1.0000 0.02671  0.08260  0.65211  Biso   1.000  O
  O3       1.0000 0.45924  0.42914  0.34998  Biso   1.000  O
  O4       1.0000 0.47603  0.36178  0.88370  Biso   1.000  O
  O5       1.0000 0.26405  0.12609  0.45769  Biso   1.000  O
  O6       1.0000 0.28100  0.12816  0.94953  Biso   1.000  O
  O7       1.0000 0.21434  0.38473  0.00422  Biso   1.000  O
  O8       1.0000 0.22370  0.37047  0.51147  Biso   1.000  O
  Hf5      1.0000 0.13546  0.52394  0.29712  Biso   1.000  Hf
  Hf6      1.0000 0.13362  0.72906  0.79677  Biso   1.000  Hf
  Hf7      1.0000 0.35936  0.77190  0.21415  Biso   1.000  Hf
  Hf8      1.0000 0.36201  0.96781  0.71229  Biso   1.000  Hf
  O9       1.0000 0.03026  0.66521  0.15855  Biso   1.000  O
  O10      1.0000 0.03104  0.58424  0.65863  Biso   1.000  O
  O11      1.0000 0.46473  0.91551  0.35078  Biso   1.000  O
  O12      1.0000 0.46235  0.82812  0.85159  Biso   1.000  O
  O13      1.0000 0.27220  0.63021  0.48580  Biso   1.000  O
  O14      1.0000 0.27192  0.62756  0.98786  Biso   1.000  O
  O15      1.0000 0.22281  0.88065  0.02420  Biso   1.000  O
  O16      1.0000 0.22118  0.86985  0.52461  Biso   1.000  O
  Hf9      1.0000 0.64041  0.01757  0.29934  Biso   1.000  Hf
  Hf10     1.0000 0.65207  0.22509  0.82333  Biso   1.000  Hf
  Hf11     1.0000 0.86177  0.27198  0.22150  Biso   1.000  Hf
  Hf12     1.0000 0.85777  0.47788  0.71408  Biso   1.000  Hf
  O17      1.0000 0.53221  0.16357  0.15509  Biso   1.000  O
  O18      1.0000 0.54974  0.06109  0.68146  Biso   1.000  O
  O19      1.0000 0.96557  0.41535  0.35256  Biso   1.000  O
  O20      1.0000 0.96063  0.33227  0.84721  Biso   1.000  O
  O21      1.0000 0.77785  0.12854  0.49076  Biso   1.000  O
  O22      1.0000 0.78342  0.11867  0.99793  Biso   1.000  O
  O23      1.0000 0.72514  0.37745  0.03767  Biso   1.000  O
  O24      1.0000 0.72014  0.36971  0.53348  Biso   1.000  O
  Hf13     1.0000 0.63509  0.52338  0.29834  Biso   1.000  Hf
  Hf14     1.0000 0.63861  0.72758  0.79836  Biso   1.000  Hf
  Hf15     1.0000 0.85826  0.77003  0.21373  Biso   1.000  Hf
  Hf16     1.0000 0.85678  0.97514  0.71191  Biso   1.000  Hf
  O25      1.0000 0.53308  0.66882  0.16080  Biso   1.000  O
  O26      1.0000 0.53130  0.59160  0.65510  Biso   1.000  O
  O27      1.0000 0.96300  0.91263  0.35200  Biso   1.000  O
  O28      1.0000 0.96358  0.83425  0.85166  Biso   1.000  O
  O29      1.0000 0.77516  0.62643  0.48528  Biso   1.000  O
  O30      1.0000 0.77335  0.61973  0.98413  Biso   1.000  O
  O31      1.0000 0.72220  0.87596  0.02549  Biso   1.000  O
  O32      1.0000 0.72290  0.86729  0.52220  Biso   1.000  O
  K1       1.0000 0.44375  0.23329  0.56568  Biso   1.000  K
