data_image0
_cell_length_a       10.1209
_cell_length_b       10.5051
_cell_length_c       5.08566
_cell_angle_alpha    90.0336
_cell_angle_beta     89.7774
_cell_angle_gamma    90.1137

_symmetry_space_group_name_H-M    "P 1"
_symmetry_int_tables_number       1

loop_
  _symmetry_equiv_pos_as_xyz
  'x, y, z'

loop_
  _atom_site_label
  _atom_site_occupancy
  _atom_site_fract_x
  _atom_site_fract_y
  _atom_site_fract_z
  _atom_site_thermal_displace_type
  _atom_site_B_iso_or_equiv
  _atom_site_type_symbol
  K1       1.0000 0.09743  0.99577  0.27081  Biso   1.000  K
  Zr1      1.0000 0.14131  0.51635  0.26213  Biso   1.000  Zr
  Zr2      1.0000 0.63014  0.02120  0.23969  Biso   1.000  Zr
  Zr3      1.0000 0.63027  0.51362  0.24964  Biso   1.000  Zr
  Zr4      1.0000 0.13526  0.23363  0.74865  Biso   1.000  Zr
  Zr5      1.0000 0.14950  0.73859  0.76316  Biso   1.000  Zr
  Zr6      1.0000 0.63291  0.23509  0.74448  Biso   1.000  Zr
  Zr7      1.0000 0.62857  0.73105  0.74551  Biso   1.000  Zr
  Zr8      1.0000 0.36365  0.26400  0.25336  Biso   1.000  Zr
  Zr9      1.0000 0.36968  0.76715  0.25275  Biso   1.000  Zr
  Zr10     1.0000 0.86622  0.27281  0.24837  Biso   1.000  Zr
  Zr11     1.0000 0.89181  0.72497  0.17580  Biso   1.000  Zr
  Zr12     1.0000 0.36718  0.48042  0.75577  Biso   1.000  Zr
  Zr13     1.0000 0.36451  0.98275  0.75562  Biso   1.000  Zr
  Zr14     1.0000 0.86426  0.48244  0.74405  Biso   1.000  Zr
  Zr15     1.0000 0.85761  0.99119  0.77597  Biso   1.000  Zr
  O1       1.0000 0.03290  0.21247  0.39296  Biso   1.000  O
  O2       1.0000 0.04743  0.68982  0.41001  Biso   1.000  O
  O3       1.0000 0.54022  0.18628  0.37994  Biso   1.000  O
  O4       1.0000 0.53663  0.67987  0.39633  Biso   1.000  O
  O5       1.0000 0.03003  0.07257  0.80182  Biso   1.000  O
  O6       1.0000 0.01509  0.58914  0.93932  Biso   1.000  O
  O7       1.0000 0.54152  0.06696  0.88162  Biso   1.000  O
  O8       1.0000 0.52987  0.57001  0.89727  Biso   1.000  O
  O9       1.0000 0.46632  0.43086  0.39624  Biso   1.000  O
  O10      1.0000 0.47932  0.92907  0.40772  Biso   1.000  O
  O11      1.0000 0.96448  0.44593  0.39348  Biso   1.000  O
  O12      1.0000 0.86931  0.88167  0.43076  Biso   1.000  O
  O13      1.0000 0.46828  0.31752  0.89167  Biso   1.000  O
  O14      1.0000 0.47761  0.82121  0.90783  Biso   1.000  O
  O15      1.0000 0.96909  0.32846  0.89570  Biso   1.000  O
  O16      1.0000 0.98355  0.83454  0.90255  Biso   1.000  O
  O17      1.0000 0.28623  0.12931  0.51674  Biso   1.000  O
  O18      1.0000 0.27370  0.61332  0.50815  Biso   1.000  O
  O19      1.0000 0.77280  0.11813  0.49431  Biso   1.000  O
  O20      1.0000 0.77111  0.61685  0.47726  Biso   1.000  O
  O21      1.0000 0.27782  0.13513  0.99184  Biso   1.000  O
  O22      1.0000 0.27005  0.62742  0.00772  Biso   1.000  O
  O23      1.0000 0.77162  0.13737  0.99956  Biso   1.000  O
  O24      1.0000 0.75997  0.62223  0.97036  Biso   1.000  O
  O25      1.0000 0.23138  0.38420  0.00331  Biso   1.000  O
  O26      1.0000 0.24655  0.87260  0.99951  Biso   1.000  O
  O27      1.0000 0.72873  0.38321  0.99255  Biso   1.000  O
  O28      1.0000 0.73659  0.87168  0.99940  Biso   1.000  O
  O29      1.0000 0.23039  0.37078  0.50201  Biso   1.000  O
  O30      1.0000 0.25192  0.85724  0.51863  Biso   1.000  O
  O31      1.0000 0.73156  0.36932  0.49635  Biso   1.000  O
  O32      1.0000 0.72884  0.87943  0.48862  Biso   1.000  O
