data_image0
_cell_length_a       10.1398
_cell_length_b       10.3197
_cell_length_c       10.5775
_cell_angle_alpha    90.0076
_cell_angle_beta     79.5145
_cell_angle_gamma    90.4125

_symmetry_space_group_name_H-M    "P 1"
_symmetry_int_tables_number       1

loop_
  _symmetry_equiv_pos_as_xyz
  'x, y, z'

loop_
  _atom_site_label
  _atom_site_occupancy
  _atom_site_fract_x
  _atom_site_fract_y
  _atom_site_fract_z
  _atom_site_thermal_displace_type
  _atom_site_B_iso_or_equiv
  _atom_site_type_symbol
  Hf1      1.0000 0.13556  0.02195  0.14695  Biso   1.000  Hf
  Hf2      1.0000 0.13978  0.22929  0.39275  Biso   1.000  Hf
  Hf3      1.0000 0.34103  0.27248  0.07612  Biso   1.000  Hf
  Hf4      1.0000 0.35359  0.48959  0.35496  Biso   1.000  Hf
  O1       1.0000 0.03284  0.16869  0.07766  Biso   1.000  O
  O2       1.0000 0.03532  0.08115  0.32965  Biso   1.000  O
  O3       1.0000 0.45072  0.43577  0.15584  Biso   1.000  O
  O4       1.0000 0.47955  0.36149  0.44707  Biso   1.000  O
  O5       1.0000 0.27716  0.12733  0.23408  Biso   1.000  O
  O6       1.0000 0.28846  0.12812  0.47981  Biso   1.000  O
  O7       1.0000 0.20861  0.38767  0.99939  Biso   1.000  O
  O8       1.0000 0.21734  0.37114  0.25321  Biso   1.000  O
  Hf5      1.0000 0.13953  0.02175  0.64462  Biso   1.000  Hf
  Hf6      1.0000 0.13016  0.22883  0.89025  Biso   1.000  Hf
  Hf7      1.0000 0.36170  0.27805  0.60612  Biso   1.000  Hf
  Hf8      1.0000 0.35763  0.48347  0.85294  Biso   1.000  Hf
  O9       1.0000 0.04184  0.16899  0.57898  Biso   1.000  O
  O10      1.0000 0.03112  0.08234  0.82606  Biso   1.000  O
  O11      1.0000 0.46614  0.41791  0.68106  Biso   1.000  O
  O12      1.0000 0.46237  0.33416  0.91393  Biso   1.000  O
  O13      1.0000 0.27411  0.12874  0.73614  Biso   1.000  O
  O14      1.0000 0.26592  0.11963  0.98116  Biso   1.000  O
  O15      1.0000 0.22237  0.38079  0.50796  Biso   1.000  O
  O16      1.0000 0.22156  0.37199  0.75624  Biso   1.000  O
  Hf9      1.0000 0.13705  0.52239  0.14696  Biso   1.000  Hf
  Hf10     1.0000 0.13507  0.72978  0.39711  Biso   1.000  Hf
  Hf11     1.0000 0.35893  0.77418  0.10448  Biso   1.000  Hf
  Hf12     1.0000 0.36386  0.96969  0.35680  Biso   1.000  Hf
  O17      1.0000 0.03241  0.66617  0.07894  Biso   1.000  O
  O18      1.0000 0.03190  0.58303  0.32965  Biso   1.000  O
  O19      1.0000 0.46652  0.91618  0.17577  Biso   1.000  O
  O20      1.0000 0.46161  0.82253  0.42360  Biso   1.000  O
  O21      1.0000 0.27151  0.63219  0.24222  Biso   1.000  O
  O22      1.0000 0.27118  0.62481  0.49305  Biso   1.000  O
  O23      1.0000 0.22239  0.87974  0.01106  Biso   1.000  O
  O24      1.0000 0.22192  0.87043  0.26048  Biso   1.000  O
  Hf13     1.0000 0.13727  0.52330  0.64667  Biso   1.000  Hf
  Hf14     1.0000 0.13670  0.72863  0.89789  Biso   1.000  Hf
  Hf15     1.0000 0.36089  0.77017  0.60544  Biso   1.000  Hf
  Hf16     1.0000 0.35882  0.97727  0.85209  Biso   1.000  Hf
  O25      1.0000 0.03112  0.66645  0.57930  Biso   1.000  O
  O26      1.0000 0.03266  0.58376  0.82941  Biso   1.000  O
  O27      1.0000 0.46481  0.91499  0.67138  Biso   1.000  O
  O28      1.0000 0.46452  0.83638  0.92269  Biso   1.000  O
  O29      1.0000 0.27502  0.62862  0.74149  Biso   1.000  O
  O30      1.0000 0.27557  0.62537  0.99211  Biso   1.000  O
  O31      1.0000 0.22320  0.88077  0.51136  Biso   1.000  O
  O32      1.0000 0.22172  0.87051  0.76045  Biso   1.000  O
  Hf17     1.0000 0.64389  0.01404  0.15097  Biso   1.000  Hf
  Hf18     1.0000 0.65937  0.22664  0.42228  Biso   1.000  Hf
  Hf19     1.0000 0.85623  0.27008  0.10835  Biso   1.000  Hf
  Hf20     1.0000 0.85986  0.47739  0.35485  Biso   1.000  Hf
  O33      1.0000 0.52024  0.15318  0.06169  Biso   1.000  O
  O34      1.0000 0.55363  0.05547  0.34910  Biso   1.000  O
  O35      1.0000 0.96015  0.41760  0.17327  Biso   1.000  O
  O36      1.0000 0.96404  0.33065  0.42340  Biso   1.000  O
  O37      1.0000 0.78472  0.12691  0.24777  Biso   1.000  O
  O38      1.0000 0.78931  0.11247  0.50302  Biso   1.000  O
  O39      1.0000 0.71621  0.37662  0.01589  Biso   1.000  O
  O40      1.0000 0.71342  0.36796  0.26586  Biso   1.000  O
  Hf21     1.0000 0.63925  0.01837  0.64926  Biso   1.000  Hf
  Hf22     1.0000 0.63627  0.22505  0.89640  Biso   1.000  Hf
  Hf23     1.0000 0.86746  0.27129  0.61124  Biso   1.000  Hf
  Hf24     1.0000 0.85763  0.47848  0.85782  Biso   1.000  Hf
  O41      1.0000 0.53656  0.16861  0.58618  Biso   1.000  O
  O42      1.0000 0.53167  0.08264  0.82398  Biso   1.000  O
  O43      1.0000 0.96635  0.41744  0.67606  Biso   1.000  O
  O44      1.0000 0.95745  0.33108  0.92232  Biso   1.000  O
  O45      1.0000 0.77617  0.12887  0.74628  Biso   1.000  O
  O46      1.0000 0.77372  0.12067  0.99534  Biso   1.000  O
  O47      1.0000 0.73216  0.37990  0.51966  Biso   1.000  O
  O48      1.0000 0.72364  0.37168  0.76437  Biso   1.000  O
  Hf25     1.0000 0.63396  0.52596  0.14498  Biso   1.000  Hf
  Hf26     1.0000 0.63851  0.72502  0.39785  Biso   1.000  Hf
  Hf27     1.0000 0.86079  0.76938  0.10522  Biso   1.000  Hf
  Hf28     1.0000 0.85938  0.97609  0.35569  Biso   1.000  Hf
  O49      1.0000 0.53489  0.67471  0.07912  Biso   1.000  O
  O50      1.0000 0.53057  0.58629  0.32458  Biso   1.000  O
  O51      1.0000 0.96483  0.91459  0.17385  Biso   1.000  O
  O52      1.0000 0.96428  0.83276  0.42401  Biso   1.000  O
  O53      1.0000 0.77522  0.62637  0.24157  Biso   1.000  O
  O54      1.0000 0.77483  0.61992  0.49121  Biso   1.000  O
  O55      1.0000 0.72500  0.87727  0.01061  Biso   1.000  O
  O56      1.0000 0.72552  0.86540  0.25943  Biso   1.000  O
  Hf29     1.0000 0.63859  0.52260  0.65007  Biso   1.000  Hf
  Hf30     1.0000 0.63654  0.73021  0.89779  Biso   1.000  Hf
  Hf31     1.0000 0.85990  0.77185  0.60544  Biso   1.000  Hf
  Hf32     1.0000 0.85913  0.97731  0.85641  Biso   1.000  Hf
  O57      1.0000 0.53250  0.66361  0.58003  Biso   1.000  O
  O58      1.0000 0.53246  0.58662  0.83068  Biso   1.000  O
  O59      1.0000 0.96475  0.91648  0.67371  Biso   1.000  O
  O60      1.0000 0.96544  0.83391  0.92367  Biso   1.000  O
  O61      1.0000 0.77540  0.62981  0.74222  Biso   1.000  O
  O62      1.0000 0.77379  0.62072  0.99122  Biso   1.000  O
  O63      1.0000 0.72125  0.87472  0.51129  Biso   1.000  O
  O64      1.0000 0.72212  0.87222  0.76145  Biso   1.000  O
  La1      1.0000 0.48123  0.24438  0.26414  Biso   1.000  La
