data_image0
_cell_length_a       10.0555
_cell_length_b       10.4226
_cell_length_c       5.03545
_cell_angle_alpha    90.245
_cell_angle_beta     90.4228
_cell_angle_gamma    90.0104

_symmetry_space_group_name_H-M    "P 1"
_symmetry_int_tables_number       1

loop_
  _symmetry_equiv_pos_as_xyz
  'x, y, z'

loop_
  _atom_site_label
  _atom_site_occupancy
  _atom_site_fract_x
  _atom_site_fract_y
  _atom_site_fract_z
  _atom_site_thermal_displace_type
  _atom_site_B_iso_or_equiv
  _atom_site_type_symbol
  La1      1.0000 0.12167  0.00631  0.24299  Biso   1.000  La
  Hf1      1.0000 0.13446  0.23806  0.74498  Biso   1.000  Hf
  Hf2      1.0000 0.36608  0.26580  0.25171  Biso   1.000  Hf
  Hf3      1.0000 0.36565  0.48190  0.75207  Biso   1.000  Hf
  O1       1.0000 0.03368  0.20507  0.38394  Biso   1.000  O
  O2       1.0000 0.03237  0.07145  0.82077  Biso   1.000  O
  O3       1.0000 0.46540  0.43230  0.39330  Biso   1.000  O
  O4       1.0000 0.46611  0.31656  0.88945  Biso   1.000  O
  O5       1.0000 0.28198  0.12745  0.50881  Biso   1.000  O
  O6       1.0000 0.27561  0.13592  0.98808  Biso   1.000  O
  O7       1.0000 0.23084  0.38367  0.99869  Biso   1.000  O
  O8       1.0000 0.22946  0.37016  0.49578  Biso   1.000  O
  Hf4      1.0000 0.13434  0.51647  0.25115  Biso   1.000  Hf
  Hf5      1.0000 0.13707  0.73163  0.75505  Biso   1.000  Hf
  Hf6      1.0000 0.37021  0.76288  0.24840  Biso   1.000  Hf
  Hf7      1.0000 0.37040  0.98327  0.74490  Biso   1.000  Hf
  O9       1.0000 0.03648  0.68669  0.39324  Biso   1.000  O
  O10      1.0000 0.03447  0.56886  0.89287  Biso   1.000  O
  O11      1.0000 0.46455  0.93511  0.38426  Biso   1.000  O
  O12      1.0000 0.47312  0.81790  0.89646  Biso   1.000  O
  O13      1.0000 0.26986  0.61318  0.49927  Biso   1.000  O
  O14      1.0000 0.27103  0.62913  0.00077  Biso   1.000  O
  O15      1.0000 0.24425  0.87237  0.98267  Biso   1.000  O
  O16      1.0000 0.24327  0.85516  0.50682  Biso   1.000  O
  Hf8      1.0000 0.63389  0.01628  0.25224  Biso   1.000  Hf
  Hf9      1.0000 0.63347  0.23338  0.74989  Biso   1.000  Hf
  Hf10     1.0000 0.86100  0.27032  0.25106  Biso   1.000  Hf
  Hf11     1.0000 0.86629  0.48366  0.75536  Biso   1.000  Hf
  O17      1.0000 0.53867  0.18491  0.38386  Biso   1.000  O
  O18      1.0000 0.54005  0.06535  0.88513  Biso   1.000  O
  O19      1.0000 0.96196  0.44058  0.39132  Biso   1.000  O
  O20      1.0000 0.96454  0.32042  0.89381  Biso   1.000  O
  O21      1.0000 0.76857  0.11868  0.50206  Biso   1.000  O
  O22      1.0000 0.77089  0.13302  0.00271  Biso   1.000  O
  O23      1.0000 0.72860  0.38311  0.99886  Biso   1.000  O
  O24      1.0000 0.72933  0.36879  0.50184  Biso   1.000  O
  Hf12     1.0000 0.63202  0.51441  0.25319  Biso   1.000  Hf
  Hf13     1.0000 0.63354  0.73069  0.75594  Biso   1.000  Hf
  Hf14     1.0000 0.86146  0.76160  0.25635  Biso   1.000  Hf
  Hf15     1.0000 0.85785  0.98158  0.75616  Biso   1.000  Hf
  O25      1.0000 0.53631  0.68028  0.39532  Biso   1.000  O
  O26      1.0000 0.53335  0.56574  0.89655  Biso   1.000  O
  O27      1.0000 0.93597  0.92729  0.40532  Biso   1.000  O
  O28      1.0000 0.97346  0.82349  0.91470  Biso   1.000  O
  O29      1.0000 0.77002  0.61620  0.49968  Biso   1.000  O
  O30      1.0000 0.76943  0.62977  0.99802  Biso   1.000  O
  O31      1.0000 0.73054  0.87829  0.00830  Biso   1.000  O
  O32      1.0000 0.71775  0.86590  0.50741  Biso   1.000  O
