data_image0
_cell_length_a       10.1569
_cell_length_b       10.2999
_cell_length_c       10.1503
_cell_angle_alpha    89.8098
_cell_angle_beta     90.0018
_cell_angle_gamma    90.0033

_symmetry_space_group_name_H-M    "P 1"
_symmetry_int_tables_number       1

loop_
  _symmetry_equiv_pos_as_xyz
  'x, y, z'

loop_
  _atom_site_label
  _atom_site_occupancy
  _atom_site_fract_x
  _atom_site_fract_y
  _atom_site_fract_z
  _atom_site_thermal_displace_type
  _atom_site_B_iso_or_equiv
  _atom_site_type_symbol
  Zr1      1.0000 0.13635  0.96905  0.09752  Biso   1.000  Zr
  Zr2      1.0000 0.12901  0.24706  0.38366  Biso   1.000  Zr
  Zr3      1.0000 0.38408  0.25040  0.10671  Biso   1.000  Zr
  Zr4      1.0000 0.37529  0.49779  0.35850  Biso   1.000  Zr
  O1       1.0000 0.96086  0.17475  0.26937  Biso   1.000  O
  O2       1.0000 0.00624  0.10568  0.49469  Biso   1.000  O
  O3       1.0000 0.49297  0.40016  0.22222  Biso   1.000  O
  O4       1.0000 0.49860  0.35524  0.47647  Biso   1.000  O
  O5       1.0000 0.23668  0.10236  0.23539  Biso   1.000  O
  O6       1.0000 0.26350  0.14230  0.48307  Biso   1.000  O
  O7       1.0000 0.25094  0.39521  0.48808  Biso   1.000  O
  O8       1.0000 0.24874  0.36878  0.24422  Biso   1.000  O
  Zr5      1.0000 0.12488  0.99208  0.61240  Biso   1.000  Zr
  Zr6      1.0000 0.12901  0.25381  0.82975  Biso   1.000  Zr
  Zr7      1.0000 0.38286  0.25045  0.60670  Biso   1.000  Zr
  Zr8      1.0000 0.37401  0.49664  0.85970  Biso   1.000  Zr
  O9       1.0000 0.99500  0.13898  0.73797  Biso   1.000  O
  O10      1.0000 0.97983  0.07948  0.00947  Biso   1.000  O
  O11      1.0000 0.50591  0.39742  0.72661  Biso   1.000  O
  O12      1.0000 0.48726  0.35104  0.96772  Biso   1.000  O
  O13      1.0000 0.25091  0.10568  0.72531  Biso   1.000  O
  O14      1.0000 0.24872  0.13207  0.96917  Biso   1.000  O
  O15      1.0000 0.23665  0.39849  0.97800  Biso   1.000  O
  O16      1.0000 0.26347  0.35860  0.73031  Biso   1.000  O
  Zr9      1.0000 0.13638  0.53177  0.11592  Biso   1.000  Zr
  Zr10     1.0000 0.12767  0.75997  0.36303  Biso   1.000  Zr
  Zr11     1.0000 0.38755  0.75043  0.10675  Biso   1.000  Zr
  Zr12     1.0000 0.37398  0.00422  0.35374  Biso   1.000  Zr
  O17      1.0000 0.01411  0.66427  0.22341  Biso   1.000  O
  O18      1.0000 0.00463  0.60892  0.47103  Biso   1.000  O
  O19      1.0000 0.50457  0.89834  0.23083  Biso   1.000  O
  O20      1.0000 0.49816  0.85446  0.47941  Biso   1.000  O
  O21      1.0000 0.26508  0.61892  0.23842  Biso   1.000  O
  O22      1.0000 0.25170  0.64769  0.48544  Biso   1.000  O
  O23      1.0000 0.24708  0.89749  0.47898  Biso   1.000  O
  O24      1.0000 0.25919  0.85588  0.22979  Biso   1.000  O
  Zr13     1.0000 0.12492  0.50877  0.60105  Biso   1.000  Zr
  Zr14     1.0000 0.12769  0.74086  0.85045  Biso   1.000  Zr
  Zr15     1.0000 0.37917  0.75042  0.60676  Biso   1.000  Zr
  Zr16     1.0000 0.37523  0.00307  0.85489  Biso   1.000  Zr
  O25      1.0000 0.99970  0.64414  0.72335  Biso   1.000  O
  O26      1.0000 0.01048  0.59148  0.96950  Biso   1.000  O
  O27      1.0000 0.50249  0.89541  0.73045  Biso   1.000  O
  O28      1.0000 0.51233  0.85172  0.98111  Biso   1.000  O
  O29      1.0000 0.24713  0.60340  0.73446  Biso   1.000  O
  O30      1.0000 0.25923  0.64496  0.98367  Biso   1.000  O
  O31      1.0000 0.26509  0.88193  0.97506  Biso   1.000  O
  O32      1.0000 0.25172  0.85322  0.72804  Biso   1.000  O
  Zr17     1.0000 0.62698  0.99347  0.09912  Biso   1.000  Zr
  Zr18     1.0000 0.62292  0.24651  0.36122  Biso   1.000  Zr
  Zr19     1.0000 0.83942  0.25041  0.10673  Biso   1.000  Zr
  Zr20     1.0000 0.87492  0.49825  0.35580  Biso   1.000  Zr
  O33      1.0000 0.48728  0.14979  0.24571  Biso   1.000  O
  O34      1.0000 0.50592  0.10345  0.48683  Biso   1.000  O
  O35      1.0000 0.97986  0.42131  0.20398  Biso   1.000  O
  O36      1.0000 0.99502  0.36187  0.47546  Biso   1.000  O
  O37      1.0000 0.73356  0.10484  0.23016  Biso   1.000  O
  O38      1.0000 0.75477  0.14901  0.47946  Biso   1.000  O
  O39      1.0000 0.75076  0.39718  0.48534  Biso   1.000  O
  O40      1.0000 0.73632  0.36276  0.23954  Biso   1.000  O
  Zr21     1.0000 0.62688  0.99816  0.60824  Biso   1.000  Zr
  Zr22     1.0000 0.62291  0.25434  0.85221  Biso   1.000  Zr
  Zr23     1.0000 0.87584  0.25043  0.60671  Biso   1.000  Zr
  Zr24     1.0000 0.87629  0.49052  0.85832  Biso   1.000  Zr
  O41      1.0000 0.49856  0.14562  0.73696  Biso   1.000  O
  O42      1.0000 0.49294  0.10065  0.99122  Biso   1.000  O
  O43      1.0000 0.00624  0.39518  0.71874  Biso   1.000  O
  O44      1.0000 0.96083  0.32605  0.94405  Biso   1.000  O
  O45      1.0000 0.75073  0.10369  0.72810  Biso   1.000  O
  O46      1.0000 0.73628  0.13808  0.97390  Biso   1.000  O
  O47      1.0000 0.73355  0.39600  0.98329  Biso   1.000  O
  O48      1.0000 0.75476  0.35185  0.73397  Biso   1.000  O
  Zr25     1.0000 0.62702  0.50737  0.11433  Biso   1.000  Zr
  Zr26     1.0000 0.62891  0.75666  0.35909  Biso   1.000  Zr
  Zr27     1.0000 0.87172  0.75045  0.10678  Biso   1.000  Zr
  Zr28     1.0000 0.87627  0.01031  0.35513  Biso   1.000  Zr
  O49      1.0000 0.51231  0.64910  0.23238  Biso   1.000  O
  O50      1.0000 0.50247  0.60546  0.48303  Biso   1.000  O
  O51      1.0000 0.01039  0.90930  0.24389  Biso   1.000  O
  O52      1.0000 0.99965  0.85671  0.49008  Biso   1.000  O
  O53      1.0000 0.75855  0.61039  0.22866  Biso   1.000  O
  O54      1.0000 0.75310  0.64809  0.47966  Biso   1.000  O
  O55      1.0000 0.74892  0.89893  0.48315  Biso   1.000  O
  O56      1.0000 0.75785  0.85817  0.23473  Biso   1.000  O
  Zr29     1.0000 0.62692  0.50270  0.60520  Biso   1.000  Zr
  Zr30     1.0000 0.62895  0.74418  0.85443  Biso   1.000  Zr
  Zr31     1.0000 0.87296  0.75042  0.60675  Biso   1.000  Zr
  Zr32     1.0000 0.87487  0.00260  0.85761  Biso   1.000  Zr
  O57      1.0000 0.49821  0.64639  0.73406  Biso   1.000  O
  O58      1.0000 0.50462  0.60249  0.98264  Biso   1.000  O
  O59      1.0000 0.00464  0.89193  0.74244  Biso   1.000  O
  O60      1.0000 0.01413  0.83650  0.99007  Biso   1.000  O
  O61      1.0000 0.74896  0.60194  0.73032  Biso   1.000  O
  O62      1.0000 0.75791  0.64267  0.97876  Biso   1.000  O
  O63      1.0000 0.75855  0.89046  0.98482  Biso   1.000  O
  O64      1.0000 0.75312  0.85277  0.73382  Biso   1.000  O
  La1      1.0000 0.10766  0.25041  0.10670  Biso   1.000  La
