data_image0
_cell_length_a       5.12691
_cell_length_b       10.4339
_cell_length_c       10.5316
_cell_angle_alpha    90.1277
_cell_angle_beta     80.8044
_cell_angle_gamma    90.2932

_symmetry_space_group_name_H-M    "P 1"
_symmetry_int_tables_number       1

loop_
  _symmetry_equiv_pos_as_xyz
  'x, y, z'

loop_
  _atom_site_label
  _atom_site_occupancy
  _atom_site_fract_x
  _atom_site_fract_y
  _atom_site_fract_z
  _atom_site_thermal_displace_type
  _atom_site_B_iso_or_equiv
  _atom_site_type_symbol
  La1      1.0000 0.26666  0.01069  0.14025  Biso   1.000  La
  Zr1      1.0000 0.28080  0.02210  0.64692  Biso   1.000  Zr
  Zr2      1.0000 0.27581  0.51756  0.14465  Biso   1.000  Zr
  Zr3      1.0000 0.27897  0.52067  0.64494  Biso   1.000  Zr
  Zr4      1.0000 0.27376  0.22927  0.39737  Biso   1.000  Zr
  Zr5      1.0000 0.27866  0.23294  0.89358  Biso   1.000  Zr
  Zr6      1.0000 0.27255  0.72347  0.39723  Biso   1.000  Zr
  Zr7      1.0000 0.28842  0.72871  0.89210  Biso   1.000  Zr
  Zr8      1.0000 0.71816  0.27093  0.10323  Biso   1.000  Zr
  Zr9      1.0000 0.72256  0.27154  0.60471  Biso   1.000  Zr
  Zr10     1.0000 0.72557  0.76133  0.10370  Biso   1.000  Zr
  Zr11     1.0000 0.72304  0.77181  0.60370  Biso   1.000  Zr
  Zr12     1.0000 0.71782  0.47712  0.35384  Biso   1.000  Zr
  Zr13     1.0000 0.72508  0.47895  0.85292  Biso   1.000  Zr
  Zr14     1.0000 0.70836  0.97991  0.36182  Biso   1.000  Zr
  Zr15     1.0000 0.73191  0.97845  0.85337  Biso   1.000  Zr
  O1       1.0000 0.07253  0.19016  0.07664  Biso   1.000  O
  O2       1.0000 0.07120  0.17262  0.58613  Biso   1.000  O
  O3       1.0000 0.08459  0.67498  0.08319  Biso   1.000  O
  O4       1.0000 0.06952  0.66894  0.58232  Biso   1.000  O
  O5       1.0000 0.05577  0.07885  0.34835  Biso   1.000  O
  O6       1.0000 0.08131  0.07890  0.83264  Biso   1.000  O
  O7       1.0000 0.06704  0.57858  0.33023  Biso   1.000  O
  O8       1.0000 0.07429  0.58020  0.83008  Biso   1.000  O
  O9       1.0000 0.91898  0.42444  0.16736  Biso   1.000  O
  O10      1.0000 0.92950  0.42148  0.66692  Biso   1.000  O
  O11      1.0000 0.85964  0.92802  0.16986  Biso   1.000  O
  O12      1.0000 0.93337  0.91872  0.67018  Biso   1.000  O
  O13      1.0000 0.92514  0.33061  0.41956  Biso   1.000  O
  O14      1.0000 0.92806  0.33268  0.91268  Biso   1.000  O
  O15      1.0000 0.92772  0.82947  0.41941  Biso   1.000  O
  O16      1.0000 0.95606  0.83561  0.92186  Biso   1.000  O
  O17      1.0000 0.55614  0.13699  0.25049  Biso   1.000  O
  O18      1.0000 0.55550  0.12989  0.73914  Biso   1.000  O
  O19      1.0000 0.54852  0.62255  0.23968  Biso   1.000  O
  O20      1.0000 0.55406  0.62976  0.73850  Biso   1.000  O
  O21      1.0000 0.54354  0.12191  0.49512  Biso   1.000  O
  O22      1.0000 0.56708  0.12636  0.98112  Biso   1.000  O
  O23      1.0000 0.54886  0.62008  0.49040  Biso   1.000  O
  O24      1.0000 0.55388  0.61673  0.98943  Biso   1.000  O
  O25      1.0000 0.45032  0.38031  0.00706  Biso   1.000  O
  O26      1.0000 0.44737  0.37905  0.50918  Biso   1.000  O
  O27      1.0000 0.48569  0.86453  0.99529  Biso   1.000  O
  O28      1.0000 0.44768  0.87910  0.51241  Biso   1.000  O
  O29      1.0000 0.44008  0.37218  0.25914  Biso   1.000  O
  O30      1.0000 0.45103  0.37279  0.75710  Biso   1.000  O
  O31      1.0000 0.45177  0.85637  0.26789  Biso   1.000  O
  O32      1.0000 0.45560  0.87166  0.75634  Biso   1.000  O
