data_image0
_cell_length_a       10.1711
_cell_length_b       10.2508
_cell_length_c       5.26272
_cell_angle_alpha    90.0649
_cell_angle_beta     79.0804
_cell_angle_gamma    90.3033

_symmetry_space_group_name_H-M    "P 1"
_symmetry_int_tables_number       1

loop_
  _symmetry_equiv_pos_as_xyz
  'x, y, z'

loop_
  _atom_site_label
  _atom_site_occupancy
  _atom_site_fract_x
  _atom_site_fract_y
  _atom_site_fract_z
  _atom_site_thermal_displace_type
  _atom_site_B_iso_or_equiv
  _atom_site_type_symbol
  Hf1      1.0000 0.13703  0.02256  0.29497  Biso   1.000  Hf
  Hf2      1.0000 0.13475  0.22891  0.78867  Biso   1.000  Hf
  Hf3      1.0000 0.34863  0.27529  0.18425  Biso   1.000  Hf
  Hf4      1.0000 0.35470  0.48233  0.70425  Biso   1.000  Hf
  O1       1.0000 0.03573  0.17086  0.16286  Biso   1.000  O
  O2       1.0000 0.03372  0.08119  0.65947  Biso   1.000  O
  O3       1.0000 0.46420  0.40800  0.35072  Biso   1.000  O
  O4       1.0000 0.46377  0.32995  0.83251  Biso   1.000  O
  O5       1.0000 0.28080  0.13358  0.47881  Biso   1.000  O
  O6       1.0000 0.27455  0.12181  0.97695  Biso   1.000  O
  O7       1.0000 0.21540  0.38318  0.00621  Biso   1.000  O
  O8       1.0000 0.21795  0.37297  0.51020  Biso   1.000  O
  Hf5      1.0000 0.13596  0.52442  0.29433  Biso   1.000  Hf
  Hf6      1.0000 0.13613  0.72962  0.79751  Biso   1.000  Hf
  Hf7      1.0000 0.35977  0.77290  0.21096  Biso   1.000  Hf
  Hf8      1.0000 0.35844  0.97573  0.71173  Biso   1.000  Hf
  O9       1.0000 0.03160  0.66931  0.16272  Biso   1.000  O
  O10      1.0000 0.03283  0.58354  0.66237  Biso   1.000  O
  O11      1.0000 0.46538  0.91647  0.34957  Biso   1.000  O
  O12      1.0000 0.46536  0.83448  0.84924  Biso   1.000  O
  O13      1.0000 0.27495  0.62948  0.48385  Biso   1.000  O
  O14      1.0000 0.27393  0.62415  0.98350  Biso   1.000  O
  O15      1.0000 0.22205  0.87909  0.02414  Biso   1.000  O
  O16      1.0000 0.22113  0.87276  0.52243  Biso   1.000  O
  Hf9      1.0000 0.63986  0.02006  0.30191  Biso   1.000  Hf
  Hf10     1.0000 0.64674  0.22769  0.81767  Biso   1.000  Hf
  Hf11     1.0000 0.86046  0.27221  0.21988  Biso   1.000  Hf
  Hf12     1.0000 0.85936  0.47894  0.71503  Biso   1.000  Hf
  O17      1.0000 0.53057  0.16998  0.17455  Biso   1.000  O
  O18      1.0000 0.53213  0.08678  0.66488  Biso   1.000  O
  O19      1.0000 0.96318  0.41970  0.34744  Biso   1.000  O
  O20      1.0000 0.95968  0.33012  0.84504  Biso   1.000  O
  O21      1.0000 0.77695  0.12852  0.49590  Biso   1.000  O
  O22      1.0000 0.77889  0.11850  0.99775  Biso   1.000  O
  O23      1.0000 0.72099  0.37836  0.03242  Biso   1.000  O
  O24      1.0000 0.72095  0.37040  0.53325  Biso   1.000  O
  Hf13     1.0000 0.63626  0.52110  0.30120  Biso   1.000  Hf
  Hf14     1.0000 0.63661  0.72678  0.79968  Biso   1.000  Hf
  Hf15     1.0000 0.85818  0.77185  0.21319  Biso   1.000  Hf
  Hf16     1.0000 0.85912  0.97677  0.71337  Biso   1.000  Hf
  O25      1.0000 0.53023  0.66343  0.16167  Biso   1.000  O
  O26      1.0000 0.52976  0.58312  0.66142  Biso   1.000  O
  O27      1.0000 0.96296  0.91870  0.34458  Biso   1.000  O
  O28      1.0000 0.96328  0.83241  0.84694  Biso   1.000  O
  O29      1.0000 0.77343  0.62822  0.48767  Biso   1.000  O
  O30      1.0000 0.77370  0.62105  0.98770  Biso   1.000  O
  O31      1.0000 0.72089  0.87709  0.02617  Biso   1.000  O
  O32      1.0000 0.72040  0.87142  0.52584  Biso   1.000  O
  Li1      1.0000 0.47162  0.23324  0.52911  Biso   1.000  Li
