data_image0
_cell_length_a       10.2325
_cell_length_b       5.17251
_cell_length_c       10.5649
_cell_angle_alpha    90.1761
_cell_angle_beta     79.2278
_cell_angle_gamma    90.3519

_symmetry_space_group_name_H-M    "P 1"
_symmetry_int_tables_number       1

loop_
  _symmetry_equiv_pos_as_xyz
  'x, y, z'

loop_
  _atom_site_label
  _atom_site_occupancy
  _atom_site_fract_x
  _atom_site_fract_y
  _atom_site_fract_z
  _atom_site_thermal_displace_type
  _atom_site_B_iso_or_equiv
  _atom_site_type_symbol
  Zr1      1.0000 0.13627  0.05164  0.14753  Biso   1.000  Zr
  Zr2      1.0000 0.13772  0.45933  0.39781  Biso   1.000  Zr
  Zr3      1.0000 0.34815  0.55458  0.09327  Biso   1.000  Zr
  Zr4      1.0000 0.35588  0.95246  0.35600  Biso   1.000  Zr
  O1       1.0000 0.03242  0.34345  0.08137  Biso   1.000  O
  O2       1.0000 0.03611  0.16489  0.33090  Biso   1.000  O
  O3       1.0000 0.46386  0.81734  0.17724  Biso   1.000  O
  O4       1.0000 0.46557  0.65071  0.41692  Biso   1.000  O
  O5       1.0000 0.28379  0.27017  0.24255  Biso   1.000  O
  O6       1.0000 0.27605  0.24328  0.49158  Biso   1.000  O
  O7       1.0000 0.21540  0.76813  0.00500  Biso   1.000  O
  O8       1.0000 0.21763  0.74870  0.25785  Biso   1.000  O
  Zr5      1.0000 0.13734  0.04400  0.64620  Biso   1.000  Zr
  Zr6      1.0000 0.13292  0.45932  0.89446  Biso   1.000  Zr
  Zr7      1.0000 0.36093  0.54099  0.60484  Biso   1.000  Zr
  Zr8      1.0000 0.35674  0.96174  0.85184  Biso   1.000  Zr
  O9       1.0000 0.03475  0.34029  0.58243  Biso   1.000  O
  O10      1.0000 0.03202  0.16171  0.83115  Biso   1.000  O
  O11      1.0000 0.46416  0.83850  0.66984  Biso   1.000  O
  O12      1.0000 0.46237  0.67042  0.92035  Biso   1.000  O
  O13      1.0000 0.27410  0.25772  0.74046  Biso   1.000  O
  O14      1.0000 0.27146  0.24907  0.98890  Biso   1.000  O
  O15      1.0000 0.22449  0.75702  0.50984  Biso   1.000  O
  O16      1.0000 0.22150  0.74219  0.75749  Biso   1.000  O
  Zr9      1.0000 0.63732  0.04035  0.14995  Biso   1.000  Zr
  Zr10     1.0000 0.64850  0.45481  0.40530  Biso   1.000  Zr
  Zr11     1.0000 0.85791  0.54515  0.10778  Biso   1.000  Zr
  Zr12     1.0000 0.86153  0.95524  0.35656  Biso   1.000  Zr
  O17      1.0000 0.52660  0.33782  0.08788  Biso   1.000  O
  O18      1.0000 0.53244  0.16637  0.33297  Biso   1.000  O
  O19      1.0000 0.96323  0.84182  0.17135  Biso   1.000  O
  O20      1.0000 0.96401  0.66307  0.42310  Biso   1.000  O
  O21      1.0000 0.77613  0.25619  0.24583  Biso   1.000  O
  O22      1.0000 0.78012  0.23840  0.49701  Biso   1.000  O
  O23      1.0000 0.71904  0.75582  0.01393  Biso   1.000  O
  O24      1.0000 0.72172  0.74193  0.26435  Biso   1.000  O
  Zr13     1.0000 0.63877  0.04330  0.65095  Biso   1.000  Zr
  Zr14     1.0000 0.63550  0.45738  0.90156  Biso   1.000  Zr
  Zr15     1.0000 0.86099  0.54390  0.60963  Biso   1.000  Zr
  Zr16     1.0000 0.85703  0.95759  0.85834  Biso   1.000  Zr
  O25      1.0000 0.53584  0.33684  0.58327  Biso   1.000  O
  O26      1.0000 0.53083  0.16714  0.83257  Biso   1.000  O
  O27      1.0000 0.96273  0.84001  0.67306  Biso   1.000  O
  O28      1.0000 0.95941  0.66136  0.92158  Biso   1.000  O
  O29      1.0000 0.77396  0.25946  0.74660  Biso   1.000  O
  O30      1.0000 0.77056  0.24199  0.99566  Biso   1.000  O
  O31      1.0000 0.72428  0.75598  0.51466  Biso   1.000  O
  O32      1.0000 0.72065  0.74334  0.76433  Biso   1.000  O
  Li1      1.0000 0.46059  0.44725  0.27092  Biso   1.000  Li
