data_image0
_cell_length_a       10.0091
_cell_length_b       5.24449
_cell_length_c       10.0496
_cell_angle_alpha    89.8149
_cell_angle_beta     90.3263
_cell_angle_gamma    90.0946

_symmetry_space_group_name_H-M    "P 1"
_symmetry_int_tables_number       1

loop_
  _symmetry_equiv_pos_as_xyz
  'x, y, z'

loop_
  _atom_site_label
  _atom_site_occupancy
  _atom_site_fract_x
  _atom_site_fract_y
  _atom_site_fract_z
  _atom_site_thermal_displace_type
  _atom_site_B_iso_or_equiv
  _atom_site_type_symbol
  Hf1      1.0000 0.13543  0.12304  0.10922  Biso   1.000  Hf
  Hf2      1.0000 0.13572  0.46112  0.39098  Biso   1.000  Hf
  Hf3      1.0000 0.36534  0.52971  0.12176  Biso   1.000  Hf
  Hf4      1.0000 0.36289  0.95927  0.37424  Biso   1.000  Hf
  O1       1.0000 0.01149  0.37542  0.21740  Biso   1.000  O
  O2       1.0000 0.03618  0.12670  0.45097  Biso   1.000  O
  O3       1.0000 0.45968  0.86558  0.19419  Biso   1.000  O
  O4       1.0000 0.46323  0.62793  0.44451  Biso   1.000  O
  O5       1.0000 0.26936  0.23803  0.25181  Biso   1.000  O
  O6       1.0000 0.27379  0.25510  0.50165  Biso   1.000  O
  O7       1.0000 0.23089  0.75957  0.50364  Biso   1.000  O
  O8       1.0000 0.22921  0.71455  0.25696  Biso   1.000  O
  Hf5      1.0000 0.13473  0.02556  0.62963  Biso   1.000  Hf
  Hf6      1.0000 0.14299  0.46118  0.87130  Biso   1.000  Hf
  Hf7      1.0000 0.37028  0.52760  0.62566  Biso   1.000  Hf
  Hf8      1.0000 0.37248  0.95885  0.87201  Biso   1.000  Hf
  O9       1.0000 0.03943  0.36390  0.68912  Biso   1.000  O
  O10      1.0000 0.03744  0.13664  0.93139  Biso   1.000  O
  O11      1.0000 0.47134  0.85783  0.69175  Biso   1.000  O
  O12      1.0000 0.47007  0.62909  0.94329  Biso   1.000  O
  O13      1.0000 0.27348  0.22847  0.74603  Biso   1.000  O
  O14      1.0000 0.29546  0.25429  0.98530  Biso   1.000  O
  O15      1.0000 0.23398  0.78222  0.00015  Biso   1.000  O
  O16      1.0000 0.23758  0.73121  0.74943  Biso   1.000  O
  Hf9      1.0000 0.62677  0.02757  0.12479  Biso   1.000  Hf
  Hf10     1.0000 0.62972  0.45784  0.37845  Biso   1.000  Hf
  Hf11     1.0000 0.83925  0.52432  0.12952  Biso   1.000  Hf
  Hf12     1.0000 0.87042  0.96724  0.37245  Biso   1.000  Hf
  O17      1.0000 0.53441  0.36290  0.19339  Biso   1.000  O
  O18      1.0000 0.53408  0.12514  0.44435  Biso   1.000  O
  O19      1.0000 0.96161  0.87956  0.18917  Biso   1.000  O
  O20      1.0000 0.96664  0.63797  0.44918  Biso   1.000  O
  O21      1.0000 0.75994  0.22537  0.25125  Biso   1.000  O
  O22      1.0000 0.77123  0.26385  0.49843  Biso   1.000  O
  O23      1.0000 0.73311  0.76338  0.49922  Biso   1.000  O
  O24      1.0000 0.72232  0.73293  0.25309  Biso   1.000  O
  Hf13     1.0000 0.63871  0.02508  0.62344  Biso   1.000  Hf
  Hf14     1.0000 0.63434  0.45747  0.87169  Biso   1.000  Hf
  Hf15     1.0000 0.86849  0.52787  0.62520  Biso   1.000  Hf
  Hf16     1.0000 0.86732  0.95463  0.87769  Biso   1.000  Hf
  O25      1.0000 0.53988  0.35986  0.69186  Biso   1.000  O
  O26      1.0000 0.54397  0.12259  0.93982  Biso   1.000  O
  O27      1.0000 0.96955  0.85398  0.70336  Biso   1.000  O
  O28      1.0000 0.96917  0.62931  0.95887  Biso   1.000  O
  O29      1.0000 0.77457  0.22415  0.74922  Biso   1.000  O
  O30      1.0000 0.77082  0.25724  0.99977  Biso   1.000  O
  O31      1.0000 0.72726  0.75717  0.00071  Biso   1.000  O
  O32      1.0000 0.73484  0.72559  0.75062  Biso   1.000  O
  Mg1      1.0000 0.09440  0.64646  0.11885  Biso   1.000  Mg
