data_image0
_cell_length_a       5.16275
_cell_length_b       10.3347
_cell_length_c       10.6187
_cell_angle_alpha    90.2527
_cell_angle_beta     78.3462
_cell_angle_gamma    90.8956

_symmetry_space_group_name_H-M    "P 1"
_symmetry_int_tables_number       1

loop_
  _symmetry_equiv_pos_as_xyz
  'x, y, z'

loop_
  _atom_site_label
  _atom_site_occupancy
  _atom_site_fract_x
  _atom_site_fract_y
  _atom_site_fract_z
  _atom_site_thermal_displace_type
  _atom_site_B_iso_or_equiv
  _atom_site_type_symbol
  Zr1      1.0000 0.27828  0.01822  0.14905  Biso   1.000  Zr
  Zr2      1.0000 0.32681  0.22799  0.41003  Biso   1.000  Zr
  Zr3      1.0000 0.67288  0.27155  0.09982  Biso   1.000  Zr
  Zr4      1.0000 0.69900  0.47633  0.35158  Biso   1.000  Zr
  O1       1.0000 0.05222  0.17537  0.08837  Biso   1.000  O
  O2       1.0000 0.06463  0.09416  0.32727  Biso   1.000  O
  O3       1.0000 0.90287  0.42134  0.16887  Biso   1.000  O
  O4       1.0000 0.95526  0.33342  0.42856  Biso   1.000  O
  O5       1.0000 0.55315  0.11564  0.24288  Biso   1.000  O
  O6       1.0000 0.57551  0.11650  0.49732  Biso   1.000  O
  O7       1.0000 0.42339  0.38293  0.00615  Biso   1.000  O
  O8       1.0000 0.37334  0.36241  0.24955  Biso   1.000  O
  Zr5      1.0000 0.28195  0.01891  0.65149  Biso   1.000  Zr
  Zr6      1.0000 0.25953  0.23181  0.89656  Biso   1.000  Zr
  Zr7      1.0000 0.74155  0.27099  0.60769  Biso   1.000  Zr
  Zr8      1.0000 0.71259  0.47992  0.85561  Biso   1.000  Zr
  O9       1.0000 0.08601  0.16521  0.58558  Biso   1.000  O
  O10      1.0000 0.05975  0.08282  0.83358  Biso   1.000  O
  O11      1.0000 0.93607  0.41576  0.67741  Biso   1.000  O
  O12      1.0000 0.91296  0.33312  0.92248  Biso   1.000  O
  O13      1.0000 0.54924  0.12856  0.74487  Biso   1.000  O
  O14      1.0000 0.52758  0.12150  0.99101  Biso   1.000  O
  O15      1.0000 0.46015  0.37782  0.51664  Biso   1.000  O
  O16      1.0000 0.44686  0.37171  0.76038  Biso   1.000  O
  Zr9      1.0000 0.26324  0.52745  0.14739  Biso   1.000  Zr
  Zr10     1.0000 0.26915  0.72414  0.39925  Biso   1.000  Zr
  Zr11     1.0000 0.71476  0.77178  0.10542  Biso   1.000  Zr
  Zr12     1.0000 0.72312  0.97323  0.35631  Biso   1.000  Zr
  O17      1.0000 0.05258  0.66656  0.07790  Biso   1.000  O
  O18      1.0000 0.05191  0.58311  0.33000  Biso   1.000  O
  O19      1.0000 0.93531  0.91199  0.17710  Biso   1.000  O
  O20      1.0000 0.93624  0.83644  0.42614  Biso   1.000  O
  O21      1.0000 0.54131  0.62700  0.24335  Biso   1.000  O
  O22      1.0000 0.54065  0.62267  0.49284  Biso   1.000  O
  O23      1.0000 0.44727  0.87714  0.01179  Biso   1.000  O
  O24      1.0000 0.44508  0.86906  0.26192  Biso   1.000  O
  Zr13     1.0000 0.27791  0.52327  0.64841  Biso   1.000  Zr
  Zr14     1.0000 0.26846  0.72852  0.89858  Biso   1.000  Zr
  Zr15     1.0000 0.72040  0.77123  0.60547  Biso   1.000  Zr
  Zr16     1.0000 0.71569  0.97756  0.85608  Biso   1.000  Zr
  O25      1.0000 0.05597  0.66297  0.58012  Biso   1.000  O
  O26      1.0000 0.06008  0.58600  0.82921  Biso   1.000  O
  O27      1.0000 0.93180  0.91436  0.67641  Biso   1.000  O
  O28      1.0000 0.93046  0.83687  0.92544  Biso   1.000  O
  O29      1.0000 0.54732  0.62827  0.74310  Biso   1.000  O
  O30      1.0000 0.54101  0.62415  0.99232  Biso   1.000  O
  O31      1.0000 0.44701  0.87675  0.51197  Biso   1.000  O
  O32      1.0000 0.44545  0.87119  0.76199  Biso   1.000  O
  Mg1      1.0000 0.00887  0.26436  0.25373  Biso   1.000  Mg
