data_image0
_cell_length_a       10.117
_cell_length_b       10.3171
_cell_length_c       10.5657
_cell_angle_alpha    89.8416
_cell_angle_beta     91.0662
_cell_angle_gamma    90.3238

_symmetry_space_group_name_H-M    "P 1"
_symmetry_int_tables_number       1

loop_
  _symmetry_equiv_pos_as_xyz
  'x, y, z'

loop_
  _atom_site_label
  _atom_site_occupancy
  _atom_site_fract_x
  _atom_site_fract_y
  _atom_site_fract_z
  _atom_site_thermal_displace_type
  _atom_site_B_iso_or_equiv
  _atom_site_type_symbol
  Zr1      1.0000 0.13659  0.02204  0.17234  Biso   1.000  Zr
  Zr2      1.0000 0.13741  0.22719  0.42759  Biso   1.000  Zr
  Zr3      1.0000 0.34431  0.27309  0.18819  Biso   1.000  Zr
  Zr4      1.0000 0.36013  0.48069  0.42787  Biso   1.000  Zr
  Zr5      1.0000 0.64804  0.02218  0.07278  Biso   1.000  Zr
  Zr6      1.0000 0.63551  0.22916  0.32870  Biso   1.000  Zr
  Zr7      1.0000 0.85251  0.26638  0.07534  Biso   1.000  Zr
  Zr8      1.0000 0.85997  0.47714  0.32632  Biso   1.000  Zr
  O1       1.0000 0.03219  0.16469  0.08334  Biso   1.000  O
  O2       1.0000 0.03212  0.08516  0.33403  Biso   1.000  O
  O3       1.0000 0.46628  0.41517  0.08737  Biso   1.000  O
  O4       1.0000 0.46330  0.33615  0.33936  Biso   1.000  O
  O5       1.0000 0.27128  0.12517  0.30190  Biso   1.000  O
  O6       1.0000 0.27632  0.12892  0.04931  Biso   1.000  O
  O7       1.0000 0.21705  0.37670  0.30429  Biso   1.000  O
  O8       1.0000 0.22179  0.37840  0.05145  Biso   1.000  O
  O9       1.0000 0.52033  0.16838  0.16926  Biso   1.000  O
  O10      1.0000 0.53063  0.08562  0.41698  Biso   1.000  O
  O11      1.0000 0.96151  0.41449  0.16702  Biso   1.000  O
  O12      1.0000 0.96847  0.33617  0.41832  Biso   1.000  O
  O13      1.0000 0.77428  0.12487  0.45168  Biso   1.000  O
  O14      1.0000 0.77555  0.12552  0.20734  Biso   1.000  O
  O15      1.0000 0.72385  0.37434  0.45234  Biso   1.000  O
  O16      1.0000 0.71566  0.37670  0.20160  Biso   1.000  O
  Zr9      1.0000 0.14212  0.02049  0.67416  Biso   1.000  Zr
  Zr10     1.0000 0.13650  0.22804  0.92416  Biso   1.000  Zr
  Zr11     1.0000 0.36622  0.26898  0.67835  Biso   1.000  Zr
  Zr12     1.0000 0.35809  0.48275  0.92455  Biso   1.000  Zr
  Zr13     1.0000 0.64179  0.01858  0.57483  Biso   1.000  Zr
  Zr14     1.0000 0.66137  0.22010  0.81408  Biso   1.000  Zr
  Zr15     1.0000 0.86454  0.27233  0.57515  Biso   1.000  Zr
  Zr16     1.0000 0.86475  0.47990  0.82905  Biso   1.000  Zr
  O17      1.0000 0.03358  0.16302  0.58372  Biso   1.000  O
  O18      1.0000 0.03799  0.08325  0.83188  Biso   1.000  O
  O19      1.0000 0.47047  0.41439  0.58894  Biso   1.000  O
  O20      1.0000 0.47378  0.32776  0.84665  Biso   1.000  O
  O21      1.0000 0.27865  0.12518  0.79893  Biso   1.000  O
  O22      1.0000 0.27848  0.12473  0.54990  Biso   1.000  O
  O23      1.0000 0.22942  0.37475  0.80029  Biso   1.000  O
  O24      1.0000 0.22707  0.37407  0.55219  Biso   1.000  O
  O25      1.0000 0.53685  0.16123  0.66703  Biso   1.000  O
  O26      1.0000 0.53397  0.08738  0.91799  Biso   1.000  O
  O27      1.0000 0.97076  0.41375  0.66888  Biso   1.000  O
  O28      1.0000 0.96639  0.33497  0.91651  Biso   1.000  O
  O29      1.0000 0.79823  0.11581  0.94328  Biso   1.000  O
  O30      1.0000 0.78761  0.12053  0.69454  Biso   1.000  O
  O31      1.0000 0.72082  0.37940  0.95014  Biso   1.000  O
  O32      1.0000 0.72977  0.37421  0.70106  Biso   1.000  O
  Zr17     1.0000 0.13359  0.52203  0.17274  Biso   1.000  Zr
  Zr18     1.0000 0.13840  0.72826  0.42197  Biso   1.000  Zr
  Zr19     1.0000 0.36157  0.77429  0.17378  Biso   1.000  Zr
  Zr20     1.0000 0.36091  0.97696  0.42449  Biso   1.000  Zr
  Zr21     1.0000 0.64220  0.53070  0.07912  Biso   1.000  Zr
  Zr22     1.0000 0.63957  0.72995  0.32888  Biso   1.000  Zr
  Zr23     1.0000 0.86354  0.77218  0.07968  Biso   1.000  Zr
  Zr24     1.0000 0.86057  0.97925  0.32870  Biso   1.000  Zr
  O33      1.0000 0.03397  0.66596  0.08404  Biso   1.000  O
  O34      1.0000 0.02990  0.58547  0.33297  Biso   1.000  O
  O35      1.0000 0.46999  0.91659  0.08543  Biso   1.000  O
  O36      1.0000 0.46917  0.83620  0.33429  Biso   1.000  O
  O37      1.0000 0.27396  0.62446  0.29667  Biso   1.000  O
  O38      1.0000 0.27580  0.62599  0.04633  Biso   1.000  O
  O39      1.0000 0.22496  0.87460  0.29747  Biso   1.000  O
  O40      1.0000 0.22452  0.87708  0.04823  Biso   1.000  O
  O41      1.0000 0.53159  0.66462  0.16906  Biso   1.000  O
  O42      1.0000 0.53106  0.58678  0.41963  Biso   1.000  O
  O43      1.0000 0.96736  0.91612  0.16771  Biso   1.000  O
  O44      1.0000 0.96849  0.83434  0.41726  Biso   1.000  O
  O45      1.0000 0.77574  0.62366  0.45355  Biso   1.000  O
  O46      1.0000 0.77681  0.62745  0.20479  Biso   1.000  O
  O47      1.0000 0.72635  0.87430  0.45445  Biso   1.000  O
  O48      1.0000 0.72726  0.87363  0.20524  Biso   1.000  O
  Zr25     1.0000 0.14087  0.52013  0.67310  Biso   1.000  Zr
  Zr26     1.0000 0.14104  0.73039  0.92259  Biso   1.000  Zr
  Zr27     1.0000 0.36353  0.77192  0.67398  Biso   1.000  Zr
  Zr28     1.0000 0.36363  0.97989  0.92577  Biso   1.000  Zr
  Zr29     1.0000 0.64040  0.52175  0.57800  Biso   1.000  Zr
  Zr30     1.0000 0.63990  0.72894  0.82715  Biso   1.000  Zr
  Zr31     1.0000 0.86453  0.76935  0.57782  Biso   1.000  Zr
  Zr32     1.0000 0.86540  0.97272  0.82603  Biso   1.000  Zr
  O49      1.0000 0.03398  0.66190  0.58243  Biso   1.000  O
  O50      1.0000 0.03616  0.58511  0.83432  Biso   1.000  O
  O51      1.0000 0.47098  0.91188  0.58156  Biso   1.000  O
  O52      1.0000 0.47229  0.83871  0.83209  Biso   1.000  O
  O53      1.0000 0.27753  0.62544  0.79671  Biso   1.000  O
  O54      1.0000 0.27588  0.62527  0.54738  Biso   1.000  O
  O55      1.0000 0.22808  0.87393  0.79774  Biso   1.000  O
  O56      1.0000 0.22611  0.87468  0.54743  Biso   1.000  O
  O57      1.0000 0.53246  0.66293  0.66855  Biso   1.000  O
  O58      1.0000 0.53058  0.58811  0.91973  Biso   1.000  O
  O59      1.0000 0.97351  0.90986  0.66680  Biso   1.000  O
  O60      1.0000 0.97085  0.83386  0.91948  Biso   1.000  O
  O61      1.0000 0.77783  0.62502  0.95463  Biso   1.000  O
  O62      1.0000 0.77709  0.62480  0.70419  Biso   1.000  O
  O63      1.0000 0.72671  0.87139  0.95546  Biso   1.000  O
  O64      1.0000 0.72677  0.87287  0.70182  Biso   1.000  O
  Mg1      1.0000 0.54211  0.26655  0.01533  Biso   1.000  Mg
