data_image0
_cell_length_a       5.11586
_cell_length_b       10.3066
_cell_length_c       10.4944
_cell_angle_alpha    89.9918
_cell_angle_beta     80.0976
_cell_angle_gamma    89.936

_symmetry_space_group_name_H-M    "P 1"
_symmetry_int_tables_number       1

loop_
  _symmetry_equiv_pos_as_xyz
  'x, y, z'

loop_
  _atom_site_label
  _atom_site_occupancy
  _atom_site_fract_x
  _atom_site_fract_y
  _atom_site_fract_z
  _atom_site_thermal_displace_type
  _atom_site_B_iso_or_equiv
  _atom_site_type_symbol
  Mg1      1.0000 0.27030  0.01411  0.15179  Biso   1.000  Mg
  Zr1      1.0000 0.27851  0.02100  0.64465  Biso   1.000  Zr
  Zr2      1.0000 0.27883  0.52033  0.14472  Biso   1.000  Zr
  Zr3      1.0000 0.27942  0.52188  0.64646  Biso   1.000  Zr
  Zr4      1.0000 0.27877  0.22684  0.39201  Biso   1.000  Zr
  Zr5      1.0000 0.28156  0.22628  0.89909  Biso   1.000  Zr
  Zr6      1.0000 0.27979  0.72975  0.39367  Biso   1.000  Zr
  Zr7      1.0000 0.28192  0.73221  0.89776  Biso   1.000  Zr
  Zr8      1.0000 0.72114  0.26339  0.10494  Biso   1.000  Zr
  Zr9      1.0000 0.71845  0.27161  0.60419  Biso   1.000  Zr
  Zr10     1.0000 0.71500  0.77583  0.10528  Biso   1.000  Zr
  Zr11     1.0000 0.72083  0.77175  0.60390  Biso   1.000  Zr
  Zr12     1.0000 0.71941  0.47877  0.35354  Biso   1.000  Zr
  Zr13     1.0000 0.72220  0.47859  0.85604  Biso   1.000  Zr
  Zr14     1.0000 0.71779  0.98008  0.34952  Biso   1.000  Zr
  Zr15     1.0000 0.71671  0.98020  0.85684  Biso   1.000  Zr
  O1       1.0000 0.07282  0.16486  0.07961  Biso   1.000  O
  O2       1.0000 0.06581  0.16709  0.57924  Biso   1.000  O
  O3       1.0000 0.06522  0.66618  0.07931  Biso   1.000  O
  O4       1.0000 0.06769  0.66696  0.57946  Biso   1.000  O
  O5       1.0000 0.05974  0.08524  0.33353  Biso   1.000  O
  O6       1.0000 0.06895  0.08360  0.82813  Biso   1.000  O
  O7       1.0000 0.06636  0.58325  0.32869  Biso   1.000  O
  O8       1.0000 0.06777  0.58478  0.82959  Biso   1.000  O
  O9       1.0000 0.93336  0.41449  0.17088  Biso   1.000  O
  O10      1.0000 0.93349  0.41639  0.67153  Biso   1.000  O
  O11      1.0000 0.93080  0.91462  0.17114  Biso   1.000  O
  O12      1.0000 0.93178  0.91674  0.67086  Biso   1.000  O
  O13      1.0000 0.93154  0.33456  0.42136  Biso   1.000  O
  O14      1.0000 0.93805  0.33527  0.92185  Biso   1.000  O
  O15      1.0000 0.93169  0.83336  0.42041  Biso   1.000  O
  O16      1.0000 0.93561  0.83552  0.92099  Biso   1.000  O
  O17      1.0000 0.55148  0.12757  0.24207  Biso   1.000  O
  O18      1.0000 0.55013  0.12797  0.73866  Biso   1.000  O
  O19      1.0000 0.55036  0.62691  0.23998  Biso   1.000  O
  O20      1.0000 0.55170  0.62935  0.74091  Biso   1.000  O
  O21      1.0000 0.54814  0.12248  0.49083  Biso   1.000  O
  O22      1.0000 0.56964  0.12762  0.98315  Biso   1.000  O
  O23      1.0000 0.55089  0.62201  0.49055  Biso   1.000  O
  O24      1.0000 0.55023  0.62092  0.99051  Biso   1.000  O
  O25      1.0000 0.45150  0.37860  0.00979  Biso   1.000  O
  O26      1.0000 0.44801  0.37942  0.50960  Biso   1.000  O
  O27      1.0000 0.45245  0.87908  0.00684  Biso   1.000  O
  O28      1.0000 0.44841  0.87864  0.50889  Biso   1.000  O
  O29      1.0000 0.44842  0.37129  0.25922  Biso   1.000  O
  O30      1.0000 0.45092  0.37173  0.75998  Biso   1.000  O
  O31      1.0000 0.44757  0.86854  0.26022  Biso   1.000  O
  O32      1.0000 0.44888  0.87233  0.75780  Biso   1.000  O
