data_image0
_cell_length_a       10.0856
_cell_length_b       10.2514
_cell_length_c       5.26349
_cell_angle_alpha    89.4013
_cell_angle_beta     90.9632
_cell_angle_gamma    89.8258

_symmetry_space_group_name_H-M    "P 1"
_symmetry_int_tables_number       1

loop_
  _symmetry_equiv_pos_as_xyz
  'x, y, z'

loop_
  _atom_site_label
  _atom_site_occupancy
  _atom_site_fract_x
  _atom_site_fract_y
  _atom_site_fract_z
  _atom_site_thermal_displace_type
  _atom_site_B_iso_or_equiv
  _atom_site_type_symbol
  Hf1      1.0000 0.14157  0.01882  0.34016  Biso   1.000  Hf
  Hf2      1.0000 0.14199  0.22680  0.83608  Biso   1.000  Hf
  Hf3      1.0000 0.35906  0.26840  0.34985  Biso   1.000  Hf
  Hf4      1.0000 0.36173  0.47921  0.84519  Biso   1.000  Hf
  Hf5      1.0000 0.63793  0.02017  0.14440  Biso   1.000  Hf
  Hf6      1.0000 0.63403  0.22861  0.69442  Biso   1.000  Hf
  Hf7      1.0000 0.87444  0.26899  0.15045  Biso   1.000  Hf
  Hf8      1.0000 0.86376  0.48167  0.66047  Biso   1.000  Hf
  O1       1.0000 0.03813  0.15895  0.14972  Biso   1.000  O
  O2       1.0000 0.03147  0.09084  0.64644  Biso   1.000  O
  O3       1.0000 0.47736  0.40665  0.16818  Biso   1.000  O
  O4       1.0000 0.46227  0.33343  0.67712  Biso   1.000  O
  O5       1.0000 0.27382  0.12212  0.59042  Biso   1.000  O
  O6       1.0000 0.27759  0.12373  0.08705  Biso   1.000  O
  O7       1.0000 0.22277  0.37355  0.58991  Biso   1.000  O
  O8       1.0000 0.22658  0.37597  0.08980  Biso   1.000  O
  O9       1.0000 0.51507  0.14301  0.35505  Biso   1.000  O
  O10      1.0000 0.53039  0.07291  0.82694  Biso   1.000  O
  O11      1.0000 0.96719  0.41472  0.33762  Biso   1.000  O
  O12      1.0000 0.97152  0.33839  0.83173  Biso   1.000  O
  O13      1.0000 0.79036  0.11636  0.89442  Biso   1.000  O
  O14      1.0000 0.75787  0.14581  0.38997  Biso   1.000  O
  O15      1.0000 0.72372  0.37143  0.94575  Biso   1.000  O
  O16      1.0000 0.71823  0.39110  0.44464  Biso   1.000  O
  Hf9      1.0000 0.13874  0.52075  0.34214  Biso   1.000  Hf
  Hf10     1.0000 0.13849  0.72789  0.84237  Biso   1.000  Hf
  Hf11     1.0000 0.36137  0.76969  0.34571  Biso   1.000  Hf
  Hf12     1.0000 0.36069  0.97379  0.84551  Biso   1.000  Hf
  Hf13     1.0000 0.64366  0.53123  0.16188  Biso   1.000  Hf
  Hf14     1.0000 0.63968  0.73069  0.65608  Biso   1.000  Hf
  Hf15     1.0000 0.86340  0.77490  0.15527  Biso   1.000  Hf
  Hf16     1.0000 0.86346  0.97894  0.65095  Biso   1.000  Hf
  O17      1.0000 0.03257  0.66348  0.15781  Biso   1.000  O
  O18      1.0000 0.03284  0.58871  0.65657  Biso   1.000  O
  O19      1.0000 0.46742  0.90608  0.16003  Biso   1.000  O
  O20      1.0000 0.46689  0.83315  0.66255  Biso   1.000  O
  O21      1.0000 0.27544  0.62163  0.59247  Biso   1.000  O
  O22      1.0000 0.27666  0.62350  0.09254  Biso   1.000  O
  O23      1.0000 0.22347  0.87136  0.59108  Biso   1.000  O
  O24      1.0000 0.22211  0.87330  0.09169  Biso   1.000  O
  O25      1.0000 0.53092  0.66157  0.34445  Biso   1.000  O
  O26      1.0000 0.53242  0.58811  0.84276  Biso   1.000  O
  O27      1.0000 0.96861  0.91639  0.32854  Biso   1.000  O
  O28      1.0000 0.96898  0.83897  0.83151  Biso   1.000  O
  O29      1.0000 0.77864  0.62403  0.90690  Biso   1.000  O
  O30      1.0000 0.78040  0.63467  0.40864  Biso   1.000  O
  O31      1.0000 0.72517  0.87151  0.90776  Biso   1.000  O
  O32      1.0000 0.72644  0.88015  0.40964  Biso   1.000  O
  Mn1      1.0000 0.62153  0.27416  0.21993  Biso   1.000  Mn
