data_image0
_cell_length_a       10.0866
_cell_length_b       10.2781
_cell_length_c       10.0865
_cell_angle_alpha    89.9819
_cell_angle_beta     89.616
_cell_angle_gamma    90.0175

_symmetry_space_group_name_H-M    "P 1"
_symmetry_int_tables_number       1

loop_
  _symmetry_equiv_pos_as_xyz
  'x, y, z'

loop_
  _atom_site_label
  _atom_site_occupancy
  _atom_site_fract_x
  _atom_site_fract_y
  _atom_site_fract_z
  _atom_site_thermal_displace_type
  _atom_site_B_iso_or_equiv
  _atom_site_type_symbol
  Zr1      1.0000 0.12716  0.96629  0.12411  Biso   1.000  Zr
  Zr2      1.0000 0.12884  0.25662  0.37993  Biso   1.000  Zr
  Zr3      1.0000 0.38402  0.25290  0.13011  Biso   1.000  Zr
  Zr4      1.0000 0.37761  0.00357  0.37722  Biso   1.000  Zr
  O1       1.0000 0.99311  0.15109  0.99267  Biso   1.000  O
  O2       1.0000 0.01159  0.10324  0.23970  Biso   1.000  O
  O3       1.0000 0.99213  0.35393  0.25914  Biso   1.000  O
  O4       1.0000 0.99187  0.40249  0.00121  Biso   1.000  O
  O5       1.0000 0.25862  0.15110  0.25819  Biso   1.000  O
  O6       1.0000 0.24510  0.09250  0.00620  Biso   1.000  O
  O7       1.0000 0.23363  0.33521  0.01765  Biso   1.000  O
  O8       1.0000 0.25006  0.40250  0.25941  Biso   1.000  O
  Zr5      1.0000 0.12646  0.99917  0.62451  Biso   1.000  Zr
  Zr6      1.0000 0.12117  0.25290  0.86726  Biso   1.000  Zr
  Zr7      1.0000 0.37701  0.25016  0.62747  Biso   1.000  Zr
  Zr8      1.0000 0.37408  0.00083  0.87720  Biso   1.000  Zr
  O9       1.0000 0.99936  0.14671  0.49618  Biso   1.000  O
  O10      1.0000 0.99915  0.10506  0.74531  Biso   1.000  O
  O11      1.0000 0.99533  0.35742  0.74927  Biso   1.000  O
  O12      1.0000 0.00211  0.39891  0.50329  Biso   1.000  O
  O13      1.0000 0.25204  0.14680  0.75284  Biso   1.000  O
  O14      1.0000 0.25338  0.10577  0.50411  Biso   1.000  O
  O15      1.0000 0.25292  0.35833  0.50905  Biso   1.000  O
  O16      1.0000 0.24614  0.39864  0.75974  Biso   1.000  O
  Zr9      1.0000 0.12486  0.49730  0.12641  Biso   1.000  Zr
  Zr10     1.0000 0.12780  0.74738  0.37848  Biso   1.000  Zr
  Zr11     1.0000 0.38004  0.74642  0.12871  Biso   1.000  Zr
  Zr12     1.0000 0.37769  0.50185  0.37833  Biso   1.000  Zr
  O17      1.0000 0.00276  0.64687  0.00269  Biso   1.000  O
  O18      1.0000 0.99953  0.60248  0.25174  Biso   1.000  O
  O19      1.0000 0.99971  0.84752  0.25156  Biso   1.000  O
  O20      1.0000 0.99580  0.89080  0.99343  Biso   1.000  O
  O21      1.0000 0.24858  0.64687  0.24850  Biso   1.000  O
  O22      1.0000 0.25189  0.59175  0.99937  Biso   1.000  O
  O23      1.0000 0.25184  0.84036  0.99944  Biso   1.000  O
  O24      1.0000 0.25784  0.89081  0.25547  Biso   1.000  O
  Zr13     1.0000 0.12691  0.50142  0.62679  Biso   1.000  Zr
  Zr14     1.0000 0.12257  0.74641  0.87124  Biso   1.000  Zr
  Zr15     1.0000 0.37688  0.75408  0.62511  Biso   1.000  Zr
  Zr16     1.0000 0.38064  0.50459  0.87063  Biso   1.000  Zr
  O25      1.0000 0.00086  0.64684  0.50272  Biso   1.000  O
  O26      1.0000 0.00275  0.60548  0.75280  Biso   1.000  O
  O27      1.0000 0.00173  0.85446  0.74642  Biso   1.000  O
  O28      1.0000 0.00292  0.89837  0.49736  Biso   1.000  O
  O29      1.0000 0.25363  0.64742  0.74878  Biso   1.000  O
  O30      1.0000 0.24981  0.60680  0.50000  Biso   1.000  O
  O31      1.0000 0.25129  0.85565  0.50227  Biso   1.000  O
  O32      1.0000 0.24992  0.89783  0.75156  Biso   1.000  O
  Zr17     1.0000 0.62677  0.99917  0.12481  Biso   1.000  Zr
  Zr18     1.0000 0.62939  0.25078  0.37484  Biso   1.000  Zr
  Zr19     1.0000 0.87135  0.25661  0.12243  Biso   1.000  Zr
  Zr20     1.0000 0.88120  0.00426  0.37008  Biso   1.000  Zr
  O33      1.0000 0.49844  0.14680  0.99924  Biso   1.000  O
  O34      1.0000 0.50598  0.10506  0.25213  Biso   1.000  O
  O35      1.0000 0.50201  0.35742  0.25595  Biso   1.000  O
  O36      1.0000 0.49154  0.39864  0.00513  Biso   1.000  O
  O37      1.0000 0.75510  0.14671  0.25192  Biso   1.000  O
  O38      1.0000 0.74718  0.10577  0.99790  Biso   1.000  O
  O39      1.0000 0.74223  0.35832  0.99836  Biso   1.000  O
  O40      1.0000 0.74799  0.39890  0.24916  Biso   1.000  O
  Zr21     1.0000 0.62684  0.00346  0.62444  Biso   1.000  Zr
  Zr22     1.0000 0.62381  0.25016  0.87427  Biso   1.000  Zr
  Zr23     1.0000 0.87644  0.25078  0.62188  Biso   1.000  Zr
  Zr24     1.0000 0.87406  0.00356  0.87366  Biso   1.000  Zr
  O41      1.0000 0.50248  0.14964  0.50157  Biso   1.000  O
  O42      1.0000 0.50051  0.10428  0.75077  Biso   1.000  O
  O43      1.0000 0.49743  0.35572  0.75384  Biso   1.000  O
  O44      1.0000 0.50221  0.39917  0.50359  Biso   1.000  O
  O45      1.0000 0.74971  0.14964  0.74879  Biso   1.000  O
  O46      1.0000 0.75241  0.10448  0.49887  Biso   1.000  O
  O47      1.0000 0.75230  0.35518  0.49898  Biso   1.000  O
  O48      1.0000 0.74769  0.39917  0.74907  Biso   1.000  O
  Zr25     1.0000 0.62448  0.50142  0.12436  Biso   1.000  Zr
  Zr26     1.0000 0.62813  0.75334  0.37571  Biso   1.000  Zr
  Zr27     1.0000 0.87279  0.74738  0.12348  Biso   1.000  Zr
  Zr28     1.0000 0.87665  0.49997  0.37462  Biso   1.000  Zr
  O49      1.0000 0.50248  0.64742  0.99765  Biso   1.000  O
  O50      1.0000 0.49848  0.60549  0.24852  Biso   1.000  O
  O51      1.0000 0.50485  0.85447  0.24955  Biso   1.000  O
  O52      1.0000 0.49971  0.89783  0.00137  Biso   1.000  O
  O53      1.0000 0.74856  0.64684  0.25042  Biso   1.000  O
  O54      1.0000 0.75127  0.60680  0.00147  Biso   1.000  O
  O55      1.0000 0.74901  0.85565  0.99999  Biso   1.000  O
  O56      1.0000 0.75391  0.89838  0.24836  Biso   1.000  O
  Zr29     1.0000 0.62791  0.50233  0.62337  Biso   1.000  Zr
  Zr30     1.0000 0.62617  0.75408  0.87440  Biso   1.000  Zr
  Zr31     1.0000 0.87557  0.75333  0.62315  Biso   1.000  Zr
  Zr32     1.0000 0.87295  0.50185  0.87358  Biso   1.000  Zr
  O57      1.0000 0.50045  0.65045  0.49866  Biso   1.000  O
  O58      1.0000 0.50306  0.60702  0.74822  Biso   1.000  O
  O59      1.0000 0.50055  0.85588  0.75073  Biso   1.000  O
  O60      1.0000 0.50195  0.90012  0.50047  Biso   1.000  O
  O61      1.0000 0.75261  0.65045  0.75083  Biso   1.000  O
  O62      1.0000 0.75070  0.60661  0.50058  Biso   1.000  O
  O63      1.0000 0.75279  0.85674  0.49849  Biso   1.000  O
  O64      1.0000 0.75081  0.90012  0.74933  Biso   1.000  O
  Mn1      1.0000 0.12886  0.19593  0.12242  Biso   1.000  Mn
