data_image0
_cell_length_a       10.066
_cell_length_b       10.2756
_cell_length_c       10.1226
_cell_angle_alpha    90.5291
_cell_angle_beta     87.9106
_cell_angle_gamma    89.494

_symmetry_space_group_name_H-M    "P 1"
_symmetry_int_tables_number       1

loop_
  _symmetry_equiv_pos_as_xyz
  'x, y, z'

loop_
  _atom_site_label
  _atom_site_occupancy
  _atom_site_fract_x
  _atom_site_fract_y
  _atom_site_fract_z
  _atom_site_thermal_displace_type
  _atom_site_B_iso_or_equiv
  _atom_site_type_symbol
  Hf1      1.0000 0.12256  0.95678  0.12209  Biso   1.000  Hf
  Hf2      1.0000 0.13062  0.26153  0.38296  Biso   1.000  Hf
  Hf3      1.0000 0.37869  0.26739  0.14675  Biso   1.000  Hf
  Hf4      1.0000 0.36491  0.99669  0.38401  Biso   1.000  Hf
  O1       1.0000 0.97226  0.16559  0.95628  Biso   1.000  O
  O2       1.0000 0.97227  0.07870  0.20425  Biso   1.000  O
  O3       1.0000 0.99637  0.33674  0.23916  Biso   1.000  O
  O4       1.0000 0.00054  0.41550  0.98698  Biso   1.000  O
  O5       1.0000 0.25426  0.15101  0.25434  Biso   1.000  O
  O6       1.0000 0.22177  0.08174  0.98520  Biso   1.000  O
  O7       1.0000 0.24458  0.33358  0.01061  Biso   1.000  O
  O8       1.0000 0.25015  0.40935  0.26482  Biso   1.000  O
  Hf5      1.0000 0.12817  0.99156  0.62918  Biso   1.000  Hf
  Hf6      1.0000 0.12525  0.26734  0.86220  Biso   1.000  Hf
  Hf7      1.0000 0.37365  0.26469  0.64328  Biso   1.000  Hf
  Hf8      1.0000 0.37119  0.98676  0.89214  Biso   1.000  Hf
  O9       1.0000 0.96767  0.16406  0.45256  Biso   1.000  O
  O10      1.0000 0.97105  0.09490  0.70648  Biso   1.000  O
  O11      1.0000 0.99607  0.35103  0.73299  Biso   1.000  O
  O12      1.0000 0.00212  0.40684  0.49234  Biso   1.000  O
  O13      1.0000 0.22899  0.15294  0.72936  Biso   1.000  O
  O14      1.0000 0.21877  0.09610  0.48494  Biso   1.000  O
  O15      1.0000 0.25134  0.35299  0.51202  Biso   1.000  O
  O16      1.0000 0.24863  0.41079  0.76214  Biso   1.000  O
  Hf9      1.0000 0.12338  0.49414  0.12257  Biso   1.000  Hf
  Hf10     1.0000 0.12112  0.75142  0.37662  Biso   1.000  Hf
  Hf11     1.0000 0.38369  0.74013  0.13280  Biso   1.000  Hf
  Hf12     1.0000 0.38424  0.50708  0.38237  Biso   1.000  Hf
  O17      1.0000 0.03535  0.66280  0.03462  Biso   1.000  O
  O18      1.0000 0.03129  0.58696  0.28290  Biso   1.000  O
  O19      1.0000 0.99392  0.83710  0.24916  Biso   1.000  O
  O20      1.0000 0.99199  0.89956  0.98408  Biso   1.000  O
  O21      1.0000 0.28141  0.65896  0.29249  Biso   1.000  O
  O22      1.0000 0.28654  0.57937  0.04341  Biso   1.000  O
  O23      1.0000 0.25379  0.83058  0.00470  Biso   1.000  O
  O24      1.0000 0.24897  0.89279  0.25887  Biso   1.000  O
  Hf13     1.0000 0.12189  0.49866  0.62181  Biso   1.000  Hf
  Hf14     1.0000 0.11928  0.75269  0.86935  Biso   1.000  Hf
  Hf15     1.0000 0.37926  0.74988  0.62824  Biso   1.000  Hf
  Hf16     1.0000 0.38865  0.50986  0.87649  Biso   1.000  Hf
  O25      1.0000 0.02897  0.66107  0.53380  Biso   1.000  O
  O26      1.0000 0.02882  0.59475  0.78059  Biso   1.000  O
  O27      1.0000 0.99811  0.85136  0.74290  Biso   1.000  O
  O28      1.0000 0.99566  0.90799  0.49105  Biso   1.000  O
  O29      1.0000 0.28284  0.66114  0.79012  Biso   1.000  O
  O30      1.0000 0.28037  0.59343  0.54125  Biso   1.000  O
  O31      1.0000 0.24519  0.84590  0.51099  Biso   1.000  O
  O32      1.0000 0.24759  0.89944  0.75747  Biso   1.000  O
  Hf17     1.0000 0.61254  0.00100  0.13461  Biso   1.000  Hf
  Hf18     1.0000 0.61086  0.24367  0.38907  Biso   1.000  Hf
  Hf19     1.0000 0.85283  0.24531  0.11559  Biso   1.000  Hf
  Hf20     1.0000 0.86792  0.00835  0.36679  Biso   1.000  Hf
  O33      1.0000 0.47990  0.14311  0.01380  Biso   1.000  O
  O34      1.0000 0.49499  0.10421  0.26537  Biso   1.000  O
  O35      1.0000 0.49553  0.35680  0.27741  Biso   1.000  O
  O36      1.0000 0.50147  0.39736  0.01879  Biso   1.000  O
  O37      1.0000 0.73709  0.14683  0.25714  Biso   1.000  O
  O38      1.0000 0.73240  0.10488  0.00409  Biso   1.000  O
  O39      1.0000 0.74784  0.35861  0.97601  Biso   1.000  O
  O40      1.0000 0.75138  0.39751  0.22532  Biso   1.000  O
  Hf21     1.0000 0.60822  0.00473  0.63250  Biso   1.000  Hf
  Hf22     1.0000 0.60584  0.24261  0.88961  Biso   1.000  Hf
  Hf23     1.0000 0.86356  0.24541  0.61476  Biso   1.000  Hf
  Hf24     1.0000 0.86560  0.01088  0.86328  Biso   1.000  Hf
  O41      1.0000 0.48111  0.14891  0.51286  Biso   1.000  O
  O42      1.0000 0.48460  0.10403  0.76398  Biso   1.000  O
  O43      1.0000 0.48935  0.35191  0.77556  Biso   1.000  O
  O44      1.0000 0.50237  0.40039  0.52207  Biso   1.000  O
  O45      1.0000 0.73509  0.15225  0.75549  Biso   1.000  O
  O46      1.0000 0.73345  0.10569  0.50655  Biso   1.000  O
  O47      1.0000 0.75096  0.35743  0.47725  Biso   1.000  O
  O48      1.0000 0.75265  0.39853  0.72244  Biso   1.000  O
  Hf25     1.0000 0.64086  0.50940  0.10690  Biso   1.000  Hf
  Hf26     1.0000 0.63857  0.74695  0.35835  Biso   1.000  Hf
  Hf27     1.0000 0.87099  0.76201  0.10427  Biso   1.000  Hf
  Hf28     1.0000 0.87554  0.48381  0.35435  Biso   1.000  Hf
  O49      1.0000 0.51985  0.64970  0.99474  Biso   1.000  O
  O50      1.0000 0.51803  0.60115  0.24555  Biso   1.000  O
  O51      1.0000 0.50117  0.85312  0.26279  Biso   1.000  O
  O52      1.0000 0.49191  0.89543  0.01848  Biso   1.000  O
  O53      1.0000 0.76872  0.64297  0.23591  Biso   1.000  O
  O54      1.0000 0.77209  0.61134  0.98647  Biso   1.000  O
  O55      1.0000 0.74840  0.85980  0.98076  Biso   1.000  O
  O56      1.0000 0.74954  0.89484  0.23272  Biso   1.000  O
  Hf29     1.0000 0.64306  0.51193  0.60532  Biso   1.000  Hf
  Hf30     1.0000 0.63742  0.74836  0.85954  Biso   1.000  Hf
  Hf31     1.0000 0.87325  0.77054  0.60567  Biso   1.000  Hf
  Hf32     1.0000 0.87299  0.48781  0.85239  Biso   1.000  Hf
  O57      1.0000 0.51926  0.65493  0.49651  Biso   1.000  O
  O58      1.0000 0.52206  0.60036  0.74704  Biso   1.000  O
  O59      1.0000 0.50106  0.85304  0.76189  Biso   1.000  O
  O60      1.0000 0.48438  0.90440  0.51765  Biso   1.000  O
  O61      1.0000 0.77059  0.64834  0.73625  Biso   1.000  O
  O62      1.0000 0.77354  0.61101  0.48398  Biso   1.000  O
  O63      1.0000 0.74651  0.86046  0.48151  Biso   1.000  O
  O64      1.0000 0.74789  0.90059  0.73307  Biso   1.000  O
  Mo1      1.0000 0.11081  0.19927  0.11203  Biso   1.000  Mo
