data_image0
_cell_length_a       10.0141
_cell_length_b       10.4486
_cell_length_c       10.0526
_cell_angle_alpha    89.7057
_cell_angle_beta     89.6527
_cell_angle_gamma    89.8704

_symmetry_space_group_name_H-M    "P 1"
_symmetry_int_tables_number       1

loop_
  _symmetry_equiv_pos_as_xyz
  'x, y, z'

loop_
  _atom_site_label
  _atom_site_occupancy
  _atom_site_fract_x
  _atom_site_fract_y
  _atom_site_fract_z
  _atom_site_thermal_displace_type
  _atom_site_B_iso_or_equiv
  _atom_site_type_symbol
  Hf1      1.0000 0.13138  0.01937  0.12343  Biso   1.000  Hf
  Hf2      1.0000 0.13522  0.22653  0.37993  Biso   1.000  Hf
  Hf3      1.0000 0.38150  0.26985  0.12270  Biso   1.000  Hf
  Hf4      1.0000 0.36650  0.48083  0.37582  Biso   1.000  Hf
  O1       1.0000 0.00608  0.16833  0.22680  Biso   1.000  O
  O2       1.0000 0.03790  0.05784  0.45103  Biso   1.000  O
  O3       1.0000 0.47395  0.43282  0.20217  Biso   1.000  O
  O4       1.0000 0.46833  0.31687  0.45227  Biso   1.000  O
  O5       1.0000 0.26599  0.10729  0.25156  Biso   1.000  O
  O6       1.0000 0.27382  0.12939  0.50289  Biso   1.000  O
  O7       1.0000 0.23196  0.38177  0.50472  Biso   1.000  O
  O8       1.0000 0.24642  0.35351  0.25943  Biso   1.000  O
  Hf5      1.0000 0.13501  0.00928  0.62405  Biso   1.000  Hf
  Hf6      1.0000 0.12542  0.22536  0.85747  Biso   1.000  Hf
  Hf7      1.0000 0.36693  0.26582  0.62734  Biso   1.000  Hf
  Hf8      1.0000 0.37139  0.49112  0.87177  Biso   1.000  Hf
  O9       1.0000 0.03050  0.17425  0.68439  Biso   1.000  O
  O10      1.0000 0.03014  0.06219  0.94128  Biso   1.000  O
  O11      1.0000 0.46735  0.43098  0.69529  Biso   1.000  O
  O12      1.0000 0.47009  0.32123  0.94255  Biso   1.000  O
  O13      1.0000 0.26793  0.11120  0.75083  Biso   1.000  O
  O14      1.0000 0.24932  0.16226  0.00775  Biso   1.000  O
  O15      1.0000 0.25184  0.41317  0.01079  Biso   1.000  O
  O16      1.0000 0.23269  0.36507  0.75498  Biso   1.000  O
  Hf9      1.0000 0.13063  0.54225  0.11333  Biso   1.000  Hf
  Hf10     1.0000 0.13523  0.73281  0.37637  Biso   1.000  Hf
  Hf11     1.0000 0.36747  0.76933  0.12456  Biso   1.000  Hf
  Hf12     1.0000 0.36629  0.98265  0.37574  Biso   1.000  Hf
  O17      1.0000 0.02714  0.68906  0.20485  Biso   1.000  O
  O18      1.0000 0.03602  0.56562  0.44734  Biso   1.000  O
  O19      1.0000 0.46476  0.93190  0.19795  Biso   1.000  O
  O20      1.0000 0.46766  0.81494  0.44573  Biso   1.000  O
  O21      1.0000 0.27269  0.61734  0.24647  Biso   1.000  O
  O22      1.0000 0.27135  0.63014  0.49731  Biso   1.000  O
  O23      1.0000 0.23246  0.87907  0.49775  Biso   1.000  O
  O24      1.0000 0.22834  0.86419  0.24676  Biso   1.000  O
  Hf13     1.0000 0.13366  0.51337  0.62593  Biso   1.000  Hf
  Hf14     1.0000 0.12900  0.74128  0.86584  Biso   1.000  Hf
  Hf15     1.0000 0.36899  0.76067  0.62158  Biso   1.000  Hf
  Hf16     1.0000 0.37380  0.98051  0.86823  Biso   1.000  Hf
  O25      1.0000 0.03532  0.68183  0.69020  Biso   1.000  O
  O26      1.0000 0.03234  0.57256  0.93777  Biso   1.000  O
  O27      1.0000 0.46937  0.92803  0.69433  Biso   1.000  O
  O28      1.0000 0.46988  0.81943  0.94521  Biso   1.000  O
  O29      1.0000 0.26816  0.61467  0.74531  Biso   1.000  O
  O30      1.0000 0.26635  0.65515  0.99041  Biso   1.000  O
  O31      1.0000 0.23544  0.89874  0.99607  Biso   1.000  O
  O32      1.0000 0.23631  0.86303  0.74489  Biso   1.000  O
  Hf17     1.0000 0.63140  0.01237  0.12670  Biso   1.000  Hf
  Hf18     1.0000 0.63294  0.23212  0.37722  Biso   1.000  Hf
  Hf19     1.0000 0.85257  0.25928  0.12470  Biso   1.000  Hf
  Hf20     1.0000 0.87105  0.48071  0.37435  Biso   1.000  Hf
  O33      1.0000 0.53548  0.17899  0.20245  Biso   1.000  O
  O34      1.0000 0.53478  0.06518  0.44772  Biso   1.000  O
  O35      1.0000 0.97276  0.42944  0.19573  Biso   1.000  O
  O36      1.0000 0.96892  0.31831  0.45043  Biso   1.000  O
  O37      1.0000 0.75984  0.11017  0.24997  Biso   1.000  O
  O38      1.0000 0.77092  0.13386  0.49748  Biso   1.000  O
  O39      1.0000 0.73318  0.38345  0.49965  Biso   1.000  O
  O40      1.0000 0.73183  0.36576  0.25218  Biso   1.000  O
  Hf21     1.0000 0.63639  0.01418  0.62200  Biso   1.000  Hf
  Hf22     1.0000 0.63285  0.23235  0.87286  Biso   1.000  Hf
  Hf23     1.0000 0.86466  0.26629  0.62298  Biso   1.000  Hf
  Hf24     1.0000 0.86378  0.48275  0.87538  Biso   1.000  Hf
  O41      1.0000 0.53337  0.17821  0.69849  Biso   1.000  O
  O42      1.0000 0.52483  0.07324  0.95385  Biso   1.000  O
  O43      1.0000 0.96784  0.42775  0.70112  Biso   1.000  O
  O44      1.0000 0.96565  0.31792  0.95008  Biso   1.000  O
  O45      1.0000 0.76934  0.11404  0.74711  Biso   1.000  O
  O46      1.0000 0.76484  0.12937  0.99682  Biso   1.000  O
  O47      1.0000 0.72705  0.38267  0.99954  Biso   1.000  O
  O48      1.0000 0.73063  0.36563  0.74975  Biso   1.000  O
  Hf25     1.0000 0.63603  0.51765  0.12735  Biso   1.000  Hf
  Hf26     1.0000 0.63459  0.73193  0.37431  Biso   1.000  Hf
  Hf27     1.0000 0.86315  0.76697  0.12581  Biso   1.000  Hf
  Hf28     1.0000 0.87103  0.98530  0.37091  Biso   1.000  Hf
  O49      1.0000 0.53638  0.68440  0.19539  Biso   1.000  O
  O50      1.0000 0.53458  0.56630  0.44691  Biso   1.000  O
  O51      1.0000 0.96213  0.93208  0.19134  Biso   1.000  O
  O52      1.0000 0.96627  0.81646  0.44503  Biso   1.000  O
  O53      1.0000 0.77096  0.61400  0.24901  Biso   1.000  O
  O54      1.0000 0.76976  0.63236  0.49800  Biso   1.000  O
  O55      1.0000 0.73375  0.88413  0.49659  Biso   1.000  O
  O56      1.0000 0.72940  0.86442  0.24853  Biso   1.000  O
  Hf29     1.0000 0.63465  0.51503  0.62334  Biso   1.000  Hf
  Hf30     1.0000 0.63589  0.73222  0.87491  Biso   1.000  Hf
  Hf31     1.0000 0.86653  0.76468  0.62111  Biso   1.000  Hf
  Hf32     1.0000 0.86421  0.98027  0.87348  Biso   1.000  Hf
  O57      1.0000 0.53424  0.67892  0.69914  Biso   1.000  O
  O58      1.0000 0.53499  0.57033  0.95062  Biso   1.000  O
  O59      1.0000 0.96923  0.92532  0.70020  Biso   1.000  O
  O60      1.0000 0.96405  0.81631  0.94816  Biso   1.000  O
  O61      1.0000 0.77034  0.61422  0.74768  Biso   1.000  O
  O62      1.0000 0.77138  0.63253  0.99816  Biso   1.000  O
  O63      1.0000 0.72751  0.88223  0.99754  Biso   1.000  O
  O64      1.0000 0.73113  0.86390  0.74653  Biso   1.000  O
  Mo1      1.0000 0.11122  0.30131  0.10770  Biso   1.000  Mo
