data_image0
_cell_length_a       10.2498
_cell_length_b       5.15182
_cell_length_c       10.5647
_cell_angle_alpha    89.6776
_cell_angle_beta     79.0969
_cell_angle_gamma    90.3394

_symmetry_space_group_name_H-M    "P 1"
_symmetry_int_tables_number       1

loop_
  _symmetry_equiv_pos_as_xyz
  'x, y, z'

loop_
  _atom_site_label
  _atom_site_occupancy
  _atom_site_fract_x
  _atom_site_fract_y
  _atom_site_fract_z
  _atom_site_thermal_displace_type
  _atom_site_B_iso_or_equiv
  _atom_site_type_symbol
  Hf1      1.0000 0.13305  0.04056  0.14284  Biso   1.000  Hf
  Hf2      1.0000 0.12323  0.45591  0.39468  Biso   1.000  Hf
  Hf3      1.0000 0.35672  0.54269  0.10202  Biso   1.000  Hf
  Hf4      1.0000 0.35506  0.96369  0.34789  Biso   1.000  Hf
  O1       1.0000 0.02915  0.32968  0.07115  Biso   1.000  O
  O2       1.0000 0.02599  0.17356  0.31900  Biso   1.000  O
  O3       1.0000 0.47778  0.76711  0.19745  Biso   1.000  O
  O4       1.0000 0.48843  0.74919  0.45043  Biso   1.000  O
  O5       1.0000 0.27187  0.25750  0.24393  Biso   1.000  O
  O6       1.0000 0.27360  0.23091  0.49457  Biso   1.000  O
  O7       1.0000 0.22301  0.75726  0.00393  Biso   1.000  O
  O8       1.0000 0.21036  0.75468  0.24893  Biso   1.000  O
  Hf5      1.0000 0.13928  0.04407  0.64703  Biso   1.000  Hf
  Hf6      1.0000 0.13694  0.45927  0.89440  Biso   1.000  Hf
  Hf7      1.0000 0.37012  0.54710  0.61069  Biso   1.000  Hf
  Hf8      1.0000 0.36135  0.96113  0.85611  Biso   1.000  Hf
  O9       1.0000 0.02977  0.32488  0.57382  Biso   1.000  O
  O10      1.0000 0.03224  0.17531  0.82055  Biso   1.000  O
  O11      1.0000 0.47401  0.81404  0.69191  Biso   1.000  O
  O12      1.0000 0.47268  0.69630  0.93779  Biso   1.000  O
  O13      1.0000 0.27511  0.25704  0.74456  Biso   1.000  O
  O14      1.0000 0.27215  0.24754  0.99216  Biso   1.000  O
  O15      1.0000 0.23919  0.72645  0.49390  Biso   1.000  O
  O16      1.0000 0.22402  0.75041  0.75594  Biso   1.000  O
  Hf9      1.0000 0.64104  0.03837  0.14368  Biso   1.000  Hf
  Hf10     1.0000 0.63714  0.46601  0.40190  Biso   1.000  Hf
  Hf11     1.0000 0.85994  0.54274  0.10324  Biso   1.000  Hf
  Hf12     1.0000 0.85569  0.95994  0.35293  Biso   1.000  Hf
  O17      1.0000 0.52390  0.29573  0.06980  Biso   1.000  O
  O18      1.0000 0.53152  0.18654  0.31149  Biso   1.000  O
  O19      1.0000 0.96271  0.83093  0.16895  Biso   1.000  O
  O20      1.0000 0.96304  0.67996  0.42283  Biso   1.000  O
  O21      1.0000 0.77371  0.25422  0.23644  Biso   1.000  O
  O22      1.0000 0.77639  0.24324  0.48986  Biso   1.000  O
  O23      1.0000 0.72517  0.75108  0.01055  Biso   1.000  O
  O24      1.0000 0.72448  0.74554  0.26102  Biso   1.000  O
  Hf13     1.0000 0.64016  0.04239  0.64823  Biso   1.000  Hf
  Hf14     1.0000 0.63571  0.45361  0.89878  Biso   1.000  Hf
  Hf15     1.0000 0.85954  0.54382  0.60560  Biso   1.000  Hf
  Hf16     1.0000 0.86130  0.95445  0.85268  Biso   1.000  Hf
  O25      1.0000 0.53561  0.32267  0.58044  Biso   1.000  O
  O26      1.0000 0.52896  0.18841  0.82364  Biso   1.000  O
  O27      1.0000 0.97029  0.82510  0.67161  Biso   1.000  O
  O28      1.0000 0.96658  0.67236  0.92056  Biso   1.000  O
  O29      1.0000 0.77458  0.25473  0.74055  Biso   1.000  O
  O30      1.0000 0.77299  0.24041  0.98819  Biso   1.000  O
  O31      1.0000 0.72739  0.75650  0.51443  Biso   1.000  O
  O32      1.0000 0.72693  0.74233  0.76239  Biso   1.000  O
  Mo1      1.0000 0.39145  0.48257  0.35952  Biso   1.000  Mo
