data_image0
_cell_length_a       5.07123
_cell_length_b       10.3312
_cell_length_c       10.4779
_cell_angle_alpha    89.936
_cell_angle_beta     80.1831
_cell_angle_gamma    89.8235

_symmetry_space_group_name_H-M    "P 1"
_symmetry_int_tables_number       1

loop_
  _symmetry_equiv_pos_as_xyz
  'x, y, z'

loop_
  _atom_site_label
  _atom_site_occupancy
  _atom_site_fract_x
  _atom_site_fract_y
  _atom_site_fract_z
  _atom_site_thermal_displace_type
  _atom_site_B_iso_or_equiv
  _atom_site_type_symbol
  Mo1      1.0000 0.28375  0.02165  0.14874  Biso   1.000  Mo
  Zr1      1.0000 0.28061  0.22960  0.39388  Biso   1.000  Zr
  Zr2      1.0000 0.72564  0.26984  0.10580  Biso   1.000  Zr
  Zr3      1.0000 0.72306  0.47953  0.35391  Biso   1.000  Zr
  O1       1.0000 0.07904  0.16716  0.08443  Biso   1.000  O
  O2       1.0000 0.08606  0.07688  0.32259  Biso   1.000  O
  O3       1.0000 0.92885  0.42058  0.16828  Biso   1.000  O
  O4       1.0000 0.92687  0.32823  0.41720  Biso   1.000  O
  O5       1.0000 0.55535  0.12772  0.24093  Biso   1.000  O
  O6       1.0000 0.55660  0.12058  0.48982  Biso   1.000  O
  O7       1.0000 0.44793  0.37864  0.01013  Biso   1.000  O
  O8       1.0000 0.44953  0.37119  0.25908  Biso   1.000  O
  Zr4      1.0000 0.27635  0.02082  0.64528  Biso   1.000  Zr
  Zr5      1.0000 0.27664  0.22678  0.89703  Biso   1.000  Zr
  Zr6      1.0000 0.72147  0.27111  0.60452  Biso   1.000  Zr
  Zr7      1.0000 0.71988  0.47824  0.85579  Biso   1.000  Zr
  O9       1.0000 0.07097  0.16784  0.57714  Biso   1.000  O
  O10      1.0000 0.06669  0.08084  0.82995  Biso   1.000  O
  O11      1.0000 0.92836  0.41874  0.66938  Biso   1.000  O
  O12      1.0000 0.92663  0.32734  0.92045  Biso   1.000  O
  O13      1.0000 0.55079  0.12863  0.74146  Biso   1.000  O
  O14      1.0000 0.54569  0.11835  0.99518  Biso   1.000  O
  O15      1.0000 0.44694  0.37845  0.50916  Biso   1.000  O
  O16      1.0000 0.44647  0.37041  0.76009  Biso   1.000  O
  Zr8      1.0000 0.27818  0.52293  0.14495  Biso   1.000  Zr
  Zr9      1.0000 0.27954  0.72912  0.39531  Biso   1.000  Zr
  Zr10     1.0000 0.71949  0.77776  0.10446  Biso   1.000  Zr
  Zr11     1.0000 0.72473  0.97923  0.35268  Biso   1.000  Zr
  O17      1.0000 0.06673  0.67017  0.08134  Biso   1.000  O
  O18      1.0000 0.07315  0.57948  0.33178  Biso   1.000  O
  O19      1.0000 0.94817  0.92217  0.16469  Biso   1.000  O
  O20      1.0000 0.93038  0.83099  0.41840  Biso   1.000  O
  O21      1.0000 0.55203  0.63191  0.24085  Biso   1.000  O
  O22      1.0000 0.55396  0.62089  0.49119  Biso   1.000  O
  O23      1.0000 0.42910  0.88106  0.01080  Biso   1.000  O
  O24      1.0000 0.44747  0.87539  0.25892  Biso   1.000  O
  Zr12     1.0000 0.27763  0.52105  0.64620  Biso   1.000  Zr
  Zr13     1.0000 0.27438  0.72890  0.89681  Biso   1.000  Zr
  Zr14     1.0000 0.72141  0.77121  0.60494  Biso   1.000  Zr
  Zr15     1.0000 0.71715  0.97883  0.85540  Biso   1.000  Zr
  O25      1.0000 0.07231  0.66997  0.58086  Biso   1.000  O
  O26      1.0000 0.06987  0.57916  0.83172  Biso   1.000  O
  O27      1.0000 0.92678  0.91980  0.66906  Biso   1.000  O
  O28      1.0000 0.92052  0.82996  0.91867  Biso   1.000  O
  O29      1.0000 0.55170  0.62865  0.74147  Biso   1.000  O
  O30      1.0000 0.55145  0.62243  0.99133  Biso   1.000  O
  O31      1.0000 0.44872  0.87891  0.50857  Biso   1.000  O
  O32      1.0000 0.44498  0.87089  0.75940  Biso   1.000  O
