data_image0
_cell_length_a       10.3401
_cell_length_b       10.3162
_cell_length_c       5.32921
_cell_angle_alpha    89.9657
_cell_angle_beta     78.9077
_cell_angle_gamma    90.4475

_symmetry_space_group_name_H-M    "P 1"
_symmetry_int_tables_number       1

loop_
  _symmetry_equiv_pos_as_xyz
  'x, y, z'

loop_
  _atom_site_label
  _atom_site_occupancy
  _atom_site_fract_x
  _atom_site_fract_y
  _atom_site_fract_z
  _atom_site_thermal_displace_type
  _atom_site_B_iso_or_equiv
  _atom_site_type_symbol
  Zr1      1.0000 0.13763  0.02150  0.29205  Biso   1.000  Zr
  Zr2      1.0000 0.12792  0.22868  0.78852  Biso   1.000  Zr
  Zr3      1.0000 0.36656  0.27394  0.21749  Biso   1.000  Zr
  Zr4      1.0000 0.35684  0.49610  0.69781  Biso   1.000  Zr
  O1       1.0000 0.03207  0.16063  0.14231  Biso   1.000  O
  O2       1.0000 0.02757  0.08755  0.63609  Biso   1.000  O
  O3       1.0000 0.48325  0.38339  0.42218  Biso   1.000  O
  O4       1.0000 0.48840  0.37888  0.91348  Biso   1.000  O
  O5       1.0000 0.27681  0.12752  0.50326  Biso   1.000  O
  O6       1.0000 0.28168  0.11675  0.98953  Biso   1.000  O
  O7       1.0000 0.24249  0.36782  0.97500  Biso   1.000  O
  O8       1.0000 0.21462  0.37979  0.48962  Biso   1.000  O
  Zr5      1.0000 0.13590  0.52092  0.28495  Biso   1.000  Zr
  Zr6      1.0000 0.13039  0.72937  0.79038  Biso   1.000  Zr
  Zr7      1.0000 0.36091  0.77162  0.20552  Biso   1.000  Zr
  Zr8      1.0000 0.35958  0.96782  0.70800  Biso   1.000  Zr
  O9       1.0000 0.02241  0.65782  0.13533  Biso   1.000  O
  O10      1.0000 0.02776  0.59286  0.63031  Biso   1.000  O
  O11      1.0000 0.47036  0.90346  0.35958  Biso   1.000  O
  O12      1.0000 0.47095  0.84078  0.86178  Biso   1.000  O
  O13      1.0000 0.26978  0.63085  0.47714  Biso   1.000  O
  O14      1.0000 0.26571  0.62569  0.98394  Biso   1.000  O
  O15      1.0000 0.22306  0.87497  0.01888  Biso   1.000  O
  O16      1.0000 0.22241  0.87232  0.51586  Biso   1.000  O
  Zr9      1.0000 0.64126  0.02029  0.28917  Biso   1.000  Zr
  Zr10     1.0000 0.63651  0.23317  0.81010  Biso   1.000  Zr
  Zr11     1.0000 0.85962  0.27072  0.21535  Biso   1.000  Zr
  Zr12     1.0000 0.86015  0.47794  0.70778  Biso   1.000  Zr
  O17      1.0000 0.53432  0.15768  0.16024  Biso   1.000  O
  O18      1.0000 0.52888  0.08950  0.64343  Biso   1.000  O
  O19      1.0000 0.96882  0.40991  0.34739  Biso   1.000  O
  O20      1.0000 0.96772  0.34251  0.85107  Biso   1.000  O
  O21      1.0000 0.77393  0.12646  0.48090  Biso   1.000  O
  O22      1.0000 0.77766  0.11986  0.98240  Biso   1.000  O
  O23      1.0000 0.73046  0.37656  0.03210  Biso   1.000  O
  O24      1.0000 0.72810  0.37356  0.52813  Biso   1.000  O
  Zr13     1.0000 0.63637  0.51995  0.29418  Biso   1.000  Zr
  Zr14     1.0000 0.63784  0.72606  0.79104  Biso   1.000  Zr
  Zr15     1.0000 0.85931  0.77173  0.20545  Biso   1.000  Zr
  Zr16     1.0000 0.85734  0.97873  0.70517  Biso   1.000  Zr
  O25      1.0000 0.52332  0.64861  0.13470  Biso   1.000  O
  O26      1.0000 0.52624  0.60496  0.62380  Biso   1.000  O
  O27      1.0000 0.96885  0.91051  0.34519  Biso   1.000  O
  O28      1.0000 0.96574  0.84066  0.84815  Biso   1.000  O
  O29      1.0000 0.77151  0.62586  0.47429  Biso   1.000  O
  O30      1.0000 0.77058  0.62142  0.97539  Biso   1.000  O
  O31      1.0000 0.72341  0.87534  0.01968  Biso   1.000  O
  O32      1.0000 0.72487  0.87115  0.52028  Biso   1.000  O
  Mo1      1.0000 0.39347  0.24593  0.72559  Biso   1.000  Mo
