data_image0
_cell_length_a       5.001
_cell_length_b       10.3984
_cell_length_c       10.0496
_cell_angle_alpha    89.8435
_cell_angle_beta     89.8414
_cell_angle_gamma    90.01

_symmetry_space_group_name_H-M    "P 1"
_symmetry_int_tables_number       1

loop_
  _symmetry_equiv_pos_as_xyz
  'x, y, z'

loop_
  _atom_site_label
  _atom_site_occupancy
  _atom_site_fract_x
  _atom_site_fract_y
  _atom_site_fract_z
  _atom_site_thermal_displace_type
  _atom_site_B_iso_or_equiv
  _atom_site_type_symbol
  Mo1      1.0000 0.27644  0.01921  0.12289  Biso   1.000  Mo
  Zr1      1.0000 0.26592  0.23339  0.37512  Biso   1.000  Zr
  Zr2      1.0000 0.73430  0.26489  0.12515  Biso   1.000  Zr
  Zr3      1.0000 0.73271  0.48476  0.37565  Biso   1.000  Zr
  O1       1.0000 0.07100  0.17765  0.19589  Biso   1.000  O
  O2       1.0000 0.06628  0.06843  0.44967  Biso   1.000  O
  O3       1.0000 0.93222  0.43098  0.19475  Biso   1.000  O
  O4       1.0000 0.92952  0.31691  0.44536  Biso   1.000  O
  O5       1.0000 0.53161  0.11561  0.24615  Biso   1.000  O
  O6       1.0000 0.53979  0.13341  0.49728  Biso   1.000  O
  O7       1.0000 0.46040  0.38300  0.49917  Biso   1.000  O
  O8       1.0000 0.46308  0.36703  0.24929  Biso   1.000  O
  Zr4      1.0000 0.26859  0.01526  0.62560  Biso   1.000  Zr
  Zr5      1.0000 0.26747  0.23353  0.87710  Biso   1.000  Zr
  Zr6      1.0000 0.73200  0.26505  0.62596  Biso   1.000  Zr
  Zr7      1.0000 0.73065  0.48450  0.87529  Biso   1.000  Zr
  O9       1.0000 0.06763  0.18167  0.70012  Biso   1.000  O
  O10      1.0000 0.07112  0.06437  0.95765  Biso   1.000  O
  O11      1.0000 0.92735  0.43344  0.69384  Biso   1.000  O
  O12      1.0000 0.92581  0.31435  0.94404  Biso   1.000  O
  O13      1.0000 0.53834  0.11657  0.74951  Biso   1.000  O
  O14      1.0000 0.53881  0.13019  0.99942  Biso   1.000  O
  O15      1.0000 0.45944  0.38174  0.99966  Biso   1.000  O
  O16      1.0000 0.45906  0.36628  0.74955  Biso   1.000  O
  Zr8      1.0000 0.27005  0.51659  0.12634  Biso   1.000  Zr
  Zr9      1.0000 0.26994  0.73636  0.37362  Biso   1.000  Zr
  Zr10     1.0000 0.73422  0.76905  0.12413  Biso   1.000  Zr
  Zr11     1.0000 0.73760  0.98580  0.37174  Biso   1.000  Zr
  O17      1.0000 0.07150  0.68363  0.19320  Biso   1.000  O
  O18      1.0000 0.07264  0.56735  0.44292  Biso   1.000  O
  O19      1.0000 0.94772  0.93413  0.19074  Biso   1.000  O
  O20      1.0000 0.93137  0.81790  0.44379  Biso   1.000  O
  O21      1.0000 0.54205  0.61899  0.24881  Biso   1.000  O
  O22      1.0000 0.53984  0.63388  0.49845  Biso   1.000  O
  O23      1.0000 0.46329  0.88435  0.49667  Biso   1.000  O
  O24      1.0000 0.46139  0.87218  0.24514  Biso   1.000  O
  Zr12     1.0000 0.26724  0.51592  0.62478  Biso   1.000  Zr
  Zr13     1.0000 0.26536  0.73373  0.87537  Biso   1.000  Zr
  Zr14     1.0000 0.73262  0.76654  0.62497  Biso   1.000  Zr
  Zr15     1.0000 0.73178  0.98358  0.87726  Biso   1.000  Zr
  O25      1.0000 0.07045  0.68362  0.69360  Biso   1.000  O
  O26      1.0000 0.07127  0.56472  0.94427  Biso   1.000  O
  O27      1.0000 0.93003  0.93369  0.69663  Biso   1.000  O
  O28      1.0000 0.91833  0.81449  0.94094  Biso   1.000  O
  O29      1.0000 0.53819  0.61693  0.74869  Biso   1.000  O
  O30      1.0000 0.53931  0.63299  0.99902  Biso   1.000  O
  O31      1.0000 0.44379  0.88362  0.99857  Biso   1.000  O
  O32      1.0000 0.46101  0.86681  0.74860  Biso   1.000  O
