data_image0
_cell_length_a       10.0133
_cell_length_b       10.3949
_cell_length_c       5.01955
_cell_angle_alpha    89.8036
_cell_angle_beta     89.8977
_cell_angle_gamma    90.0076

_symmetry_space_group_name_H-M    "P 1"
_symmetry_int_tables_number       1

loop_
  _symmetry_equiv_pos_as_xyz
  'x, y, z'

loop_
  _atom_site_label
  _atom_site_occupancy
  _atom_site_fract_x
  _atom_site_fract_y
  _atom_site_fract_z
  _atom_site_thermal_displace_type
  _atom_site_B_iso_or_equiv
  _atom_site_type_symbol
  Mo1      1.0000 0.13482  0.02065  0.25468  Biso   1.000  Mo
  Zr1      1.0000 0.13361  0.23250  0.75546  Biso   1.000  Zr
  Zr2      1.0000 0.36644  0.26640  0.24956  Biso   1.000  Zr
  Zr3      1.0000 0.36609  0.48506  0.75086  Biso   1.000  Zr
  O1       1.0000 0.03352  0.17697  0.40817  Biso   1.000  O
  O2       1.0000 0.03521  0.06599  0.92928  Biso   1.000  O
  O3       1.0000 0.46357  0.43456  0.38597  Biso   1.000  O
  O4       1.0000 0.46322  0.31577  0.88587  Biso   1.000  O
  O5       1.0000 0.26842  0.11612  0.48704  Biso   1.000  O
  O6       1.0000 0.26985  0.12937  0.99530  Biso   1.000  O
  O7       1.0000 0.23022  0.38238  0.99913  Biso   1.000  O
  O8       1.0000 0.23050  0.36633  0.50027  Biso   1.000  O
  Zr4      1.0000 0.13411  0.51549  0.25225  Biso   1.000  Zr
  Zr5      1.0000 0.13362  0.73550  0.75098  Biso   1.000  Zr
  Zr6      1.0000 0.36454  0.76773  0.25159  Biso   1.000  Zr
  Zr7      1.0000 0.36380  0.98335  0.75206  Biso   1.000  Zr
  O9       1.0000 0.03585  0.68252  0.38691  Biso   1.000  O
  O10      1.0000 0.03544  0.56620  0.88941  Biso   1.000  O
  O11      1.0000 0.46508  0.93331  0.39019  Biso   1.000  O
  O12      1.0000 0.46156  0.81611  0.88703  Biso   1.000  O
  O13      1.0000 0.26980  0.61870  0.49836  Biso   1.000  O
  O14      1.0000 0.26976  0.63336  0.99804  Biso   1.000  O
  O15      1.0000 0.22332  0.88497  0.00294  Biso   1.000  O
  O16      1.0000 0.22781  0.87090  0.49505  Biso   1.000  O
  Zr8      1.0000 0.63385  0.01503  0.24749  Biso   1.000  Zr
  Zr9      1.0000 0.63338  0.23346  0.75006  Biso   1.000  Zr
  Zr10     1.0000 0.86589  0.26391  0.25243  Biso   1.000  Zr
  Zr11     1.0000 0.86608  0.48411  0.75129  Biso   1.000  Zr
  O17      1.0000 0.53562  0.18403  0.38641  Biso   1.000  O
  O18      1.0000 0.53456  0.06600  0.88701  Biso   1.000  O
  O19      1.0000 0.96575  0.43056  0.39206  Biso   1.000  O
  O20      1.0000 0.96562  0.31568  0.89487  Biso   1.000  O
  O21      1.0000 0.76857  0.11614  0.49557  Biso   1.000  O
  O22      1.0000 0.77040  0.13289  0.99438  Biso   1.000  O
  O23      1.0000 0.73040  0.38235  0.99857  Biso   1.000  O
  O24      1.0000 0.73056  0.36681  0.49772  Biso   1.000  O
  Zr12     1.0000 0.63416  0.51660  0.25032  Biso   1.000  Zr
  Zr13     1.0000 0.63426  0.73555  0.74757  Biso   1.000  Zr
  Zr14     1.0000 0.86857  0.76657  0.24637  Biso   1.000  Zr
  Zr15     1.0000 0.87111  0.98558  0.74594  Biso   1.000  Zr
  O25      1.0000 0.53576  0.68496  0.38632  Biso   1.000  O
  O26      1.0000 0.53657  0.56640  0.88523  Biso   1.000  O
  O27      1.0000 0.97206  0.93340  0.38255  Biso   1.000  O
  O28      1.0000 0.96221  0.81573  0.87999  Biso   1.000  O
  O29      1.0000 0.77005  0.61720  0.49683  Biso   1.000  O
  O30      1.0000 0.76955  0.63351  0.99643  Biso   1.000  O
  O31      1.0000 0.73059  0.88445  0.99035  Biso   1.000  O
  O32      1.0000 0.73456  0.86796  0.49258  Biso   1.000  O
