data_image0
_cell_length_a       10.0501
_cell_length_b       5.03105
_cell_length_c       10.0503
_cell_angle_alpha    89.992
_cell_angle_beta     92.1483
_cell_angle_gamma    89.9918

_symmetry_space_group_name_H-M    "P 1"
_symmetry_int_tables_number       1

loop_
  _symmetry_equiv_pos_as_xyz
  'x, y, z'

loop_
  _atom_site_label
  _atom_site_occupancy
  _atom_site_fract_x
  _atom_site_fract_y
  _atom_site_fract_z
  _atom_site_thermal_displace_type
  _atom_site_B_iso_or_equiv
  _atom_site_type_symbol
  N1       1.0000 0.12509  0.97011  0.12509  Biso   1.000  N
  Hf1      1.0000 0.11237  0.46928  0.38014  Biso   1.000  Hf
  Hf2      1.0000 0.38013  0.46928  0.11237  Biso   1.000  Hf
  Hf3      1.0000 0.36498  0.02243  0.36499  Biso   1.000  Hf
  O1       1.0000 0.97934  0.33648  0.97933  Biso   1.000  O
  O2       1.0000 0.00783  0.21449  0.24231  Biso   1.000  O
  O3       1.0000 0.97147  0.69510  0.27869  Biso   1.000  O
  O4       1.0000 0.04874  0.84480  0.04876  Biso   1.000  O
  O5       1.0000 0.27080  0.33629  0.27081  Biso   1.000  O
  O6       1.0000 0.24232  0.21448  0.00784  Biso   1.000  O
  O7       1.0000 0.27869  0.69510  0.97146  Biso   1.000  O
  O8       1.0000 0.20143  0.84470  0.20142  Biso   1.000  O
  Hf4      1.0000 0.12498  0.99432  0.62514  Biso   1.000  Hf
  Hf5      1.0000 0.13780  0.46942  0.87000  Biso   1.000  Hf
  Hf6      1.0000 0.37865  0.50354  0.61762  Biso   1.000  Hf
  Hf7      1.0000 0.37292  0.98043  0.87723  Biso   1.000  Hf
  O9       1.0000 0.98500  0.23294  0.49106  Biso   1.000  O
  O10      1.0000 0.01339  0.24792  0.73486  Biso   1.000  O
  O11      1.0000 0.99791  0.75147  0.78796  Biso   1.000  O
  O12      1.0000 0.00860  0.72305  0.52714  Biso   1.000  O
  O13      1.0000 0.26508  0.23294  0.75908  Biso   1.000  O
  O14      1.0000 0.23671  0.24754  0.51529  Biso   1.000  O
  O15      1.0000 0.25229  0.75103  0.46219  Biso   1.000  O
  O16      1.0000 0.24151  0.72304  0.72300  Biso   1.000  O
  Hf8      1.0000 0.62514  0.99434  0.12498  Biso   1.000  Hf
  Hf9      1.0000 0.61761  0.50357  0.37863  Biso   1.000  Hf
  Hf10     1.0000 0.87000  0.46942  0.13780  Biso   1.000  Hf
  Hf11     1.0000 0.87722  0.98043  0.37292  Biso   1.000  Hf
  O17      1.0000 0.49108  0.23298  0.98498  Biso   1.000  O
  O18      1.0000 0.51526  0.24750  0.23668  Biso   1.000  O
  O19      1.0000 0.46220  0.75096  0.25235  Biso   1.000  O
  O20      1.0000 0.52712  0.72306  0.00863  Biso   1.000  O
  O21      1.0000 0.75907  0.23298  0.26510  Biso   1.000  O
  O22      1.0000 0.73488  0.24789  0.01342  Biso   1.000  O
  O23      1.0000 0.78794  0.75141  0.99786  Biso   1.000  O
  O24      1.0000 0.72302  0.72304  0.24147  Biso   1.000  O
  Hf12     1.0000 0.62505  0.00322  0.62504  Biso   1.000  Hf
  Hf13     1.0000 0.63242  0.50354  0.87137  Biso   1.000  Hf
  Hf14     1.0000 0.87136  0.50351  0.63241  Biso   1.000  Hf
  Hf15     1.0000 0.88521  0.02271  0.88521  Biso   1.000  Hf
  O25      1.0000 0.48469  0.24421  0.48467  Biso   1.000  O
  O26      1.0000 0.51869  0.28287  0.73139  Biso   1.000  O
  O27      1.0000 0.49385  0.77064  0.75627  Biso   1.000  O
  O28      1.0000 0.50817  0.74208  0.50820  Biso   1.000  O
  O29      1.0000 0.76539  0.24411  0.76542  Biso   1.000  O
  O30      1.0000 0.73141  0.28287  0.51870  Biso   1.000  O
  O31      1.0000 0.75622  0.77064  0.49380  Biso   1.000  O
  O32      1.0000 0.74192  0.74196  0.74189  Biso   1.000  O
