data_image0
_cell_length_a       5.05108
_cell_length_b       10.3392
_cell_length_c       10.4081
_cell_angle_alpha    90.2788
_cell_angle_beta     80.611
_cell_angle_gamma    90.5916

_symmetry_space_group_name_H-M    "P 1"
_symmetry_int_tables_number       1

loop_
  _symmetry_equiv_pos_as_xyz
  'x, y, z'

loop_
  _atom_site_label
  _atom_site_occupancy
  _atom_site_fract_x
  _atom_site_fract_y
  _atom_site_fract_z
  _atom_site_thermal_displace_type
  _atom_site_B_iso_or_equiv
  _atom_site_type_symbol
  Hf1      1.0000 0.27490  0.01905  0.14696  Biso   1.000  Hf
  Hf2      1.0000 0.32657  0.22607  0.39331  Biso   1.000  Hf
  Hf3      1.0000 0.72980  0.26987  0.11124  Biso   1.000  Hf
  Hf4      1.0000 0.69874  0.48572  0.34675  Biso   1.000  Hf
  O1       1.0000 0.07639  0.17023  0.08328  Biso   1.000  O
  O2       1.0000 0.08573  0.07422  0.33778  Biso   1.000  O
  O3       1.0000 0.89779  0.44212  0.15311  Biso   1.000  O
  O4       1.0000 0.94213  0.31889  0.41300  Biso   1.000  O
  O5       1.0000 0.55065  0.11876  0.23840  Biso   1.000  O
  O6       1.0000 0.56902  0.11616  0.49715  Biso   1.000  O
  O7       1.0000 0.44596  0.37874  0.00915  Biso   1.000  O
  O8       1.0000 0.40283  0.37299  0.25329  Biso   1.000  O
  Hf5      1.0000 0.27427  0.02058  0.64685  Biso   1.000  Hf
  Hf6      1.0000 0.27795  0.22852  0.89938  Biso   1.000  Hf
  Hf7      1.0000 0.72456  0.26749  0.61396  Biso   1.000  Hf
  Hf8      1.0000 0.72214  0.47689  0.85863  Biso   1.000  Hf
  O9       1.0000 0.08762  0.17589  0.58218  Biso   1.000  O
  O10      1.0000 0.07510  0.07696  0.83288  Biso   1.000  O
  O11      1.0000 0.92904  0.42001  0.66851  Biso   1.000  O
  O12      1.0000 0.92516  0.32569  0.91943  Biso   1.000  O
  O13      1.0000 0.55461  0.12920  0.74483  Biso   1.000  O
  O14      1.0000 0.55430  0.12041  0.99305  Biso   1.000  O
  O15      1.0000 0.46181  0.37914  0.51292  Biso   1.000  O
  O16      1.0000 0.44847  0.36973  0.76136  Biso   1.000  O
  Hf9      1.0000 0.26770  0.52026  0.14207  Biso   1.000  Hf
  Hf10     1.0000 0.26866  0.72824  0.39765  Biso   1.000  Hf
  Hf11     1.0000 0.71756  0.77102  0.10486  Biso   1.000  Hf
  Hf12     1.0000 0.72939  0.97616  0.35568  Biso   1.000  Hf
  O17      1.0000 0.07379  0.67855  0.08449  Biso   1.000  O
  O18      1.0000 0.06202  0.57379  0.33448  Biso   1.000  O
  O19      1.0000 0.92173  0.92094  0.16999  Biso   1.000  O
  O20      1.0000 0.91850  0.82383  0.41896  Biso   1.000  O
  O21      1.0000 0.53889  0.62997  0.24255  Biso   1.000  O
  O22      1.0000 0.54230  0.62070  0.49198  Biso   1.000  O
  O23      1.0000 0.44650  0.87932  0.00982  Biso   1.000  O
  O24      1.0000 0.44424  0.86719  0.26034  Biso   1.000  O
  Hf13     1.0000 0.27888  0.52126  0.64793  Biso   1.000  Hf
  Hf14     1.0000 0.27419  0.72968  0.89720  Biso   1.000  Hf
  Hf15     1.0000 0.71777  0.77023  0.60637  Biso   1.000  Hf
  Hf16     1.0000 0.72067  0.97894  0.85669  Biso   1.000  Hf
  O25      1.0000 0.06877  0.67078  0.58561  Biso   1.000  O
  O26      1.0000 0.07514  0.57655  0.83496  Biso   1.000  O
  O27      1.0000 0.92106  0.92291  0.66749  Biso   1.000  O
  O28      1.0000 0.92251  0.82800  0.91793  Biso   1.000  O
  O29      1.0000 0.55384  0.62873  0.74266  Biso   1.000  O
  O30      1.0000 0.54866  0.62037  0.99159  Biso   1.000  O
  O31      1.0000 0.44246  0.87829  0.51031  Biso   1.000  O
  O32      1.0000 0.44370  0.87054  0.76023  Biso   1.000  O
  N1       1.0000 0.78813  0.28038  0.32575  Biso   1.000  N
