data_image0
_cell_length_a       10.1645
_cell_length_b       5.14603
_cell_length_c       10.5631
_cell_angle_alpha    90.0306
_cell_angle_beta     79.0673
_cell_angle_gamma    90.3861

_symmetry_space_group_name_H-M    "P 1"
_symmetry_int_tables_number       1

loop_
  _symmetry_equiv_pos_as_xyz
  'x, y, z'

loop_
  _atom_site_label
  _atom_site_occupancy
  _atom_site_fract_x
  _atom_site_fract_y
  _atom_site_fract_z
  _atom_site_thermal_displace_type
  _atom_site_B_iso_or_equiv
  _atom_site_type_symbol
  Hf1      1.0000 0.13519  0.04996  0.14882  Biso   1.000  Hf
  Hf2      1.0000 0.13579  0.45734  0.39678  Biso   1.000  Hf
  Hf3      1.0000 0.34558  0.55380  0.08886  Biso   1.000  Hf
  Hf4      1.0000 0.35678  0.95664  0.35804  Biso   1.000  Hf
  O1       1.0000 0.03203  0.33899  0.08001  Biso   1.000  O
  O2       1.0000 0.03322  0.16379  0.33080  Biso   1.000  O
  O3       1.0000 0.45962  0.83482  0.17278  Biso   1.000  O
  O4       1.0000 0.47074  0.67486  0.43035  Biso   1.000  O
  O5       1.0000 0.27789  0.26397  0.23957  Biso   1.000  O
  O6       1.0000 0.27882  0.24980  0.48850  Biso   1.000  O
  O7       1.0000 0.21399  0.76919  0.00517  Biso   1.000  O
  O8       1.0000 0.21912  0.74364  0.25839  Biso   1.000  O
  Hf5      1.0000 0.13781  0.04477  0.64577  Biso   1.000  Hf
  Hf6      1.0000 0.13186  0.45770  0.89404  Biso   1.000  Hf
  Hf7      1.0000 0.36149  0.54585  0.60623  Biso   1.000  Hf
  Hf8      1.0000 0.35671  0.96267  0.85136  Biso   1.000  Hf
  O9       1.0000 0.03557  0.33817  0.58110  Biso   1.000  O
  O10      1.0000 0.03175  0.16346  0.82936  Biso   1.000  O
  O11      1.0000 0.46484  0.83630  0.67427  Biso   1.000  O
  O12      1.0000 0.46183  0.67105  0.91973  Biso   1.000  O
  O13      1.0000 0.27412  0.25668  0.73949  Biso   1.000  O
  O14      1.0000 0.27096  0.24965  0.98740  Biso   1.000  O
  O15      1.0000 0.22374  0.75912  0.51019  Biso   1.000  O
  O16      1.0000 0.22053  0.74216  0.75818  Biso   1.000  O
  Hf9      1.0000 0.63758  0.03794  0.14908  Biso   1.000  Hf
  Hf10     1.0000 0.65075  0.45133  0.40955  Biso   1.000  Hf
  Hf11     1.0000 0.85751  0.54263  0.10767  Biso   1.000  Hf
  Hf12     1.0000 0.85940  0.95215  0.35545  Biso   1.000  Hf
  O17      1.0000 0.52694  0.33162  0.07945  Biso   1.000  O
  O18      1.0000 0.53956  0.15099  0.33770  Biso   1.000  O
  O19      1.0000 0.96218  0.83636  0.17314  Biso   1.000  O
  O20      1.0000 0.96351  0.66337  0.42387  Biso   1.000  O
  O21      1.0000 0.77722  0.25421  0.24502  Biso   1.000  O
  O22      1.0000 0.78172  0.23611  0.49756  Biso   1.000  O
  O23      1.0000 0.71852  0.75406  0.01427  Biso   1.000  O
  O24      1.0000 0.71801  0.73475  0.26370  Biso   1.000  O
  Hf13     1.0000 0.63907  0.04260  0.65188  Biso   1.000  Hf
  Hf14     1.0000 0.63566  0.45537  0.90053  Biso   1.000  Hf
  Hf15     1.0000 0.86205  0.54427  0.60972  Biso   1.000  Hf
  Hf16     1.0000 0.85714  0.95646  0.85806  Biso   1.000  Hf
  O25      1.0000 0.53561  0.33464  0.58470  Biso   1.000  O
  O26      1.0000 0.53089  0.16858  0.83106  Biso   1.000  O
  O27      1.0000 0.96385  0.83718  0.67432  Biso   1.000  O
  O28      1.0000 0.95950  0.66284  0.92275  Biso   1.000  O
  O29      1.0000 0.77529  0.25926  0.74620  Biso   1.000  O
  O30      1.0000 0.77188  0.24081  0.99474  Biso   1.000  O
  O31      1.0000 0.72480  0.75481  0.51609  Biso   1.000  O
  O32      1.0000 0.72121  0.74378  0.76469  Biso   1.000  O
  Na1      1.0000 0.46150  0.46941  0.26860  Biso   1.000  Na
