data_image0
_cell_length_a       5.07422
_cell_length_b       10.2564
_cell_length_c       10.1131
_cell_angle_alpha    90.0004
_cell_angle_beta     89.9997
_cell_angle_gamma    90.0001

_symmetry_space_group_name_H-M    "P 1"
_symmetry_int_tables_number       1

loop_
  _symmetry_equiv_pos_as_xyz
  'x, y, z'

loop_
  _atom_site_label
  _atom_site_occupancy
  _atom_site_fract_x
  _atom_site_fract_y
  _atom_site_fract_z
  _atom_site_thermal_displace_type
  _atom_site_B_iso_or_equiv
  _atom_site_type_symbol
  Zr1      1.0000 0.25081  0.98272  0.12540  Biso   1.000  Zr
  Zr2      1.0000 0.25080  0.25008  0.39464  Biso   1.000  Zr
  Zr3      1.0000 0.75077  0.25008  0.12540  Biso   1.000  Zr
  Zr4      1.0000 0.75428  0.00485  0.37134  Biso   1.000  Zr
  O1       1.0000 0.98472  0.14975  0.99089  Biso   1.000  O
  O2       1.0000 0.01574  0.10183  0.24449  Biso   1.000  O
  O3       1.0000 0.98473  0.35040  0.25990  Biso   1.000  O
  O4       1.0000 0.01574  0.39832  0.00631  Biso   1.000  O
  O5       1.0000 0.51681  0.14973  0.25989  Biso   1.000  O
  O6       1.0000 0.48580  0.10185  0.00629  Biso   1.000  O
  O7       1.0000 0.51681  0.35042  0.99090  Biso   1.000  O
  O8       1.0000 0.48580  0.39830  0.24450  Biso   1.000  O
  Zr5      1.0000 0.25079  0.99513  0.62539  Biso   1.000  Zr
  Zr6      1.0000 0.25080  0.25007  0.85615  Biso   1.000  Zr
  Zr7      1.0000 0.75080  0.25007  0.62540  Biso   1.000  Zr
  Zr8      1.0000 0.74732  0.00485  0.87946  Biso   1.000  Zr
  O9       1.0000 0.97965  0.14203  0.49674  Biso   1.000  O
  O10      1.0000 0.01215  0.10453  0.74787  Biso   1.000  O
  O11      1.0000 0.97965  0.35813  0.75406  Biso   1.000  O
  O12      1.0000 0.01215  0.39562  0.50293  Biso   1.000  O
  O13      1.0000 0.52194  0.14203  0.75405  Biso   1.000  O
  O14      1.0000 0.48944  0.10453  0.50292  Biso   1.000  O
  O15      1.0000 0.52194  0.35812  0.49674  Biso   1.000  O
  O16      1.0000 0.48944  0.39562  0.74787  Biso   1.000  O
  Zr9      1.0000 0.25081  0.51743  0.12539  Biso   1.000  Zr
  Zr10     1.0000 0.25080  0.75007  0.38082  Biso   1.000  Zr
  Zr11     1.0000 0.75080  0.75008  0.12540  Biso   1.000  Zr
  Zr12     1.0000 0.74732  0.49530  0.37134  Biso   1.000  Zr
  O17      1.0000 0.00076  0.64757  0.99986  Biso   1.000  O
  O18      1.0000 0.99827  0.60652  0.25100  Biso   1.000  O
  O19      1.0000 0.00076  0.85258  0.25093  Biso   1.000  O
  O20      1.0000 0.99827  0.89363  0.99979  Biso   1.000  O
  O21      1.0000 0.50085  0.64756  0.25093  Biso   1.000  O
  O22      1.0000 0.50334  0.60653  0.99979  Biso   1.000  O
  O23      1.0000 0.50085  0.85259  0.99986  Biso   1.000  O
  O24      1.0000 0.50334  0.89362  0.25100  Biso   1.000  O
  Zr13     1.0000 0.25080  0.50502  0.62540  Biso   1.000  Zr
  Zr14     1.0000 0.25080  0.75008  0.86997  Biso   1.000  Zr
  Zr15     1.0000 0.75079  0.75008  0.62540  Biso   1.000  Zr
  Zr16     1.0000 0.75427  0.49530  0.87945  Biso   1.000  Zr
  O25      1.0000 0.99564  0.64528  0.50092  Biso   1.000  O
  O26      1.0000 0.00654  0.60504  0.75249  Biso   1.000  O
  O27      1.0000 0.99564  0.85487  0.74987  Biso   1.000  O
  O28      1.0000 0.00653  0.89511  0.49830  Biso   1.000  O
  O29      1.0000 0.50594  0.64529  0.74987  Biso   1.000  O
  O30      1.0000 0.49505  0.60504  0.49830  Biso   1.000  O
  O31      1.0000 0.50594  0.85486  0.50092  Biso   1.000  O
  O32      1.0000 0.49505  0.89511  0.75249  Biso   1.000  O
  Na1      1.0000 0.25077  0.25007  0.12540  Biso   1.000  Na
