data_image0
_cell_length_a       5.06325
_cell_length_b       10.4427
_cell_length_c       10.0948
_cell_angle_alpha    89.5189
_cell_angle_beta     89.618
_cell_angle_gamma    89.515

_symmetry_space_group_name_H-M    "P 1"
_symmetry_int_tables_number       1

loop_
  _symmetry_equiv_pos_as_xyz
  'x, y, z'

loop_
  _atom_site_label
  _atom_site_occupancy
  _atom_site_fract_x
  _atom_site_fract_y
  _atom_site_fract_z
  _atom_site_thermal_displace_type
  _atom_site_B_iso_or_equiv
  _atom_site_type_symbol
  Hf1      1.0000 0.25246  0.01139  0.12209  Biso   1.000  Hf
  Hf2      1.0000 0.26497  0.22716  0.38431  Biso   1.000  Hf
  Hf3      1.0000 0.72481  0.25726  0.12586  Biso   1.000  Hf
  Hf4      1.0000 0.74363  0.48085  0.37258  Biso   1.000  Hf
  O1       1.0000 0.00473  0.16046  0.23653  Biso   1.000  O
  O2       1.0000 0.07324  0.06035  0.45635  Biso   1.000  O
  O3       1.0000 0.95668  0.42430  0.20084  Biso   1.000  O
  O4       1.0000 0.94323  0.32119  0.45575  Biso   1.000  O
  O5       1.0000 0.50523  0.10833  0.24902  Biso   1.000  O
  O6       1.0000 0.55029  0.13159  0.49867  Biso   1.000  O
  O7       1.0000 0.47167  0.38444  0.49989  Biso   1.000  O
  O8       1.0000 0.47355  0.36329  0.25287  Biso   1.000  O
  Hf5      1.0000 0.27294  0.00680  0.62283  Biso   1.000  Hf
  Hf6      1.0000 0.26092  0.23274  0.85023  Biso   1.000  Hf
  Hf7      1.0000 0.73637  0.26578  0.62218  Biso   1.000  Hf
  Hf8      1.0000 0.74275  0.48816  0.87357  Biso   1.000  Hf
  O9       1.0000 0.05784  0.17029  0.69011  Biso   1.000  O
  O10      1.0000 0.03942  0.07213  0.95211  Biso   1.000  O
  O11      1.0000 0.95420  0.42415  0.70491  Biso   1.000  O
  O12      1.0000 0.94414  0.31941  0.95077  Biso   1.000  O
  O13      1.0000 0.53374  0.11048  0.74558  Biso   1.000  O
  O14      1.0000 0.49695  0.14842  0.99824  Biso   1.000  O
  O15      1.0000 0.48472  0.40149  0.99986  Biso   1.000  O
  O16      1.0000 0.47773  0.36637  0.74742  Biso   1.000  O
  Hf9      1.0000 0.27371  0.53537  0.12036  Biso   1.000  Hf
  Hf10     1.0000 0.27207  0.73446  0.37517  Biso   1.000  Hf
  Hf11     1.0000 0.73088  0.76750  0.12488  Biso   1.000  Hf
  Hf12     1.0000 0.74460  0.98807  0.37034  Biso   1.000  Hf
  O17      1.0000 0.06068  0.68602  0.20370  Biso   1.000  O
  O18      1.0000 0.06769  0.56815  0.44926  Biso   1.000  O
  O19      1.0000 0.92171  0.92828  0.19469  Biso   1.000  O
  O20      1.0000 0.94199  0.81928  0.44781  Biso   1.000  O
  O21      1.0000 0.54951  0.61744  0.24750  Biso   1.000  O
  O22      1.0000 0.54040  0.63286  0.49660  Biso   1.000  O
  O23      1.0000 0.47561  0.88315  0.49472  Biso   1.000  O
  O24      1.0000 0.45690  0.86359  0.24584  Biso   1.000  O
  Hf13     1.0000 0.27259  0.51500  0.62309  Biso   1.000  Hf
  Hf14     1.0000 0.26434  0.73818  0.86941  Biso   1.000  Hf
  Hf15     1.0000 0.74015  0.76205  0.61979  Biso   1.000  Hf
  Hf16     1.0000 0.73744  0.98147  0.87099  Biso   1.000  Hf
  O25      1.0000 0.06953  0.67812  0.69655  Biso   1.000  O
  O26      1.0000 0.06555  0.57472  0.94842  Biso   1.000  O
  O27      1.0000 0.94536  0.92333  0.70264  Biso   1.000  O
  O28      1.0000 0.93897  0.82027  0.94974  Biso   1.000  O
  O29      1.0000 0.54122  0.61264  0.74497  Biso   1.000  O
  O30      1.0000 0.53799  0.64657  0.99206  Biso   1.000  O
  O31      1.0000 0.46218  0.89108  0.99388  Biso   1.000  O
  O32      1.0000 0.47316  0.86061  0.74381  Biso   1.000  O
  Nb1      1.0000 0.22011  0.28610  0.10795  Biso   1.000  Nb
