data_image0
_cell_length_a       10.2917
_cell_length_b       10.3825
_cell_length_c       5.32594
_cell_angle_alpha    90.4138
_cell_angle_beta     78.5847
_cell_angle_gamma    90.5932

_symmetry_space_group_name_H-M    "P 1"
_symmetry_int_tables_number       1

loop_
  _symmetry_equiv_pos_as_xyz
  'x, y, z'

loop_
  _atom_site_label
  _atom_site_occupancy
  _atom_site_fract_x
  _atom_site_fract_y
  _atom_site_fract_z
  _atom_site_thermal_displace_type
  _atom_site_B_iso_or_equiv
  _atom_site_type_symbol
  Zr1      1.0000 0.13131  0.02104  0.29881  Biso   1.000  Zr
  Zr2      1.0000 0.14176  0.23509  0.76771  Biso   1.000  Zr
  Zr3      1.0000 0.34445  0.27963  0.16995  Biso   1.000  Zr
  Zr4      1.0000 0.34831  0.48485  0.69828  Biso   1.000  Zr
  O1       1.0000 0.04465  0.16812  0.14692  Biso   1.000  O
  O2       1.0000 0.03308  0.08401  0.65580  Biso   1.000  O
  O3       1.0000 0.46620  0.39919  0.36863  Biso   1.000  O
  O4       1.0000 0.48004  0.35182  0.85439  Biso   1.000  O
  O5       1.0000 0.27905  0.12586  0.44825  Biso   1.000  O
  O6       1.0000 0.29739  0.13728  0.91393  Biso   1.000  O
  O7       1.0000 0.21100  0.38993  0.99815  Biso   1.000  O
  O8       1.0000 0.20902  0.37982  0.48499  Biso   1.000  O
  Zr5      1.0000 0.13384  0.52884  0.28726  Biso   1.000  Zr
  Zr6      1.0000 0.13203  0.73120  0.79633  Biso   1.000  Zr
  Zr7      1.0000 0.35862  0.77054  0.20919  Biso   1.000  Zr
  Zr8      1.0000 0.36179  0.96502  0.70528  Biso   1.000  Zr
  O9       1.0000 0.02411  0.66770  0.15393  Biso   1.000  O
  O10      1.0000 0.02809  0.59181  0.65281  Biso   1.000  O
  O11      1.0000 0.46916  0.91049  0.35012  Biso   1.000  O
  O12      1.0000 0.46411  0.82649  0.85306  Biso   1.000  O
  O13      1.0000 0.27178  0.62967  0.48263  Biso   1.000  O
  O14      1.0000 0.26761  0.62987  0.98324  Biso   1.000  O
  O15      1.0000 0.22307  0.88481  0.02353  Biso   1.000  O
  O16      1.0000 0.21999  0.86775  0.51773  Biso   1.000  O
  Zr9      1.0000 0.64086  0.02057  0.31068  Biso   1.000  Zr
  Zr10     1.0000 0.65026  0.22922  0.82272  Biso   1.000  Zr
  Zr11     1.0000 0.86643  0.27114  0.22271  Biso   1.000  Zr
  Zr12     1.0000 0.86157  0.47774  0.71994  Biso   1.000  Zr
  O17      1.0000 0.52397  0.16772  0.18544  Biso   1.000  O
  O18      1.0000 0.54125  0.06446  0.69578  Biso   1.000  O
  O19      1.0000 0.96409  0.41944  0.34929  Biso   1.000  O
  O20      1.0000 0.96465  0.33539  0.84924  Biso   1.000  O
  O21      1.0000 0.78232  0.12755  0.49895  Biso   1.000  O
  O22      1.0000 0.77983  0.11785  0.00815  Biso   1.000  O
  O23      1.0000 0.72773  0.37633  0.04519  Biso   1.000  O
  O24      1.0000 0.72910  0.37197  0.53993  Biso   1.000  O
  Zr13     1.0000 0.63780  0.52101  0.30438  Biso   1.000  Zr
  Zr14     1.0000 0.63493  0.72313  0.80051  Biso   1.000  Zr
  Zr15     1.0000 0.85525  0.77258  0.21586  Biso   1.000  Zr
  Zr16     1.0000 0.85679  0.97787  0.72140  Biso   1.000  Zr
  O25      1.0000 0.52625  0.65502  0.15726  Biso   1.000  O
  O26      1.0000 0.52634  0.58698  0.65076  Biso   1.000  O
  O27      1.0000 0.96334  0.91367  0.35695  Biso   1.000  O
  O28      1.0000 0.96360  0.83939  0.85721  Biso   1.000  O
  O29      1.0000 0.77069  0.62760  0.48753  Biso   1.000  O
  O30      1.0000 0.77057  0.62084  0.98885  Biso   1.000  O
  O31      1.0000 0.71985  0.87668  0.03170  Biso   1.000  O
  O32      1.0000 0.72215  0.87027  0.53044  Biso   1.000  O
  Nb1      1.0000 0.44089  0.22494  0.57821  Biso   1.000  Nb
