data_image0
_cell_length_a       10.0565
_cell_length_b       10.1895
_cell_length_c       5.02888
_cell_angle_alpha    90.0033
_cell_angle_beta     90.0014
_cell_angle_gamma    89.9966

_symmetry_space_group_name_H-M    "P 1"
_symmetry_int_tables_number       1

loop_
  _symmetry_equiv_pos_as_xyz
  'x, y, z'

loop_
  _atom_site_label
  _atom_site_occupancy
  _atom_site_fract_x
  _atom_site_fract_y
  _atom_site_fract_z
  _atom_site_thermal_displace_type
  _atom_site_B_iso_or_equiv
  _atom_site_type_symbol
  Nb1      1.0000 0.12516  0.99994  0.25027  Biso   1.000  Nb
  Zr1      1.0000 0.12515  0.49994  0.25028  Biso   1.000  Zr
  Zr2      1.0000 0.62516  0.99994  0.25028  Biso   1.000  Zr
  Zr3      1.0000 0.62515  0.49993  0.25028  Biso   1.000  Zr
  Zr4      1.0000 0.12514  0.24962  0.75030  Biso   1.000  Zr
  Zr5      1.0000 0.12514  0.75025  0.75031  Biso   1.000  Zr
  Zr6      1.0000 0.62514  0.24961  0.75030  Biso   1.000  Zr
  Zr7      1.0000 0.62514  0.75026  0.75031  Biso   1.000  Zr
  Zr8      1.0000 0.37484  0.24940  0.25275  Biso   1.000  Zr
  Zr9      1.0000 0.37484  0.75047  0.24784  Biso   1.000  Zr
  Zr10     1.0000 0.87544  0.24939  0.24783  Biso   1.000  Zr
  Zr11     1.0000 0.87543  0.75047  0.25276  Biso   1.000  Zr
  Zr12     1.0000 0.37505  0.99994  0.75028  Biso   1.000  Zr
  Zr13     1.0000 0.37583  0.49994  0.75028  Biso   1.000  Zr
  Zr14     1.0000 0.87526  0.99994  0.75027  Biso   1.000  Zr
  Zr15     1.0000 0.87447  0.49993  0.75028  Biso   1.000  Zr
  O1       1.0000 0.99563  0.14479  0.98896  Biso   1.000  O
  O2       1.0000 0.99812  0.64705  0.99691  Biso   1.000  O
  O3       1.0000 0.49409  0.14518  0.99149  Biso   1.000  O
  O4       1.0000 0.49828  0.64521  0.99743  Biso   1.000  O
  O5       1.0000 0.00559  0.10107  0.48954  Biso   1.000  O
  O6       1.0000 0.00133  0.60404  0.49835  Biso   1.000  O
  O7       1.0000 0.50363  0.10527  0.49615  Biso   1.000  O
  O8       1.0000 0.50165  0.60475  0.49903  Biso   1.000  O
  O9       1.0000 0.99813  0.35281  0.50366  Biso   1.000  O
  O10      1.0000 0.99564  0.85508  0.51160  Biso   1.000  O
  O11      1.0000 0.49828  0.35466  0.50313  Biso   1.000  O
  O12      1.0000 0.49409  0.85469  0.50907  Biso   1.000  O
  O13      1.0000 0.00135  0.39583  0.00222  Biso   1.000  O
  O14      1.0000 0.00559  0.89880  0.01102  Biso   1.000  O
  O15      1.0000 0.50167  0.39512  0.00152  Biso   1.000  O
  O16      1.0000 0.50363  0.89460  0.00444  Biso   1.000  O
  O17      1.0000 0.25466  0.14479  0.51159  Biso   1.000  O
  O18      1.0000 0.25216  0.64706  0.50367  Biso   1.000  O
  O19      1.0000 0.75620  0.14518  0.50906  Biso   1.000  O
  O20      1.0000 0.75201  0.64521  0.50314  Biso   1.000  O
  O21      1.0000 0.24470  0.10107  0.01101  Biso   1.000  O
  O22      1.0000 0.24895  0.60404  0.00223  Biso   1.000  O
  O23      1.0000 0.74666  0.10527  0.00442  Biso   1.000  O
  O24      1.0000 0.74863  0.60475  0.00154  Biso   1.000  O
  O25      1.0000 0.25217  0.35282  0.99689  Biso   1.000  O
  O26      1.0000 0.25466  0.85508  0.98897  Biso   1.000  O
  O27      1.0000 0.75203  0.35466  0.99741  Biso   1.000  O
  O28      1.0000 0.75621  0.85469  0.99150  Biso   1.000  O
  O29      1.0000 0.24895  0.39583  0.49833  Biso   1.000  O
  O30      1.0000 0.24471  0.89880  0.48955  Biso   1.000  O
  O31      1.0000 0.74864  0.39512  0.49902  Biso   1.000  O
  O32      1.0000 0.74666  0.89460  0.49615  Biso   1.000  O
