data_image0
_cell_length_a       5.12831
_cell_length_b       10.1379
_cell_length_c       10.1176
_cell_angle_alpha    90.0004
_cell_angle_beta     90.0006
_cell_angle_gamma    89.9995

_symmetry_space_group_name_H-M    "P 1"
_symmetry_int_tables_number       1

loop_
  _symmetry_equiv_pos_as_xyz
  'x, y, z'

loop_
  _atom_site_label
  _atom_site_occupancy
  _atom_site_fract_x
  _atom_site_fract_y
  _atom_site_fract_z
  _atom_site_thermal_displace_type
  _atom_site_B_iso_or_equiv
  _atom_site_type_symbol
  Zr1      1.0000 0.25036  0.98335  0.10669  Biso   1.000  Zr
  Zr2      1.0000 0.25036  0.24997  0.37877  Biso   1.000  Zr
  Zr3      1.0000 0.75040  0.24999  0.10669  Biso   1.000  Zr
  Zr4      1.0000 0.75038  0.49919  0.35421  Biso   1.000  Zr
  O1       1.0000 0.99074  0.12902  0.22780  Biso   1.000  O
  O2       1.0000 0.01973  0.11107  0.47746  Biso   1.000  O
  O3       1.0000 0.02193  0.37797  0.23314  Biso   1.000  O
  O4       1.0000 0.96761  0.36967  0.48262  Biso   1.000  O
  O5       1.0000 0.47888  0.12200  0.23315  Biso   1.000  O
  O6       1.0000 0.53309  0.13029  0.48263  Biso   1.000  O
  O7       1.0000 0.48097  0.38890  0.47745  Biso   1.000  O
  O8       1.0000 0.51006  0.37095  0.22779  Biso   1.000  O
  Zr5      1.0000 0.25035  0.00154  0.60670  Biso   1.000  Zr
  Zr6      1.0000 0.25035  0.24999  0.83461  Biso   1.000  Zr
  Zr7      1.0000 0.75037  0.24998  0.60669  Biso   1.000  Zr
  Zr8      1.0000 0.75033  0.49918  0.85917  Biso   1.000  Zr
  O9       1.0000 0.96761  0.13029  0.73076  Biso   1.000  O
  O10      1.0000 0.02193  0.12199  0.98023  Biso   1.000  O
  O11      1.0000 0.01974  0.38890  0.73591  Biso   1.000  O
  O12      1.0000 0.99073  0.37093  0.98558  Biso   1.000  O
  O13      1.0000 0.48097  0.11106  0.73592  Biso   1.000  O
  O14      1.0000 0.51007  0.12902  0.98559  Biso   1.000  O
  O15      1.0000 0.47886  0.37797  0.98022  Biso   1.000  O
  O16      1.0000 0.53309  0.36967  0.73075  Biso   1.000  O
  Zr9      1.0000 0.25036  0.51661  0.10669  Biso   1.000  Zr
  Zr10     1.0000 0.25036  0.74999  0.36182  Biso   1.000  Zr
  Zr11     1.0000 0.75036  0.74998  0.10669  Biso   1.000  Zr
  Zr12     1.0000 0.75034  0.00078  0.35421  Biso   1.000  Zr
  O17      1.0000 0.97123  0.62904  0.22608  Biso   1.000  O
  O18      1.0000 0.03635  0.61422  0.47306  Biso   1.000  O
  O19      1.0000 0.02668  0.87703  0.24063  Biso   1.000  O
  O20      1.0000 0.96591  0.86682  0.48543  Biso   1.000  O
  O21      1.0000 0.47402  0.62294  0.24063  Biso   1.000  O
  O22      1.0000 0.53483  0.63314  0.48542  Biso   1.000  O
  O23      1.0000 0.46438  0.88575  0.47306  Biso   1.000  O
  O24      1.0000 0.52946  0.87091  0.22609  Biso   1.000  O
  Zr13     1.0000 0.25036  0.49842  0.60668  Biso   1.000  Zr
  Zr14     1.0000 0.25037  0.74998  0.85156  Biso   1.000  Zr
  Zr15     1.0000 0.75038  0.74998  0.60669  Biso   1.000  Zr
  Zr16     1.0000 0.75037  0.00078  0.85917  Biso   1.000  Zr
  O25      1.0000 0.96589  0.63314  0.72796  Biso   1.000  O
  O26      1.0000 0.02669  0.62293  0.97275  Biso   1.000  O
  O27      1.0000 0.03636  0.88574  0.74032  Biso   1.000  O
  O28      1.0000 0.97123  0.87092  0.98730  Biso   1.000  O
  O29      1.0000 0.46437  0.61422  0.74031  Biso   1.000  O
  O30      1.0000 0.52947  0.62905  0.98729  Biso   1.000  O
  O31      1.0000 0.47401  0.87703  0.97275  Biso   1.000  O
  O32      1.0000 0.53484  0.86682  0.72796  Biso   1.000  O
  Nb1      1.0000 0.25040  0.24998  0.10669  Biso   1.000  Nb
