data_image0
_cell_length_a       5.01842
_cell_length_b       10.2076
_cell_length_c       9.97683
_cell_angle_alpha    91.4558
_cell_angle_beta     88.0485
_cell_angle_gamma    88.6682

_symmetry_space_group_name_H-M    "P 1"
_symmetry_int_tables_number       1

loop_
  _symmetry_equiv_pos_as_xyz
  'x, y, z'

loop_
  _atom_site_label
  _atom_site_occupancy
  _atom_site_fract_x
  _atom_site_fract_y
  _atom_site_fract_z
  _atom_site_thermal_displace_type
  _atom_site_B_iso_or_equiv
  _atom_site_type_symbol
  Ni1      1.0000 0.26140  0.96371  0.11605  Biso   1.000  Ni
  Hf1      1.0000 0.25402  0.00298  0.60588  Biso   1.000  Hf
  Hf2      1.0000 0.26561  0.51646  0.12961  Biso   1.000  Hf
  Hf3      1.0000 0.25118  0.48837  0.63333  Biso   1.000  Hf
  Hf4      1.0000 0.28380  0.25222  0.36748  Biso   1.000  Hf
  Hf5      1.0000 0.24027  0.24586  0.88812  Biso   1.000  Hf
  Hf6      1.0000 0.21069  0.73826  0.39143  Biso   1.000  Hf
  Hf7      1.0000 0.22206  0.75203  0.86869  Biso   1.000  Hf
  Hf8      1.0000 0.77509  0.27064  0.12503  Biso   1.000  Hf
  Hf9      1.0000 0.74913  0.23440  0.62667  Biso   1.000  Hf
  Hf10     1.0000 0.74634  0.75743  0.12915  Biso   1.000  Hf
  Hf11     1.0000 0.70039  0.75681  0.62223  Biso   1.000  Hf
  Hf12     1.0000 0.80727  0.01401  0.34888  Biso   1.000  Hf
  Hf13     1.0000 0.71683  0.99972  0.87584  Biso   1.000  Hf
  Hf14     1.0000 0.76318  0.49229  0.39100  Biso   1.000  Hf
  Hf15     1.0000 0.74338  0.48663  0.87077  Biso   1.000  Hf
  O1       1.0000 0.90059  0.16504  0.96220  Biso   1.000  O
  O2       1.0000 0.02815  0.14366  0.48138  Biso   1.000  O
  O3       1.0000 0.06453  0.66593  0.02911  Biso   1.000  O
  O4       1.0000 0.97657  0.63506  0.52399  Biso   1.000  O
  O5       1.0000 0.08859  0.09998  0.22102  Biso   1.000  O
  O6       1.0000 0.94630  0.07889  0.72233  Biso   1.000  O
  O7       1.0000 0.97911  0.60851  0.26718  Biso   1.000  O
  O8       1.0000 0.03313  0.58608  0.77945  Biso   1.000  O
  O9       1.0000 0.03211  0.35888  0.25198  Biso   1.000  O
  O10      1.0000 0.00289  0.33715  0.75012  Biso   1.000  O
  O11      1.0000 0.05188  0.85902  0.24306  Biso   1.000  O
  O12      1.0000 0.91982  0.83253  0.77081  Biso   1.000  O
  O13      1.0000 0.00702  0.40827  0.00563  Biso   1.000  O
  O14      1.0000 0.01276  0.38837  0.50483  Biso   1.000  O
  O15      1.0000 0.98954  0.91510  0.00203  Biso   1.000  O
  O16      1.0000 0.96838  0.88948  0.50026  Biso   1.000  O
  O17      1.0000 0.60313  0.17142  0.26936  Biso   1.000  O
  O18      1.0000 0.46434  0.14016  0.74880  Biso   1.000  O
  O19      1.0000 0.47302  0.66918  0.24915  Biso   1.000  O
  O20      1.0000 0.51095  0.63663  0.75471  Biso   1.000  O
  O21      1.0000 0.41248  0.08604  0.00368  Biso   1.000  O
  O22      1.0000 0.53164  0.09846  0.49888  Biso   1.000  O
  O23      1.0000 0.56547  0.60018  0.01436  Biso   1.000  O
  O24      1.0000 0.47403  0.60132  0.50021  Biso   1.000  O
  O25      1.0000 0.49123  0.35242  0.00546  Biso   1.000  O
  O26      1.0000 0.51438  0.35015  0.50172  Biso   1.000  O
  O27      1.0000 0.47909  0.84809  0.00118  Biso   1.000  O
  O28      1.0000 0.46615  0.85087  0.49392  Biso   1.000  O
  O29      1.0000 0.52191  0.41332  0.25210  Biso   1.000  O
  O30      1.0000 0.50194  0.38346  0.75167  Biso   1.000  O
  O31      1.0000 0.55507  0.92880  0.22398  Biso   1.000  O
  O32      1.0000 0.43848  0.89245  0.74743  Biso   1.000  O
