data_image0
_cell_length_a       10.0555
_cell_length_b       5.12104
_cell_length_c       10.4436
_cell_angle_alpha    90.0956
_cell_angle_beta     90.7193
_cell_angle_gamma    89.3292

_symmetry_space_group_name_H-M    "P 1"
_symmetry_int_tables_number       1

loop_
  _symmetry_equiv_pos_as_xyz
  'x, y, z'

loop_
  _atom_site_label
  _atom_site_occupancy
  _atom_site_fract_x
  _atom_site_fract_y
  _atom_site_fract_z
  _atom_site_thermal_displace_type
  _atom_site_B_iso_or_equiv
  _atom_site_type_symbol
  Ni1      1.0000 0.12372  0.02237  0.19348  Biso   1.000  Ni
  Zr1      1.0000 0.13824  0.03876  0.66854  Biso   1.000  Zr
  Zr2      1.0000 0.13701  0.45987  0.41512  Biso   1.000  Zr
  Zr3      1.0000 0.14349  0.45459  0.92249  Biso   1.000  Zr
  Zr4      1.0000 0.35356  0.55632  0.16538  Biso   1.000  Zr
  Zr5      1.0000 0.36153  0.54495  0.67075  Biso   1.000  Zr
  Zr6      1.0000 0.35686  0.96400  0.41722  Biso   1.000  Zr
  Zr7      1.0000 0.36061  0.96724  0.92373  Biso   1.000  Zr
  Zr8      1.0000 0.64076  0.04395  0.07836  Biso   1.000  Zr
  Zr9      1.0000 0.63600  0.03948  0.58119  Biso   1.000  Zr
  Zr10     1.0000 0.63345  0.45595  0.32794  Biso   1.000  Zr
  Zr11     1.0000 0.64066  0.46157  0.83189  Biso   1.000  Zr
  Zr12     1.0000 0.87284  0.52888  0.08557  Biso   1.000  Zr
  Zr13     1.0000 0.85861  0.53602  0.58120  Biso   1.000  Zr
  Zr14     1.0000 0.85605  0.95426  0.33199  Biso   1.000  Zr
  Zr15     1.0000 0.86494  0.95396  0.83352  Biso   1.000  Zr
  O1       1.0000 0.04951  0.30456  0.09435  Biso   1.000  O
  O2       1.0000 0.02910  0.31322  0.57347  Biso   1.000  O
  O3       1.0000 0.03534  0.15406  0.33086  Biso   1.000  O
  O4       1.0000 0.03440  0.17281  0.83173  Biso   1.000  O
  O5       1.0000 0.46869  0.84084  0.08626  Biso   1.000  O
  O6       1.0000 0.46148  0.84565  0.58616  Biso   1.000  O
  O7       1.0000 0.45323  0.64892  0.34021  Biso   1.000  O
  O8       1.0000 0.46830  0.66977  0.83450  Biso   1.000  O
  O9       1.0000 0.26387  0.23833  0.27741  Biso   1.000  O
  O10      1.0000 0.27561  0.24332  0.78568  Biso   1.000  O
  O11      1.0000 0.30310  0.31142  0.02242  Biso   1.000  O
  O12      1.0000 0.27477  0.25632  0.53713  Biso   1.000  O
  O13      1.0000 0.21065  0.76143  0.29072  Biso   1.000  O
  O14      1.0000 0.22506  0.74599  0.79789  Biso   1.000  O
  O15      1.0000 0.21598  0.80635  0.05327  Biso   1.000  O
  O16      1.0000 0.22139  0.75026  0.54187  Biso   1.000  O
  O17      1.0000 0.53497  0.34614  0.16141  Biso   1.000  O
  O18      1.0000 0.53601  0.34478  0.66078  Biso   1.000  O
  O19      1.0000 0.53235  0.15385  0.40887  Biso   1.000  O
  O20      1.0000 0.54035  0.15891  0.91021  Biso   1.000  O
  O21      1.0000 0.97132  0.83669  0.16987  Biso   1.000  O
  O22      1.0000 0.96984  0.81482  0.67158  Biso   1.000  O
  O23      1.0000 0.96253  0.66149  0.41682  Biso   1.000  O
  O24      1.0000 0.97083  0.66192  0.92551  Biso   1.000  O
  O25      1.0000 0.78208  0.24801  0.95916  Biso   1.000  O
  O26      1.0000 0.77250  0.24408  0.45620  Biso   1.000  O
  O27      1.0000 0.77645  0.24821  0.20773  Biso   1.000  O
  O28      1.0000 0.77728  0.24815  0.70760  Biso   1.000  O
  O29      1.0000 0.72961  0.74480  0.95912  Biso   1.000  O
  O30      1.0000 0.71989  0.74333  0.45748  Biso   1.000  O
  O31      1.0000 0.72986  0.74660  0.20741  Biso   1.000  O
  O32      1.0000 0.72530  0.75279  0.70790  Biso   1.000  O
