data_image0
_cell_length_a       10.0963
_cell_length_b       5.12217
_cell_length_c       10.4237
_cell_angle_alpha    89.8017
_cell_angle_beta     80.0413
_cell_angle_gamma    90.0136

_symmetry_space_group_name_H-M    "P 1"
_symmetry_int_tables_number       1

loop_
  _symmetry_equiv_pos_as_xyz
  'x, y, z'

loop_
  _atom_site_label
  _atom_site_occupancy
  _atom_site_fract_x
  _atom_site_fract_y
  _atom_site_fract_z
  _atom_site_thermal_displace_type
  _atom_site_B_iso_or_equiv
  _atom_site_type_symbol
  Os1      1.0000 0.14175  0.04418  0.15139  Biso   1.000  Os
  Hf1      1.0000 0.13976  0.46123  0.39487  Biso   1.000  Hf
  Hf2      1.0000 0.35758  0.54884  0.10525  Biso   1.000  Hf
  Hf3      1.0000 0.36153  0.95871  0.35360  Biso   1.000  Hf
  O1       1.0000 0.03518  0.32813  0.07879  Biso   1.000  O
  O2       1.0000 0.03869  0.17056  0.31880  Biso   1.000  O
  O3       1.0000 0.46514  0.83738  0.17061  Biso   1.000  O
  O4       1.0000 0.46432  0.65932  0.41911  Biso   1.000  O
  O5       1.0000 0.27914  0.25731  0.24205  Biso   1.000  O
  O6       1.0000 0.27732  0.24301  0.49166  Biso   1.000  O
  O7       1.0000 0.21892  0.76160  0.01012  Biso   1.000  O
  O8       1.0000 0.21972  0.74813  0.25688  Biso   1.000  O
  Hf4      1.0000 0.13878  0.04207  0.64616  Biso   1.000  Hf
  Hf5      1.0000 0.13695  0.45298  0.89859  Biso   1.000  Hf
  Hf6      1.0000 0.36132  0.54247  0.60484  Biso   1.000  Hf
  Hf7      1.0000 0.35836  0.95503  0.85564  Biso   1.000  Hf
  O9       1.0000 0.03323  0.32900  0.57404  Biso   1.000  O
  O10      1.0000 0.03347  0.16581  0.82653  Biso   1.000  O
  O11      1.0000 0.46327  0.83994  0.66975  Biso   1.000  O
  O12      1.0000 0.45961  0.65368  0.91895  Biso   1.000  O
  O13      1.0000 0.27701  0.25702  0.74371  Biso   1.000  O
  O14      1.0000 0.27225  0.23237  0.00013  Biso   1.000  O
  O15      1.0000 0.22343  0.75722  0.50837  Biso   1.000  O
  O16      1.0000 0.22247  0.74018  0.75905  Biso   1.000  O
  Hf8      1.0000 0.63908  0.04491  0.14517  Biso   1.000  Hf
  Hf9      1.0000 0.63957  0.45821  0.39548  Biso   1.000  Hf
  Hf10     1.0000 0.86682  0.54184  0.10383  Biso   1.000  Hf
  Hf11     1.0000 0.86142  0.96027  0.35165  Biso   1.000  Hf
  O17      1.0000 0.53438  0.34091  0.08193  Biso   1.000  O
  O18      1.0000 0.53713  0.15878  0.33207  Biso   1.000  O
  O19      1.0000 0.97310  0.84340  0.16695  Biso   1.000  O
  O20      1.0000 0.96590  0.66934  0.41961  Biso   1.000  O
  O21      1.0000 0.77643  0.25990  0.24023  Biso   1.000  O
  O22      1.0000 0.77827  0.24173  0.48918  Biso   1.000  O
  O23      1.0000 0.72298  0.75831  0.00962  Biso   1.000  O
  O24      1.0000 0.72913  0.74408  0.25844  Biso   1.000  O
  Hf12     1.0000 0.63833  0.04200  0.64661  Biso   1.000  Hf
  Hf13     1.0000 0.63755  0.45622  0.89729  Biso   1.000  Hf
  Hf14     1.0000 0.86049  0.54338  0.60351  Biso   1.000  Hf
  Hf15     1.0000 0.86003  0.95682  0.85461  Biso   1.000  Hf
  O25      1.0000 0.53724  0.34138  0.58156  Biso   1.000  O
  O26      1.0000 0.53473  0.15691  0.83280  Biso   1.000  O
  O27      1.0000 0.96528  0.83235  0.67069  Biso   1.000  O
  O28      1.0000 0.96493  0.66169  0.92022  Biso   1.000  O
  O29      1.0000 0.77576  0.25761  0.74061  Biso   1.000  O
  O30      1.0000 0.77633  0.24366  0.99044  Biso   1.000  O
  O31      1.0000 0.72340  0.75863  0.50894  Biso   1.000  O
  O32      1.0000 0.72252  0.74152  0.75963  Biso   1.000  O
