data_image0
_cell_length_a       10.0103
_cell_length_b       10.2108
_cell_length_c       10.452
_cell_angle_alpha    89.9333
_cell_angle_beta     89.8883
_cell_angle_gamma    90.0132

_symmetry_space_group_name_H-M    "P 1"
_symmetry_int_tables_number       1

loop_
  _symmetry_equiv_pos_as_xyz
  'x, y, z'

loop_
  _atom_site_label
  _atom_site_occupancy
  _atom_site_fract_x
  _atom_site_fract_y
  _atom_site_fract_z
  _atom_site_thermal_displace_type
  _atom_site_B_iso_or_equiv
  _atom_site_type_symbol
  Os1      1.0000 0.14086  0.02085  0.17705  Biso   1.000  Os
  Hf1      1.0000 0.13971  0.22997  0.42061  Biso   1.000  Hf
  Hf2      1.0000 0.35969  0.26998  0.17246  Biso   1.000  Hf
  Hf3      1.0000 0.36121  0.47968  0.42168  Biso   1.000  Hf
  Hf4      1.0000 0.63840  0.02198  0.07752  Biso   1.000  Hf
  Hf5      1.0000 0.63824  0.22920  0.32830  Biso   1.000  Hf
  Hf6      1.0000 0.86408  0.26891  0.07981  Biso   1.000  Hf
  Hf7      1.0000 0.86084  0.47917  0.32807  Biso   1.000  Hf
  O1       1.0000 0.03238  0.16112  0.08289  Biso   1.000  O
  O2       1.0000 0.03620  0.08736  0.32437  Biso   1.000  O
  O3       1.0000 0.46644  0.41513  0.08490  Biso   1.000  O
  O4       1.0000 0.46537  0.33328  0.33485  Biso   1.000  O
  O5       1.0000 0.27780  0.12073  0.29573  Biso   1.000  O
  O6       1.0000 0.27154  0.11989  0.05294  Biso   1.000  O
  O7       1.0000 0.22349  0.37428  0.29501  Biso   1.000  O
  O8       1.0000 0.22418  0.37424  0.04531  Biso   1.000  O
  O9       1.0000 0.53260  0.16555  0.16676  Biso   1.000  O
  O10      1.0000 0.53328  0.08450  0.41687  Biso   1.000  O
  O11      1.0000 0.96724  0.41573  0.16673  Biso   1.000  O
  O12      1.0000 0.96730  0.33516  0.41620  Biso   1.000  O
  O13      1.0000 0.77802  0.12329  0.45343  Biso   1.000  O
  O14      1.0000 0.77551  0.12598  0.20467  Biso   1.000  O
  O15      1.0000 0.72326  0.37333  0.45549  Biso   1.000  O
  O16      1.0000 0.72366  0.37602  0.20545  Biso   1.000  O
  Hf8      1.0000 0.13876  0.02106  0.67127  Biso   1.000  Hf
  Hf9      1.0000 0.13677  0.22553  0.92401  Biso   1.000  Hf
  Hf10     1.0000 0.36105  0.27147  0.67247  Biso   1.000  Hf
  Hf11     1.0000 0.36095  0.47841  0.92205  Biso   1.000  Hf
  Hf12     1.0000 0.63874  0.02131  0.57832  Biso   1.000  Hf
  Hf13     1.0000 0.63890  0.22958  0.82880  Biso   1.000  Hf
  Hf14     1.0000 0.86142  0.27121  0.57799  Biso   1.000  Hf
  Hf15     1.0000 0.86132  0.47865  0.82944  Biso   1.000  Hf
  O17      1.0000 0.03155  0.16165  0.57812  Biso   1.000  O
  O18      1.0000 0.03110  0.08637  0.82949  Biso   1.000  O
  O19      1.0000 0.46637  0.41626  0.58437  Biso   1.000  O
  O20      1.0000 0.46694  0.33477  0.83420  Biso   1.000  O
  O21      1.0000 0.27649  0.12353  0.79787  Biso   1.000  O
  O22      1.0000 0.27697  0.12685  0.54566  Biso   1.000  O
  O23      1.0000 0.22328  0.37354  0.79548  Biso   1.000  O
  O24      1.0000 0.22318  0.37600  0.54480  Biso   1.000  O
  O25      1.0000 0.53300  0.16559  0.66680  Biso   1.000  O
  O26      1.0000 0.53074  0.08655  0.91777  Biso   1.000  O
  O27      1.0000 0.96777  0.41330  0.66772  Biso   1.000  O
  O28      1.0000 0.96800  0.33415  0.91782  Biso   1.000  O
  O29      1.0000 0.77522  0.12413  0.95394  Biso   1.000  O
  O30      1.0000 0.77635  0.12637  0.70407  Biso   1.000  O
  O31      1.0000 0.72416  0.37406  0.95547  Biso   1.000  O
  O32      1.0000 0.72354  0.37660  0.70524  Biso   1.000  O
  Hf16     1.0000 0.13903  0.52127  0.17142  Biso   1.000  Hf
  Hf17     1.0000 0.13794  0.72907  0.42130  Biso   1.000  Hf
  Hf18     1.0000 0.35885  0.77449  0.17093  Biso   1.000  Hf
  Hf19     1.0000 0.36128  0.97848  0.42204  Biso   1.000  Hf
  Hf20     1.0000 0.63855  0.52124  0.07909  Biso   1.000  Hf
  Hf21     1.0000 0.63820  0.72886  0.32755  Biso   1.000  Hf
  Hf22     1.0000 0.86378  0.77233  0.07782  Biso   1.000  Hf
  Hf23     1.0000 0.86131  0.98007  0.32685  Biso   1.000  Hf
  O33      1.0000 0.03298  0.66432  0.08278  Biso   1.000  O
  O34      1.0000 0.03258  0.58540  0.33267  Biso   1.000  O
  O35      1.0000 0.46826  0.91456  0.08250  Biso   1.000  O
  O36      1.0000 0.46613  0.83556  0.33289  Biso   1.000  O
  O37      1.0000 0.27640  0.62499  0.29535  Biso   1.000  O
  O38      1.0000 0.27666  0.62707  0.04506  Biso   1.000  O
  O39      1.0000 0.22003  0.87556  0.29308  Biso   1.000  O
  O40      1.0000 0.22058  0.87783  0.04491  Biso   1.000  O
  O41      1.0000 0.53235  0.66662  0.16607  Biso   1.000  O
  O42      1.0000 0.53335  0.58453  0.41618  Biso   1.000  O
  O43      1.0000 0.97540  0.91842  0.16471  Biso   1.000  O
  O44      1.0000 0.96755  0.83720  0.41613  Biso   1.000  O
  O45      1.0000 0.77623  0.62402  0.45481  Biso   1.000  O
  O46      1.0000 0.77636  0.62671  0.20493  Biso   1.000  O
  O47      1.0000 0.72317  0.87403  0.45401  Biso   1.000  O
  O48      1.0000 0.72876  0.87696  0.20455  Biso   1.000  O
  Hf24     1.0000 0.13883  0.52086  0.67225  Biso   1.000  Hf
  Hf25     1.0000 0.13907  0.72975  0.92165  Biso   1.000  Hf
  Hf26     1.0000 0.36137  0.77070  0.67158  Biso   1.000  Hf
  Hf27     1.0000 0.36037  0.97768  0.92245  Biso   1.000  Hf
  Hf28     1.0000 0.63890  0.52124  0.57908  Biso   1.000  Hf
  Hf29     1.0000 0.63891  0.72883  0.82927  Biso   1.000  Hf
  Hf30     1.0000 0.86074  0.77133  0.57788  Biso   1.000  Hf
  Hf31     1.0000 0.86077  0.97903  0.82777  Biso   1.000  Hf
  O49      1.0000 0.03197  0.66423  0.58229  Biso   1.000  O
  O50      1.0000 0.03271  0.58528  0.83333  Biso   1.000  O
  O51      1.0000 0.46721  0.91547  0.58447  Biso   1.000  O
  O52      1.0000 0.46638  0.83395  0.83444  Biso   1.000  O
  O53      1.0000 0.27669  0.62360  0.79535  Biso   1.000  O
  O54      1.0000 0.27632  0.62628  0.54535  Biso   1.000  O
  O55      1.0000 0.22351  0.87371  0.79432  Biso   1.000  O
  O56      1.0000 0.22379  0.87574  0.54458  Biso   1.000  O
  O57      1.0000 0.53362  0.66588  0.66643  Biso   1.000  O
  O58      1.0000 0.53370  0.58363  0.91625  Biso   1.000  O
  O59      1.0000 0.96752  0.91414  0.66634  Biso   1.000  O
  O60      1.0000 0.96709  0.83531  0.91613  Biso   1.000  O
  O61      1.0000 0.77743  0.62493  0.95593  Biso   1.000  O
  O62      1.0000 0.77686  0.62608  0.70548  Biso   1.000  O
  O63      1.0000 0.72330  0.87418  0.95477  Biso   1.000  O
  O64      1.0000 0.72336  0.87629  0.70468  Biso   1.000  O
