data_image0
_cell_length_a       5.0668
_cell_length_b       10.5683
_cell_length_c       10.1268
_cell_angle_alpha    89.4478
_cell_angle_beta     90.0923
_cell_angle_gamma    90.0647

_symmetry_space_group_name_H-M    "P 1"
_symmetry_int_tables_number       1

loop_
  _symmetry_equiv_pos_as_xyz
  'x, y, z'

loop_
  _atom_site_label
  _atom_site_occupancy
  _atom_site_fract_x
  _atom_site_fract_y
  _atom_site_fract_z
  _atom_site_thermal_displace_type
  _atom_site_B_iso_or_equiv
  _atom_site_type_symbol
  Zr1      1.0000 0.26121  0.01606  0.11531  Biso   1.000  Zr
  Zr2      1.0000 0.26240  0.22902  0.38516  Biso   1.000  Zr
  Zr3      1.0000 0.68894  0.24736  0.11899  Biso   1.000  Zr
  Zr4      1.0000 0.74114  0.48548  0.37627  Biso   1.000  Zr
  O1       1.0000 0.00258  0.17566  0.22703  Biso   1.000  O
  O2       1.0000 0.06862  0.06329  0.45353  Biso   1.000  O
  O3       1.0000 0.92630  0.44564  0.20149  Biso   1.000  O
  O4       1.0000 0.94234  0.32301  0.45455  Biso   1.000  O
  O5       1.0000 0.50382  0.10723  0.25070  Biso   1.000  O
  O6       1.0000 0.54687  0.13396  0.49756  Biso   1.000  O
  O7       1.0000 0.46961  0.38469  0.50089  Biso   1.000  O
  O8       1.0000 0.45443  0.35679  0.25315  Biso   1.000  O
  Zr5      1.0000 0.27460  0.01169  0.62429  Biso   1.000  Zr
  Zr6      1.0000 0.28264  0.22174  0.86735  Biso   1.000  Zr
  Zr7      1.0000 0.73993  0.26521  0.62576  Biso   1.000  Zr
  Zr8      1.0000 0.73542  0.48571  0.87461  Biso   1.000  Zr
  O9       1.0000 0.07279  0.17797  0.69162  Biso   1.000  O
  O10      1.0000 0.08821  0.05708  0.93291  Biso   1.000  O
  O11      1.0000 0.94348  0.42975  0.70453  Biso   1.000  O
  O12      1.0000 0.93806  0.30984  0.94923  Biso   1.000  O
  O13      1.0000 0.54690  0.11043  0.74323  Biso   1.000  O
  O14      1.0000 0.57811  0.11519  0.98684  Biso   1.000  O
  O15      1.0000 0.46412  0.39482  0.00023  Biso   1.000  O
  O16      1.0000 0.47632  0.36228  0.75042  Biso   1.000  O
  Zr9      1.0000 0.26210  0.54077  0.12250  Biso   1.000  Zr
  Zr10     1.0000 0.27267  0.73812  0.37717  Biso   1.000  Zr
  Zr11     1.0000 0.72790  0.76975  0.12623  Biso   1.000  Zr
  Zr12     1.0000 0.73628  0.98682  0.37131  Biso   1.000  Zr
  O17      1.0000 0.06459  0.69339  0.20170  Biso   1.000  O
  O18      1.0000 0.06415  0.57088  0.45093  Biso   1.000  O
  O19      1.0000 0.92628  0.93671  0.19137  Biso   1.000  O
  O20      1.0000 0.93410  0.81869  0.44345  Biso   1.000  O
  O21      1.0000 0.54027  0.62108  0.25114  Biso   1.000  O
  O22      1.0000 0.53609  0.63417  0.49915  Biso   1.000  O
  O23      1.0000 0.47070  0.88504  0.49654  Biso   1.000  O
  O24      1.0000 0.46282  0.86621  0.24772  Biso   1.000  O
  Zr13     1.0000 0.27125  0.51245  0.62512  Biso   1.000  Zr
  Zr14     1.0000 0.26905  0.73714  0.87003  Biso   1.000  Zr
  Zr15     1.0000 0.74383  0.76195  0.61982  Biso   1.000  Zr
  Zr16     1.0000 0.74414  0.97467  0.87000  Biso   1.000  Zr
  O25      1.0000 0.07339  0.67973  0.69464  Biso   1.000  O
  O26      1.0000 0.06448  0.57250  0.94546  Biso   1.000  O
  O27      1.0000 0.94860  0.92400  0.69510  Biso   1.000  O
  O28      1.0000 0.93899  0.81532  0.94856  Biso   1.000  O
  O29      1.0000 0.53998  0.61107  0.74791  Biso   1.000  O
  O30      1.0000 0.53951  0.64183  0.99496  Biso   1.000  O
  O31      1.0000 0.46262  0.88155  0.99669  Biso   1.000  O
  O32      1.0000 0.47883  0.86042  0.74484  Biso   1.000  O
  Os1      1.0000 0.18642  0.30493  0.10980  Biso   1.000  Os
