data_image0
_cell_length_a       10.0245
_cell_length_b       10.4043
_cell_length_c       10.051
_cell_angle_alpha    89.86
_cell_angle_beta     89.925
_cell_angle_gamma    90.0192

_symmetry_space_group_name_H-M    "P 1"
_symmetry_int_tables_number       1

loop_
  _symmetry_equiv_pos_as_xyz
  'x, y, z'

loop_
  _atom_site_label
  _atom_site_occupancy
  _atom_site_fract_x
  _atom_site_fract_y
  _atom_site_fract_z
  _atom_site_thermal_displace_type
  _atom_site_B_iso_or_equiv
  _atom_site_type_symbol
  Os1      1.0000 0.13758  0.02095  0.12026  Biso   1.000  Os
  Zr1      1.0000 0.13447  0.01552  0.62732  Biso   1.000  Zr
  Zr2      1.0000 0.13466  0.51565  0.12681  Biso   1.000  Zr
  Zr3      1.0000 0.13325  0.51564  0.62503  Biso   1.000  Zr
  Zr4      1.0000 0.63361  0.01555  0.12492  Biso   1.000  Zr
  Zr5      1.0000 0.63375  0.01524  0.62396  Biso   1.000  Zr
  Zr6      1.0000 0.63492  0.51650  0.12576  Biso   1.000  Zr
  Zr7      1.0000 0.63398  0.51605  0.62515  Biso   1.000  Zr
  Zr8      1.0000 0.13232  0.23251  0.37469  Biso   1.000  Zr
  Zr9      1.0000 0.13490  0.23418  0.87840  Biso   1.000  Zr
  Zr10     1.0000 0.13334  0.73642  0.37463  Biso   1.000  Zr
  Zr11     1.0000 0.13290  0.73342  0.87584  Biso   1.000  Zr
  Zr12     1.0000 0.63376  0.23452  0.37584  Biso   1.000  Zr
  Zr13     1.0000 0.63316  0.23377  0.87490  Biso   1.000  Zr
  Zr14     1.0000 0.63485  0.73561  0.37353  Biso   1.000  Zr
  Zr15     1.0000 0.63375  0.73391  0.87571  Biso   1.000  Zr
  Zr16     1.0000 0.36682  0.26671  0.12574  Biso   1.000  Zr
  Zr17     1.0000 0.36606  0.26608  0.62561  Biso   1.000  Zr
  Zr18     1.0000 0.36389  0.76807  0.12634  Biso   1.000  Zr
  Zr19     1.0000 0.36647  0.76553  0.62494  Biso   1.000  Zr
  Zr20     1.0000 0.86700  0.26341  0.12581  Biso   1.000  Zr
  Zr21     1.0000 0.86630  0.26445  0.62618  Biso   1.000  Zr
  Zr22     1.0000 0.87021  0.76767  0.12378  Biso   1.000  Zr
  Zr23     1.0000 0.86597  0.76635  0.62526  Biso   1.000  Zr
  Zr24     1.0000 0.36633  0.48511  0.37611  Biso   1.000  Zr
  Zr25     1.0000 0.36587  0.48471  0.87536  Biso   1.000  Zr
  Zr26     1.0000 0.36496  0.98491  0.37437  Biso   1.000  Zr
  Zr27     1.0000 0.36546  0.98243  0.87669  Biso   1.000  Zr
  Zr28     1.0000 0.86628  0.48433  0.37558  Biso   1.000  Zr
  Zr29     1.0000 0.86578  0.48388  0.87575  Biso   1.000  Zr
  Zr30     1.0000 0.87075  0.98619  0.37147  Biso   1.000  Zr
  Zr31     1.0000 0.86641  0.98431  0.87588  Biso   1.000  Zr
  O1       1.0000 0.03419  0.17565  0.19841  Biso   1.000  O
  O2       1.0000 0.03262  0.18013  0.70419  Biso   1.000  O
  O3       1.0000 0.03615  0.68135  0.19440  Biso   1.000  O
  O4       1.0000 0.03487  0.68314  0.69434  Biso   1.000  O
  O5       1.0000 0.53417  0.18329  0.19508  Biso   1.000  O
  O6       1.0000 0.53599  0.18424  0.69310  Biso   1.000  O
  O7       1.0000 0.53612  0.68486  0.19275  Biso   1.000  O
  O8       1.0000 0.53572  0.68414  0.69429  Biso   1.000  O
  O9       1.0000 0.03333  0.06840  0.45259  Biso   1.000  O
  O10      1.0000 0.03462  0.06556  0.96225  Biso   1.000  O
  O11      1.0000 0.03540  0.56723  0.44387  Biso   1.000  O
  O12      1.0000 0.03543  0.56509  0.94567  Biso   1.000  O
  O13      1.0000 0.53458  0.06669  0.44382  Biso   1.000  O
  O14      1.0000 0.53529  0.06539  0.94381  Biso   1.000  O
  O15      1.0000 0.53606  0.56740  0.44388  Biso   1.000  O
  O16      1.0000 0.53645  0.56481  0.94304  Biso   1.000  O
  O17      1.0000 0.46451  0.43434  0.19400  Biso   1.000  O
  O18      1.0000 0.46372  0.43423  0.69389  Biso   1.000  O
  O19      1.0000 0.46489  0.93316  0.19500  Biso   1.000  O
  O20      1.0000 0.46400  0.93382  0.69385  Biso   1.000  O
  O21      1.0000 0.96691  0.42949  0.19615  Biso   1.000  O
  O22      1.0000 0.96434  0.43268  0.69470  Biso   1.000  O
  O23      1.0000 0.97294  0.93288  0.19140  Biso   1.000  O
  O24      1.0000 0.96586  0.93298  0.69742  Biso   1.000  O
  O25      1.0000 0.46428  0.31714  0.44431  Biso   1.000  O
  O26      1.0000 0.46197  0.31422  0.94336  Biso   1.000  O
  O27      1.0000 0.46373  0.81656  0.44234  Biso   1.000  O
  O28      1.0000 0.46168  0.81507  0.94441  Biso   1.000  O
  O29      1.0000 0.96520  0.31649  0.44644  Biso   1.000  O
  O30      1.0000 0.96475  0.31515  0.94531  Biso   1.000  O
  O31      1.0000 0.96550  0.81756  0.44529  Biso   1.000  O
  O32      1.0000 0.96179  0.81492  0.94072  Biso   1.000  O
  O33      1.0000 0.26563  0.11572  0.24466  Biso   1.000  O
  O34      1.0000 0.26990  0.11743  0.75016  Biso   1.000  O
  O35      1.0000 0.27065  0.62006  0.24937  Biso   1.000  O
  O36      1.0000 0.26910  0.61661  0.74867  Biso   1.000  O
  O37      1.0000 0.76754  0.11711  0.24843  Biso   1.000  O
  O38      1.0000 0.76865  0.11605  0.74874  Biso   1.000  O
  O39      1.0000 0.77071  0.61727  0.24867  Biso   1.000  O
  O40      1.0000 0.76929  0.61695  0.74891  Biso   1.000  O
  O41      1.0000 0.26967  0.13342  0.49762  Biso   1.000  O
  O42      1.0000 0.27034  0.12719  0.00134  Biso   1.000  O
  O43      1.0000 0.26907  0.63366  0.49854  Biso   1.000  O
  O44      1.0000 0.27010  0.63254  0.99909  Biso   1.000  O
  O45      1.0000 0.76961  0.13368  0.49810  Biso   1.000  O
  O46      1.0000 0.76896  0.13286  0.99828  Biso   1.000  O
  O47      1.0000 0.76957  0.63382  0.49862  Biso   1.000  O
  O48      1.0000 0.77000  0.63282  0.99875  Biso   1.000  O
  O49      1.0000 0.23032  0.38317  0.49935  Biso   1.000  O
  O50      1.0000 0.22994  0.38174  0.99977  Biso   1.000  O
  O51      1.0000 0.23065  0.88353  0.49911  Biso   1.000  O
  O52      1.0000 0.22388  0.88297  0.00191  Biso   1.000  O
  O53      1.0000 0.73057  0.38328  0.49916  Biso   1.000  O
  O54      1.0000 0.73015  0.38198  0.99913  Biso   1.000  O
  O55      1.0000 0.73166  0.88440  0.49631  Biso   1.000  O
  O56      1.0000 0.72943  0.88332  0.99709  Biso   1.000  O
  O57      1.0000 0.23146  0.36738  0.24985  Biso   1.000  O
  O58      1.0000 0.22953  0.36627  0.75008  Biso   1.000  O
  O59      1.0000 0.22498  0.87453  0.24656  Biso   1.000  O
  O60      1.0000 0.23115  0.86609  0.74993  Biso   1.000  O
  O61      1.0000 0.73113  0.36690  0.24886  Biso   1.000  O
  O62      1.0000 0.73046  0.36652  0.74879  Biso   1.000  O
  O63      1.0000 0.73496  0.86804  0.24646  Biso   1.000  O
  O64      1.0000 0.73024  0.86729  0.74817  Biso   1.000  O
