data_image0
_cell_length_a       10.2597
_cell_length_b       10.3646
_cell_length_c       5.31347
_cell_angle_alpha    89.9295
_cell_angle_beta     79.8381
_cell_angle_gamma    90.9867

_symmetry_space_group_name_H-M    "P 1"
_symmetry_int_tables_number       1

loop_
  _symmetry_equiv_pos_as_xyz
  'x, y, z'

loop_
  _atom_site_label
  _atom_site_occupancy
  _atom_site_fract_x
  _atom_site_fract_y
  _atom_site_fract_z
  _atom_site_thermal_displace_type
  _atom_site_B_iso_or_equiv
  _atom_site_type_symbol
  Zr1      1.0000 0.13601  0.02195  0.29552  Biso   1.000  Zr
  Zr2      1.0000 0.13817  0.23712  0.78563  Biso   1.000  Zr
  Zr3      1.0000 0.35581  0.27833  0.19330  Biso   1.000  Zr
  Zr4      1.0000 0.34715  0.48492  0.70758  Biso   1.000  Zr
  O1       1.0000 0.04151  0.16820  0.15078  Biso   1.000  O
  O2       1.0000 0.03569  0.08615  0.64853  Biso   1.000  O
  O3       1.0000 0.47593  0.38274  0.40354  Biso   1.000  O
  O4       1.0000 0.48575  0.36710  0.88811  Biso   1.000  O
  O5       1.0000 0.28387  0.12945  0.47548  Biso   1.000  O
  O6       1.0000 0.28920  0.12361  0.95406  Biso   1.000  O
  O7       1.0000 0.21367  0.38798  0.02188  Biso   1.000  O
  O8       1.0000 0.20810  0.38237  0.49709  Biso   1.000  O
  Zr5      1.0000 0.13234  0.52748  0.28925  Biso   1.000  Zr
  Zr6      1.0000 0.13135  0.73203  0.79466  Biso   1.000  Zr
  Zr7      1.0000 0.35954  0.76867  0.20899  Biso   1.000  Zr
  Zr8      1.0000 0.36536  0.96627  0.70815  Biso   1.000  Zr
  O9       1.0000 0.02467  0.66952  0.15249  Biso   1.000  O
  O10      1.0000 0.02685  0.59157  0.65335  Biso   1.000  O
  O11      1.0000 0.46877  0.90725  0.34927  Biso   1.000  O
  O12      1.0000 0.46603  0.82883  0.85329  Biso   1.000  O
  O13      1.0000 0.27041  0.63071  0.48250  Biso   1.000  O
  O14      1.0000 0.26583  0.62773  0.98313  Biso   1.000  O
  O15      1.0000 0.22540  0.88101  0.02396  Biso   1.000  O
  O16      1.0000 0.22290  0.87150  0.52006  Biso   1.000  O
  Zr9      1.0000 0.64007  0.02082  0.28731  Biso   1.000  Zr
  Zr10     1.0000 0.64354  0.22853  0.80583  Biso   1.000  Zr
  Zr11     1.0000 0.86432  0.27204  0.21543  Biso   1.000  Zr
  Zr12     1.0000 0.85919  0.47821  0.71553  Biso   1.000  Zr
  O17      1.0000 0.53150  0.15952  0.14970  Biso   1.000  O
  O18      1.0000 0.54805  0.06474  0.66149  Biso   1.000  O
  O19      1.0000 0.96138  0.41926  0.34933  Biso   1.000  O
  O20      1.0000 0.96614  0.33813  0.84800  Biso   1.000  O
  O21      1.0000 0.77978  0.12842  0.47873  Biso   1.000  O
  O22      1.0000 0.77976  0.11954  0.98348  Biso   1.000  O
  O23      1.0000 0.72897  0.37604  0.03397  Biso   1.000  O
  O24      1.0000 0.72542  0.37128  0.53007  Biso   1.000  O
  Zr13     1.0000 0.63690  0.51850  0.29965  Biso   1.000  Zr
  Zr14     1.0000 0.63571  0.72273  0.79087  Biso   1.000  Zr
  Zr15     1.0000 0.85637  0.77285  0.20870  Biso   1.000  Zr
  Zr16     1.0000 0.85896  0.97963  0.70796  Biso   1.000  Zr
  O25      1.0000 0.52384  0.64818  0.14281  Biso   1.000  O
  O26      1.0000 0.52467  0.59264  0.63370  Biso   1.000  O
  O27      1.0000 0.96719  0.91676  0.34533  Biso   1.000  O
  O28      1.0000 0.96366  0.84009  0.84929  Biso   1.000  O
  O29      1.0000 0.77055  0.62568  0.48014  Biso   1.000  O
  O30      1.0000 0.77003  0.62103  0.98250  Biso   1.000  O
  O31      1.0000 0.72113  0.87655  0.01980  Biso   1.000  O
  O32      1.0000 0.72635  0.86800  0.51900  Biso   1.000  O
  Os1      1.0000 0.40752  0.23843  0.67077  Biso   1.000  Os
