data_image0
_cell_length_a       9.94111
_cell_length_b       10.3449
_cell_length_c       4.99549
_cell_angle_alpha    90.1407
_cell_angle_beta     89.1622
_cell_angle_gamma    89.8024

_symmetry_space_group_name_H-M    "P 1"
_symmetry_int_tables_number       1

loop_
  _symmetry_equiv_pos_as_xyz
  'x, y, z'

loop_
  _atom_site_label
  _atom_site_occupancy
  _atom_site_fract_x
  _atom_site_fract_y
  _atom_site_fract_z
  _atom_site_thermal_displace_type
  _atom_site_B_iso_or_equiv
  _atom_site_type_symbol
  P1       1.0000 0.09099  0.03259  0.21736  Biso   1.000  P
  Hf1      1.0000 0.14561  0.23435  0.75499  Biso   1.000  Hf
  Hf2      1.0000 0.36537  0.26343  0.25923  Biso   1.000  Hf
  Hf3      1.0000 0.36776  0.48456  0.75458  Biso   1.000  Hf
  O1       1.0000 0.04174  0.16809  0.37298  Biso   1.000  O
  O2       1.0000 0.03249  0.06334  0.92069  Biso   1.000  O
  O3       1.0000 0.46315  0.43410  0.38922  Biso   1.000  O
  O4       1.0000 0.46388  0.31596  0.88824  Biso   1.000  O
  O5       1.0000 0.28779  0.13109  0.53222  Biso   1.000  O
  O6       1.0000 0.25999  0.13116  0.02282  Biso   1.000  O
  O7       1.0000 0.23010  0.38109  0.00170  Biso   1.000  O
  O8       1.0000 0.22675  0.37042  0.50141  Biso   1.000  O
  Hf4      1.0000 0.13608  0.51789  0.25472  Biso   1.000  Hf
  Hf5      1.0000 0.13886  0.73536  0.76245  Biso   1.000  Hf
  Hf6      1.0000 0.36187  0.77126  0.26264  Biso   1.000  Hf
  Hf7      1.0000 0.35620  0.98309  0.76687  Biso   1.000  Hf
  O9       1.0000 0.03710  0.68605  0.38641  Biso   1.000  O
  O10      1.0000 0.03487  0.56487  0.89337  Biso   1.000  O
  O11      1.0000 0.46873  0.93331  0.40616  Biso   1.000  O
  O12      1.0000 0.46601  0.81881  0.90500  Biso   1.000  O
  O13      1.0000 0.26960  0.61615  0.50519  Biso   1.000  O
  O14      1.0000 0.27343  0.63077  0.00655  Biso   1.000  O
  O15      1.0000 0.22111  0.88037  0.02254  Biso   1.000  O
  O16      1.0000 0.23929  0.86229  0.53088  Biso   1.000  O
  Hf8      1.0000 0.62967  0.01579  0.24600  Biso   1.000  Hf
  Hf9      1.0000 0.63164  0.23236  0.74787  Biso   1.000  Hf
  Hf10     1.0000 0.86215  0.26726  0.24168  Biso   1.000  Hf
  Hf11     1.0000 0.86832  0.48219  0.74598  Biso   1.000  Hf
  O17      1.0000 0.54304  0.18763  0.37999  Biso   1.000  O
  O18      1.0000 0.53365  0.06720  0.89148  Biso   1.000  O
  O19      1.0000 0.96693  0.42614  0.38446  Biso   1.000  O
  O20      1.0000 0.96502  0.31109  0.87849  Biso   1.000  O
  O21      1.0000 0.77351  0.11609  0.48821  Biso   1.000  O
  O22      1.0000 0.77167  0.13067  0.98790  Biso   1.000  O
  O23      1.0000 0.73161  0.38116  0.99850  Biso   1.000  O
  O24      1.0000 0.72942  0.36771  0.49721  Biso   1.000  O
  Hf12     1.0000 0.63270  0.51739  0.25203  Biso   1.000  Hf
  Hf13     1.0000 0.63131  0.73484  0.74642  Biso   1.000  Hf
  Hf14     1.0000 0.87008  0.76151  0.23433  Biso   1.000  Hf
  Hf15     1.0000 0.86019  0.98285  0.74499  Biso   1.000  Hf
  O25      1.0000 0.53597  0.68422  0.39278  Biso   1.000  O
  O26      1.0000 0.53877  0.56553  0.88656  Biso   1.000  O
  O27      1.0000 0.97346  0.94329  0.34804  Biso   1.000  O
  O28      1.0000 0.96102  0.81741  0.86668  Biso   1.000  O
  O29      1.0000 0.77319  0.61522  0.49146  Biso   1.000  O
  O30      1.0000 0.76976  0.63341  0.99239  Biso   1.000  O
  O31      1.0000 0.72895  0.88338  0.99030  Biso   1.000  O
  O32      1.0000 0.74050  0.86634  0.48959  Biso   1.000  O
