data_image0
_cell_length_a       10.1123
_cell_length_b       5.10069
_cell_length_c       10.4818
_cell_angle_alpha    89.8938
_cell_angle_beta     80.6566
_cell_angle_gamma    89.4723

_symmetry_space_group_name_H-M    "P 1"
_symmetry_int_tables_number       1

loop_
  _symmetry_equiv_pos_as_xyz
  'x, y, z'

loop_
  _atom_site_label
  _atom_site_occupancy
  _atom_site_fract_x
  _atom_site_fract_y
  _atom_site_fract_z
  _atom_site_thermal_displace_type
  _atom_site_B_iso_or_equiv
  _atom_site_type_symbol
  P1       1.0000 0.09003  0.05720  0.16778  Biso   1.000  P
  Hf1      1.0000 0.14438  0.46380  0.39252  Biso   1.000  Hf
  Hf2      1.0000 0.35178  0.54850  0.10308  Biso   1.000  Hf
  Hf3      1.0000 0.35678  0.96059  0.34785  Biso   1.000  Hf
  O1       1.0000 0.03968  0.29602  0.08509  Biso   1.000  O
  O2       1.0000 0.03267  0.16591  0.31363  Biso   1.000  O
  O3       1.0000 0.46583  0.83102  0.17239  Biso   1.000  O
  O4       1.0000 0.46530  0.66905  0.42143  Biso   1.000  O
  O5       1.0000 0.27451  0.26815  0.24237  Biso   1.000  O
  O6       1.0000 0.27695  0.24266  0.48905  Biso   1.000  O
  O7       1.0000 0.22366  0.76056  0.00376  Biso   1.000  O
  O8       1.0000 0.22031  0.74587  0.25975  Biso   1.000  O
  Hf4      1.0000 0.14006  0.04245  0.64444  Biso   1.000  Hf
  Hf5      1.0000 0.14948  0.45892  0.89315  Biso   1.000  Hf
  Hf6      1.0000 0.36298  0.54561  0.60276  Biso   1.000  Hf
  Hf7      1.0000 0.35954  0.96220  0.85780  Biso   1.000  Hf
  O9       1.0000 0.03142  0.31556  0.56800  Biso   1.000  O
  O10      1.0000 0.03664  0.16936  0.82629  Biso   1.000  O
  O11      1.0000 0.46675  0.83216  0.67365  Biso   1.000  O
  O12      1.0000 0.47201  0.68453  0.92521  Biso   1.000  O
  O13      1.0000 0.27681  0.25636  0.73451  Biso   1.000  O
  O14      1.0000 0.29113  0.26879  0.97632  Biso   1.000  O
  O15      1.0000 0.22233  0.75627  0.50722  Biso   1.000  O
  O16      1.0000 0.22597  0.74085  0.75677  Biso   1.000  O
  Hf8      1.0000 0.63397  0.04443  0.14527  Biso   1.000  Hf
  Hf9      1.0000 0.63504  0.45397  0.39618  Biso   1.000  Hf
  Hf10     1.0000 0.85934  0.53518  0.10324  Biso   1.000  Hf
  Hf11     1.0000 0.85104  0.95182  0.36098  Biso   1.000  Hf
  O17      1.0000 0.53550  0.33860  0.07831  Biso   1.000  O
  O18      1.0000 0.53558  0.16190  0.32797  Biso   1.000  O
  O19      1.0000 0.97061  0.84702  0.17187  Biso   1.000  O
  O20      1.0000 0.96470  0.66803  0.42040  Biso   1.000  O
  O21      1.0000 0.77683  0.25216  0.24047  Biso   1.000  O
  O22      1.0000 0.77610  0.23853  0.49114  Biso   1.000  O
  O23      1.0000 0.72811  0.75867  0.01258  Biso   1.000  O
  O24      1.0000 0.73006  0.73658  0.25960  Biso   1.000  O
  Hf12     1.0000 0.63773  0.04107  0.65006  Biso   1.000  Hf
  Hf13     1.0000 0.63718  0.45990  0.89747  Biso   1.000  Hf
  Hf14     1.0000 0.86239  0.53792  0.60539  Biso   1.000  Hf
  Hf15     1.0000 0.86697  0.95427  0.85523  Biso   1.000  Hf
  O25      1.0000 0.53593  0.33286  0.57726  Biso   1.000  O
  O26      1.0000 0.53680  0.17146  0.82737  Biso   1.000  O
  O27      1.0000 0.96986  0.81839  0.67586  Biso   1.000  O
  O28      1.0000 0.96962  0.66035  0.93145  Biso   1.000  O
  O29      1.0000 0.77963  0.25460  0.74098  Biso   1.000  O
  O30      1.0000 0.78038  0.24485  0.99211  Biso   1.000  O
  O31      1.0000 0.72221  0.75292  0.51207  Biso   1.000  O
  O32      1.0000 0.72743  0.74211  0.76189  Biso   1.000  O
