data_image0
_cell_length_a       10.1222
_cell_length_b       10.3428
_cell_length_c       5.25781
_cell_angle_alpha    89.8979
_cell_angle_beta     90.161
_cell_angle_gamma    89.9727

_symmetry_space_group_name_H-M    "P 1"
_symmetry_int_tables_number       1

loop_
  _symmetry_equiv_pos_as_xyz
  'x, y, z'

loop_
  _atom_site_label
  _atom_site_occupancy
  _atom_site_fract_x
  _atom_site_fract_y
  _atom_site_fract_z
  _atom_site_thermal_displace_type
  _atom_site_B_iso_or_equiv
  _atom_site_type_symbol
  Pb1      1.0000 0.13620  0.01760  0.34024  Biso   1.000  Pb
  Zr1      1.0000 0.13866  0.52091  0.34048  Biso   1.000  Zr
  Zr2      1.0000 0.13958  0.23062  0.83976  Biso   1.000  Zr
  Zr3      1.0000 0.13777  0.72809  0.83994  Biso   1.000  Zr
  Zr4      1.0000 0.36152  0.27151  0.34047  Biso   1.000  Zr
  Zr5      1.0000 0.36337  0.76921  0.33864  Biso   1.000  Zr
  Zr6      1.0000 0.36134  0.47924  0.84072  Biso   1.000  Zr
  Zr7      1.0000 0.36434  0.97931  0.83945  Biso   1.000  Zr
  Zr8      1.0000 0.63898  0.02115  0.16256  Biso   1.000  Zr
  Zr9      1.0000 0.63883  0.52014  0.15702  Biso   1.000  Zr
  Zr10     1.0000 0.63843  0.22981  0.65903  Biso   1.000  Zr
  Zr11     1.0000 0.63906  0.72825  0.65811  Biso   1.000  Zr
  Zr12     1.0000 0.86059  0.27162  0.15940  Biso   1.000  Zr
  Zr13     1.0000 0.86011  0.76897  0.15731  Biso   1.000  Zr
  Zr14     1.0000 0.86169  0.47867  0.65741  Biso   1.000  Zr
  Zr15     1.0000 0.85763  0.97971  0.66622  Biso   1.000  Zr
  O1       1.0000 0.03546  0.17564  0.17103  Biso   1.000  O
  O2       1.0000 0.03405  0.66831  0.17021  Biso   1.000  O
  O3       1.0000 0.03048  0.08248  0.68494  Biso   1.000  O
  O4       1.0000 0.03376  0.58187  0.66931  Biso   1.000  O
  O5       1.0000 0.46748  0.41599  0.16713  Biso   1.000  O
  O6       1.0000 0.46786  0.91658  0.16989  Biso   1.000  O
  O7       1.0000 0.46702  0.33418  0.66753  Biso   1.000  O
  O8       1.0000 0.46720  0.83224  0.66827  Biso   1.000  O
  O9       1.0000 0.27954  0.12581  0.59371  Biso   1.000  O
  O10      1.0000 0.27559  0.62392  0.58748  Biso   1.000  O
  O11      1.0000 0.27923  0.12807  0.08285  Biso   1.000  O
  O12      1.0000 0.27546  0.62479  0.08757  Biso   1.000  O
  O13      1.0000 0.22461  0.37460  0.58708  Biso   1.000  O
  O14      1.0000 0.22713  0.87110  0.58636  Biso   1.000  O
  O15      1.0000 0.22503  0.37707  0.08750  Biso   1.000  O
  O16      1.0000 0.22846  0.87178  0.08050  Biso   1.000  O
  O17      1.0000 0.53376  0.16697  0.33171  Biso   1.000  O
  O18      1.0000 0.53404  0.66510  0.33146  Biso   1.000  O
  O19      1.0000 0.53519  0.08317  0.83179  Biso   1.000  O
  O20      1.0000 0.53287  0.58375  0.83188  Biso   1.000  O
  O21      1.0000 0.96539  0.41922  0.32847  Biso   1.000  O
  O22      1.0000 0.95516  0.91886  0.32686  Biso   1.000  O
  O23      1.0000 0.96571  0.33316  0.83037  Biso   1.000  O
  O24      1.0000 0.96554  0.83160  0.82825  Biso   1.000  O
  O25      1.0000 0.77506  0.12462  0.91560  Biso   1.000  O
  O26      1.0000 0.77539  0.62335  0.90943  Biso   1.000  O
  O27      1.0000 0.77524  0.12652  0.41534  Biso   1.000  O
  O28      1.0000 0.77543  0.62539  0.41002  Biso   1.000  O
  O29      1.0000 0.72420  0.37445  0.91067  Biso   1.000  O
  O30      1.0000 0.72311  0.87358  0.91425  Biso   1.000  O
  O31      1.0000 0.72441  0.37570  0.41090  Biso   1.000  O
  O32      1.0000 0.72301  0.87535  0.41489  Biso   1.000  O
