data_image0
_cell_length_a       10.016
_cell_length_b       10.2168
_cell_length_c       10.016
_cell_angle_alpha    89.9987
_cell_angle_beta     89.1284
_cell_angle_gamma    89.9966

_symmetry_space_group_name_H-M    "P 1"
_symmetry_int_tables_number       1

loop_
  _symmetry_equiv_pos_as_xyz
  'x, y, z'

loop_
  _atom_site_label
  _atom_site_occupancy
  _atom_site_fract_x
  _atom_site_fract_y
  _atom_site_fract_z
  _atom_site_thermal_displace_type
  _atom_site_B_iso_or_equiv
  _atom_site_type_symbol
  Pd1      1.0000 0.12508  0.96358  0.12513  Biso   1.000  Pd
  Hf1      1.0000 0.12509  0.99247  0.62513  Biso   1.000  Hf
  Hf2      1.0000 0.12511  0.50763  0.12516  Biso   1.000  Hf
  Hf3      1.0000 0.12509  0.49927  0.62517  Biso   1.000  Hf
  Hf4      1.0000 0.62509  0.99249  0.12515  Biso   1.000  Hf
  Hf5      1.0000 0.62509  0.00515  0.62513  Biso   1.000  Hf
  Hf6      1.0000 0.62511  0.49926  0.12514  Biso   1.000  Hf
  Hf7      1.0000 0.62509  0.49499  0.62514  Biso   1.000  Hf
  Hf8      1.0000 0.12884  0.25234  0.37125  Biso   1.000  Hf
  Hf9      1.0000 0.12139  0.25232  0.87912  Biso   1.000  Hf
  Hf10     1.0000 0.12892  0.74949  0.38092  Biso   1.000  Hf
  Hf11     1.0000 0.12125  0.74950  0.86939  Biso   1.000  Hf
  Hf12     1.0000 0.62912  0.24845  0.37198  Biso   1.000  Hf
  Hf13     1.0000 0.62107  0.24844  0.87833  Biso   1.000  Hf
  Hf14     1.0000 0.62723  0.74989  0.37916  Biso   1.000  Hf
  Hf15     1.0000 0.62295  0.74989  0.87114  Biso   1.000  Hf
  Hf16     1.0000 0.37118  0.25233  0.12890  Biso   1.000  Hf
  Hf17     1.0000 0.37193  0.24844  0.62918  Biso   1.000  Hf
  Hf18     1.0000 0.38087  0.74950  0.12899  Biso   1.000  Hf
  Hf19     1.0000 0.37909  0.74989  0.62730  Biso   1.000  Hf
  Hf20     1.0000 0.87906  0.25233  0.12145  Biso   1.000  Hf
  Hf21     1.0000 0.87828  0.24845  0.62113  Biso   1.000  Hf
  Hf22     1.0000 0.86932  0.74949  0.12131  Biso   1.000  Hf
  Hf23     1.0000 0.87107  0.74989  0.62302  Biso   1.000  Hf
  Hf24     1.0000 0.38127  0.00733  0.38133  Biso   1.000  Hf
  Hf25     1.0000 0.36740  0.00380  0.88283  Biso   1.000  Hf
  Hf26     1.0000 0.37640  0.49718  0.37646  Biso   1.000  Hf
  Hf27     1.0000 0.37588  0.49738  0.87436  Biso   1.000  Hf
  Hf28     1.0000 0.88278  0.00381  0.36744  Biso   1.000  Hf
  Hf29     1.0000 0.86889  0.00734  0.86893  Biso   1.000  Hf
  Hf30     1.0000 0.87431  0.49739  0.37594  Biso   1.000  Hf
  Hf31     1.0000 0.87378  0.49712  0.87384  Biso   1.000  Hf
  O1       1.0000 0.97152  0.16031  0.97158  Biso   1.000  O
  O2       1.0000 0.99745  0.14800  0.48383  Biso   1.000  O
  O3       1.0000 0.00413  0.65296  0.00420  Biso   1.000  O
  O4       1.0000 0.00093  0.64715  0.50383  Biso   1.000  O
  O5       1.0000 0.48377  0.14801  0.99749  Biso   1.000  O
  O6       1.0000 0.50324  0.15022  0.50329  Biso   1.000  O
  O7       1.0000 0.50377  0.64715  0.00100  Biso   1.000  O
  O8       1.0000 0.49967  0.64593  0.49973  Biso   1.000  O
  O9       1.0000 0.01844  0.09405  0.23172  Biso   1.000  O
  O10      1.0000 0.99458  0.10063  0.73245  Biso   1.000  O
  O11      1.0000 0.99700  0.60164  0.25337  Biso   1.000  O
  O12      1.0000 0.00199  0.60167  0.75455  Biso   1.000  O
  O13      1.0000 0.51773  0.10066  0.25560  Biso   1.000  O
  O14      1.0000 0.49752  0.10062  0.75268  Biso   1.000  O
  O15      1.0000 0.49579  0.60170  0.24830  Biso   1.000  O
  O16      1.0000 0.50073  0.60215  0.74955  Biso   1.000  O
  O17      1.0000 0.00019  0.34956  0.25009  Biso   1.000  O
  O18      1.0000 0.00064  0.35147  0.74869  Biso   1.000  O
  O19      1.0000 0.01125  0.84632  0.23898  Biso   1.000  O
  O20      1.0000 0.99523  0.85044  0.74623  Biso   1.000  O
  O21      1.0000 0.50159  0.35150  0.24960  Biso   1.000  O
  O22      1.0000 0.50045  0.35127  0.74978  Biso   1.000  O
  O23      1.0000 0.50400  0.85046  0.25501  Biso   1.000  O
  O24      1.0000 0.49231  0.85249  0.75792  Biso   1.000  O
  O25      1.0000 0.00148  0.40370  0.00154  Biso   1.000  O
  O26      1.0000 0.99944  0.39807  0.50082  Biso   1.000  O
  O27      1.0000 0.99192  0.90882  0.99195  Biso   1.000  O
  O28      1.0000 0.00695  0.89727  0.49170  Biso   1.000  O
  O29      1.0000 0.50076  0.39807  0.99949  Biso   1.000  O
  O30      1.0000 0.49989  0.39715  0.49993  Biso   1.000  O
  O31      1.0000 0.49165  0.89727  0.00702  Biso   1.000  O
  O32      1.0000 0.50526  0.89661  0.50534  Biso   1.000  O
  O33      1.0000 0.27860  0.16029  0.27867  Biso   1.000  O
  O34      1.0000 0.25270  0.14799  0.76642  Biso   1.000  O
  O35      1.0000 0.24616  0.65294  0.24621  Biso   1.000  O
  O36      1.0000 0.24929  0.64714  0.74655  Biso   1.000  O
  O37      1.0000 0.76635  0.14799  0.25274  Biso   1.000  O
  O38      1.0000 0.74691  0.15022  0.74695  Biso   1.000  O
  O39      1.0000 0.74650  0.64714  0.24936  Biso   1.000  O
  O40      1.0000 0.75054  0.64592  0.75061  Biso   1.000  O
  O41      1.0000 0.23168  0.09405  0.01850  Biso   1.000  O
  O42      1.0000 0.25555  0.10066  0.51780  Biso   1.000  O
  O43      1.0000 0.25330  0.60164  0.99704  Biso   1.000  O
  O44      1.0000 0.24823  0.60169  0.49584  Biso   1.000  O
  O45      1.0000 0.73239  0.10062  0.99462  Biso   1.000  O
  O46      1.0000 0.75263  0.10063  0.49756  Biso   1.000  O
  O47      1.0000 0.75449  0.60167  0.00206  Biso   1.000  O
  O48      1.0000 0.74948  0.60215  0.50079  Biso   1.000  O
  O49      1.0000 0.25002  0.34956  0.00026  Biso   1.000  O
  O50      1.0000 0.24955  0.35150  0.50165  Biso   1.000  O
  O51      1.0000 0.23894  0.84632  0.01131  Biso   1.000  O
  O52      1.0000 0.25494  0.85045  0.50406  Biso   1.000  O
  O53      1.0000 0.74863  0.35147  0.00069  Biso   1.000  O
  O54      1.0000 0.74974  0.35127  0.50050  Biso   1.000  O
  O55      1.0000 0.74618  0.85044  0.99530  Biso   1.000  O
  O56      1.0000 0.75784  0.85250  0.49240  Biso   1.000  O
  O57      1.0000 0.24874  0.40370  0.24880  Biso   1.000  O
  O58      1.0000 0.25075  0.39806  0.74954  Biso   1.000  O
  O59      1.0000 0.25826  0.90882  0.25832  Biso   1.000  O
  O60      1.0000 0.24322  0.89726  0.75858  Biso   1.000  O
  O61      1.0000 0.74948  0.39806  0.25081  Biso   1.000  O
  O62      1.0000 0.75031  0.39714  0.75036  Biso   1.000  O
  O63      1.0000 0.75852  0.89726  0.24329  Biso   1.000  O
  O64      1.0000 0.74489  0.89660  0.74497  Biso   1.000  O
