data_image0
_cell_length_a       10.1194
_cell_length_b       5.1057
_cell_length_c       10.4753
_cell_angle_alpha    89.9961
_cell_angle_beta     80.7254
_cell_angle_gamma    89.2988

_symmetry_space_group_name_H-M    "P 1"
_symmetry_int_tables_number       1

loop_
  _symmetry_equiv_pos_as_xyz
  'x, y, z'

loop_
  _atom_site_label
  _atom_site_occupancy
  _atom_site_fract_x
  _atom_site_fract_y
  _atom_site_fract_z
  _atom_site_thermal_displace_type
  _atom_site_B_iso_or_equiv
  _atom_site_type_symbol
  Pd1      1.0000 0.12564  0.02135  0.16814  Biso   1.000  Pd
  Hf1      1.0000 0.13860  0.03922  0.64445  Biso   1.000  Hf
  Hf2      1.0000 0.63656  0.03939  0.14427  Biso   1.000  Hf
  Hf3      1.0000 0.63843  0.04319  0.64777  Biso   1.000  Hf
  Hf4      1.0000 0.13804  0.45752  0.39497  Biso   1.000  Hf
  Hf5      1.0000 0.14188  0.45373  0.89485  Biso   1.000  Hf
  Hf6      1.0000 0.63693  0.45445  0.39557  Biso   1.000  Hf
  Hf7      1.0000 0.63900  0.46158  0.89727  Biso   1.000  Hf
  Hf8      1.0000 0.35709  0.54792  0.09904  Biso   1.000  Hf
  Hf9      1.0000 0.36168  0.54537  0.60462  Biso   1.000  Hf
  Hf10     1.0000 0.86557  0.52688  0.10515  Biso   1.000  Hf
  Hf11     1.0000 0.86037  0.54062  0.60605  Biso   1.000  Hf
  Hf12     1.0000 0.36137  0.95873  0.35131  Biso   1.000  Hf
  Hf13     1.0000 0.36160  0.97171  0.85532  Biso   1.000  Hf
  Hf14     1.0000 0.85437  0.95157  0.35673  Biso   1.000  Hf
  Hf15     1.0000 0.86456  0.95386  0.85658  Biso   1.000  Hf
  O1       1.0000 0.04332  0.31386  0.07977  Biso   1.000  O
  O2       1.0000 0.03226  0.32191  0.57223  Biso   1.000  O
  O3       1.0000 0.53466  0.33548  0.07744  Biso   1.000  O
  O4       1.0000 0.53495  0.33432  0.57708  Biso   1.000  O
  O5       1.0000 0.02885  0.17118  0.32706  Biso   1.000  O
  O6       1.0000 0.03571  0.16789  0.82600  Biso   1.000  O
  O7       1.0000 0.53365  0.16344  0.32807  Biso   1.000  O
  O8       1.0000 0.53720  0.17423  0.82579  Biso   1.000  O
  O9       1.0000 0.46462  0.83088  0.17332  Biso   1.000  O
  O10      1.0000 0.46596  0.83584  0.67162  Biso   1.000  O
  O11      1.0000 0.96053  0.83023  0.17421  Biso   1.000  O
  O12      1.0000 0.96816  0.82123  0.67611  Biso   1.000  O
  O13      1.0000 0.46362  0.66482  0.42098  Biso   1.000  O
  O14      1.0000 0.46977  0.68542  0.92404  Biso   1.000  O
  O15      1.0000 0.96498  0.67043  0.42480  Biso   1.000  O
  O16      1.0000 0.96757  0.66156  0.92858  Biso   1.000  O
  O17      1.0000 0.27091  0.25052  0.23279  Biso   1.000  O
  O18      1.0000 0.27438  0.25533  0.73261  Biso   1.000  O
  O19      1.0000 0.77368  0.25053  0.24083  Biso   1.000  O
  O20      1.0000 0.77865  0.25686  0.74084  Biso   1.000  O
  O21      1.0000 0.27653  0.24364  0.48570  Biso   1.000  O
  O22      1.0000 0.29491  0.28827  0.97013  Biso   1.000  O
  O23      1.0000 0.77605  0.23996  0.49080  Biso   1.000  O
  O24      1.0000 0.77767  0.24009  0.99103  Biso   1.000  O
  O25      1.0000 0.22380  0.79790  0.01385  Biso   1.000  O
  O26      1.0000 0.22267  0.75589  0.50795  Biso   1.000  O
  O27      1.0000 0.72667  0.75414  0.01173  Biso   1.000  O
  O28      1.0000 0.72163  0.75399  0.51090  Biso   1.000  O
  O29      1.0000 0.21735  0.74132  0.25871  Biso   1.000  O
  O30      1.0000 0.22634  0.74189  0.76139  Biso   1.000  O
  O31      1.0000 0.72549  0.73549  0.26018  Biso   1.000  O
  O32      1.0000 0.72577  0.74436  0.76139  Biso   1.000  O
