data_image0
_cell_length_a       5.05889
_cell_length_b       10.2148
_cell_length_c       10.4615
_cell_angle_alpha    90.0201
_cell_angle_beta     80.7873
_cell_angle_gamma    89.3221

_symmetry_space_group_name_H-M    "P 1"
_symmetry_int_tables_number       1

loop_
  _symmetry_equiv_pos_as_xyz
  'x, y, z'

loop_
  _atom_site_label
  _atom_site_occupancy
  _atom_site_fract_x
  _atom_site_fract_y
  _atom_site_fract_z
  _atom_site_thermal_displace_type
  _atom_site_B_iso_or_equiv
  _atom_site_type_symbol
  Pd1      1.0000 0.24709  0.00943  0.16848  Biso   1.000  Pd
  Hf1      1.0000 0.27459  0.02106  0.64425  Biso   1.000  Hf
  Hf2      1.0000 0.27531  0.52108  0.14470  Biso   1.000  Hf
  Hf3      1.0000 0.28054  0.52035  0.64847  Biso   1.000  Hf
  Hf4      1.0000 0.27937  0.23140  0.39241  Biso   1.000  Hf
  Hf5      1.0000 0.28971  0.22514  0.89707  Biso   1.000  Hf
  Hf6      1.0000 0.27011  0.72505  0.39812  Biso   1.000  Hf
  Hf7      1.0000 0.27426  0.73271  0.89643  Biso   1.000  Hf
  Hf8      1.0000 0.73066  0.26440  0.10272  Biso   1.000  Hf
  Hf9      1.0000 0.72399  0.27179  0.60395  Biso   1.000  Hf
  Hf10     1.0000 0.71378  0.77285  0.10116  Biso   1.000  Hf
  Hf11     1.0000 0.72019  0.77111  0.60666  Biso   1.000  Hf
  Hf12     1.0000 0.72248  0.47885  0.35278  Biso   1.000  Hf
  Hf13     1.0000 0.72944  0.47765  0.85712  Biso   1.000  Hf
  Hf14     1.0000 0.70759  0.97620  0.35491  Biso   1.000  Hf
  Hf15     1.0000 0.72442  0.98464  0.85439  Biso   1.000  Hf
  O1       1.0000 0.08943  0.15750  0.08061  Biso   1.000  O
  O2       1.0000 0.06922  0.16482  0.57192  Biso   1.000  O
  O3       1.0000 0.06896  0.67029  0.07916  Biso   1.000  O
  O4       1.0000 0.06752  0.66508  0.57906  Biso   1.000  O
  O5       1.0000 0.05495  0.08604  0.32694  Biso   1.000  O
  O6       1.0000 0.07789  0.08340  0.82495  Biso   1.000  O
  O7       1.0000 0.07047  0.58004  0.32925  Biso   1.000  O
  O8       1.0000 0.07212  0.58525  0.82922  Biso   1.000  O
  O9       1.0000 0.93416  0.41593  0.17240  Biso   1.000  O
  O10      1.0000 0.93683  0.41367  0.67528  Biso   1.000  O
  O11      1.0000 0.91335  0.91737  0.17248  Biso   1.000  O
  O12      1.0000 0.93021  0.91683  0.67070  Biso   1.000  O
  O13      1.0000 0.93048  0.33375  0.42226  Biso   1.000  O
  O14      1.0000 0.94982  0.33720  0.92904  Biso   1.000  O
  O15      1.0000 0.92512  0.83251  0.42175  Biso   1.000  O
  O16      1.0000 0.92053  0.83235  0.92110  Biso   1.000  O
  O17      1.0000 0.53735  0.12070  0.23312  Biso   1.000  O
  O18      1.0000 0.55361  0.12759  0.73257  Biso   1.000  O
  O19      1.0000 0.55023  0.63040  0.24075  Biso   1.000  O
  O20      1.0000 0.55395  0.62865  0.74157  Biso   1.000  O
  O21      1.0000 0.55404  0.12193  0.48477  Biso   1.000  O
  O22      1.0000 0.59535  0.13780  0.97222  Biso   1.000  O
  O23      1.0000 0.55220  0.61986  0.49181  Biso   1.000  O
  O24      1.0000 0.55160  0.62534  0.99011  Biso   1.000  O
  O25      1.0000 0.45788  0.38202  0.01092  Biso   1.000  O
  O26      1.0000 0.44562  0.37791  0.50927  Biso   1.000  O
  O27      1.0000 0.44138  0.89414  0.01355  Biso   1.000  O
  O28      1.0000 0.44291  0.87748  0.50905  Biso   1.000  O
  O29      1.0000 0.45526  0.36855  0.25871  Biso   1.000  O
  O30      1.0000 0.45595  0.37078  0.76124  Biso   1.000  O
  O31      1.0000 0.42999  0.86953  0.25982  Biso   1.000  O
  O32      1.0000 0.44809  0.87159  0.76076  Biso   1.000  O
