data_image0
_cell_length_a       10.1428
_cell_length_b       10.604
_cell_length_c       5.06593
_cell_angle_alpha    89.3374
_cell_angle_beta     89.0647
_cell_angle_gamma    90.0973

_symmetry_space_group_name_H-M    "P 1"
_symmetry_int_tables_number       1

loop_
  _symmetry_equiv_pos_as_xyz
  'x, y, z'

loop_
  _atom_site_label
  _atom_site_occupancy
  _atom_site_fract_x
  _atom_site_fract_y
  _atom_site_fract_z
  _atom_site_thermal_displace_type
  _atom_site_B_iso_or_equiv
  _atom_site_type_symbol
  Zr1      1.0000 0.13456  0.00430  0.23020  Biso   1.000  Zr
  Zr2      1.0000 0.13062  0.21057  0.71719  Biso   1.000  Zr
  Zr3      1.0000 0.37192  0.26616  0.26177  Biso   1.000  Zr
  Zr4      1.0000 0.37096  0.48948  0.75410  Biso   1.000  Zr
  O1       1.0000 0.01458  0.16268  0.39013  Biso   1.000  O
  O2       1.0000 0.02990  0.05705  0.89135  Biso   1.000  O
  O3       1.0000 0.47813  0.42630  0.42287  Biso   1.000  O
  O4       1.0000 0.47625  0.31967  0.92211  Biso   1.000  O
  O5       1.0000 0.26210  0.10112  0.47471  Biso   1.000  O
  O6       1.0000 0.27826  0.12749  0.97053  Biso   1.000  O
  O7       1.0000 0.26441  0.41664  0.07731  Biso   1.000  O
  O8       1.0000 0.25837  0.34827  0.58808  Biso   1.000  O
  Zr5      1.0000 0.12566  0.54031  0.23870  Biso   1.000  Zr
  Zr6      1.0000 0.13308  0.74231  0.74008  Biso   1.000  Zr
  Zr7      1.0000 0.37228  0.76278  0.24343  Biso   1.000  Zr
  Zr8      1.0000 0.37264  0.98487  0.74037  Biso   1.000  Zr
  O9       1.0000 0.02816  0.69073  0.39634  Biso   1.000  O
  O10      1.0000 0.03514  0.57032  0.88073  Biso   1.000  O
  O11      1.0000 0.46879  0.92739  0.38582  Biso   1.000  O
  O12      1.0000 0.47033  0.81942  0.89159  Biso   1.000  O
  O13      1.0000 0.26695  0.61414  0.49394  Biso   1.000  O
  O14      1.0000 0.26364  0.64971  0.98811  Biso   1.000  O
  O15      1.0000 0.23376  0.88577  0.97761  Biso   1.000  O
  O16      1.0000 0.23445  0.86038  0.47837  Biso   1.000  O
  Zr9      1.0000 0.63283  0.01398  0.24878  Biso   1.000  Zr
  Zr10     1.0000 0.62928  0.23382  0.75144  Biso   1.000  Zr
  Zr11     1.0000 0.85201  0.26495  0.24166  Biso   1.000  Zr
  Zr12     1.0000 0.86883  0.48247  0.74379  Biso   1.000  Zr
  O17      1.0000 0.52845  0.17286  0.41567  Biso   1.000  O
  O18      1.0000 0.53590  0.06523  0.89899  Biso   1.000  O
  O19      1.0000 0.95925  0.44005  0.37674  Biso   1.000  O
  O20      1.0000 0.95815  0.31275  0.85377  Biso   1.000  O
  O21      1.0000 0.76416  0.11330  0.49285  Biso   1.000  O
  O22      1.0000 0.76494  0.13549  0.99410  Biso   1.000  O
  O23      1.0000 0.73175  0.38613  0.99827  Biso   1.000  O
  O24      1.0000 0.73050  0.36344  0.49809  Biso   1.000  O
  Zr13     1.0000 0.63475  0.51463  0.25576  Biso   1.000  Zr
  Zr14     1.0000 0.63466  0.73181  0.75330  Biso   1.000  Zr
  Zr15     1.0000 0.86123  0.76652  0.24589  Biso   1.000  Zr
  Zr16     1.0000 0.86414  0.98251  0.73948  Biso   1.000  Zr
  O25      1.0000 0.53130  0.67814  0.40939  Biso   1.000  O
  O26      1.0000 0.53185  0.57217  0.91835  Biso   1.000  O
  O27      1.0000 0.96673  0.92683  0.39666  Biso   1.000  O
  O28      1.0000 0.96603  0.81762  0.89734  Biso   1.000  O
  O29      1.0000 0.76584  0.61464  0.49854  Biso   1.000  O
  O30      1.0000 0.76921  0.63473  0.99671  Biso   1.000  O
  O31      1.0000 0.73232  0.88430  0.99612  Biso   1.000  O
  O32      1.0000 0.73004  0.86444  0.49661  Biso   1.000  O
  Pd1      1.0000 0.11488  0.29843  0.18181  Biso   1.000  Pd
