data_image0
_cell_length_a       10.1822
_cell_length_b       10.3211
_cell_length_c       10.5074
_cell_angle_alpha    90.0382
_cell_angle_beta     80.6122
_cell_angle_gamma    89.6469

_symmetry_space_group_name_H-M    "P 1"
_symmetry_int_tables_number       1

loop_
  _symmetry_equiv_pos_as_xyz
  'x, y, z'

loop_
  _atom_site_label
  _atom_site_occupancy
  _atom_site_fract_x
  _atom_site_fract_y
  _atom_site_fract_z
  _atom_site_thermal_displace_type
  _atom_site_B_iso_or_equiv
  _atom_site_type_symbol
  Pd1      1.0000 0.12494  0.00937  0.16896  Biso   1.000  Pd
  Zr1      1.0000 0.13740  0.02076  0.64266  Biso   1.000  Zr
  Zr2      1.0000 0.13931  0.52310  0.14508  Biso   1.000  Zr
  Zr3      1.0000 0.14006  0.52077  0.64673  Biso   1.000  Zr
  Zr4      1.0000 0.63796  0.02188  0.14460  Biso   1.000  Zr
  Zr5      1.0000 0.63838  0.02177  0.64629  Biso   1.000  Zr
  Zr6      1.0000 0.63741  0.51942  0.14424  Biso   1.000  Zr
  Zr7      1.0000 0.63893  0.52117  0.64647  Biso   1.000  Zr
  Zr8      1.0000 0.14021  0.23098  0.39185  Biso   1.000  Zr
  Zr9      1.0000 0.14327  0.22380  0.89526  Biso   1.000  Zr
  Zr10     1.0000 0.13632  0.72680  0.39768  Biso   1.000  Zr
  Zr11     1.0000 0.13866  0.73230  0.89569  Biso   1.000  Zr
  Zr12     1.0000 0.63862  0.22906  0.39519  Biso   1.000  Zr
  Zr13     1.0000 0.64073  0.23029  0.89642  Biso   1.000  Zr
  Zr14     1.0000 0.63737  0.72697  0.39526  Biso   1.000  Zr
  Zr15     1.0000 0.63721  0.72923  0.89568  Biso   1.000  Zr
  Zr16     1.0000 0.35911  0.26923  0.10069  Biso   1.000  Zr
  Zr17     1.0000 0.36122  0.27181  0.60380  Biso   1.000  Zr
  Zr18     1.0000 0.35872  0.77571  0.10314  Biso   1.000  Zr
  Zr19     1.0000 0.36142  0.77225  0.60571  Biso   1.000  Zr
  Zr20     1.0000 0.86796  0.26611  0.10726  Biso   1.000  Zr
  Zr21     1.0000 0.86177  0.27134  0.60500  Biso   1.000  Zr
  Zr22     1.0000 0.85938  0.76892  0.10319  Biso   1.000  Zr
  Zr23     1.0000 0.85954  0.77032  0.60636  Biso   1.000  Zr
  Zr24     1.0000 0.36177  0.47917  0.35348  Biso   1.000  Zr
  Zr25     1.0000 0.36137  0.48001  0.85498  Biso   1.000  Zr
  Zr26     1.0000 0.36093  0.97904  0.35315  Biso   1.000  Zr
  Zr27     1.0000 0.36135  0.98447  0.85506  Biso   1.000  Zr
  Zr28     1.0000 0.86068  0.47835  0.35436  Biso   1.000  Zr
  Zr29     1.0000 0.86449  0.47645  0.85724  Biso   1.000  Zr
  Zr30     1.0000 0.85462  0.97580  0.35709  Biso   1.000  Zr
  Zr31     1.0000 0.86175  0.97937  0.85469  Biso   1.000  Zr
  O1       1.0000 0.04383  0.15586  0.08179  Biso   1.000  O
  O2       1.0000 0.03413  0.16494  0.57275  Biso   1.000  O
  O3       1.0000 0.03526  0.66987  0.07994  Biso   1.000  O
  O4       1.0000 0.03360  0.66592  0.58004  Biso   1.000  O
  O5       1.0000 0.53614  0.16919  0.07949  Biso   1.000  O
  O6       1.0000 0.53564  0.16934  0.57916  Biso   1.000  O
  O7       1.0000 0.53424  0.66930  0.07931  Biso   1.000  O
  O8       1.0000 0.53521  0.66840  0.57918  Biso   1.000  O
  O9       1.0000 0.03071  0.08345  0.32791  Biso   1.000  O
  O10      1.0000 0.03478  0.08259  0.82582  Biso   1.000  O
  O11      1.0000 0.03483  0.58105  0.32983  Biso   1.000  O
  O12      1.0000 0.03661  0.58248  0.83113  Biso   1.000  O
  O13      1.0000 0.53354  0.08195  0.32957  Biso   1.000  O
  O14      1.0000 0.53922  0.08183  0.82932  Biso   1.000  O
  O15      1.0000 0.53592  0.57949  0.32973  Biso   1.000  O
  O16      1.0000 0.53435  0.58412  0.82812  Biso   1.000  O
  O17      1.0000 0.46453  0.41834  0.17011  Biso   1.000  O
  O18      1.0000 0.46520  0.41854  0.67058  Biso   1.000  O
  O19      1.0000 0.46399  0.91796  0.17183  Biso   1.000  O
  O20      1.0000 0.46494  0.91995  0.66937  Biso   1.000  O
  O21      1.0000 0.96768  0.41648  0.17197  Biso   1.000  O
  O22      1.0000 0.96800  0.41436  0.67433  Biso   1.000  O
  O23      1.0000 0.95905  0.91759  0.17135  Biso   1.000  O
  O24      1.0000 0.96452  0.91635  0.67102  Biso   1.000  O
  O25      1.0000 0.46474  0.33179  0.42013  Biso   1.000  O
  O26      1.0000 0.47092  0.33867  0.92192  Biso   1.000  O
  O27      1.0000 0.46328  0.83033  0.41934  Biso   1.000  O
  O28      1.0000 0.46106  0.83212  0.92022  Biso   1.000  O
  O29      1.0000 0.96528  0.33230  0.42124  Biso   1.000  O
  O30      1.0000 0.96907  0.32969  0.92721  Biso   1.000  O
  O31      1.0000 0.96360  0.83253  0.42250  Biso   1.000  O
  O32      1.0000 0.96310  0.83091  0.92072  Biso   1.000  O
  O33      1.0000 0.26977  0.12152  0.23154  Biso   1.000  O
  O34      1.0000 0.27432  0.12707  0.73305  Biso   1.000  O
  O35      1.0000 0.27542  0.63177  0.24124  Biso   1.000  O
  O36      1.0000 0.27563  0.62966  0.74057  Biso   1.000  O
  O37      1.0000 0.77426  0.12666  0.24158  Biso   1.000  O
  O38      1.0000 0.77762  0.12962  0.73996  Biso   1.000  O
  O39      1.0000 0.77516  0.62746  0.24003  Biso   1.000  O
  O40      1.0000 0.77632  0.62803  0.74171  Biso   1.000  O
  O41      1.0000 0.27634  0.12280  0.48468  Biso   1.000  O
  O42      1.0000 0.29530  0.13864  0.97105  Biso   1.000  O
  O43      1.0000 0.27563  0.62069  0.49148  Biso   1.000  O
  O44      1.0000 0.27554  0.62630  0.99046  Biso   1.000  O
  O45      1.0000 0.77598  0.12026  0.49057  Biso   1.000  O
  O46      1.0000 0.77745  0.12088  0.99141  Biso   1.000  O
  O47      1.0000 0.77565  0.62049  0.49089  Biso   1.000  O
  O48      1.0000 0.77548  0.62056  0.99037  Biso   1.000  O
  O49      1.0000 0.22481  0.38349  0.00878  Biso   1.000  O
  O50      1.0000 0.22329  0.37867  0.50832  Biso   1.000  O
  O51      1.0000 0.22223  0.89499  0.01447  Biso   1.000  O
  O52      1.0000 0.22411  0.87858  0.50861  Biso   1.000  O
  O53      1.0000 0.72885  0.37708  0.01139  Biso   1.000  O
  O54      1.0000 0.72442  0.37810  0.51012  Biso   1.000  O
  O55      1.0000 0.72230  0.87902  0.00948  Biso   1.000  O
  O56      1.0000 0.72163  0.87750  0.51013  Biso   1.000  O
  O57      1.0000 0.22611  0.37022  0.25834  Biso   1.000  O
  O58      1.0000 0.22630  0.37014  0.75965  Biso   1.000  O
  O59      1.0000 0.21525  0.87147  0.25945  Biso   1.000  O
  O60      1.0000 0.22444  0.87194  0.76052  Biso   1.000  O
  O61      1.0000 0.72658  0.36916  0.25952  Biso   1.000  O
  O62      1.0000 0.72640  0.37229  0.76082  Biso   1.000  O
  O63      1.0000 0.72373  0.86993  0.25966  Biso   1.000  O
  O64      1.0000 0.72388  0.87130  0.76000  Biso   1.000  O
