data_image0
_cell_length_a       10.3104
_cell_length_b       5.32433
_cell_length_c       10.3929
_cell_angle_alpha    92.3067
_cell_angle_beta     88.9824
_cell_angle_gamma    100.857

_symmetry_space_group_name_H-M    "P 1"
_symmetry_int_tables_number       1

loop_
  _symmetry_equiv_pos_as_xyz
  'x, y, z'

loop_
  _atom_site_label
  _atom_site_occupancy
  _atom_site_fract_x
  _atom_site_fract_y
  _atom_site_fract_z
  _atom_site_thermal_displace_type
  _atom_site_B_iso_or_equiv
  _atom_site_type_symbol
  Hf1      1.0000 0.11179  0.03177  0.16432  Biso   1.000  Hf
  Hf2      1.0000 0.09260  0.55629  0.36328  Biso   1.000  Hf
  Hf3      1.0000 0.38851  0.48947  0.10162  Biso   1.000  Hf
  Hf4      1.0000 0.38151  0.99523  0.39938  Biso   1.000  Hf
  O1       1.0000 0.96443  0.42896  0.94078  Biso   1.000  O
  O2       1.0000 0.98742  0.21679  0.27311  Biso   1.000  O
  O3       1.0000 0.95950  0.73025  0.26595  Biso   1.000  O
  O4       1.0000 0.96842  0.91208  0.03303  Biso   1.000  O
  O5       1.0000 0.21914  0.41696  0.22335  Biso   1.000  O
  O6       1.0000 0.26564  0.11410  0.02975  Biso   1.000  O
  O7       1.0000 0.29703  0.60382  0.94929  Biso   1.000  O
  O8       1.0000 0.21592  0.89244  0.29186  Biso   1.000  O
  Hf5      1.0000 0.15421  0.93531  0.64402  Biso   1.000  Hf
  Hf6      1.0000 0.14330  0.44354  0.82910  Biso   1.000  Hf
  Hf7      1.0000 0.37119  0.48928  0.60263  Biso   1.000  Hf
  Hf8      1.0000 0.38402  0.96816  0.89962  Biso   1.000  Hf
  O9       1.0000 0.99290  0.32035  0.49973  Biso   1.000  O
  O10      1.0000 0.03554  0.08978  0.77625  Biso   1.000  O
  O11      1.0000 0.03769  0.60326  0.71117  Biso   1.000  O
  O12      1.0000 0.00229  0.81170  0.50604  Biso   1.000  O
  O13      1.0000 0.28172  0.24600  0.74801  Biso   1.000  O
  O14      1.0000 0.25611  0.17303  0.51050  Biso   1.000  O
  O15      1.0000 0.24898  0.67640  0.49637  Biso   1.000  O
  O16      1.0000 0.28357  0.75493  0.73733  Biso   1.000  O
  Hf9      1.0000 0.60928  0.06464  0.15386  Biso   1.000  Hf
  Hf10     1.0000 0.59643  0.56824  0.35712  Biso   1.000  Hf
  Hf11     1.0000 0.85185  0.56378  0.09964  Biso   1.000  Hf
  Hf12     1.0000 0.87997  0.99907  0.40395  Biso   1.000  Hf
  O17      1.0000 0.50890  0.31173  0.99119  Biso   1.000  O
  O18      1.0000 0.46776  0.24237  0.24632  Biso   1.000  O
  O19      1.0000 0.46855  0.74376  0.25902  Biso   1.000  O
  O20      1.0000 0.50072  0.82721  0.02388  Biso   1.000  O
  O21      1.0000 0.71345  0.41242  0.23234  Biso   1.000  O
  O22      1.0000 0.74410  0.21143  0.01072  Biso   1.000  O
  O23      1.0000 0.73782  0.71103  0.97969  Biso   1.000  O
  O24      1.0000 0.71970  0.90472  0.27297  Biso   1.000  O
  Hf13     1.0000 0.65150  0.92807  0.64594  Biso   1.000  Hf
  Hf14     1.0000 0.64402  0.43987  0.84863  Biso   1.000  Hf
  Hf15     1.0000 0.86756  0.49796  0.60384  Biso   1.000  Hf
  Hf16     1.0000 0.86472  0.02549  0.89231  Biso   1.000  Hf
  O25      1.0000 0.49628  0.32119  0.48577  Biso   1.000  O
  O26      1.0000 0.53747  0.08728  0.77288  Biso   1.000  O
  O27      1.0000 0.53483  0.58865  0.72547  Biso   1.000  O
  O28      1.0000 0.50315  0.81108  0.50857  Biso   1.000  O
  O29      1.0000 0.78149  0.25756  0.75443  Biso   1.000  O
  O30      1.0000 0.75173  0.17208  0.51659  Biso   1.000  O
  O31      1.0000 0.74432  0.67949  0.49575  Biso   1.000  O
  O32      1.0000 0.78487  0.75845  0.74316  Biso   1.000  O
  Pt1      1.0000 0.09656  0.48527  0.07767  Biso   1.000  Pt
