data_image0
_cell_length_a       10.1143
_cell_length_b       10.2483
_cell_length_c       10.4588
_cell_angle_alpha    90.0188
_cell_angle_beta     80.5559
_cell_angle_gamma    89.665

_symmetry_space_group_name_H-M    "P 1"
_symmetry_int_tables_number       1

loop_
  _symmetry_equiv_pos_as_xyz
  'x, y, z'

loop_
  _atom_site_label
  _atom_site_occupancy
  _atom_site_fract_x
  _atom_site_fract_y
  _atom_site_fract_z
  _atom_site_thermal_displace_type
  _atom_site_B_iso_or_equiv
  _atom_site_type_symbol
  Pt1      1.0000 0.12497  0.00893  0.16894  Biso   1.000  Pt
  Hf1      1.0000 0.13984  0.23135  0.39335  Biso   1.000  Hf
  Hf2      1.0000 0.35930  0.26932  0.09999  Biso   1.000  Hf
  Hf3      1.0000 0.36165  0.47885  0.35289  Biso   1.000  Hf
  O1       1.0000 0.04338  0.15693  0.08099  Biso   1.000  O
  O2       1.0000 0.02871  0.08616  0.32886  Biso   1.000  O
  O3       1.0000 0.46413  0.41824  0.17013  Biso   1.000  O
  O4       1.0000 0.46429  0.33148  0.42009  Biso   1.000  O
  O5       1.0000 0.27162  0.12146  0.23146  Biso   1.000  O
  O6       1.0000 0.27691  0.12247  0.48464  Biso   1.000  O
  O7       1.0000 0.22404  0.38383  0.00879  Biso   1.000  O
  O8       1.0000 0.22528  0.36964  0.25843  Biso   1.000  O
  Hf4      1.0000 0.13752  0.02077  0.64330  Biso   1.000  Hf
  Hf5      1.0000 0.14305  0.22401  0.89531  Biso   1.000  Hf
  Hf6      1.0000 0.36125  0.27185  0.60334  Biso   1.000  Hf
  Hf7      1.0000 0.36136  0.47991  0.85457  Biso   1.000  Hf
  O9       1.0000 0.03498  0.16629  0.57444  Biso   1.000  O
  O10      1.0000 0.03554  0.08181  0.82646  Biso   1.000  O
  O11      1.0000 0.46478  0.41851  0.67072  Biso   1.000  O
  O12      1.0000 0.47091  0.33895  0.92210  Biso   1.000  O
  O13      1.0000 0.27505  0.12723  0.73274  Biso   1.000  O
  O14      1.0000 0.29641  0.13913  0.97000  Biso   1.000  O
  O15      1.0000 0.22263  0.37901  0.50861  Biso   1.000  O
  O16      1.0000 0.22560  0.36999  0.75972  Biso   1.000  O
  Hf8      1.0000 0.13928  0.52312  0.14559  Biso   1.000  Hf
  Hf9      1.0000 0.13667  0.72627  0.39838  Biso   1.000  Hf
  Hf10     1.0000 0.36000  0.77487  0.10258  Biso   1.000  Hf
  Hf11     1.0000 0.36174  0.97876  0.35312  Biso   1.000  Hf
  O17      1.0000 0.03559  0.67023  0.08005  Biso   1.000  O
  O18      1.0000 0.03513  0.58102  0.32982  Biso   1.000  O
  O19      1.0000 0.46379  0.91811  0.17184  Biso   1.000  O
  O20      1.0000 0.46300  0.82995  0.41970  Biso   1.000  O
  O21      1.0000 0.27634  0.63122  0.24113  Biso   1.000  O
  O22      1.0000 0.27641  0.62029  0.49153  Biso   1.000  O
  O23      1.0000 0.22262  0.89489  0.01419  Biso   1.000  O
  O24      1.0000 0.21599  0.86965  0.25996  Biso   1.000  O
  Hf12     1.0000 0.14005  0.52084  0.64733  Biso   1.000  Hf
  Hf13     1.0000 0.13850  0.73198  0.89627  Biso   1.000  Hf
  Hf14     1.0000 0.36138  0.77223  0.60543  Biso   1.000  Hf
  Hf15     1.0000 0.36165  0.98446  0.85430  Biso   1.000  Hf
  O25      1.0000 0.03405  0.66633  0.58015  Biso   1.000  O
  O26      1.0000 0.03700  0.58242  0.83114  Biso   1.000  O
  O27      1.0000 0.46486  0.91990  0.66940  Biso   1.000  O
  O28      1.0000 0.46141  0.83222  0.92020  Biso   1.000  O
  O29      1.0000 0.27625  0.62985  0.74059  Biso   1.000  O
  O30      1.0000 0.27631  0.62609  0.99037  Biso   1.000  O
  O31      1.0000 0.22363  0.87871  0.50891  Biso   1.000  O
  O32      1.0000 0.22399  0.87171  0.76074  Biso   1.000  O
  Hf16     1.0000 0.63819  0.02168  0.14507  Biso   1.000  Hf
  Hf17     1.0000 0.63866  0.22903  0.39579  Biso   1.000  Hf
  Hf18     1.0000 0.86764  0.26643  0.10650  Biso   1.000  Hf
  Hf19     1.0000 0.86068  0.47832  0.35395  Biso   1.000  Hf
  O33      1.0000 0.53649  0.16917  0.07944  Biso   1.000  O
  O34      1.0000 0.53434  0.08153  0.32979  Biso   1.000  O
  O35      1.0000 0.96716  0.41675  0.17208  Biso   1.000  O
  O36      1.0000 0.96496  0.33309  0.42223  Biso   1.000  O
  O37      1.0000 0.77477  0.12691  0.24156  Biso   1.000  O
  O38      1.0000 0.77650  0.12028  0.49082  Biso   1.000  O
  O39      1.0000 0.72803  0.37714  0.01143  Biso   1.000  O
  O40      1.0000 0.72572  0.36902  0.25962  Biso   1.000  O
  Hf20     1.0000 0.63856  0.02194  0.64671  Biso   1.000  Hf
  Hf21     1.0000 0.64067  0.23012  0.89697  Biso   1.000  Hf
  Hf22     1.0000 0.86172  0.27166  0.60483  Biso   1.000  Hf
  Hf23     1.0000 0.86434  0.47649  0.85657  Biso   1.000  Hf
  O41      1.0000 0.53586  0.16931  0.57917  Biso   1.000  O
  O42      1.0000 0.53968  0.08177  0.82902  Biso   1.000  O
  O43      1.0000 0.96735  0.41520  0.67420  Biso   1.000  O
  O44      1.0000 0.96851  0.32992  0.92661  Biso   1.000  O
  O45      1.0000 0.77835  0.12983  0.74003  Biso   1.000  O
  O46      1.0000 0.77808  0.12052  0.99133  Biso   1.000  O
  O47      1.0000 0.72348  0.37842  0.51015  Biso   1.000  O
  O48      1.0000 0.72563  0.37207  0.76085  Biso   1.000  O
  Hf24     1.0000 0.63752  0.51903  0.14481  Biso   1.000  Hf
  Hf25     1.0000 0.63731  0.72658  0.39572  Biso   1.000  Hf
  Hf26     1.0000 0.85835  0.76838  0.10254  Biso   1.000  Hf
  Hf27     1.0000 0.85383  0.97578  0.35685  Biso   1.000  Hf
  O49      1.0000 0.53498  0.66910  0.07912  Biso   1.000  O
  O50      1.0000 0.53609  0.57930  0.32954  Biso   1.000  O
  O51      1.0000 0.95613  0.91737  0.17062  Biso   1.000  O
  O52      1.0000 0.96392  0.83301  0.42195  Biso   1.000  O
  O53      1.0000 0.77565  0.62736  0.23992  Biso   1.000  O
  O54      1.0000 0.77646  0.62047  0.49068  Biso   1.000  O
  O55      1.0000 0.72134  0.87910  0.00924  Biso   1.000  O
  O56      1.0000 0.72189  0.86928  0.25991  Biso   1.000  O
  Hf28     1.0000 0.63890  0.52121  0.64689  Biso   1.000  Hf
  Hf29     1.0000 0.63746  0.72920  0.89563  Biso   1.000  Hf
  Hf30     1.0000 0.85974  0.77054  0.60556  Biso   1.000  Hf
  Hf31     1.0000 0.86174  0.97926  0.85418  Biso   1.000  Hf
  O57      1.0000 0.53556  0.66836  0.57920  Biso   1.000  O
  O58      1.0000 0.53466  0.58404  0.82796  Biso   1.000  O
  O59      1.0000 0.96407  0.91687  0.67080  Biso   1.000  O
  O60      1.0000 0.96267  0.83071  0.92063  Biso   1.000  O
  O61      1.0000 0.77706  0.62835  0.74132  Biso   1.000  O
  O62      1.0000 0.77588  0.62003  0.98999  Biso   1.000  O
  O63      1.0000 0.72118  0.87783  0.50994  Biso   1.000  O
  O64      1.0000 0.72342  0.87103  0.75970  Biso   1.000  O
