data_image0
_cell_length_a       10.0254
_cell_length_b       10.4363
_cell_length_c       10.0705
_cell_angle_alpha    90.2049
_cell_angle_beta     89.555
_cell_angle_gamma    90.1824

_symmetry_space_group_name_H-M    "P 1"
_symmetry_int_tables_number       1

loop_
  _symmetry_equiv_pos_as_xyz
  'x, y, z'

loop_
  _atom_site_label
  _atom_site_occupancy
  _atom_site_fract_x
  _atom_site_fract_y
  _atom_site_fract_z
  _atom_site_thermal_displace_type
  _atom_site_B_iso_or_equiv
  _atom_site_type_symbol
  Pt1      1.0000 0.12652  0.04120  0.10141  Biso   1.000  Pt
  Zr1      1.0000 0.13494  0.23072  0.37604  Biso   1.000  Zr
  Zr2      1.0000 0.36914  0.26675  0.12582  Biso   1.000  Zr
  Zr3      1.0000 0.36712  0.48343  0.37619  Biso   1.000  Zr
  O1       1.0000 0.03537  0.18771  0.18809  Biso   1.000  O
  O2       1.0000 0.03602  0.06682  0.44935  Biso   1.000  O
  O3       1.0000 0.46601  0.43265  0.19427  Biso   1.000  O
  O4       1.0000 0.46537  0.31674  0.44580  Biso   1.000  O
  O5       1.0000 0.25675  0.10195  0.24789  Biso   1.000  O
  O6       1.0000 0.27174  0.13239  0.49796  Biso   1.000  O
  O7       1.0000 0.22983  0.38169  0.49906  Biso   1.000  O
  O8       1.0000 0.23299  0.36063  0.24908  Biso   1.000  O
  Zr4      1.0000 0.13463  0.01624  0.62877  Biso   1.000  Zr
  Zr5      1.0000 0.13135  0.24014  0.87175  Biso   1.000  Zr
  Zr6      1.0000 0.36668  0.26536  0.62534  Biso   1.000  Zr
  Zr7      1.0000 0.36603  0.48693  0.87550  Biso   1.000  Zr
  O9       1.0000 0.03534  0.18562  0.69425  Biso   1.000  O
  O10      1.0000 0.03502  0.06075  0.92843  Biso   1.000  O
  O11      1.0000 0.46456  0.43338  0.69595  Biso   1.000  O
  O12      1.0000 0.46213  0.31577  0.94408  Biso   1.000  O
  O13      1.0000 0.27062  0.11892  0.75042  Biso   1.000  O
  O14      1.0000 0.26519  0.13664  0.99890  Biso   1.000  O
  O15      1.0000 0.23048  0.38529  0.99818  Biso   1.000  O
  O16      1.0000 0.23015  0.36856  0.74835  Biso   1.000  O
  Zr8      1.0000 0.13301  0.51373  0.12552  Biso   1.000  Zr
  Zr9      1.0000 0.13616  0.73274  0.37640  Biso   1.000  Zr
  Zr10     1.0000 0.36710  0.76313  0.12777  Biso   1.000  Zr
  Zr11     1.0000 0.36387  0.97959  0.37459  Biso   1.000  Zr
  O17      1.0000 0.03768  0.68362  0.19417  Biso   1.000  O
  O18      1.0000 0.03515  0.56419  0.44651  Biso   1.000  O
  O19      1.0000 0.47154  0.93046  0.19776  Biso   1.000  O
  O20      1.0000 0.47005  0.81764  0.45306  Biso   1.000  O
  O21      1.0000 0.26852  0.60691  0.24822  Biso   1.000  O
  O22      1.0000 0.27164  0.63247  0.49993  Biso   1.000  O
  O23      1.0000 0.23012  0.88245  0.50547  Biso   1.000  O
  O24      1.0000 0.25031  0.84770  0.26342  Biso   1.000  O
  Zr12     1.0000 0.13405  0.51648  0.62560  Biso   1.000  Zr
  Zr13     1.0000 0.13186  0.73611  0.87826  Biso   1.000  Zr
  Zr14     1.0000 0.36617  0.76634  0.62846  Biso   1.000  Zr
  Zr15     1.0000 0.36538  0.98432  0.87839  Biso   1.000  Zr
  O25      1.0000 0.03545  0.68445  0.69570  Biso   1.000  O
  O26      1.0000 0.03371  0.56651  0.94532  Biso   1.000  O
  O27      1.0000 0.46415  0.93404  0.69824  Biso   1.000  O
  O28      1.0000 0.45968  0.81685  0.94319  Biso   1.000  O
  O29      1.0000 0.26810  0.61762  0.75049  Biso   1.000  O
  O30      1.0000 0.26697  0.63619  0.99933  Biso   1.000  O
  O31      1.0000 0.22620  0.89300  0.01139  Biso   1.000  O
  O32      1.0000 0.22983  0.86788  0.75499  Biso   1.000  O
  Zr16     1.0000 0.63481  0.01554  0.12657  Biso   1.000  Zr
  Zr17     1.0000 0.63389  0.23311  0.37716  Biso   1.000  Zr
  Zr18     1.0000 0.86112  0.26749  0.12419  Biso   1.000  Zr
  Zr19     1.0000 0.86646  0.48454  0.37575  Biso   1.000  Zr
  O33      1.0000 0.53207  0.18190  0.19843  Biso   1.000  O
  O34      1.0000 0.53533  0.06590  0.44408  Biso   1.000  O
  O35      1.0000 0.96391  0.43192  0.19528  Biso   1.000  O
  O36      1.0000 0.96398  0.31414  0.44135  Biso   1.000  O
  O37      1.0000 0.76915  0.11879  0.24796  Biso   1.000  O
  O38      1.0000 0.77014  0.13312  0.49721  Biso   1.000  O
  O39      1.0000 0.73134  0.38302  0.49950  Biso   1.000  O
  O40      1.0000 0.72820  0.36808  0.24944  Biso   1.000  O
  Zr20     1.0000 0.63182  0.01378  0.62108  Biso   1.000  Zr
  Zr21     1.0000 0.63262  0.23397  0.87373  Biso   1.000  Zr
  Zr22     1.0000 0.86560  0.26515  0.62356  Biso   1.000  Zr
  Zr23     1.0000 0.86481  0.48575  0.87451  Biso   1.000  Zr
  O41      1.0000 0.53545  0.18370  0.69378  Biso   1.000  O
  O42      1.0000 0.53260  0.06861  0.94837  Biso   1.000  O
  O43      1.0000 0.96465  0.43326  0.69451  Biso   1.000  O
  O44      1.0000 0.96265  0.31662  0.94398  Biso   1.000  O
  O45      1.0000 0.76697  0.11571  0.74623  Biso   1.000  O
  O46      1.0000 0.76945  0.13319  0.99644  Biso   1.000  O
  O47      1.0000 0.72870  0.38333  0.99884  Biso   1.000  O
  O48      1.0000 0.73026  0.36656  0.74859  Biso   1.000  O
  Zr24     1.0000 0.63586  0.51802  0.12804  Biso   1.000  Zr
  Zr25     1.0000 0.63636  0.73635  0.37563  Biso   1.000  Zr
  Zr26     1.0000 0.87324  0.76845  0.12353  Biso   1.000  Zr
  Zr27     1.0000 0.87269  0.98635  0.37170  Biso   1.000  Zr
  O49      1.0000 0.53661  0.68342  0.19834  Biso   1.000  O
  O50      1.0000 0.53682  0.56659  0.44459  Biso   1.000  O
  O51      1.0000 0.97535  0.94137  0.18844  Biso   1.000  O
  O52      1.0000 0.96579  0.81625  0.44187  Biso   1.000  O
  O53      1.0000 0.77250  0.61767  0.24942  Biso   1.000  O
  O54      1.0000 0.76904  0.63380  0.49913  Biso   1.000  O
  O55      1.0000 0.73445  0.88460  0.49615  Biso   1.000  O
  O56      1.0000 0.73931  0.86786  0.24671  Biso   1.000  O
  Zr28     1.0000 0.63333  0.51622  0.62504  Biso   1.000  Zr
  Zr29     1.0000 0.63233  0.73373  0.87648  Biso   1.000  Zr
  Zr30     1.0000 0.86791  0.76588  0.62305  Biso   1.000  Zr
  Zr31     1.0000 0.85905  0.98211  0.87101  Biso   1.000  Zr
  O57      1.0000 0.53350  0.68180  0.69799  Biso   1.000  O
  O58      1.0000 0.53386  0.56745  0.94850  Biso   1.000  O
  O59      1.0000 0.96306  0.93388  0.69170  Biso   1.000  O
  O60      1.0000 0.96035  0.81622  0.94059  Biso   1.000  O
  O61      1.0000 0.76834  0.61674  0.74914  Biso   1.000  O
  O62      1.0000 0.76945  0.63436  0.99979  Biso   1.000  O
  O63      1.0000 0.72648  0.88278  0.99729  Biso   1.000  O
  O64      1.0000 0.72861  0.86503  0.74634  Biso   1.000  O
