data_image0
_cell_length_a       10.242
_cell_length_b       10.4333
_cell_length_c       5.28159
_cell_angle_alpha    90.6964
_cell_angle_beta     80.1375
_cell_angle_gamma    90.2633

_symmetry_space_group_name_H-M    "P 1"
_symmetry_int_tables_number       1

loop_
  _symmetry_equiv_pos_as_xyz
  'x, y, z'

loop_
  _atom_site_label
  _atom_site_occupancy
  _atom_site_fract_x
  _atom_site_fract_y
  _atom_site_fract_z
  _atom_site_thermal_displace_type
  _atom_site_B_iso_or_equiv
  _atom_site_type_symbol
  Zr1      1.0000 0.13413  0.01949  0.29880  Biso   1.000  Zr
  Zr2      1.0000 0.13720  0.23106  0.79421  Biso   1.000  Zr
  Zr3      1.0000 0.35839  0.27993  0.19656  Biso   1.000  Zr
  Zr4      1.0000 0.35510  0.48092  0.69454  Biso   1.000  Zr
  O1       1.0000 0.03404  0.17104  0.16417  Biso   1.000  O
  O2       1.0000 0.03405  0.08179  0.66030  Biso   1.000  O
  O3       1.0000 0.45774  0.43457  0.32131  Biso   1.000  O
  O4       1.0000 0.48612  0.35692  0.86071  Biso   1.000  O
  O5       1.0000 0.27913  0.12888  0.48327  Biso   1.000  O
  O6       1.0000 0.26284  0.10988  0.99919  Biso   1.000  O
  O7       1.0000 0.22185  0.38234  0.01094  Biso   1.000  O
  O8       1.0000 0.20844  0.37720  0.50222  Biso   1.000  O
  Zr5      1.0000 0.13565  0.52386  0.28758  Biso   1.000  Zr
  Zr6      1.0000 0.13514  0.72907  0.79632  Biso   1.000  Zr
  Zr7      1.0000 0.36028  0.76879  0.21400  Biso   1.000  Zr
  Zr8      1.0000 0.35981  0.96824  0.72453  Biso   1.000  Zr
  O9       1.0000 0.03002  0.67047  0.15898  Biso   1.000  O
  O10      1.0000 0.03193  0.58464  0.65830  Biso   1.000  O
  O11      1.0000 0.46193  0.91909  0.34635  Biso   1.000  O
  O12      1.0000 0.46096  0.82443  0.84530  Biso   1.000  O
  O13      1.0000 0.27201  0.63065  0.48290  Biso   1.000  O
  O14      1.0000 0.27158  0.62100  0.98165  Biso   1.000  O
  O15      1.0000 0.22264  0.87340  0.02946  Biso   1.000  O
  O16      1.0000 0.22256  0.87084  0.52776  Biso   1.000  O
  Zr9      1.0000 0.63689  0.01991  0.29290  Biso   1.000  Zr
  Zr10     1.0000 0.65290  0.22897  0.80311  Biso   1.000  Zr
  Zr11     1.0000 0.86292  0.27240  0.21651  Biso   1.000  Zr
  Zr12     1.0000 0.86187  0.47939  0.71086  Biso   1.000  Zr
  O17      1.0000 0.53299  0.16749  0.15256  Biso   1.000  O
  O18      1.0000 0.55072  0.05809  0.68262  Biso   1.000  O
  O19      1.0000 0.96160  0.42325  0.33860  Biso   1.000  O
  O20      1.0000 0.96343  0.33186  0.84060  Biso   1.000  O
  O21      1.0000 0.77681  0.12971  0.48381  Biso   1.000  O
  O22      1.0000 0.77917  0.11969  0.98873  Biso   1.000  O
  O23      1.0000 0.72735  0.37825  0.02776  Biso   1.000  O
  O24      1.0000 0.72542  0.37164  0.52501  Biso   1.000  O
  Zr13     1.0000 0.63700  0.52341  0.29144  Biso   1.000  Zr
  Zr14     1.0000 0.63764  0.72696  0.79009  Biso   1.000  Zr
  Zr15     1.0000 0.85751  0.77096  0.20947  Biso   1.000  Zr
  Zr16     1.0000 0.85982  0.97730  0.71080  Biso   1.000  Zr
  O25      1.0000 0.53663  0.67206  0.15938  Biso   1.000  O
  O26      1.0000 0.53144  0.58552  0.65199  Biso   1.000  O
  O27      1.0000 0.96230  0.91890  0.34051  Biso   1.000  O
  O28      1.0000 0.96236  0.83299  0.84252  Biso   1.000  O
  O29      1.0000 0.77409  0.62894  0.48172  Biso   1.000  O
  O30      1.0000 0.77294  0.62099  0.98047  Biso   1.000  O
  O31      1.0000 0.72206  0.87950  0.02109  Biso   1.000  O
  O32      1.0000 0.72443  0.86922  0.51876  Biso   1.000  O
  Pt1      1.0000 0.41748  0.22423  0.64935  Biso   1.000  Pt
