data_image0
_cell_length_a       10.2894
_cell_length_b       5.2153
_cell_length_c       10.6959
_cell_angle_alpha    89.9594
_cell_angle_beta     79.0736
_cell_angle_gamma    90.1613

_symmetry_space_group_name_H-M    "P 1"
_symmetry_int_tables_number       1

loop_
  _symmetry_equiv_pos_as_xyz
  'x, y, z'

loop_
  _atom_site_label
  _atom_site_occupancy
  _atom_site_fract_x
  _atom_site_fract_y
  _atom_site_fract_z
  _atom_site_thermal_displace_type
  _atom_site_B_iso_or_equiv
  _atom_site_type_symbol
  Zr1      1.0000 0.13016  0.04288  0.14719  Biso   1.000  Zr
  Zr2      1.0000 0.12928  0.45334  0.39275  Biso   1.000  Zr
  Zr3      1.0000 0.34481  0.55030  0.08415  Biso   1.000  Zr
  Zr4      1.0000 0.36147  0.95510  0.36152  Biso   1.000  Zr
  O1       1.0000 0.02962  0.32734  0.07355  Biso   1.000  O
  O2       1.0000 0.02307  0.16738  0.32830  Biso   1.000  O
  O3       1.0000 0.45888  0.87300  0.16840  Biso   1.000  O
  O4       1.0000 0.47861  0.71602  0.45480  Biso   1.000  O
  O5       1.0000 0.25709  0.25180  0.23428  Biso   1.000  O
  O6       1.0000 0.27808  0.25114  0.48431  Biso   1.000  O
  O7       1.0000 0.21537  0.77093  0.00357  Biso   1.000  O
  O8       1.0000 0.22235  0.73725  0.25685  Biso   1.000  O
  Zr5      1.0000 0.13875  0.04485  0.64269  Biso   1.000  Zr
  Zr6      1.0000 0.13078  0.45647  0.89094  Biso   1.000  Zr
  Zr7      1.0000 0.36263  0.55268  0.61008  Biso   1.000  Zr
  Zr8      1.0000 0.35770  0.96558  0.85256  Biso   1.000  Zr
  O9       1.0000 0.03414  0.32957  0.57632  Biso   1.000  O
  O10      1.0000 0.02954  0.17324  0.82330  Biso   1.000  O
  O11      1.0000 0.46941  0.82209  0.68710  Biso   1.000  O
  O12      1.0000 0.46457  0.68398  0.92406  Biso   1.000  O
  O13      1.0000 0.27240  0.25377  0.73775  Biso   1.000  O
  O14      1.0000 0.26944  0.25592  0.98443  Biso   1.000  O
  O15      1.0000 0.22530  0.75526  0.50963  Biso   1.000  O
  O16      1.0000 0.22324  0.74488  0.75876  Biso   1.000  O
  Zr9      1.0000 0.63923  0.03602  0.14705  Biso   1.000  Zr
  Zr10     1.0000 0.65302  0.44847  0.41184  Biso   1.000  Zr
  Zr11     1.0000 0.85772  0.53836  0.10731  Biso   1.000  Zr
  Zr12     1.0000 0.85467  0.94978  0.35604  Biso   1.000  Zr
  O17      1.0000 0.52961  0.33329  0.06972  Biso   1.000  O
  O18      1.0000 0.55743  0.12121  0.34228  Biso   1.000  O
  O19      1.0000 0.96205  0.82090  0.17783  Biso   1.000  O
  O20      1.0000 0.96347  0.66795  0.42575  Biso   1.000  O
  O21      1.0000 0.77971  0.25192  0.24199  Biso   1.000  O
  O22      1.0000 0.78119  0.23630  0.49882  Biso   1.000  O
  O23      1.0000 0.72321  0.75401  0.01391  Biso   1.000  O
  O24      1.0000 0.71958  0.72792  0.26214  Biso   1.000  O
  Zr13     1.0000 0.63763  0.04314  0.65118  Biso   1.000  Zr
  Zr14     1.0000 0.63626  0.45630  0.89827  Biso   1.000  Zr
  Zr15     1.0000 0.86331  0.54483  0.61112  Biso   1.000  Zr
  Zr16     1.0000 0.85871  0.95695  0.85731  Biso   1.000  Zr
  O25      1.0000 0.53293  0.32545  0.58222  Biso   1.000  O
  O26      1.0000 0.52839  0.18212  0.82636  Biso   1.000  O
  O27      1.0000 0.96834  0.82853  0.67625  Biso   1.000  O
  O28      1.0000 0.96349  0.67285  0.92484  Biso   1.000  O
  O29      1.0000 0.77346  0.25783  0.74482  Biso   1.000  O
  O30      1.0000 0.77298  0.24267  0.99222  Biso   1.000  O
  O31      1.0000 0.72836  0.75150  0.51845  Biso   1.000  O
  O32      1.0000 0.72534  0.74722  0.76536  Biso   1.000  O
  Rb1      1.0000 0.44454  0.46989  0.28460  Biso   1.000  Rb
