data_image0
_cell_length_a       10.1288
_cell_length_b       10.3461
_cell_length_c       10.594
_cell_angle_alpha    90.0192
_cell_angle_beta     90.6476
_cell_angle_gamma    90.1128

_symmetry_space_group_name_H-M    "P 1"
_symmetry_int_tables_number       1

loop_
  _symmetry_equiv_pos_as_xyz
  'x, y, z'

loop_
  _atom_site_label
  _atom_site_occupancy
  _atom_site_fract_x
  _atom_site_fract_y
  _atom_site_fract_z
  _atom_site_thermal_displace_type
  _atom_site_B_iso_or_equiv
  _atom_site_type_symbol
  Zr1      1.0000 0.13948  0.02087  0.17190  Biso   1.000  Zr
  Zr2      1.0000 0.13740  0.22739  0.42657  Biso   1.000  Zr
  Zr3      1.0000 0.34594  0.27254  0.18740  Biso   1.000  Zr
  Zr4      1.0000 0.36255  0.47895  0.42325  Biso   1.000  Zr
  Zr5      1.0000 0.63964  0.00769  0.08057  Biso   1.000  Zr
  Zr6      1.0000 0.63527  0.22093  0.33087  Biso   1.000  Zr
  Zr7      1.0000 0.86873  0.27256  0.07548  Biso   1.000  Zr
  Zr8      1.0000 0.85900  0.47760  0.32691  Biso   1.000  Zr
  O1       1.0000 0.03575  0.16350  0.08142  Biso   1.000  O
  O2       1.0000 0.02951  0.08836  0.33068  Biso   1.000  O
  O3       1.0000 0.44783  0.44415  0.10162  Biso   1.000  O
  O4       1.0000 0.46641  0.33388  0.33496  Biso   1.000  O
  O5       1.0000 0.26913  0.12523  0.30201  Biso   1.000  O
  O6       1.0000 0.28136  0.12708  0.04711  Biso   1.000  O
  O7       1.0000 0.21831  0.37599  0.30332  Biso   1.000  O
  O8       1.0000 0.22109  0.37591  0.04875  Biso   1.000  O
  O9       1.0000 0.51621  0.12449  0.20203  Biso   1.000  O
  O10      1.0000 0.52812  0.09118  0.43508  Biso   1.000  O
  O11      1.0000 0.96822  0.41384  0.16979  Biso   1.000  O
  O12      1.0000 0.96907  0.33779  0.41878  Biso   1.000  O
  O13      1.0000 0.77531  0.12269  0.45182  Biso   1.000  O
  O14      1.0000 0.77140  0.12763  0.19959  Biso   1.000  O
  O15      1.0000 0.72557  0.37443  0.45364  Biso   1.000  O
  O16      1.0000 0.71996  0.37580  0.20205  Biso   1.000  O
  Zr9      1.0000 0.14051  0.02076  0.67321  Biso   1.000  Zr
  Zr10     1.0000 0.14343  0.22868  0.92202  Biso   1.000  Zr
  Zr11     1.0000 0.36293  0.27316  0.67423  Biso   1.000  Zr
  Zr12     1.0000 0.35949  0.48496  0.92523  Biso   1.000  Zr
  Zr13     1.0000 0.64102  0.01727  0.57842  Biso   1.000  Zr
  Zr14     1.0000 0.65056  0.22622  0.80805  Biso   1.000  Zr
  Zr15     1.0000 0.86450  0.27308  0.57431  Biso   1.000  Zr
  Zr16     1.0000 0.86630  0.48084  0.82839  Biso   1.000  Zr
  O17      1.0000 0.03124  0.16173  0.58176  Biso   1.000  O
  O18      1.0000 0.03510  0.08593  0.83222  Biso   1.000  O
  O19      1.0000 0.47133  0.41234  0.58048  Biso   1.000  O
  O20      1.0000 0.47277  0.34037  0.82940  Biso   1.000  O
  O21      1.0000 0.27799  0.12487  0.79654  Biso   1.000  O
  O22      1.0000 0.27507  0.12500  0.54919  Biso   1.000  O
  O23      1.0000 0.22736  0.37475  0.79803  Biso   1.000  O
  O24      1.0000 0.22650  0.37532  0.54933  Biso   1.000  O
  O25      1.0000 0.53255  0.16103  0.66831  Biso   1.000  O
  O26      1.0000 0.53843  0.06841  0.90696  Biso   1.000  O
  O27      1.0000 0.97131  0.41303  0.66854  Biso   1.000  O
  O28      1.0000 0.97488  0.33604  0.91726  Biso   1.000  O
  O29      1.0000 0.77679  0.12606  0.94933  Biso   1.000  O
  O30      1.0000 0.78205  0.12234  0.69732  Biso   1.000  O
  O31      1.0000 0.73930  0.38461  0.95136  Biso   1.000  O
  O32      1.0000 0.72955  0.37512  0.70049  Biso   1.000  O
  Zr17     1.0000 0.13874  0.52322  0.17249  Biso   1.000  Zr
  Zr18     1.0000 0.13809  0.72852  0.42182  Biso   1.000  Zr
  Zr19     1.0000 0.35974  0.77260  0.17417  Biso   1.000  Zr
  Zr20     1.0000 0.36249  0.97883  0.42530  Biso   1.000  Zr
  Zr21     1.0000 0.63948  0.53364  0.08084  Biso   1.000  Zr
  Zr22     1.0000 0.63931  0.73066  0.33119  Biso   1.000  Zr
  Zr23     1.0000 0.86453  0.77058  0.07903  Biso   1.000  Zr
  Zr24     1.0000 0.86350  0.97993  0.32820  Biso   1.000  Zr
  O33      1.0000 0.03238  0.66309  0.08136  Biso   1.000  O
  O34      1.0000 0.03044  0.58727  0.33154  Biso   1.000  O
  O35      1.0000 0.46918  0.90514  0.07750  Biso   1.000  O
  O36      1.0000 0.46963  0.83965  0.33357  Biso   1.000  O
  O37      1.0000 0.27390  0.62579  0.29644  Biso   1.000  O
  O38      1.0000 0.27298  0.63046  0.04469  Biso   1.000  O
  O39      1.0000 0.22507  0.87544  0.29687  Biso   1.000  O
  O40      1.0000 0.22390  0.87787  0.04728  Biso   1.000  O
  O41      1.0000 0.53517  0.67297  0.17001  Biso   1.000  O
  O42      1.0000 0.53198  0.58734  0.41765  Biso   1.000  O
  O43      1.0000 0.96899  0.91542  0.16806  Biso   1.000  O
  O44      1.0000 0.96844  0.83721  0.41885  Biso   1.000  O
  O45      1.0000 0.77620  0.62443  0.45460  Biso   1.000  O
  O46      1.0000 0.77746  0.62737  0.20615  Biso   1.000  O
  O47      1.0000 0.72626  0.87458  0.45629  Biso   1.000  O
  O48      1.0000 0.72820  0.87328  0.20650  Biso   1.000  O
  Zr25     1.0000 0.14070  0.52085  0.67208  Biso   1.000  Zr
  Zr26     1.0000 0.14008  0.73129  0.92134  Biso   1.000  Zr
  Zr27     1.0000 0.36276  0.76928  0.67172  Biso   1.000  Zr
  Zr28     1.0000 0.36449  0.97654  0.92023  Biso   1.000  Zr
  Zr29     1.0000 0.64063  0.52148  0.57643  Biso   1.000  Zr
  Zr30     1.0000 0.64051  0.72811  0.82686  Biso   1.000  Zr
  Zr31     1.0000 0.86407  0.77072  0.57973  Biso   1.000  Zr
  Zr32     1.0000 0.86457  0.97885  0.83032  Biso   1.000  Zr
  O49      1.0000 0.03362  0.66346  0.58203  Biso   1.000  O
  O50      1.0000 0.03538  0.58775  0.83217  Biso   1.000  O
  O51      1.0000 0.47101  0.90925  0.58303  Biso   1.000  O
  O52      1.0000 0.46778  0.82980  0.83161  Biso   1.000  O
  O53      1.0000 0.27642  0.62519  0.79551  Biso   1.000  O
  O54      1.0000 0.27561  0.62453  0.54539  Biso   1.000  O
  O55      1.0000 0.22636  0.87420  0.79549  Biso   1.000  O
  O56      1.0000 0.22625  0.87543  0.54624  Biso   1.000  O
  O57      1.0000 0.53334  0.66134  0.66759  Biso   1.000  O
  O58      1.0000 0.53352  0.58617  0.91933  Biso   1.000  O
  O59      1.0000 0.97059  0.91240  0.66970  Biso   1.000  O
  O60      1.0000 0.97029  0.83775  0.91978  Biso   1.000  O
  O61      1.0000 0.77765  0.62910  0.95342  Biso   1.000  O
  O62      1.0000 0.77751  0.62469  0.70363  Biso   1.000  O
  O63      1.0000 0.72824  0.87327  0.95637  Biso   1.000  O
  O64      1.0000 0.72803  0.87359  0.70717  Biso   1.000  O
  Rb1      1.0000 0.55994  0.26213  0.03433  Biso   1.000  Rb
