data_image0
_cell_length_a       10.1757
_cell_length_b       5.20348
_cell_length_c       10.6245
_cell_angle_alpha    89.5032
_cell_angle_beta     90.5657
_cell_angle_gamma    90.2589

_symmetry_space_group_name_H-M    "P 1"
_symmetry_int_tables_number       1

loop_
  _symmetry_equiv_pos_as_xyz
  'x, y, z'

loop_
  _atom_site_label
  _atom_site_occupancy
  _atom_site_fract_x
  _atom_site_fract_y
  _atom_site_fract_z
  _atom_site_thermal_displace_type
  _atom_site_B_iso_or_equiv
  _atom_site_type_symbol
  Rb1      1.0000 0.09552  0.97299  0.14897  Biso   1.000  Rb
  Zr1      1.0000 0.14183  0.04595  0.67013  Biso   1.000  Zr
  Zr2      1.0000 0.14457  0.45708  0.42130  Biso   1.000  Zr
  Zr3      1.0000 0.15074  0.45799  0.91747  Biso   1.000  Zr
  Zr4      1.0000 0.36037  0.52224  0.16889  Biso   1.000  Zr
  Zr5      1.0000 0.36029  0.54516  0.66827  Biso   1.000  Zr
  Zr6      1.0000 0.35967  0.95624  0.41498  Biso   1.000  Zr
  Zr7      1.0000 0.36494  0.95812  0.91987  Biso   1.000  Zr
  Zr8      1.0000 0.63600  0.04767  0.07495  Biso   1.000  Zr
  Zr9      1.0000 0.63488  0.04111  0.58355  Biso   1.000  Zr
  Zr10     1.0000 0.63584  0.45379  0.33336  Biso   1.000  Zr
  Zr11     1.0000 0.63817  0.46341  0.82509  Biso   1.000  Zr
  Zr12     1.0000 0.86810  0.49778  0.05780  Biso   1.000  Zr
  Zr13     1.0000 0.86576  0.54591  0.58368  Biso   1.000  Zr
  Zr14     1.0000 0.85969  0.98796  0.35597  Biso   1.000  Zr
  Zr15     1.0000 0.86437  0.95402  0.82533  Biso   1.000  Zr
  O1       1.0000 0.04868  0.43047  0.09049  Biso   1.000  O
  O2       1.0000 0.03994  0.35824  0.59866  Biso   1.000  O
  O3       1.0000 0.02418  0.17139  0.36721  Biso   1.000  O
  O4       1.0000 0.03846  0.15159  0.84276  Biso   1.000  O
  O5       1.0000 0.48129  0.81469  0.07710  Biso   1.000  O
  O6       1.0000 0.47021  0.81911  0.57615  Biso   1.000  O
  O7       1.0000 0.48195  0.69104  0.32305  Biso   1.000  O
  O8       1.0000 0.47413  0.68379  0.82217  Biso   1.000  O
  O9       1.0000 0.28283  0.24800  0.30302  Biso   1.000  O
  O10      1.0000 0.27801  0.25001  0.79024  Biso   1.000  O
  O11      1.0000 0.28932  0.24452  0.03404  Biso   1.000  O
  O12      1.0000 0.27687  0.25115  0.54514  Biso   1.000  O
  O13      1.0000 0.24059  0.71727  0.30062  Biso   1.000  O
  O14      1.0000 0.22736  0.74938  0.78884  Biso   1.000  O
  O15      1.0000 0.25479  0.71469  0.02702  Biso   1.000  O
  O16      1.0000 0.22544  0.75858  0.54376  Biso   1.000  O
  O17      1.0000 0.53521  0.31843  0.17188  Biso   1.000  O
  O18      1.0000 0.53008  0.32400  0.66841  Biso   1.000  O
  O19      1.0000 0.53351  0.17447  0.42066  Biso   1.000  O
  O20      1.0000 0.53570  0.18200  0.91839  Biso   1.000  O
  O21      1.0000 0.85036  0.81494  0.17549  Biso   1.000  O
  O22      1.0000 0.96479  0.85609  0.65800  Biso   1.000  O
  O23      1.0000 0.96801  0.67187  0.41456  Biso   1.000  O
  O24      1.0000 0.96887  0.65459  0.90051  Biso   1.000  O
  O25      1.0000 0.77890  0.22683  0.95201  Biso   1.000  O
  O26      1.0000 0.77032  0.26092  0.46630  Biso   1.000  O
  O27      1.0000 0.77933  0.27660  0.21152  Biso   1.000  O
  O28      1.0000 0.77520  0.25475  0.70810  Biso   1.000  O
  O29      1.0000 0.72761  0.73663  0.95291  Biso   1.000  O
  O30      1.0000 0.72754  0.75484  0.46313  Biso   1.000  O
  O31      1.0000 0.71455  0.78637  0.21654  Biso   1.000  O
  O32      1.0000 0.72802  0.75063  0.70506  Biso   1.000  O
