data_image0
_cell_length_a       10.0624
_cell_length_b       10.5733
_cell_length_c       5.03522
_cell_angle_alpha    90.1046
_cell_angle_beta     89.7389
_cell_angle_gamma    90.0889

_symmetry_space_group_name_H-M    "P 1"
_symmetry_int_tables_number       1

loop_
  _symmetry_equiv_pos_as_xyz
  'x, y, z'

loop_
  _atom_site_label
  _atom_site_occupancy
  _atom_site_fract_x
  _atom_site_fract_y
  _atom_site_fract_z
  _atom_site_thermal_displace_type
  _atom_site_B_iso_or_equiv
  _atom_site_type_symbol
  Hf1      1.0000 0.13330  0.01061  0.24139  Biso   1.000  Hf
  Hf2      1.0000 0.13376  0.20956  0.74563  Biso   1.000  Hf
  Hf3      1.0000 0.37791  0.26423  0.24101  Biso   1.000  Hf
  Hf4      1.0000 0.36957  0.48660  0.74291  Biso   1.000  Hf
  O1       1.0000 0.00736  0.16874  0.42759  Biso   1.000  O
  O2       1.0000 0.03010  0.05695  0.90328  Biso   1.000  O
  O3       1.0000 0.47464  0.42972  0.40281  Biso   1.000  O
  O4       1.0000 0.47344  0.31990  0.89643  Biso   1.000  O
  O5       1.0000 0.26240  0.09842  0.49409  Biso   1.000  O
  O6       1.0000 0.28490  0.12597  0.98669  Biso   1.000  O
  O7       1.0000 0.25478  0.41289  0.04373  Biso   1.000  O
  O8       1.0000 0.25178  0.34286  0.54498  Biso   1.000  O
  Hf5      1.0000 0.12680  0.54707  0.22100  Biso   1.000  Hf
  Hf6      1.0000 0.13170  0.74296  0.73842  Biso   1.000  Hf
  Hf7      1.0000 0.37071  0.76431  0.24333  Biso   1.000  Hf
  Hf8      1.0000 0.36975  0.98087  0.74608  Biso   1.000  Hf
  O9       1.0000 0.02653  0.69345  0.39678  Biso   1.000  O
  O10      1.0000 0.03140  0.57431  0.87124  Biso   1.000  O
  O11      1.0000 0.46782  0.92833  0.38713  Biso   1.000  O
  O12      1.0000 0.46990  0.81742  0.89073  Biso   1.000  O
  O13      1.0000 0.26984  0.61378  0.48671  Biso   1.000  O
  O14      1.0000 0.26798  0.64976  0.97700  Biso   1.000  O
  O15      1.0000 0.23138  0.88633  0.98922  Biso   1.000  O
  O16      1.0000 0.23457  0.85987  0.48604  Biso   1.000  O
  Hf9      1.0000 0.63129  0.01185  0.24531  Biso   1.000  Hf
  Hf10     1.0000 0.63124  0.22952  0.74728  Biso   1.000  Hf
  Hf11     1.0000 0.85185  0.26151  0.24708  Biso   1.000  Hf
  Hf12     1.0000 0.86540  0.48243  0.74928  Biso   1.000  Hf
  O17      1.0000 0.53301  0.17468  0.40239  Biso   1.000  O
  O18      1.0000 0.53654  0.06521  0.89330  Biso   1.000  O
  O19      1.0000 0.96576  0.43499  0.39601  Biso   1.000  O
  O20      1.0000 0.97663  0.31908  0.91573  Biso   1.000  O
  O21      1.0000 0.76164  0.10932  0.49389  Biso   1.000  O
  O22      1.0000 0.76853  0.13275  0.99050  Biso   1.000  O
  O23      1.0000 0.73212  0.38365  0.99985  Biso   1.000  O
  O24      1.0000 0.73139  0.36288  0.50531  Biso   1.000  O
  Hf13     1.0000 0.63411  0.51531  0.24975  Biso   1.000  Hf
  Hf14     1.0000 0.63427  0.73101  0.74922  Biso   1.000  Hf
  Hf15     1.0000 0.86191  0.76832  0.24486  Biso   1.000  Hf
  Hf16     1.0000 0.86418  0.98181  0.74295  Biso   1.000  Hf
  O25      1.0000 0.53483  0.68006  0.39634  Biso   1.000  O
  O26      1.0000 0.53322  0.56917  0.90152  Biso   1.000  O
  O27      1.0000 0.96618  0.92978  0.39819  Biso   1.000  O
  O28      1.0000 0.96425  0.81823  0.89637  Biso   1.000  O
  O29      1.0000 0.76843  0.61178  0.49925  Biso   1.000  O
  O30      1.0000 0.76933  0.63329  0.99715  Biso   1.000  O
  O31      1.0000 0.73074  0.88318  0.99462  Biso   1.000  O
  O32      1.0000 0.72961  0.86243  0.49640  Biso   1.000  O
  Re1      1.0000 0.11360  0.31066  0.23806  Biso   1.000  Re
