data_image0
_cell_length_a       5.13842
_cell_length_b       10.3437
_cell_length_c       10.6591
_cell_angle_alpha    89.7279
_cell_angle_beta     79.585
_cell_angle_gamma    90.5406

_symmetry_space_group_name_H-M    "P 1"
_symmetry_int_tables_number       1

loop_
  _symmetry_equiv_pos_as_xyz
  'x, y, z'

loop_
  _atom_site_label
  _atom_site_occupancy
  _atom_site_fract_x
  _atom_site_fract_y
  _atom_site_fract_z
  _atom_site_thermal_displace_type
  _atom_site_B_iso_or_equiv
  _atom_site_type_symbol
  Zr1      1.0000 0.27436  0.02154  0.14560  Biso   1.000  Zr
  Zr2      1.0000 0.29591  0.24007  0.40253  Biso   1.000  Zr
  Zr3      1.0000 0.71495  0.26902  0.09365  Biso   1.000  Zr
  Zr4      1.0000 0.70586  0.48673  0.35763  Biso   1.000  Zr
  O1       1.0000 0.05528  0.15199  0.06471  Biso   1.000  O
  O2       1.0000 0.08216  0.07392  0.33444  Biso   1.000  O
  O3       1.0000 0.95280  0.38285  0.19677  Biso   1.000  O
  O4       1.0000 0.97323  0.36461  0.43902  Biso   1.000  O
  O5       1.0000 0.56776  0.12348  0.23479  Biso   1.000  O
  O6       1.0000 0.59075  0.12232  0.48003  Biso   1.000  O
  O7       1.0000 0.44232  0.37902  0.00670  Biso   1.000  O
  O8       1.0000 0.44353  0.38067  0.25245  Biso   1.000  O
  Zr5      1.0000 0.27291  0.02283  0.64502  Biso   1.000  Zr
  Zr6      1.0000 0.27200  0.22769  0.89223  Biso   1.000  Zr
  Zr7      1.0000 0.72923  0.27711  0.60537  Biso   1.000  Zr
  Zr8      1.0000 0.71447  0.48004  0.85627  Biso   1.000  Zr
  O9       1.0000 0.07821  0.16756  0.57725  Biso   1.000  O
  O10      1.0000 0.05658  0.08956  0.82035  Biso   1.000  O
  O11      1.0000 0.93680  0.41111  0.68460  Biso   1.000  O
  O12      1.0000 0.94198  0.34583  0.92837  Biso   1.000  O
  O13      1.0000 0.54702  0.12850  0.73689  Biso   1.000  O
  O14      1.0000 0.54298  0.12247  0.98477  Biso   1.000  O
  O15      1.0000 0.45087  0.38566  0.52076  Biso   1.000  O
  O16      1.0000 0.45017  0.37312  0.76106  Biso   1.000  O
  Zr9      1.0000 0.27296  0.52029  0.14738  Biso   1.000  Zr
  Zr10     1.0000 0.26415  0.72650  0.39693  Biso   1.000  Zr
  Zr11     1.0000 0.71678  0.77110  0.10416  Biso   1.000  Zr
  Zr12     1.0000 0.71808  0.96643  0.35472  Biso   1.000  Zr
  O17      1.0000 0.04376  0.65345  0.07175  Biso   1.000  O
  O18      1.0000 0.05112  0.59512  0.31752  Biso   1.000  O
  O19      1.0000 0.93788  0.90773  0.17719  Biso   1.000  O
  O20      1.0000 0.92827  0.83338  0.42965  Biso   1.000  O
  O21      1.0000 0.54156  0.62790  0.24095  Biso   1.000  O
  O22      1.0000 0.53354  0.62739  0.49381  Biso   1.000  O
  O23      1.0000 0.44540  0.87903  0.01241  Biso   1.000  O
  O24      1.0000 0.44411  0.86748  0.25967  Biso   1.000  O
  Zr13     1.0000 0.26991  0.52524  0.64952  Biso   1.000  Zr
  Zr14     1.0000 0.26729  0.72813  0.89841  Biso   1.000  Zr
  Zr15     1.0000 0.71523  0.77195  0.60753  Biso   1.000  Zr
  Zr16     1.0000 0.71815  0.97817  0.85392  Biso   1.000  Zr
  O25      1.0000 0.04736  0.65862  0.57457  Biso   1.000  O
  O26      1.0000 0.05214  0.59416  0.82407  Biso   1.000  O
  O27      1.0000 0.93440  0.91175  0.67671  Biso   1.000  O
  O28      1.0000 0.93222  0.84063  0.92788  Biso   1.000  O
  O29      1.0000 0.54252  0.62911  0.74338  Biso   1.000  O
  O30      1.0000 0.53846  0.62352  0.99227  Biso   1.000  O
  O31      1.0000 0.44253  0.87919  0.51211  Biso   1.000  O
  O32      1.0000 0.44504  0.87263  0.76204  Biso   1.000  O
  Re1      1.0000 0.82767  0.23348  0.32517  Biso   1.000  Re
