data_image0
_cell_length_a       10.0264
_cell_length_b       5.22865
_cell_length_c       10.0743
_cell_angle_alpha    91.7935
_cell_angle_beta     89.2238
_cell_angle_gamma    90.1076

_symmetry_space_group_name_H-M    "P 1"
_symmetry_int_tables_number       1

loop_
  _symmetry_equiv_pos_as_xyz
  'x, y, z'

loop_
  _atom_site_label
  _atom_site_occupancy
  _atom_site_fract_x
  _atom_site_fract_y
  _atom_site_fract_z
  _atom_site_thermal_displace_type
  _atom_site_B_iso_or_equiv
  _atom_site_type_symbol
  Rh1      1.0000 0.11821  0.07281  0.10556  Biso   1.000  Rh
  Zr1      1.0000 0.13629  0.03753  0.63098  Biso   1.000  Zr
  Zr2      1.0000 0.63800  0.04270  0.12670  Biso   1.000  Zr
  Zr3      1.0000 0.62531  0.02541  0.61561  Biso   1.000  Zr
  Zr4      1.0000 0.13860  0.44306  0.37614  Biso   1.000  Zr
  Zr5      1.0000 0.13050  0.48690  0.88136  Biso   1.000  Zr
  Zr6      1.0000 0.63776  0.47145  0.37880  Biso   1.000  Zr
  Zr7      1.0000 0.63626  0.47044  0.86730  Biso   1.000  Zr
  Zr8      1.0000 0.38878  0.53103  0.10897  Biso   1.000  Zr
  Zr9      1.0000 0.36460  0.53841  0.63045  Biso   1.000  Zr
  Zr10     1.0000 0.86650  0.54013  0.12021  Biso   1.000  Zr
  Zr11     1.0000 0.87283  0.52770  0.61678  Biso   1.000  Zr
  Zr12     1.0000 0.36408  0.94210  0.37287  Biso   1.000  Zr
  Zr13     1.0000 0.35807  0.98430  0.88356  Biso   1.000  Zr
  Zr14     1.0000 0.87171  0.97232  0.37329  Biso   1.000  Zr
  Zr15     1.0000 0.86098  0.96980  0.86651  Biso   1.000  Zr
  O1       1.0000 0.03506  0.37593  0.18834  Biso   1.000  O
  O2       1.0000 0.03614  0.37601  0.69898  Biso   1.000  O
  O3       1.0000 0.53906  0.37328  0.20435  Biso   1.000  O
  O4       1.0000 0.53266  0.36778  0.69439  Biso   1.000  O
  O5       1.0000 0.02889  0.13805  0.46017  Biso   1.000  O
  O6       1.0000 0.03351  0.13247  0.93035  Biso   1.000  O
  O7       1.0000 0.53551  0.13429  0.43895  Biso   1.000  O
  O8       1.0000 0.51866  0.17764  0.96201  Biso   1.000  O
  O9       1.0000 0.46994  0.87489  0.19033  Biso   1.000  O
  O10      1.0000 0.46073  0.87975  0.70192  Biso   1.000  O
  O11      1.0000 0.97602  0.87551  0.18637  Biso   1.000  O
  O12      1.0000 0.96497  0.86723  0.68963  Biso   1.000  O
  O13      1.0000 0.47653  0.64596  0.46238  Biso   1.000  O
  O14      1.0000 0.46442  0.66021  0.93268  Biso   1.000  O
  O15      1.0000 0.96691  0.63050  0.43430  Biso   1.000  O
  O16      1.0000 0.95628  0.63742  0.93914  Biso   1.000  O
  O17      1.0000 0.22317  0.11364  0.26407  Biso   1.000  O
  O18      1.0000 0.26980  0.24986  0.75767  Biso   1.000  O
  O19      1.0000 0.77672  0.23881  0.24608  Biso   1.000  O
  O20      1.0000 0.76383  0.22494  0.74314  Biso   1.000  O
  O21      1.0000 0.27472  0.25689  0.50227  Biso   1.000  O
  O22      1.0000 0.25651  0.27754  0.01213  Biso   1.000  O
  O23      1.0000 0.76717  0.26736  0.49597  Biso   1.000  O
  O24      1.0000 0.76677  0.27124  0.99429  Biso   1.000  O
  O25      1.0000 0.22761  0.75650  0.50468  Biso   1.000  O
  O26      1.0000 0.22599  0.78236  0.01367  Biso   1.000  O
  O27      1.0000 0.73869  0.77076  0.49496  Biso   1.000  O
  O28      1.0000 0.72444  0.77379  0.99349  Biso   1.000  O
  O29      1.0000 0.27706  0.61865  0.26724  Biso   1.000  O
  O30      1.0000 0.22689  0.74667  0.75727  Biso   1.000  O
  O31      1.0000 0.73494  0.74062  0.24539  Biso   1.000  O
  O32      1.0000 0.73123  0.72589  0.74136  Biso   1.000  O
