data_image0
_cell_length_a       10.2263
_cell_length_b       10.3558
_cell_length_c       10.5618
_cell_angle_alpha    90.0931
_cell_angle_beta     80.0538
_cell_angle_gamma    90.1554

_symmetry_space_group_name_H-M    "P 1"
_symmetry_int_tables_number       1

loop_
  _symmetry_equiv_pos_as_xyz
  'x, y, z'

loop_
  _atom_site_label
  _atom_site_occupancy
  _atom_site_fract_x
  _atom_site_fract_y
  _atom_site_fract_z
  _atom_site_thermal_displace_type
  _atom_site_B_iso_or_equiv
  _atom_site_type_symbol
  Zr1      1.0000 0.13657  0.02212  0.14607  Biso   1.000  Zr
  Zr2      1.0000 0.13953  0.23127  0.39563  Biso   1.000  Zr
  Zr3      1.0000 0.35630  0.27290  0.09594  Biso   1.000  Zr
  Zr4      1.0000 0.35519  0.48110  0.35218  Biso   1.000  Zr
  O1       1.0000 0.03431  0.16853  0.07809  Biso   1.000  O
  O2       1.0000 0.03537  0.08371  0.32769  Biso   1.000  O
  O3       1.0000 0.46639  0.41076  0.17647  Biso   1.000  O
  O4       1.0000 0.48458  0.35820  0.43720  Biso   1.000  O
  O5       1.0000 0.27968  0.12770  0.23860  Biso   1.000  O
  O6       1.0000 0.27209  0.11547  0.49268  Biso   1.000  O
  O7       1.0000 0.22171  0.38139  0.00459  Biso   1.000  O
  O8       1.0000 0.21142  0.37674  0.25311  Biso   1.000  O
  Zr5      1.0000 0.13703  0.02033  0.64665  Biso   1.000  Zr
  Zr6      1.0000 0.13617  0.22880  0.89347  Biso   1.000  Zr
  Zr7      1.0000 0.36116  0.27384  0.60558  Biso   1.000  Zr
  Zr8      1.0000 0.35948  0.48011  0.85408  Biso   1.000  Zr
  O9       1.0000 0.03527  0.16788  0.57925  Biso   1.000  O
  O10      1.0000 0.03221  0.08280  0.82835  Biso   1.000  O
  O11      1.0000 0.46702  0.41353  0.67829  Biso   1.000  O
  O12      1.0000 0.46730  0.33820  0.92369  Biso   1.000  O
  O13      1.0000 0.27443  0.12928  0.74020  Biso   1.000  O
  O14      1.0000 0.27274  0.12241  0.98826  Biso   1.000  O
  O15      1.0000 0.22426  0.37948  0.51135  Biso   1.000  O
  O16      1.0000 0.22377  0.37188  0.75830  Biso   1.000  O
  Zr9      1.0000 0.13712  0.52308  0.14385  Biso   1.000  Zr
  Zr10     1.0000 0.13644  0.72876  0.39671  Biso   1.000  Zr
  Zr11     1.0000 0.36013  0.77213  0.10446  Biso   1.000  Zr
  Zr12     1.0000 0.36171  0.96958  0.35825  Biso   1.000  Zr
  O17      1.0000 0.03227  0.67011  0.07843  Biso   1.000  O
  O18      1.0000 0.03248  0.58602  0.32697  Biso   1.000  O
  O19      1.0000 0.46582  0.91471  0.17465  Biso   1.000  O
  O20      1.0000 0.46340  0.82646  0.42429  Biso   1.000  O
  O21      1.0000 0.27430  0.62956  0.24054  Biso   1.000  O
  O22      1.0000 0.27121  0.62151  0.49209  Biso   1.000  O
  O23      1.0000 0.22381  0.87985  0.01077  Biso   1.000  O
  O24      1.0000 0.22305  0.87067  0.26072  Biso   1.000  O
  Zr13     1.0000 0.13691  0.52280  0.64619  Biso   1.000  Zr
  Zr14     1.0000 0.13647  0.72986  0.89660  Biso   1.000  Zr
  Zr15     1.0000 0.36075  0.76915  0.60636  Biso   1.000  Zr
  Zr16     1.0000 0.36037  0.97902  0.85428  Biso   1.000  Zr
  O25      1.0000 0.03060  0.66645  0.57872  Biso   1.000  O
  O26      1.0000 0.03291  0.58401  0.82947  Biso   1.000  O
  O27      1.0000 0.46513  0.91538  0.67228  Biso   1.000  O
  O28      1.0000 0.46565  0.83600  0.92346  Biso   1.000  O
  O29      1.0000 0.27404  0.62835  0.74122  Biso   1.000  O
  O30      1.0000 0.27395  0.62346  0.99035  Biso   1.000  O
  O31      1.0000 0.22344  0.87554  0.51208  Biso   1.000  O
  O32      1.0000 0.22344  0.87157  0.76102  Biso   1.000  O
  Zr17     1.0000 0.63876  0.02097  0.14623  Biso   1.000  Zr
  Zr18     1.0000 0.64872  0.23066  0.40085  Biso   1.000  Zr
  Zr19     1.0000 0.86086  0.27263  0.10524  Biso   1.000  Zr
  Zr20     1.0000 0.86272  0.47913  0.35503  Biso   1.000  Zr
  O33      1.0000 0.52999  0.16041  0.07303  Biso   1.000  O
  O34      1.0000 0.54766  0.06348  0.33916  Biso   1.000  O
  O35      1.0000 0.96351  0.42022  0.16958  Biso   1.000  O
  O36      1.0000 0.96652  0.33469  0.42288  Biso   1.000  O
  O37      1.0000 0.77751  0.12964  0.23998  Biso   1.000  O
  O38      1.0000 0.77954  0.11992  0.49295  Biso   1.000  O
  O39      1.0000 0.72322  0.37858  0.01183  Biso   1.000  O
  O40      1.0000 0.72663  0.37249  0.26169  Biso   1.000  O
  Zr21     1.0000 0.63738  0.02186  0.64523  Biso   1.000  Zr
  Zr22     1.0000 0.63814  0.22784  0.89649  Biso   1.000  Zr
  Zr23     1.0000 0.86353  0.27148  0.60763  Biso   1.000  Zr
  Zr24     1.0000 0.85967  0.47905  0.85636  Biso   1.000  Zr
  O41      1.0000 0.53369  0.16684  0.57738  Biso   1.000  O
  O42      1.0000 0.53167  0.08610  0.82535  Biso   1.000  O
  O43      1.0000 0.96528  0.41779  0.67362  Biso   1.000  O
  O44      1.0000 0.96372  0.33280  0.92082  Biso   1.000  O
  O45      1.0000 0.77419  0.12860  0.74164  Biso   1.000  O
  O46      1.0000 0.77456  0.12190  0.99101  Biso   1.000  O
  O47      1.0000 0.72894  0.37783  0.51349  Biso   1.000  O
  O48      1.0000 0.72444  0.37181  0.76216  Biso   1.000  O
  Zr25     1.0000 0.63792  0.52205  0.14698  Biso   1.000  Zr
  Zr26     1.0000 0.63837  0.72625  0.39550  Biso   1.000  Zr
  Zr27     1.0000 0.85965  0.77171  0.10488  Biso   1.000  Zr
  Zr28     1.0000 0.86096  0.97829  0.35470  Biso   1.000  Zr
  O49      1.0000 0.53085  0.66339  0.07610  Biso   1.000  O
  O50      1.0000 0.53040  0.58770  0.32382  Biso   1.000  O
  O51      1.0000 0.96538  0.91825  0.17112  Biso   1.000  O
  O52      1.0000 0.96462  0.83436  0.42267  Biso   1.000  O
  O53      1.0000 0.77440  0.62806  0.24049  Biso   1.000  O
  O54      1.0000 0.77421  0.62080  0.49041  Biso   1.000  O
  O55      1.0000 0.72266  0.87922  0.01114  Biso   1.000  O
  O56      1.0000 0.72597  0.86957  0.25977  Biso   1.000  O
  Zr29     1.0000 0.63854  0.52092  0.64687  Biso   1.000  Zr
  Zr30     1.0000 0.63686  0.72847  0.89606  Biso   1.000  Zr
  Zr31     1.0000 0.85888  0.77202  0.60507  Biso   1.000  Zr
  Zr32     1.0000 0.85897  0.97859  0.85519  Biso   1.000  Zr
  O57      1.0000 0.53277  0.66292  0.57791  Biso   1.000  O
  O58      1.0000 0.53192  0.58647  0.82687  Biso   1.000  O
  O59      1.0000 0.96363  0.91685  0.67226  Biso   1.000  O
  O60      1.0000 0.96370  0.83405  0.92182  Biso   1.000  O
  O61      1.0000 0.77418  0.62880  0.74099  Biso   1.000  O
  O62      1.0000 0.77362  0.62229  0.99109  Biso   1.000  O
  O63      1.0000 0.72283  0.87807  0.51009  Biso   1.000  O
  O64      1.0000 0.72239  0.87183  0.76056  Biso   1.000  O
  Rh1      1.0000 0.41922  0.22855  0.32329  Biso   1.000  Rh
