data_image0
_cell_length_a       5.04458
_cell_length_b       10.6005
_cell_length_c       10.133
_cell_angle_alpha    93.581
_cell_angle_beta     90.0448
_cell_angle_gamma    90.3703

_symmetry_space_group_name_H-M    "P 1"
_symmetry_int_tables_number       1

loop_
  _symmetry_equiv_pos_as_xyz
  'x, y, z'

loop_
  _atom_site_label
  _atom_site_occupancy
  _atom_site_fract_x
  _atom_site_fract_y
  _atom_site_fract_z
  _atom_site_thermal_displace_type
  _atom_site_B_iso_or_equiv
  _atom_site_type_symbol
  Hf1      1.0000 0.26649  0.95494  0.10613  Biso   1.000  Hf
  Hf2      1.0000 0.27673  0.24004  0.36875  Biso   1.000  Hf
  Hf3      1.0000 0.79526  0.29030  0.13833  Biso   1.000  Hf
  Hf4      1.0000 0.77535  0.01826  0.35099  Biso   1.000  Hf
  O1       1.0000 0.95933  0.17989  0.97568  Biso   1.000  O
  O2       1.0000 0.07960  0.08772  0.23913  Biso   1.000  O
  O3       1.0000 0.01629  0.38073  0.29814  Biso   1.000  O
  O4       1.0000 0.97014  0.43229  0.03436  Biso   1.000  O
  O5       1.0000 0.57761  0.15782  0.23926  Biso   1.000  O
  O6       1.0000 0.46201  0.06013  0.95706  Biso   1.000  O
  O7       1.0000 0.47227  0.32830  0.01627  Biso   1.000  O
  O8       1.0000 0.53083  0.39923  0.27674  Biso   1.000  O
  Hf5      1.0000 0.28467  0.98716  0.61142  Biso   1.000  Hf
  Hf6      1.0000 0.28340  0.23716  0.85415  Biso   1.000  Hf
  Hf7      1.0000 0.77747  0.27053  0.62619  Biso   1.000  Hf
  Hf8      1.0000 0.77805  0.01549  0.84351  Biso   1.000  Hf
  O9       1.0000 0.94325  0.18067  0.46733  Biso   1.000  O
  O10      1.0000 0.03553  0.11347  0.72293  Biso   1.000  O
  O11      1.0000 0.02287  0.36180  0.77465  Biso   1.000  O
  O12      1.0000 0.94139  0.43148  0.54522  Biso   1.000  O
  O13      1.0000 0.53775  0.14011  0.72454  Biso   1.000  O
  O14      1.0000 0.46171  0.08125  0.46723  Biso   1.000  O
  O15      1.0000 0.44143  0.33136  0.53321  Biso   1.000  O
  O16      1.0000 0.52372  0.39034  0.77335  Biso   1.000  O
  Hf9      1.0000 0.27441  0.48593  0.15774  Biso   1.000  Hf
  Hf10     1.0000 0.20757  0.76721  0.36510  Biso   1.000  Hf
  Hf11     1.0000 0.70772  0.72824  0.13522  Biso   1.000  Hf
  Hf12     1.0000 0.77839  0.52189  0.38986  Biso   1.000  Hf
  O17      1.0000 0.96179  0.67353  0.98277  Biso   1.000  O
  O18      1.0000 0.99480  0.61258  0.24461  Biso   1.000  O
  O19      1.0000 0.99459  0.85035  0.22136  Biso   1.000  O
  O20      1.0000 0.99303  0.91532  0.96563  Biso   1.000  O
  O21      1.0000 0.48962  0.64259  0.27862  Biso   1.000  O
  O22      1.0000 0.52091  0.56877  0.03378  Biso   1.000  O
  O23      1.0000 0.45723  0.80720  0.00766  Biso   1.000  O
  O24      1.0000 0.50673  0.88841  0.25329  Biso   1.000  O
  Hf13     1.0000 0.27402  0.48585  0.65166  Biso   1.000  Hf
  Hf14     1.0000 0.19657  0.76262  0.85549  Biso   1.000  Hf
  Hf15     1.0000 0.69840  0.73490  0.63645  Biso   1.000  Hf
  Hf16     1.0000 0.77855  0.51477  0.88541  Biso   1.000  Hf
  O25      1.0000 0.95911  0.68124  0.48763  Biso   1.000  O
  O26      1.0000 0.99006  0.61274  0.74216  Biso   1.000  O
  O27      1.0000 0.99130  0.86234  0.71720  Biso   1.000  O
  O28      1.0000 0.01873  0.92832  0.46795  Biso   1.000  O
  O29      1.0000 0.48785  0.63802  0.77793  Biso   1.000  O
  O30      1.0000 0.49788  0.58252  0.53001  Biso   1.000  O
  O31      1.0000 0.46946  0.83006  0.51154  Biso   1.000  O
  O32      1.0000 0.49670  0.88807  0.75336  Biso   1.000  O
  Ru1      1.0000 0.27509  0.18996  0.10850  Biso   1.000  Ru
