data_image0
_cell_length_a       10.0895
_cell_length_b       10.2456
_cell_length_c       5.20592
_cell_angle_alpha    89.7998
_cell_angle_beta     80.103
_cell_angle_gamma    90.0341

_symmetry_space_group_name_H-M    "P 1"
_symmetry_int_tables_number       1

loop_
  _symmetry_equiv_pos_as_xyz
  'x, y, z'

loop_
  _atom_site_label
  _atom_site_occupancy
  _atom_site_fract_x
  _atom_site_fract_y
  _atom_site_fract_z
  _atom_site_thermal_displace_type
  _atom_site_B_iso_or_equiv
  _atom_site_type_symbol
  Ru1      1.0000 0.14050  0.02139  0.30185  Biso   1.000  Ru
  Hf1      1.0000 0.13843  0.22691  0.79599  Biso   1.000  Hf
  Hf2      1.0000 0.35931  0.27093  0.21361  Biso   1.000  Hf
  Hf3      1.0000 0.36073  0.47909  0.70934  Biso   1.000  Hf
  O1       1.0000 0.03424  0.16162  0.15024  Biso   1.000  O
  O2       1.0000 0.03743  0.08588  0.63257  Biso   1.000  O
  O3       1.0000 0.46329  0.42072  0.33771  Biso   1.000  O
  O4       1.0000 0.46007  0.32641  0.83798  Biso   1.000  O
  O5       1.0000 0.27804  0.12667  0.48856  Biso   1.000  O
  O6       1.0000 0.27198  0.11561  0.00245  Biso   1.000  O
  O7       1.0000 0.22254  0.37824  0.02087  Biso   1.000  O
  O8       1.0000 0.22308  0.37089  0.52073  Biso   1.000  O
  Hf4      1.0000 0.13919  0.52164  0.29269  Biso   1.000  Hf
  Hf5      1.0000 0.13851  0.73028  0.79076  Biso   1.000  Hf
  Hf6      1.0000 0.35919  0.77424  0.20707  Biso   1.000  Hf
  Hf7      1.0000 0.35874  0.97764  0.70932  Biso   1.000  Hf
  O9       1.0000 0.03538  0.66811  0.15782  Biso   1.000  O
  O10      1.0000 0.03550  0.58151  0.66035  Biso   1.000  O
  O11      1.0000 0.46471  0.91858  0.34107  Biso   1.000  O
  O12      1.0000 0.46313  0.82870  0.83589  Biso   1.000  O
  O13      1.0000 0.27699  0.63109  0.48249  Biso   1.000  O
  O14      1.0000 0.27657  0.62157  0.98162  Biso   1.000  O
  O15      1.0000 0.22065  0.88118  0.01666  Biso   1.000  O
  O16      1.0000 0.21985  0.87371  0.51139  Biso   1.000  O
  Hf8      1.0000 0.63802  0.02147  0.29166  Biso   1.000  Hf
  Hf9      1.0000 0.63780  0.22877  0.79236  Biso   1.000  Hf
  Hf10     1.0000 0.86352  0.26923  0.20873  Biso   1.000  Hf
  Hf11     1.0000 0.86084  0.47849  0.70872  Biso   1.000  Hf
  O17      1.0000 0.53620  0.17129  0.16567  Biso   1.000  O
  O18      1.0000 0.53485  0.07886  0.66593  Biso   1.000  O
  O19      1.0000 0.96497  0.41815  0.34083  Biso   1.000  O
  O20      1.0000 0.96531  0.33006  0.84042  Biso   1.000  O
  O21      1.0000 0.77506  0.12898  0.48085  Biso   1.000  O
  O22      1.0000 0.77675  0.12072  0.97792  Biso   1.000  O
  O23      1.0000 0.72366  0.37896  0.01911  Biso   1.000  O
  O24      1.0000 0.72335  0.37066  0.51916  Biso   1.000  O
  Hf12     1.0000 0.63937  0.52180  0.29194  Biso   1.000  Hf
  Hf13     1.0000 0.63929  0.72859  0.79331  Biso   1.000  Hf
  Hf14     1.0000 0.86370  0.77332  0.20614  Biso   1.000  Hf
  Hf15     1.0000 0.86167  0.98052  0.70342  Biso   1.000  Hf
  O25      1.0000 0.53582  0.67058  0.16258  Biso   1.000  O
  O26      1.0000 0.53723  0.57820  0.66499  Biso   1.000  O
  O27      1.0000 0.97274  0.92139  0.33176  Biso   1.000  O
  O28      1.0000 0.96487  0.83355  0.83681  Biso   1.000  O
  O29      1.0000 0.77727  0.63004  0.48166  Biso   1.000  O
  O30      1.0000 0.77812  0.62197  0.98236  Biso   1.000  O
  O31      1.0000 0.72313  0.87959  0.01789  Biso   1.000  O
  O32      1.0000 0.72842  0.87220  0.51680  Biso   1.000  O
