data_image0
_cell_length_a       10.0902
_cell_length_b       5.12362
_cell_length_c       10.4095
_cell_angle_alpha    89.7898
_cell_angle_beta     80.0905
_cell_angle_gamma    90.0188

_symmetry_space_group_name_H-M    "P 1"
_symmetry_int_tables_number       1

loop_
  _symmetry_equiv_pos_as_xyz
  'x, y, z'

loop_
  _atom_site_label
  _atom_site_occupancy
  _atom_site_fract_x
  _atom_site_fract_y
  _atom_site_fract_z
  _atom_site_thermal_displace_type
  _atom_site_B_iso_or_equiv
  _atom_site_type_symbol
  Ru1      1.0000 0.14120  0.04454  0.15177  Biso   1.000  Ru
  Hf1      1.0000 0.13984  0.46137  0.39443  Biso   1.000  Hf
  Hf2      1.0000 0.35757  0.54826  0.10539  Biso   1.000  Hf
  Hf3      1.0000 0.36116  0.95902  0.35337  Biso   1.000  Hf
  O1       1.0000 0.03579  0.32859  0.07957  Biso   1.000  O
  O2       1.0000 0.03887  0.17030  0.31909  Biso   1.000  O
  O3       1.0000 0.46491  0.83869  0.16964  Biso   1.000  O
  O4       1.0000 0.46386  0.65858  0.41847  Biso   1.000  O
  O5       1.0000 0.27807  0.25772  0.24170  Biso   1.000  O
  O6       1.0000 0.27732  0.24313  0.49157  Biso   1.000  O
  O7       1.0000 0.21972  0.76292  0.01060  Biso   1.000  O
  O8       1.0000 0.22056  0.74861  0.25694  Biso   1.000  O
  Hf4      1.0000 0.13887  0.04209  0.64620  Biso   1.000  Hf
  Hf5      1.0000 0.13706  0.45297  0.89909  Biso   1.000  Hf
  Hf6      1.0000 0.36128  0.54265  0.60491  Biso   1.000  Hf
  Hf7      1.0000 0.35813  0.95497  0.85605  Biso   1.000  Hf
  O9       1.0000 0.03350  0.32975  0.57432  Biso   1.000  O
  O10      1.0000 0.03387  0.16491  0.82715  Biso   1.000  O
  O11      1.0000 0.46287  0.84116  0.66928  Biso   1.000  O
  O12      1.0000 0.45877  0.65053  0.91798  Biso   1.000  O
  O13      1.0000 0.27722  0.25724  0.74404  Biso   1.000  O
  O14      1.0000 0.27144  0.23197  0.00075  Biso   1.000  O
  O15      1.0000 0.22328  0.75755  0.50841  Biso   1.000  O
  O16      1.0000 0.22236  0.74008  0.75928  Biso   1.000  O
  Hf8      1.0000 0.63917  0.04479  0.14511  Biso   1.000  Hf
  Hf9      1.0000 0.63951  0.45846  0.39541  Biso   1.000  Hf
  Hf10     1.0000 0.86698  0.54178  0.10407  Biso   1.000  Hf
  Hf11     1.0000 0.86222  0.96067  0.35114  Biso   1.000  Hf
  O17      1.0000 0.53482  0.34220  0.08239  Biso   1.000  O
  O18      1.0000 0.53710  0.15837  0.33214  Biso   1.000  O
  O19      1.0000 0.97267  0.84487  0.16646  Biso   1.000  O
  O20      1.0000 0.96566  0.66789  0.41893  Biso   1.000  O
  O21      1.0000 0.77639  0.26028  0.24030  Biso   1.000  O
  O22      1.0000 0.77828  0.24168  0.48916  Biso   1.000  O
  O23      1.0000 0.72316  0.75805  0.00949  Biso   1.000  O
  O24      1.0000 0.72911  0.74419  0.25819  Biso   1.000  O
  Hf12     1.0000 0.63832  0.04163  0.64647  Biso   1.000  Hf
  Hf13     1.0000 0.63754  0.45598  0.89721  Biso   1.000  Hf
  Hf14     1.0000 0.86043  0.54310  0.60339  Biso   1.000  Hf
  Hf15     1.0000 0.86012  0.95675  0.85460  Biso   1.000  Hf
  O25      1.0000 0.53746  0.34249  0.58200  Biso   1.000  O
  O26      1.0000 0.53520  0.15459  0.83363  Biso   1.000  O
  O27      1.0000 0.96509  0.83321  0.67031  Biso   1.000  O
  O28      1.0000 0.96486  0.66055  0.92004  Biso   1.000  O
  O29      1.0000 0.77581  0.25749  0.74070  Biso   1.000  O
  O30      1.0000 0.77664  0.24342  0.99058  Biso   1.000  O
  O31      1.0000 0.72343  0.75882  0.50874  Biso   1.000  O
  O32      1.0000 0.72250  0.74112  0.75951  Biso   1.000  O
