data_image0
_cell_length_a       5.08156
_cell_length_b       10.3169
_cell_length_c       10.4638
_cell_angle_alpha    89.8022
_cell_angle_beta     80.1191
_cell_angle_gamma    89.9846

_symmetry_space_group_name_H-M    "P 1"
_symmetry_int_tables_number       1

loop_
  _symmetry_equiv_pos_as_xyz
  'x, y, z'

loop_
  _atom_site_label
  _atom_site_occupancy
  _atom_site_fract_x
  _atom_site_fract_y
  _atom_site_fract_z
  _atom_site_thermal_displace_type
  _atom_site_B_iso_or_equiv
  _atom_site_type_symbol
  Ru1      1.0000 0.28145  0.02201  0.15132  Biso   1.000  Ru
  Zr1      1.0000 0.27623  0.02065  0.64545  Biso   1.000  Zr
  Zr2      1.0000 0.27977  0.52241  0.14518  Biso   1.000  Zr
  Zr3      1.0000 0.27784  0.52107  0.64645  Biso   1.000  Zr
  Zr4      1.0000 0.27945  0.23004  0.39399  Biso   1.000  Zr
  Zr5      1.0000 0.27312  0.22523  0.89949  Biso   1.000  Zr
  Zr6      1.0000 0.27889  0.73009  0.39462  Biso   1.000  Zr
  Zr7      1.0000 0.27610  0.72906  0.89682  Biso   1.000  Zr
  Zr8      1.0000 0.72708  0.26861  0.10660  Biso   1.000  Zr
  Zr9      1.0000 0.72094  0.27139  0.60527  Biso   1.000  Zr
  Zr10     1.0000 0.72416  0.77690  0.10369  Biso   1.000  Zr
  Zr11     1.0000 0.72215  0.77134  0.60411  Biso   1.000  Zr
  Zr12     1.0000 0.72370  0.48002  0.35422  Biso   1.000  Zr
  Zr13     1.0000 0.71974  0.47788  0.85592  Biso   1.000  Zr
  Zr14     1.0000 0.72358  0.98000  0.35118  Biso   1.000  Zr
  Zr15     1.0000 0.71675  0.97833  0.85578  Biso   1.000  Zr
  O1       1.0000 0.07012  0.16403  0.08134  Biso   1.000  O
  O2       1.0000 0.06842  0.16580  0.57560  Biso   1.000  O
  O3       1.0000 0.06879  0.66889  0.08043  Biso   1.000  O
  O4       1.0000 0.07127  0.66919  0.57970  Biso   1.000  O
  O5       1.0000 0.07763  0.08412  0.31789  Biso   1.000  O
  O6       1.0000 0.06509  0.08129  0.82830  Biso   1.000  O
  O7       1.0000 0.07343  0.58088  0.33100  Biso   1.000  O
  O8       1.0000 0.07044  0.57954  0.83158  Biso   1.000  O
  O9       1.0000 0.93042  0.42006  0.16941  Biso   1.000  O
  O10      1.0000 0.92958  0.41772  0.67050  Biso   1.000  O
  O11      1.0000 0.94921  0.92114  0.16627  Biso   1.000  O
  O12      1.0000 0.92848  0.91837  0.66946  Biso   1.000  O
  O13      1.0000 0.92880  0.33094  0.41940  Biso   1.000  O
  O14      1.0000 0.92542  0.32669  0.92067  Biso   1.000  O
  O15      1.0000 0.93162  0.83288  0.41808  Biso   1.000  O
  O16      1.0000 0.92412  0.82972  0.91824  Biso   1.000  O
  O17      1.0000 0.55088  0.12630  0.24066  Biso   1.000  O
  O18      1.0000 0.55061  0.12830  0.74361  Biso   1.000  O
  O19      1.0000 0.55354  0.63265  0.24095  Biso   1.000  O
  O20      1.0000 0.55239  0.62848  0.74142  Biso   1.000  O
  O21      1.0000 0.55594  0.12126  0.48962  Biso   1.000  O
  O22      1.0000 0.53922  0.11510  0.00132  Biso   1.000  O
  O23      1.0000 0.55292  0.62151  0.49085  Biso   1.000  O
  O24      1.0000 0.55335  0.62281  0.99133  Biso   1.000  O
  O25      1.0000 0.44832  0.37817  0.01052  Biso   1.000  O
  O26      1.0000 0.44751  0.37842  0.50970  Biso   1.000  O
  O27      1.0000 0.43875  0.88242  0.01018  Biso   1.000  O
  O28      1.0000 0.44859  0.87904  0.50752  Biso   1.000  O
  O29      1.0000 0.45090  0.37154  0.25968  Biso   1.000  O
  O30      1.0000 0.44633  0.37025  0.76053  Biso   1.000  O
  O31      1.0000 0.45067  0.87671  0.25554  Biso   1.000  O
  O32      1.0000 0.44631  0.87074  0.75862  Biso   1.000  O
