data_image0
_cell_length_a       10.2061
_cell_length_b       10.3685
_cell_length_c       5.11696
_cell_angle_alpha    91.5742
_cell_angle_beta     87.007
_cell_angle_gamma    88.2767

_symmetry_space_group_name_H-M    "P 1"
_symmetry_int_tables_number       1

loop_
  _symmetry_equiv_pos_as_xyz
  'x, y, z'

loop_
  _atom_site_label
  _atom_site_occupancy
  _atom_site_fract_x
  _atom_site_fract_y
  _atom_site_fract_z
  _atom_site_thermal_displace_type
  _atom_site_B_iso_or_equiv
  _atom_site_type_symbol
  Zr1      1.0000 0.12390  0.95200  0.26955  Biso   1.000  Zr
  Zr2      1.0000 0.12023  0.28225  0.75100  Biso   1.000  Zr
  Zr3      1.0000 0.36309  0.23435  0.33009  Biso   1.000  Zr
  Zr4      1.0000 0.37472  0.99622  0.79767  Biso   1.000  Zr
  O1       1.0000 0.97431  0.15822  0.87136  Biso   1.000  O
  O2       1.0000 0.96870  0.07810  0.38870  Biso   1.000  O
  O3       1.0000 0.99806  0.34115  0.44709  Biso   1.000  O
  O4       1.0000 0.98881  0.41638  0.97614  Biso   1.000  O
  O5       1.0000 0.27945  0.15549  0.66776  Biso   1.000  O
  O6       1.0000 0.26420  0.07620  0.13621  Biso   1.000  O
  O7       1.0000 0.22861  0.32889  0.08204  Biso   1.000  O
  O8       1.0000 0.25431  0.40271  0.53955  Biso   1.000  O
  Zr5      1.0000 0.12734  0.50275  0.24838  Biso   1.000  Zr
  Zr6      1.0000 0.13120  0.73277  0.76660  Biso   1.000  Zr
  Zr7      1.0000 0.39466  0.76097  0.28271  Biso   1.000  Zr
  Zr8      1.0000 0.39251  0.51203  0.71039  Biso   1.000  Zr
  O9       1.0000 0.01989  0.65871  0.08430  Biso   1.000  O
  O10      1.0000 0.02767  0.58385  0.57840  Biso   1.000  O
  O11      1.0000 0.99810  0.83504  0.50620  Biso   1.000  O
  O12      1.0000 0.00590  0.89232  0.97563  Biso   1.000  O
  O13      1.0000 0.26389  0.64412  0.46850  Biso   1.000  O
  O14      1.0000 0.24385  0.57841  0.95599  Biso   1.000  O
  O15      1.0000 0.25971  0.83079  0.02455  Biso   1.000  O
  O16      1.0000 0.24777  0.89088  0.55056  Biso   1.000  O
  Zr9      1.0000 0.63491  0.02079  0.23917  Biso   1.000  Zr
  Zr10     1.0000 0.60399  0.24325  0.75042  Biso   1.000  Zr
  Zr11     1.0000 0.85976  0.26158  0.18592  Biso   1.000  Zr
  Zr12     1.0000 0.88557  0.99744  0.73110  Biso   1.000  Zr
  O17      1.0000 0.49574  0.14796  0.03010  Biso   1.000  O
  O18      1.0000 0.50127  0.09951  0.52849  Biso   1.000  O
  O19      1.0000 0.50676  0.36059  0.47294  Biso   1.000  O
  O20      1.0000 0.49192  0.39854  0.96602  Biso   1.000  O
  O21      1.0000 0.72850  0.17566  0.44067  Biso   1.000  O
  O22      1.0000 0.74009  0.11300  0.95164  Biso   1.000  O
  O23      1.0000 0.74091  0.36295  0.92441  Biso   1.000  O
  O24      1.0000 0.76334  0.42458  0.41084  Biso   1.000  O
  Zr13     1.0000 0.61638  0.49503  0.19541  Biso   1.000  Zr
  Zr14     1.0000 0.63140  0.76118  0.76389  Biso   1.000  Zr
  Zr15     1.0000 0.86543  0.76344  0.23821  Biso   1.000  Zr
  Zr16     1.0000 0.86137  0.50207  0.71261  Biso   1.000  Zr
  O25      1.0000 0.50006  0.64822  0.98274  Biso   1.000  O
  O26      1.0000 0.52095  0.61598  0.47754  Biso   1.000  O
  O27      1.0000 0.49458  0.85592  0.55895  Biso   1.000  O
  O28      1.0000 0.50627  0.89864  0.05073  Biso   1.000  O
  O29      1.0000 0.77540  0.66729  0.53286  Biso   1.000  O
  O30      1.0000 0.75334  0.61619  0.00944  Biso   1.000  O
  O31      1.0000 0.75587  0.86885  0.98636  Biso   1.000  O
  O32      1.0000 0.74699  0.91255  0.48727  Biso   1.000  O
  Ru1      1.0000 0.10937  0.19799  0.25045  Biso   1.000  Ru
