data_image0
_cell_length_a       5.05319
_cell_length_b       10.4189
_cell_length_c       10.2392
_cell_angle_alpha    87.8561
_cell_angle_beta     92.7917
_cell_angle_gamma    91.9428

_symmetry_space_group_name_H-M    "P 1"
_symmetry_int_tables_number       1

loop_
  _symmetry_equiv_pos_as_xyz
  'x, y, z'

loop_
  _atom_site_label
  _atom_site_occupancy
  _atom_site_fract_x
  _atom_site_fract_y
  _atom_site_fract_z
  _atom_site_thermal_displace_type
  _atom_site_B_iso_or_equiv
  _atom_site_type_symbol
  Hf1      1.0000 0.27641  0.99403  0.10138  Biso   1.000  Hf
  Hf2      1.0000 0.23564  0.23168  0.40609  Biso   1.000  Hf
  Hf3      1.0000 0.60030  0.26443  0.15708  Biso   1.000  Hf
  Hf4      1.0000 0.72808  0.49295  0.38592  Biso   1.000  Hf
  O1       1.0000 0.89694  0.18391  0.27600  Biso   1.000  O
  O2       1.0000 0.07343  0.05760  0.46278  Biso   1.000  O
  O3       1.0000 0.87002  0.44789  0.21261  Biso   1.000  O
  O4       1.0000 0.94658  0.33678  0.46661  Biso   1.000  O
  O5       1.0000 0.41620  0.10894  0.25588  Biso   1.000  O
  O6       1.0000 0.56154  0.13992  0.50040  Biso   1.000  O
  O7       1.0000 0.47292  0.38639  0.50630  Biso   1.000  O
  O8       1.0000 0.38721  0.37639  0.26878  Biso   1.000  O
  Hf5      1.0000 0.30170  0.00884  0.62424  Biso   1.000  Hf
  Hf6      1.0000 0.34233  0.21812  0.85353  Biso   1.000  Hf
  Hf7      1.0000 0.77078  0.27046  0.63078  Biso   1.000  Hf
  Hf8      1.0000 0.74985  0.48085  0.86615  Biso   1.000  Hf
  O9       1.0000 0.13234  0.18379  0.66888  Biso   1.000  O
  O10      1.0000 0.12300  0.05037  0.91250  Biso   1.000  O
  O11      1.0000 0.93494  0.44855  0.68702  Biso   1.000  O
  O12      1.0000 0.98166  0.30307  0.87223  Biso   1.000  O
  O13      1.0000 0.59190  0.11053  0.74773  Biso   1.000  O
  O14      1.0000 0.59114  0.11524  0.00545  Biso   1.000  O
  O15      1.0000 0.51196  0.37249  0.98688  Biso   1.000  O
  O16      1.0000 0.48738  0.36597  0.74186  Biso   1.000  O
  Hf9      1.0000 0.22814  0.52764  0.14139  Biso   1.000  Hf
  Hf10     1.0000 0.27340  0.74548  0.37943  Biso   1.000  Hf
  Hf11     1.0000 0.72517  0.76260  0.12996  Biso   1.000  Hf
  Hf12     1.0000 0.74501  0.00313  0.35887  Biso   1.000  Hf
  O17      1.0000 0.06486  0.68851  0.20266  Biso   1.000  O
  O18      1.0000 0.07132  0.57992  0.44933  Biso   1.000  O
  O19      1.0000 0.93205  0.94374  0.18500  Biso   1.000  O
  O20      1.0000 0.93636  0.82369  0.44007  Biso   1.000  O
  O21      1.0000 0.52453  0.62525  0.25917  Biso   1.000  O
  O22      1.0000 0.54081  0.64010  0.50413  Biso   1.000  O
  O23      1.0000 0.48070  0.89134  0.49338  Biso   1.000  O
  O24      1.0000 0.47368  0.86746  0.24179  Biso   1.000  O
  Hf13     1.0000 0.28018  0.51629  0.62172  Biso   1.000  Hf
  Hf14     1.0000 0.28145  0.72750  0.87380  Biso   1.000  Hf
  Hf15     1.0000 0.75965  0.77085  0.61897  Biso   1.000  Hf
  Hf16     1.0000 0.76680  0.96933  0.87202  Biso   1.000  Hf
  O25      1.0000 0.08280  0.68275  0.69789  Biso   1.000  O
  O26      1.0000 0.06952  0.56313  0.95492  Biso   1.000  O
  O27      1.0000 0.96470  0.92740  0.69921  Biso   1.000  O
  O28      1.0000 0.96492  0.81140  0.95817  Biso   1.000  O
  O29      1.0000 0.54559  0.61421  0.75483  Biso   1.000  O
  O30      1.0000 0.53323  0.62933  0.00914  Biso   1.000  O
  O31      1.0000 0.48567  0.87210  0.99133  Biso   1.000  O
  O32      1.0000 0.49648  0.85919  0.74616  Biso   1.000  O
  Sb1      1.0000 0.05926  0.25963  0.06630  Biso   1.000  Sb
