data_image0
_cell_length_a       5.1221
_cell_length_b       10.375
_cell_length_c       10.6652
_cell_angle_alpha    90.0477
_cell_angle_beta     78.7925
_cell_angle_gamma    91.0896

_symmetry_space_group_name_H-M    "P 1"
_symmetry_int_tables_number       1

loop_
  _symmetry_equiv_pos_as_xyz
  'x, y, z'

loop_
  _atom_site_label
  _atom_site_occupancy
  _atom_site_fract_x
  _atom_site_fract_y
  _atom_site_fract_z
  _atom_site_thermal_displace_type
  _atom_site_B_iso_or_equiv
  _atom_site_type_symbol
  Zr1      1.0000 0.28845  0.01777  0.15066  Biso   1.000  Zr
  Zr2      1.0000 0.31507  0.22772  0.41465  Biso   1.000  Zr
  Zr3      1.0000 0.67359  0.27228  0.09046  Biso   1.000  Zr
  Zr4      1.0000 0.70021  0.48223  0.35443  Biso   1.000  Zr
  O1       1.0000 0.04609  0.16506  0.07510  Biso   1.000  O
  O2       1.0000 0.09323  0.07849  0.33443  Biso   1.000  O
  O3       1.0000 0.89546  0.42151  0.17067  Biso   1.000  O
  O4       1.0000 0.94261  0.33494  0.43001  Biso   1.000  O
  O5       1.0000 0.60331  0.13486  0.25138  Biso   1.000  O
  O6       1.0000 0.57686  0.11570  0.50057  Biso   1.000  O
  O7       1.0000 0.41180  0.38431  0.00453  Biso   1.000  O
  O8       1.0000 0.38540  0.36516  0.25373  Biso   1.000  O
  Zr5      1.0000 0.28078  0.01864  0.65014  Biso   1.000  Zr
  Zr6      1.0000 0.25746  0.22762  0.89456  Biso   1.000  Zr
  Zr7      1.0000 0.73121  0.27238  0.61055  Biso   1.000  Zr
  Zr8      1.0000 0.70791  0.48136  0.85497  Biso   1.000  Zr
  O9       1.0000 0.07910  0.16710  0.58752  Biso   1.000  O
  O10      1.0000 0.05738  0.08177  0.82868  Biso   1.000  O
  O11      1.0000 0.93131  0.41823  0.67643  Biso   1.000  O
  O12      1.0000 0.90957  0.33290  0.91759  Biso   1.000  O
  O13      1.0000 0.54670  0.12860  0.74576  Biso   1.000  O
  O14      1.0000 0.53306  0.11886  0.99004  Biso   1.000  O
  O15      1.0000 0.45564  0.38114  0.51506  Biso   1.000  O
  O16      1.0000 0.44199  0.37139  0.75935  Biso   1.000  O
  Zr9      1.0000 0.26430  0.52445  0.14812  Biso   1.000  Zr
  Zr10     1.0000 0.26965  0.72736  0.39934  Biso   1.000  Zr
  Zr11     1.0000 0.71903  0.77265  0.10576  Biso   1.000  Zr
  Zr12     1.0000 0.72438  0.97556  0.35697  Biso   1.000  Zr
  O17      1.0000 0.05609  0.66718  0.07949  Biso   1.000  O
  O18      1.0000 0.05115  0.58335  0.32997  Biso   1.000  O
  O19      1.0000 0.93752  0.91666  0.17512  Biso   1.000  O
  O20      1.0000 0.93257  0.83282  0.42561  Biso   1.000  O
  O21      1.0000 0.53944  0.62949  0.24446  Biso   1.000  O
  O22      1.0000 0.54039  0.62372  0.49328  Biso   1.000  O
  O23      1.0000 0.44828  0.87628  0.01182  Biso   1.000  O
  O24      1.0000 0.44923  0.87051  0.26064  Biso   1.000  O
  Zr13     1.0000 0.27468  0.52405  0.64900  Biso   1.000  Zr
  Zr14     1.0000 0.26921  0.72820  0.89953  Biso   1.000  Zr
  Zr15     1.0000 0.71947  0.77180  0.60557  Biso   1.000  Zr
  Zr16     1.0000 0.71400  0.97596  0.85610  Biso   1.000  Zr
  O25      1.0000 0.05757  0.66428  0.57992  Biso   1.000  O
  O26      1.0000 0.05923  0.58589  0.82957  Biso   1.000  O
  O27      1.0000 0.92945  0.91411  0.67553  Biso   1.000  O
  O28      1.0000 0.93110  0.83572  0.92518  Biso   1.000  O
  O29      1.0000 0.54678  0.62913  0.74326  Biso   1.000  O
  O30      1.0000 0.54329  0.62346  0.99342  Biso   1.000  O
  O31      1.0000 0.44539  0.87654  0.51168  Biso   1.000  O
  O32      1.0000 0.44190  0.87087  0.76184  Biso   1.000  O
  Sc1      1.0000 0.99434  0.25000  0.25255  Biso   1.000  Sc
