data_image0
_cell_length_a       5.11305
_cell_length_b       10.3171
_cell_length_c       10.4909
_cell_angle_alpha    89.9954
_cell_angle_beta     80.1162
_cell_angle_gamma    90.015

_symmetry_space_group_name_H-M    "P 1"
_symmetry_int_tables_number       1

loop_
  _symmetry_equiv_pos_as_xyz
  'x, y, z'

loop_
  _atom_site_label
  _atom_site_occupancy
  _atom_site_fract_x
  _atom_site_fract_y
  _atom_site_fract_z
  _atom_site_thermal_displace_type
  _atom_site_B_iso_or_equiv
  _atom_site_type_symbol
  Sc1      1.0000 0.27778  0.01997  0.14728  Biso   1.000  Sc
  Zr1      1.0000 0.27823  0.02120  0.64529  Biso   1.000  Zr
  Zr2      1.0000 0.27890  0.52056  0.14513  Biso   1.000  Zr
  Zr3      1.0000 0.27886  0.52140  0.64583  Biso   1.000  Zr
  Zr4      1.0000 0.27853  0.22696  0.39363  Biso   1.000  Zr
  Zr5      1.0000 0.27866  0.22738  0.89788  Biso   1.000  Zr
  Zr6      1.0000 0.27989  0.72992  0.39444  Biso   1.000  Zr
  Zr7      1.0000 0.28038  0.73048  0.89668  Biso   1.000  Zr
  Zr8      1.0000 0.72062  0.26688  0.10470  Biso   1.000  Zr
  Zr9      1.0000 0.72005  0.27110  0.60438  Biso   1.000  Zr
  Zr10     1.0000 0.71884  0.77398  0.10503  Biso   1.000  Zr
  Zr11     1.0000 0.72169  0.77175  0.60412  Biso   1.000  Zr
  Zr12     1.0000 0.72036  0.47868  0.35407  Biso   1.000  Zr
  Zr13     1.0000 0.72158  0.47851  0.85517  Biso   1.000  Zr
  Zr14     1.0000 0.72184  0.98007  0.35121  Biso   1.000  Zr
  Zr15     1.0000 0.71810  0.97955  0.85636  Biso   1.000  Zr
  O1       1.0000 0.06890  0.16719  0.07955  Biso   1.000  O
  O2       1.0000 0.06759  0.16778  0.57979  Biso   1.000  O
  O3       1.0000 0.06694  0.66663  0.07959  Biso   1.000  O
  O4       1.0000 0.06897  0.66789  0.57988  Biso   1.000  O
  O5       1.0000 0.06647  0.08344  0.33031  Biso   1.000  O
  O6       1.0000 0.06822  0.08241  0.82946  Biso   1.000  O
  O7       1.0000 0.06780  0.58285  0.32932  Biso   1.000  O
  O8       1.0000 0.06873  0.58288  0.83001  Biso   1.000  O
  O9       1.0000 0.93141  0.41652  0.17038  Biso   1.000  O
  O10      1.0000 0.93143  0.41787  0.67014  Biso   1.000  O
  O11      1.0000 0.93265  0.91624  0.17040  Biso   1.000  O
  O12      1.0000 0.93083  0.91778  0.67032  Biso   1.000  O
  O13      1.0000 0.93129  0.33309  0.42032  Biso   1.000  O
  O14      1.0000 0.93265  0.33301  0.92026  Biso   1.000  O
  O15      1.0000 0.93170  0.83253  0.42012  Biso   1.000  O
  O16      1.0000 0.93345  0.83335  0.92020  Biso   1.000  O
  O17      1.0000 0.55311  0.12861  0.24214  Biso   1.000  O
  O18      1.0000 0.55042  0.12839  0.74060  Biso   1.000  O
  O19      1.0000 0.55081  0.62781  0.24037  Biso   1.000  O
  O20      1.0000 0.55136  0.62916  0.74082  Biso   1.000  O
  O21      1.0000 0.54972  0.12192  0.49133  Biso   1.000  O
  O22      1.0000 0.55524  0.12268  0.98941  Biso   1.000  O
  O23      1.0000 0.55112  0.62179  0.49057  Biso   1.000  O
  O24      1.0000 0.55080  0.62075  0.99070  Biso   1.000  O
  O25      1.0000 0.44929  0.37838  0.00945  Biso   1.000  O
  O26      1.0000 0.44867  0.37907  0.50939  Biso   1.000  O
  O27      1.0000 0.45138  0.87776  0.00793  Biso   1.000  O
  O28      1.0000 0.44916  0.87885  0.50900  Biso   1.000  O
  O29      1.0000 0.44805  0.37143  0.25932  Biso   1.000  O
  O30      1.0000 0.44946  0.37150  0.75953  Biso   1.000  O
  O31      1.0000 0.44937  0.87009  0.25961  Biso   1.000  O
  O32      1.0000 0.44870  0.87196  0.75858  Biso   1.000  O
