data_image0
_cell_length_a       10.2266
_cell_length_b       5.15816
_cell_length_c       10.4907
_cell_angle_alpha    89.9878
_cell_angle_beta     80.1118
_cell_angle_gamma    90.0187

_symmetry_space_group_name_H-M    "P 1"
_symmetry_int_tables_number       1

loop_
  _symmetry_equiv_pos_as_xyz
  'x, y, z'

loop_
  _atom_site_label
  _atom_site_occupancy
  _atom_site_fract_x
  _atom_site_fract_y
  _atom_site_fract_z
  _atom_site_thermal_displace_type
  _atom_site_B_iso_or_equiv
  _atom_site_type_symbol
  Sc1      1.0000 0.13938  0.03978  0.14679  Biso   1.000  Sc
  Zr1      1.0000 0.13961  0.04284  0.64562  Biso   1.000  Zr
  Zr2      1.0000 0.63899  0.04128  0.14553  Biso   1.000  Zr
  Zr3      1.0000 0.63897  0.04220  0.64550  Biso   1.000  Zr
  Zr4      1.0000 0.14038  0.45533  0.39290  Biso   1.000  Zr
  Zr5      1.0000 0.14059  0.45737  0.89827  Biso   1.000  Zr
  Zr6      1.0000 0.63884  0.45852  0.39515  Biso   1.000  Zr
  Zr7      1.0000 0.63897  0.45810  0.89633  Biso   1.000  Zr
  Zr8      1.0000 0.35677  0.53994  0.10495  Biso   1.000  Zr
  Zr9      1.0000 0.36010  0.54362  0.60454  Biso   1.000  Zr
  Zr10     1.0000 0.86314  0.54212  0.10477  Biso   1.000  Zr
  Zr11     1.0000 0.86067  0.54211  0.60389  Biso   1.000  Zr
  Zr12     1.0000 0.35852  0.95851  0.35254  Biso   1.000  Zr
  Zr13     1.0000 0.35901  0.95828  0.85685  Biso   1.000  Zr
  Zr14     1.0000 0.86265  0.95916  0.35260  Biso   1.000  Zr
  Zr15     1.0000 0.86073  0.95784  0.85481  Biso   1.000  Zr
  O1       1.0000 0.03444  0.33476  0.07980  Biso   1.000  O
  O2       1.0000 0.03432  0.33575  0.57978  Biso   1.000  O
  O3       1.0000 0.53374  0.33344  0.07952  Biso   1.000  O
  O4       1.0000 0.53376  0.33507  0.57979  Biso   1.000  O
  O5       1.0000 0.03356  0.16690  0.33036  Biso   1.000  O
  O6       1.0000 0.03400  0.16522  0.82966  Biso   1.000  O
  O7       1.0000 0.53362  0.16565  0.32942  Biso   1.000  O
  O8       1.0000 0.53445  0.16542  0.82970  Biso   1.000  O
  O9       1.0000 0.46673  0.83092  0.17063  Biso   1.000  O
  O10      1.0000 0.46572  0.83456  0.67107  Biso   1.000  O
  O11      1.0000 0.96517  0.83523  0.17001  Biso   1.000  O
  O12      1.0000 0.96553  0.83608  0.66959  Biso   1.000  O
  O13      1.0000 0.46561  0.66670  0.42091  Biso   1.000  O
  O14      1.0000 0.46726  0.66804  0.92100  Biso   1.000  O
  O15      1.0000 0.96586  0.66475  0.41968  Biso   1.000  O
  O16      1.0000 0.96577  0.66442  0.91941  Biso   1.000  O
  O17      1.0000 0.27717  0.25582  0.24176  Biso   1.000  O
  O18      1.0000 0.27538  0.25758  0.74094  Biso   1.000  O
  O19      1.0000 0.77480  0.25733  0.24074  Biso   1.000  O
  O20      1.0000 0.77554  0.25725  0.74045  Biso   1.000  O
  O21      1.0000 0.27538  0.24336  0.49126  Biso   1.000  O
  O22      1.0000 0.27784  0.24488  0.98972  Biso   1.000  O
  O23      1.0000 0.77496  0.24404  0.49064  Biso   1.000  O
  O24      1.0000 0.77523  0.24193  0.99045  Biso   1.000  O
  O25      1.0000 0.22538  0.75573  0.00823  Biso   1.000  O
  O26      1.0000 0.22412  0.75786  0.50918  Biso   1.000  O
  O27      1.0000 0.72492  0.75659  0.00914  Biso   1.000  O
  O28      1.0000 0.72470  0.75783  0.50920  Biso   1.000  O
  O29      1.0000 0.22496  0.74019  0.25931  Biso   1.000  O
  O30      1.0000 0.22429  0.74377  0.75901  Biso   1.000  O
  O31      1.0000 0.72370  0.74291  0.25956  Biso   1.000  O
  O32      1.0000 0.72476  0.74301  0.75907  Biso   1.000  O
