data_image0
_cell_length_a       10.2153
_cell_length_b       10.122
_cell_length_c       10.2153
_cell_angle_alpha    90.2181
_cell_angle_beta     82.822
_cell_angle_gamma    90.2182

_symmetry_space_group_name_H-M    "P 1"
_symmetry_int_tables_number       1

loop_
  _symmetry_equiv_pos_as_xyz
  'x, y, z'

loop_
  _atom_site_label
  _atom_site_occupancy
  _atom_site_fract_x
  _atom_site_fract_y
  _atom_site_fract_z
  _atom_site_thermal_displace_type
  _atom_site_B_iso_or_equiv
  _atom_site_type_symbol
  Hf1      1.0000 0.13171  0.99523  0.13170  Biso   1.000  Hf
  Hf2      1.0000 0.13491  0.25111  0.37704  Biso   1.000  Hf
  Hf3      1.0000 0.37705  0.25110  0.13492  Biso   1.000  Hf
  Hf4      1.0000 0.37932  0.98998  0.37932  Biso   1.000  Hf
  O1       1.0000 0.05062  0.18064  0.05061  Biso   1.000  O
  O2       1.0000 0.04602  0.08205  0.30153  Biso   1.000  O
  O3       1.0000 0.99017  0.33299  0.26084  Biso   1.000  O
  O4       1.0000 0.98583  0.39689  0.98582  Biso   1.000  O
  O5       1.0000 0.31057  0.15821  0.31058  Biso   1.000  O
  O6       1.0000 0.30156  0.08203  0.04603  Biso   1.000  O
  O7       1.0000 0.26086  0.33297  0.99017  Biso   1.000  O
  O8       1.0000 0.25342  0.40520  0.25341  Biso   1.000  O
  Hf5      1.0000 0.12484  0.99075  0.62468  Biso   1.000  Hf
  Hf6      1.0000 0.12374  0.25881  0.85848  Biso   1.000  Hf
  Hf7      1.0000 0.37575  0.25450  0.62417  Biso   1.000  Hf
  Hf8      1.0000 0.37537  0.99197  0.87505  Biso   1.000  Hf
  O9       1.0000 0.04366  0.15511  0.54778  Biso   1.000  O
  O10      1.0000 0.04364  0.08942  0.79753  Biso   1.000  O
  O11      1.0000 0.00180  0.35063  0.74379  Biso   1.000  O
  O12      1.0000 0.99977  0.39743  0.49664  Biso   1.000  O
  O13      1.0000 0.29293  0.15719  0.79205  Biso   1.000  O
  O14      1.0000 0.29346  0.08674  0.54923  Biso   1.000  O
  O15      1.0000 0.25388  0.34949  0.50670  Biso   1.000  O
  O16      1.0000 0.24568  0.40066  0.74597  Biso   1.000  O
  Hf9      1.0000 0.09566  0.54645  0.09567  Biso   1.000  Hf
  Hf10     1.0000 0.12538  0.75672  0.37671  Biso   1.000  Hf
  Hf11     1.0000 0.37672  0.75672  0.12537  Biso   1.000  Hf
  Hf12     1.0000 0.37552  0.49034  0.37551  Biso   1.000  Hf
  O17      1.0000 0.96310  0.65204  0.96311  Biso   1.000  O
  O18      1.0000 0.93541  0.59668  0.21615  Biso   1.000  O
  O19      1.0000 0.99792  0.84825  0.24911  Biso   1.000  O
  O20      1.0000 0.00440  0.90776  0.00439  Biso   1.000  O
  O21      1.0000 0.20384  0.66675  0.20384  Biso   1.000  O
  O22      1.0000 0.21614  0.59666  0.93542  Biso   1.000  O
  O23      1.0000 0.24912  0.84824  0.99791  Biso   1.000  O
  O24      1.0000 0.25482  0.90231  0.25482  Biso   1.000  O
  Hf13     1.0000 0.12476  0.49544  0.62179  Biso   1.000  Hf
  Hf14     1.0000 0.12651  0.76436  0.87281  Biso   1.000  Hf
  Hf15     1.0000 0.37440  0.75437  0.62512  Biso   1.000  Hf
  Hf16     1.0000 0.37960  0.48735  0.87494  Biso   1.000  Hf
  O25      1.0000 0.95923  0.65491  0.45933  Biso   1.000  O
  O26      1.0000 0.95452  0.59142  0.70685  Biso   1.000  O
  O27      1.0000 0.99407  0.84947  0.74994  Biso   1.000  O
  O28      1.0000 0.00207  0.89715  0.50476  Biso   1.000  O
  O29      1.0000 0.20132  0.66434  0.69940  Biso   1.000  O
  O30      1.0000 0.20879  0.59102  0.45354  Biso   1.000  O
  O31      1.0000 0.24793  0.84897  0.49816  Biso   1.000  O
  O32      1.0000 0.25162  0.90063  0.75395  Biso   1.000  O
  Hf17     1.0000 0.62469  0.99075  0.12483  Biso   1.000  Hf
  Hf18     1.0000 0.62417  0.25450  0.37575  Biso   1.000  Hf
  Hf19     1.0000 0.85849  0.25882  0.12374  Biso   1.000  Hf
  Hf20     1.0000 0.87505  0.99197  0.37537  Biso   1.000  Hf
  O33      1.0000 0.54780  0.15512  0.04365  Biso   1.000  O
  O34      1.0000 0.54922  0.08675  0.29345  Biso   1.000  O
  O35      1.0000 0.50670  0.34950  0.25388  Biso   1.000  O
  O36      1.0000 0.49664  0.39742  0.99977  Biso   1.000  O
  O37      1.0000 0.79204  0.15719  0.29293  Biso   1.000  O
  O38      1.0000 0.79755  0.08941  0.04364  Biso   1.000  O
  O39      1.0000 0.74379  0.35063  0.00179  Biso   1.000  O
  O40      1.0000 0.74596  0.40067  0.24567  Biso   1.000  O
  Hf21     1.0000 0.62502  0.99035  0.62502  Biso   1.000  Hf
  Hf22     1.0000 0.62213  0.25524  0.87514  Biso   1.000  Hf
  Hf23     1.0000 0.87514  0.25524  0.62212  Biso   1.000  Hf
  Hf24     1.0000 0.87296  0.99191  0.87296  Biso   1.000  Hf
  O41      1.0000 0.54314  0.15607  0.54313  Biso   1.000  O
  O42      1.0000 0.54347  0.08873  0.79275  Biso   1.000  O
  O43      1.0000 0.50173  0.34745  0.75265  Biso   1.000  O
  O44      1.0000 0.49832  0.39728  0.49832  Biso   1.000  O
  O45      1.0000 0.79425  0.15948  0.79425  Biso   1.000  O
  O46      1.0000 0.79276  0.08872  0.54347  Biso   1.000  O
  O47      1.0000 0.75265  0.34745  0.50172  Biso   1.000  O
  O48      1.0000 0.74472  0.39840  0.74470  Biso   1.000  O
  Hf25     1.0000 0.62179  0.49545  0.12476  Biso   1.000  Hf
  Hf26     1.0000 0.62513  0.75437  0.37439  Biso   1.000  Hf
  Hf27     1.0000 0.87282  0.76438  0.12650  Biso   1.000  Hf
  Hf28     1.0000 0.87494  0.48735  0.37960  Biso   1.000  Hf
  O49      1.0000 0.45932  0.65492  0.95923  Biso   1.000  O
  O50      1.0000 0.45355  0.59102  0.20879  Biso   1.000  O
  O51      1.0000 0.49816  0.84898  0.24793  Biso   1.000  O
  O52      1.0000 0.50477  0.89715  0.00206  Biso   1.000  O
  O53      1.0000 0.69941  0.66435  0.20130  Biso   1.000  O
  O54      1.0000 0.70684  0.59141  0.95450  Biso   1.000  O
  O55      1.0000 0.74995  0.84947  0.99406  Biso   1.000  O
  O56      1.0000 0.75395  0.90064  0.25161  Biso   1.000  O
  Hf29     1.0000 0.62317  0.49213  0.62317  Biso   1.000  Hf
  Hf30     1.0000 0.62404  0.75568  0.87451  Biso   1.000  Hf
  Hf31     1.0000 0.87452  0.75569  0.62403  Biso   1.000  Hf
  Hf32     1.0000 0.86918  0.49285  0.86917  Biso   1.000  Hf
  O57      1.0000 0.45896  0.65792  0.45896  Biso   1.000  O
  O58      1.0000 0.45422  0.58788  0.70745  Biso   1.000  O
  O59      1.0000 0.49573  0.84670  0.74833  Biso   1.000  O
  O60      1.0000 0.50434  0.89782  0.50433  Biso   1.000  O
  O61      1.0000 0.70449  0.65803  0.70447  Biso   1.000  O
  O62      1.0000 0.70744  0.58788  0.45421  Biso   1.000  O
  O63      1.0000 0.74833  0.84670  0.49571  Biso   1.000  O
  O64      1.0000 0.75116  0.89941  0.75115  Biso   1.000  O
  Si1      1.0000 0.13268  0.30820  0.13265  Biso   1.000  Si
