data_image0
_cell_length_a       10.1533
_cell_length_b       10.2928
_cell_length_c       10.5195
_cell_angle_alpha    90.1313
_cell_angle_beta     80.6106
_cell_angle_gamma    89.5906

_symmetry_space_group_name_H-M    "P 1"
_symmetry_int_tables_number       1

loop_
  _symmetry_equiv_pos_as_xyz
  'x, y, z'

loop_
  _atom_site_label
  _atom_site_occupancy
  _atom_site_fract_x
  _atom_site_fract_y
  _atom_site_fract_z
  _atom_site_thermal_displace_type
  _atom_site_B_iso_or_equiv
  _atom_site_type_symbol
  Si1      1.0000 0.11920  0.01454  0.16332  Biso   1.000  Si
  Zr1      1.0000 0.13605  0.02041  0.64209  Biso   1.000  Zr
  Zr2      1.0000 0.14009  0.52312  0.14547  Biso   1.000  Zr
  Zr3      1.0000 0.14028  0.51958  0.64434  Biso   1.000  Zr
  Zr4      1.0000 0.63837  0.02290  0.14551  Biso   1.000  Zr
  Zr5      1.0000 0.63805  0.02126  0.64606  Biso   1.000  Zr
  Zr6      1.0000 0.63695  0.52107  0.14458  Biso   1.000  Zr
  Zr7      1.0000 0.63835  0.52123  0.64676  Biso   1.000  Zr
  Zr8      1.0000 0.13696  0.22545  0.38668  Biso   1.000  Zr
  Zr9      1.0000 0.14315  0.22415  0.89320  Biso   1.000  Zr
  Zr10     1.0000 0.13787  0.72764  0.39671  Biso   1.000  Zr
  Zr11     1.0000 0.13561  0.72911  0.89398  Biso   1.000  Zr
  Zr12     1.0000 0.63941  0.22819  0.39467  Biso   1.000  Zr
  Zr13     1.0000 0.64031  0.23068  0.89693  Biso   1.000  Zr
  Zr14     1.0000 0.63806  0.72800  0.39550  Biso   1.000  Zr
  Zr15     1.0000 0.63469  0.72997  0.89868  Biso   1.000  Zr
  Zr16     1.0000 0.35814  0.26806  0.10073  Biso   1.000  Zr
  Zr17     1.0000 0.36058  0.27179  0.60228  Biso   1.000  Zr
  Zr18     1.0000 0.35352  0.77968  0.10688  Biso   1.000  Zr
  Zr19     1.0000 0.36127  0.77248  0.60716  Biso   1.000  Zr
  Zr20     1.0000 0.87071  0.26489  0.10729  Biso   1.000  Zr
  Zr21     1.0000 0.86164  0.27072  0.60499  Biso   1.000  Zr
  Zr22     1.0000 0.86295  0.77340  0.10594  Biso   1.000  Zr
  Zr23     1.0000 0.85886  0.76888  0.60752  Biso   1.000  Zr
  Zr24     1.0000 0.36185  0.47785  0.35349  Biso   1.000  Zr
  Zr25     1.0000 0.36114  0.48050  0.85538  Biso   1.000  Zr
  Zr26     1.0000 0.35848  0.97719  0.35123  Biso   1.000  Zr
  Zr27     1.0000 0.36026  0.98644  0.85721  Biso   1.000  Zr
  Zr28     1.0000 0.86060  0.47803  0.35446  Biso   1.000  Zr
  Zr29     1.0000 0.86262  0.47651  0.85835  Biso   1.000  Zr
  Zr30     1.0000 0.85986  0.97597  0.35713  Biso   1.000  Zr
  Zr31     1.0000 0.86052  0.97945  0.85486  Biso   1.000  Zr
  O1       1.0000 0.05300  0.14416  0.08175  Biso   1.000  O
  O2       1.0000 0.03239  0.16095  0.56906  Biso   1.000  O
  O3       1.0000 0.03383  0.66651  0.07827  Biso   1.000  O
  O4       1.0000 0.03336  0.66429  0.57964  Biso   1.000  O
  O5       1.0000 0.53483  0.16663  0.07745  Biso   1.000  O
  O6       1.0000 0.53428  0.16640  0.57668  Biso   1.000  O
  O7       1.0000 0.53087  0.66900  0.07976  Biso   1.000  O
  O8       1.0000 0.53440  0.66711  0.57773  Biso   1.000  O
  O9       1.0000 0.03785  0.07366  0.31759  Biso   1.000  O
  O10      1.0000 0.03272  0.08519  0.82380  Biso   1.000  O
  O11      1.0000 0.03466  0.58112  0.32925  Biso   1.000  O
  O12      1.0000 0.03499  0.58351  0.82933  Biso   1.000  O
  O13      1.0000 0.53077  0.08631  0.32569  Biso   1.000  O
  O14      1.0000 0.53895  0.08326  0.82813  Biso   1.000  O
  O15      1.0000 0.53564  0.58154  0.32892  Biso   1.000  O
  O16      1.0000 0.53209  0.58781  0.82669  Biso   1.000  O
  O17      1.0000 0.46573  0.41586  0.17208  Biso   1.000  O
  O18      1.0000 0.46566  0.41610  0.67285  Biso   1.000  O
  O19      1.0000 0.46683  0.91470  0.17434  Biso   1.000  O
  O20      1.0000 0.46468  0.91830  0.67285  Biso   1.000  O
  O21      1.0000 0.97100  0.41183  0.17391  Biso   1.000  O
  O22      1.0000 0.96817  0.41210  0.67562  Biso   1.000  O
  O23      1.0000 0.97708  0.91709  0.17273  Biso   1.000  O
  O24      1.0000 0.96469  0.91346  0.67367  Biso   1.000  O
  O25      1.0000 0.46716  0.33465  0.42249  Biso   1.000  O
  O26      1.0000 0.47351  0.34344  0.92495  Biso   1.000  O
  O27      1.0000 0.46439  0.83392  0.42174  Biso   1.000  O
  O28      1.0000 0.45595  0.83495  0.92511  Biso   1.000  O
  O29      1.0000 0.96440  0.32991  0.42030  Biso   1.000  O
  O30      1.0000 0.97044  0.33118  0.92956  Biso   1.000  O
  O31      1.0000 0.96328  0.83076  0.42475  Biso   1.000  O
  O32      1.0000 0.96423  0.83444  0.92427  Biso   1.000  O
  O33      1.0000 0.25722  0.11278  0.21650  Biso   1.000  O
  O34      1.0000 0.27316  0.12618  0.72947  Biso   1.000  O
  O35      1.0000 0.27533  0.63039  0.24058  Biso   1.000  O
  O36      1.0000 0.27469  0.62859  0.73950  Biso   1.000  O
  O37      1.0000 0.77703  0.12567  0.24096  Biso   1.000  O
  O38      1.0000 0.77744  0.12936  0.73962  Biso   1.000  O
  O39      1.0000 0.77652  0.62822  0.24005  Biso   1.000  O
  O40      1.0000 0.77540  0.62730  0.74301  Biso   1.000  O
  O41      1.0000 0.27554  0.12324  0.47876  Biso   1.000  O
  O42      1.0000 0.30115  0.14752  0.96233  Biso   1.000  O
  O43      1.0000 0.27651  0.62063  0.49062  Biso   1.000  O
  O44      1.0000 0.27421  0.63084  0.99000  Biso   1.000  O
  O45      1.0000 0.77650  0.11978  0.48992  Biso   1.000  O
  O46      1.0000 0.77859  0.12156  0.99181  Biso   1.000  O
  O47      1.0000 0.77535  0.61995  0.49134  Biso   1.000  O
  O48      1.0000 0.77485  0.62217  0.99123  Biso   1.000  O
  O49      1.0000 0.22493  0.38549  0.00871  Biso   1.000  O
  O50      1.0000 0.22250  0.37744  0.50716  Biso   1.000  O
  O51      1.0000 0.21610  0.91874  0.03246  Biso   1.000  O
  O52      1.0000 0.22384  0.87778  0.51094  Biso   1.000  O
  O53      1.0000 0.73053  0.37668  0.01282  Biso   1.000  O
  O54      1.0000 0.72438  0.37773  0.51081  Biso   1.000  O
  O55      1.0000 0.72295  0.87960  0.01134  Biso   1.000  O
  O56      1.0000 0.72210  0.87700  0.51138  Biso   1.000  O
  O57      1.0000 0.22689  0.36666  0.25841  Biso   1.000  O
  O58      1.0000 0.22607  0.37018  0.75934  Biso   1.000  O
  O59      1.0000 0.21364  0.87379  0.26209  Biso   1.000  O
  O60      1.0000 0.22340  0.87195  0.76554  Biso   1.000  O
  O61      1.0000 0.72799  0.36853  0.25905  Biso   1.000  O
  O62      1.0000 0.72574  0.37255  0.76186  Biso   1.000  O
  O63      1.0000 0.72882  0.87139  0.26006  Biso   1.000  O
  O64      1.0000 0.72238  0.87104  0.76202  Biso   1.000  O
