data_image0
_cell_length_a       10.15
_cell_length_b       10.2373
_cell_length_c       5.27514
_cell_angle_alpha    90.59
_cell_angle_beta     80.4807
_cell_angle_gamma    89.3781

_symmetry_space_group_name_H-M    "P 1"
_symmetry_int_tables_number       1

loop_
  _symmetry_equiv_pos_as_xyz
  'x, y, z'

loop_
  _atom_site_label
  _atom_site_occupancy
  _atom_site_fract_x
  _atom_site_fract_y
  _atom_site_fract_z
  _atom_site_thermal_displace_type
  _atom_site_B_iso_or_equiv
  _atom_site_type_symbol
  Si1      1.0000 0.11267  0.02242  0.30633  Biso   1.000  Si
  Zr1      1.0000 0.14104  0.52093  0.28991  Biso   1.000  Zr
  Zr2      1.0000 0.63846  0.02304  0.29132  Biso   1.000  Zr
  Zr3      1.0000 0.63555  0.52111  0.29277  Biso   1.000  Zr
  Zr4      1.0000 0.13961  0.22290  0.76223  Biso   1.000  Zr
  Zr5      1.0000 0.13508  0.72604  0.79589  Biso   1.000  Zr
  Zr6      1.0000 0.64082  0.22997  0.79139  Biso   1.000  Zr
  Zr7      1.0000 0.63393  0.72929  0.79986  Biso   1.000  Zr
  Zr8      1.0000 0.35720  0.26721  0.19365  Biso   1.000  Zr
  Zr9      1.0000 0.35353  0.78019  0.22699  Biso   1.000  Zr
  Zr10     1.0000 0.86901  0.26601  0.21269  Biso   1.000  Zr
  Zr11     1.0000 0.86086  0.77098  0.21581  Biso   1.000  Zr
  Zr12     1.0000 0.36182  0.47835  0.70824  Biso   1.000  Zr
  Zr13     1.0000 0.36042  0.98213  0.71296  Biso   1.000  Zr
  Zr14     1.0000 0.86150  0.47633  0.71503  Biso   1.000  Zr
  Zr15     1.0000 0.86010  0.97629  0.71242  Biso   1.000  Zr
  O1       1.0000 0.04777  0.14108  0.13532  Biso   1.000  O
  O2       1.0000 0.03012  0.66068  0.15785  Biso   1.000  O
  O3       1.0000 0.53123  0.16016  0.14400  Biso   1.000  O
  O4       1.0000 0.52884  0.66520  0.15577  Biso   1.000  O
  O5       1.0000 0.03391  0.07943  0.61589  Biso   1.000  O
  O6       1.0000 0.03302  0.58359  0.65659  Biso   1.000  O
  O7       1.0000 0.53658  0.08884  0.64574  Biso   1.000  O
  O8       1.0000 0.53038  0.58964  0.65126  Biso   1.000  O
  O9       1.0000 0.46805  0.40888  0.35340  Biso   1.000  O
  O10      1.0000 0.47021  0.91168  0.36234  Biso   1.000  O
  O11      1.0000 0.97407  0.40457  0.35912  Biso   1.000  O
  O12      1.0000 0.97741  0.91500  0.34515  Biso   1.000  O
  O13      1.0000 0.47570  0.34652  0.85810  Biso   1.000  O
  O14      1.0000 0.45902  0.84106  0.86700  Biso   1.000  O
  O15      1.0000 0.96974  0.33155  0.85802  Biso   1.000  O
  O16      1.0000 0.96435  0.83472  0.85546  Biso   1.000  O
  O17      1.0000 0.25080  0.11142  0.40675  Biso   1.000  O
  O18      1.0000 0.27407  0.62551  0.48060  Biso   1.000  O
  O19      1.0000 0.77944  0.12646  0.47718  Biso   1.000  O
  O20      1.0000 0.77500  0.62664  0.48495  Biso   1.000  O
  O21      1.0000 0.29868  0.15100  0.89378  Biso   1.000  O
  O22      1.0000 0.27484  0.63115  0.98394  Biso   1.000  O
  O23      1.0000 0.77873  0.12079  0.97932  Biso   1.000  O
  O24      1.0000 0.77350  0.62167  0.98426  Biso   1.000  O
  O25      1.0000 0.22401  0.38451  0.01138  Biso   1.000  O
  O26      1.0000 0.21463  0.91791  0.08026  Biso   1.000  O
  O27      1.0000 0.73027  0.37609  0.02749  Biso   1.000  O
  O28      1.0000 0.72247  0.87746  0.02584  Biso   1.000  O
  O29      1.0000 0.22832  0.36606  0.51251  Biso   1.000  O
  O30      1.0000 0.22633  0.86613  0.55625  Biso   1.000  O
  O31      1.0000 0.72863  0.37031  0.52221  Biso   1.000  O
  O32      1.0000 0.72825  0.87109  0.52478  Biso   1.000  O
