data_image0
_cell_length_a       9.98858
_cell_length_b       5.27157
_cell_length_c       10.2089
_cell_angle_alpha    90.6838
_cell_angle_beta     88.3126
_cell_angle_gamma    90.2803

_symmetry_space_group_name_H-M    "P 1"
_symmetry_int_tables_number       1

loop_
  _symmetry_equiv_pos_as_xyz
  'x, y, z'

loop_
  _atom_site_label
  _atom_site_occupancy
  _atom_site_fract_x
  _atom_site_fract_y
  _atom_site_fract_z
  _atom_site_thermal_displace_type
  _atom_site_B_iso_or_equiv
  _atom_site_type_symbol
  Zr1      1.0000 0.13064  0.15595  0.10487  Biso   1.000  Zr
  Zr2      1.0000 0.13802  0.44685  0.40516  Biso   1.000  Zr
  Zr3      1.0000 0.37126  0.51521  0.12518  Biso   1.000  Zr
  Zr4      1.0000 0.36711  0.95855  0.37914  Biso   1.000  Zr
  O1       1.0000 0.01791  0.39571  0.23646  Biso   1.000  O
  O2       1.0000 0.03972  0.11334  0.45066  Biso   1.000  O
  O3       1.0000 0.46626  0.84967  0.20098  Biso   1.000  O
  O4       1.0000 0.47035  0.62350  0.44991  Biso   1.000  O
  O5       1.0000 0.27332  0.21561  0.25756  Biso   1.000  O
  O6       1.0000 0.27849  0.24791  0.50875  Biso   1.000  O
  O7       1.0000 0.23515  0.75463  0.51082  Biso   1.000  O
  O8       1.0000 0.22310  0.70882  0.26606  Biso   1.000  O
  Zr5      1.0000 0.13569  0.02520  0.63390  Biso   1.000  Zr
  Zr6      1.0000 0.12474  0.47225  0.86929  Biso   1.000  Zr
  Zr7      1.0000 0.36887  0.52879  0.63149  Biso   1.000  Zr
  Zr8      1.0000 0.36651  0.96982  0.87642  Biso   1.000  Zr
  O9       1.0000 0.04073  0.37665  0.67738  Biso   1.000  O
  O10      1.0000 0.03591  0.11985  0.91636  Biso   1.000  O
  O11      1.0000 0.46452  0.86736  0.69553  Biso   1.000  O
  O12      1.0000 0.46267  0.64046  0.94241  Biso   1.000  O
  O13      1.0000 0.26781  0.23513  0.74989  Biso   1.000  O
  O14      1.0000 0.28356  0.27764  0.98226  Biso   1.000  O
  O15      1.0000 0.22047  0.79494  0.02094  Biso   1.000  O
  O16      1.0000 0.23094  0.73911  0.75859  Biso   1.000  O
  Zr9      1.0000 0.63236  0.02188  0.12775  Biso   1.000  Zr
  Zr10     1.0000 0.63731  0.45961  0.37235  Biso   1.000  Zr
  Zr11     1.0000 0.85764  0.51806  0.10667  Biso   1.000  Zr
  Zr12     1.0000 0.87079  0.96403  0.37520  Biso   1.000  Zr
  O17      1.0000 0.53998  0.35330  0.19999  Biso   1.000  O
  O18      1.0000 0.53822  0.12464  0.44370  Biso   1.000  O
  O19      1.0000 0.99502  0.84880  0.17079  Biso   1.000  O
  O20      1.0000 0.96825  0.63987  0.45006  Biso   1.000  O
  O21      1.0000 0.77519  0.21221  0.24165  Biso   1.000  O
  O22      1.0000 0.77323  0.26322  0.49299  Biso   1.000  O
  O23      1.0000 0.73349  0.76513  0.49592  Biso   1.000  O
  O24      1.0000 0.74452  0.72542  0.24734  Biso   1.000  O
  Zr13     1.0000 0.63367  0.02902  0.62126  Biso   1.000  Zr
  Zr14     1.0000 0.63082  0.46184  0.87343  Biso   1.000  Zr
  Zr15     1.0000 0.86518  0.53406  0.62293  Biso   1.000  Zr
  Zr16     1.0000 0.85877  0.96153  0.86560  Biso   1.000  Zr
  O25      1.0000 0.53423  0.36084  0.69747  Biso   1.000  O
  O26      1.0000 0.53425  0.13455  0.94956  Biso   1.000  O
  O27      1.0000 0.95868  0.86970  0.68724  Biso   1.000  O
  O28      1.0000 0.94047  0.61839  0.91335  Biso   1.000  O
  O29      1.0000 0.76790  0.23342  0.74336  Biso   1.000  O
  O30      1.0000 0.76648  0.25050  0.99401  Biso   1.000  O
  O31      1.0000 0.72265  0.75316  0.99944  Biso   1.000  O
  O32      1.0000 0.72206  0.73525  0.74513  Biso   1.000  O
  Si1      1.0000 0.11905  0.62678  0.14056  Biso   1.000  Si
