data_image0
_cell_length_a       5.12742
_cell_length_b       10.3649
_cell_length_c       10.1431
_cell_angle_alpha    90.0012
_cell_angle_beta     95.7861
_cell_angle_gamma    90

_symmetry_space_group_name_H-M    "P 1"
_symmetry_int_tables_number       1

loop_
  _symmetry_equiv_pos_as_xyz
  'x, y, z'

loop_
  _atom_site_label
  _atom_site_occupancy
  _atom_site_fract_x
  _atom_site_fract_y
  _atom_site_fract_z
  _atom_site_thermal_displace_type
  _atom_site_B_iso_or_equiv
  _atom_site_type_symbol
  Hf1      1.0000 0.24983  0.98105  0.12490  Biso   1.000  Hf
  Hf2      1.0000 0.16876  0.24921  0.38249  Biso   1.000  Hf
  Hf3      1.0000 0.74984  0.19946  0.12491  Biso   1.000  Hf
  Hf4      1.0000 0.70549  0.01009  0.38986  Biso   1.000  Hf
  O1       1.0000 0.03627  0.13189  0.99320  Biso   1.000  O
  O2       1.0000 0.98045  0.08088  0.26319  Biso   1.000  O
  O3       1.0000 0.80987  0.33163  0.28305  Biso   1.000  O
  O4       1.0000 0.15229  0.43874  0.98204  Biso   1.000  O
  O5       1.0000 0.46339  0.13188  0.25660  Biso   1.000  O
  O6       1.0000 0.51919  0.08087  0.98663  Biso   1.000  O
  O7       1.0000 0.68976  0.33161  0.96675  Biso   1.000  O
  O8       1.0000 0.34735  0.43876  0.26779  Biso   1.000  O
  Hf5      1.0000 0.24981  0.99799  0.62490  Biso   1.000  Hf
  Hf6      1.0000 0.33086  0.24921  0.86734  Biso   1.000  Hf
  Hf7      1.0000 0.74981  0.26224  0.62492  Biso   1.000  Hf
  Hf8      1.0000 0.79414  0.01009  0.85996  Biso   1.000  Hf
  O9       1.0000 0.94738  0.14491  0.50497  Biso   1.000  O
  O10      1.0000 0.05919  0.10396  0.75098  Biso   1.000  O
  O11      1.0000 0.02917  0.35177  0.75027  Biso   1.000  O
  O12      1.0000 0.97676  0.39497  0.50437  Biso   1.000  O
  O13      1.0000 0.55221  0.14491  0.74484  Biso   1.000  O
  O14      1.0000 0.44040  0.10395  0.49882  Biso   1.000  O
  O15      1.0000 0.47046  0.35177  0.49956  Biso   1.000  O
  O16      1.0000 0.52286  0.39497  0.74545  Biso   1.000  O
  Hf9      1.0000 0.24984  0.58031  0.12491  Biso   1.000  Hf
  Hf10     1.0000 0.22196  0.74093  0.39624  Biso   1.000  Hf
  Hf11     1.0000 0.74983  0.76183  0.12491  Biso   1.000  Hf
  Hf12     1.0000 0.70467  0.49829  0.36807  Biso   1.000  Hf
  O17      1.0000 0.00269  0.66837  0.98384  Biso   1.000  O
  O18      1.0000 0.94901  0.60270  0.24380  Biso   1.000  O
  O19      1.0000 0.09498  0.83172  0.23148  Biso   1.000  O
  O20      1.0000 0.91078  0.90528  0.01631  Biso   1.000  O
  O21      1.0000 0.49697  0.66837  0.26598  Biso   1.000  O
  O22      1.0000 0.55068  0.60267  0.00605  Biso   1.000  O
  O23      1.0000 0.40470  0.83171  0.01833  Biso   1.000  O
  O24      1.0000 0.58889  0.90529  0.23349  Biso   1.000  O
  Hf13     1.0000 0.24981  0.49092  0.62491  Biso   1.000  Hf
  Hf14     1.0000 0.27762  0.74095  0.85357  Biso   1.000  Hf
  Hf15     1.0000 0.74978  0.73960  0.62491  Biso   1.000  Hf
  Hf16     1.0000 0.79497  0.49828  0.88175  Biso   1.000  Hf
  O25      1.0000 0.96189  0.64078  0.49663  Biso   1.000  O
  O26      1.0000 0.02929  0.60150  0.74362  Biso   1.000  O
  O27      1.0000 0.99333  0.85511  0.75133  Biso   1.000  O
  O28      1.0000 0.00566  0.88970  0.49397  Biso   1.000  O
  O29      1.0000 0.53769  0.64078  0.75320  Biso   1.000  O
  O30      1.0000 0.47030  0.60151  0.50620  Biso   1.000  O
  O31      1.0000 0.50630  0.85511  0.49848  Biso   1.000  O
  O32      1.0000 0.49397  0.88970  0.75583  Biso   1.000  O
  Sn1      1.0000 0.24985  0.29440  0.12493  Biso   1.000  Sn
