data_image0
_cell_length_a       10.1034
_cell_length_b       10.2775
_cell_length_c       10.4426
_cell_angle_alpha    90.0035
_cell_angle_beta     80.4946
_cell_angle_gamma    89.941

_symmetry_space_group_name_H-M    "P 1"
_symmetry_int_tables_number       1

loop_
  _symmetry_equiv_pos_as_xyz
  'x, y, z'

loop_
  _atom_site_label
  _atom_site_occupancy
  _atom_site_fract_x
  _atom_site_fract_y
  _atom_site_fract_z
  _atom_site_thermal_displace_type
  _atom_site_B_iso_or_equiv
  _atom_site_type_symbol
  Sn1      1.0000 0.13546  0.01793  0.14889  Biso   1.000  Sn
  Hf1      1.0000 0.13839  0.22883  0.39543  Biso   1.000  Hf
  Hf2      1.0000 0.36059  0.27084  0.10331  Biso   1.000  Hf
  Hf3      1.0000 0.36101  0.47869  0.35380  Biso   1.000  Hf
  O1       1.0000 0.03869  0.16955  0.07958  Biso   1.000  O
  O2       1.0000 0.03407  0.08010  0.33205  Biso   1.000  O
  O3       1.0000 0.46364  0.41986  0.16900  Biso   1.000  O
  O4       1.0000 0.46380  0.33024  0.41912  Biso   1.000  O
  O5       1.0000 0.27524  0.12714  0.23856  Biso   1.000  O
  O6       1.0000 0.27696  0.12129  0.48913  Biso   1.000  O
  O7       1.0000 0.22381  0.38055  0.00888  Biso   1.000  O
  O8       1.0000 0.22374  0.36997  0.25912  Biso   1.000  O
  Hf4      1.0000 0.13874  0.02138  0.64516  Biso   1.000  Hf
  Hf5      1.0000 0.14018  0.22799  0.89487  Biso   1.000  Hf
  Hf6      1.0000 0.36124  0.27178  0.60372  Biso   1.000  Hf
  Hf7      1.0000 0.36128  0.47904  0.85414  Biso   1.000  Hf
  O9       1.0000 0.03633  0.17011  0.58028  Biso   1.000  O
  O10      1.0000 0.03655  0.08018  0.82963  Biso   1.000  O
  O11      1.0000 0.46393  0.42012  0.66932  Biso   1.000  O
  O12      1.0000 0.46439  0.33053  0.91918  Biso   1.000  O
  O13      1.0000 0.27692  0.12913  0.73880  Biso   1.000  O
  O14      1.0000 0.27953  0.12300  0.98712  Biso   1.000  O
  O15      1.0000 0.22314  0.37946  0.50904  Biso   1.000  O
  O16      1.0000 0.22388  0.37103  0.75901  Biso   1.000  O
  Hf8      1.0000 0.13902  0.52168  0.14561  Biso   1.000  Hf
  Hf9      1.0000 0.13816  0.72846  0.39617  Biso   1.000  Hf
  Hf10     1.0000 0.36194  0.77149  0.10409  Biso   1.000  Hf
  Hf11     1.0000 0.36159  0.97865  0.35411  Biso   1.000  Hf
  O17      1.0000 0.03631  0.67013  0.08059  Biso   1.000  O
  O18      1.0000 0.03640  0.57984  0.33068  Biso   1.000  O
  O19      1.0000 0.46423  0.91956  0.16980  Biso   1.000  O
  O20      1.0000 0.46343  0.82946  0.41908  Biso   1.000  O
  O21      1.0000 0.27683  0.62936  0.24060  Biso   1.000  O
  O22      1.0000 0.27663  0.62083  0.49061  Biso   1.000  O
  O23      1.0000 0.22352  0.88238  0.01011  Biso   1.000  O
  O24      1.0000 0.22255  0.87020  0.25878  Biso   1.000  O
  Hf12     1.0000 0.13922  0.52138  0.64583  Biso   1.000  Hf
  Hf13     1.0000 0.13872  0.72911  0.89574  Biso   1.000  Hf
  Hf14     1.0000 0.36114  0.77149  0.60433  Biso   1.000  Hf
  Hf15     1.0000 0.36166  0.97993  0.85373  Biso   1.000  Hf
  O25      1.0000 0.03608  0.66976  0.58082  Biso   1.000  O
  O26      1.0000 0.03654  0.58042  0.83083  Biso   1.000  O
  O27      1.0000 0.46394  0.92038  0.66864  Biso   1.000  O
  O28      1.0000 0.46261  0.82957  0.91899  Biso   1.000  O
  O29      1.0000 0.27671  0.62937  0.74050  Biso   1.000  O
  O30      1.0000 0.27673  0.62217  0.99039  Biso   1.000  O
  O31      1.0000 0.22338  0.87920  0.50913  Biso   1.000  O
  O32      1.0000 0.22356  0.87087  0.75955  Biso   1.000  O
  Hf16     1.0000 0.63897  0.02149  0.14577  Biso   1.000  Hf
  Hf17     1.0000 0.63881  0.22905  0.39593  Biso   1.000  Hf
  Hf18     1.0000 0.86267  0.27024  0.10471  Biso   1.000  Hf
  Hf19     1.0000 0.86112  0.47870  0.35420  Biso   1.000  Hf
  O33      1.0000 0.53653  0.17009  0.08070  Biso   1.000  O
  O34      1.0000 0.53598  0.08029  0.33078  Biso   1.000  O
  O35      1.0000 0.96415  0.41993  0.16962  Biso   1.000  O
  O36      1.0000 0.96353  0.33043  0.41992  Biso   1.000  O
  O37      1.0000 0.77613  0.12914  0.24123  Biso   1.000  O
  O38      1.0000 0.77645  0.12095  0.49132  Biso   1.000  O
  O39      1.0000 0.72423  0.37859  0.00988  Biso   1.000  O
  O40      1.0000 0.72381  0.37057  0.25951  Biso   1.000  O
  Hf20     1.0000 0.63876  0.02168  0.64620  Biso   1.000  Hf
  Hf21     1.0000 0.63934  0.22897  0.89625  Biso   1.000  Hf
  Hf22     1.0000 0.86121  0.27163  0.60461  Biso   1.000  Hf
  Hf23     1.0000 0.86183  0.47813  0.85473  Biso   1.000  Hf
  O41      1.0000 0.53627  0.17028  0.58062  Biso   1.000  O
  O42      1.0000 0.53711  0.08013  0.83059  Biso   1.000  O
  O43      1.0000 0.96424  0.41965  0.67008  Biso   1.000  O
  O44      1.0000 0.96458  0.32968  0.92047  Biso   1.000  O
  O45      1.0000 0.77710  0.12954  0.74086  Biso   1.000  O
  O46      1.0000 0.77707  0.12062  0.99094  Biso   1.000  O
  O47      1.0000 0.72321  0.37923  0.50969  Biso   1.000  O
  O48      1.0000 0.72368  0.37109  0.75984  Biso   1.000  O
  Hf24     1.0000 0.63882  0.52055  0.14571  Biso   1.000  Hf
  Hf25     1.0000 0.63855  0.72801  0.39586  Biso   1.000  Hf
  Hf26     1.0000 0.86050  0.77062  0.10392  Biso   1.000  Hf
  Hf27     1.0000 0.85845  0.97833  0.35608  Biso   1.000  Hf
  O49      1.0000 0.53672  0.66996  0.08060  Biso   1.000  O
  O50      1.0000 0.53629  0.57955  0.33060  Biso   1.000  O
  O51      1.0000 0.95989  0.91961  0.17035  Biso   1.000  O
  O52      1.0000 0.96312  0.82996  0.41989  Biso   1.000  O
  O53      1.0000 0.77648  0.62885  0.24060  Biso   1.000  O
  O54      1.0000 0.77671  0.62071  0.49075  Biso   1.000  O
  O55      1.0000 0.72284  0.87912  0.00938  Biso   1.000  O
  O56      1.0000 0.72301  0.87043  0.25988  Biso   1.000  O
  Hf28     1.0000 0.63897  0.52137  0.64607  Biso   1.000  Hf
  Hf29     1.0000 0.63884  0.72874  0.89568  Biso   1.000  Hf
  Hf30     1.0000 0.86093  0.77123  0.60461  Biso   1.000  Hf
  Hf31     1.0000 0.86149  0.97890  0.85432  Biso   1.000  Hf
  O57      1.0000 0.53623  0.66989  0.58071  Biso   1.000  O
  O58      1.0000 0.53632  0.58024  0.83065  Biso   1.000  O
  O59      1.0000 0.96374  0.91981  0.66938  Biso   1.000  O
  O60      1.0000 0.96367  0.83018  0.91964  Biso   1.000  O
  O61      1.0000 0.77683  0.62918  0.74088  Biso   1.000  O
  O62      1.0000 0.77660  0.62033  0.99041  Biso   1.000  O
  O63      1.0000 0.72238  0.87893  0.51007  Biso   1.000  O
  O64      1.0000 0.72338  0.87096  0.75967  Biso   1.000  O
