data_image0
_cell_length_a       9.95564
_cell_length_b       5.18667
_cell_length_c       10.0039
_cell_angle_alpha    90.1199
_cell_angle_beta     89.798
_cell_angle_gamma    89.9988

_symmetry_space_group_name_H-M    "P 1"
_symmetry_int_tables_number       1

loop_
  _symmetry_equiv_pos_as_xyz
  'x, y, z'

loop_
  _atom_site_label
  _atom_site_occupancy
  _atom_site_fract_x
  _atom_site_fract_y
  _atom_site_fract_z
  _atom_site_thermal_displace_type
  _atom_site_B_iso_or_equiv
  _atom_site_type_symbol
  Sn1      1.0000 0.13125  0.03642  0.12124  Biso   1.000  Sn
  Hf1      1.0000 0.13490  0.46587  0.37645  Biso   1.000  Hf
  Hf2      1.0000 0.36686  0.53154  0.12714  Biso   1.000  Hf
  Hf3      1.0000 0.36584  0.96541  0.37635  Biso   1.000  Hf
  O1       1.0000 0.03600  0.36762  0.19458  Biso   1.000  O
  O2       1.0000 0.03663  0.13051  0.44583  Biso   1.000  O
  O3       1.0000 0.46580  0.86648  0.19497  Biso   1.000  O
  O4       1.0000 0.46468  0.63156  0.44550  Biso   1.000  O
  O5       1.0000 0.26950  0.22788  0.24913  Biso   1.000  O
  O6       1.0000 0.27155  0.26507  0.49972  Biso   1.000  O
  O7       1.0000 0.22953  0.76469  0.50158  Biso   1.000  O
  O8       1.0000 0.23359  0.72662  0.25269  Biso   1.000  O
  Hf4      1.0000 0.13397  0.03411  0.62669  Biso   1.000  Hf
  Hf5      1.0000 0.13321  0.47111  0.87543  Biso   1.000  Hf
  Hf6      1.0000 0.36608  0.53375  0.62648  Biso   1.000  Hf
  Hf7      1.0000 0.36641  0.97013  0.87608  Biso   1.000  Hf
  O9       1.0000 0.03654  0.37109  0.69425  Biso   1.000  O
  O10      1.0000 0.03450  0.13336  0.94052  Biso   1.000  O
  O11      1.0000 0.46361  0.86964  0.69453  Biso   1.000  O
  O12      1.0000 0.46087  0.63099  0.94319  Biso   1.000  O
  O13      1.0000 0.27077  0.23722  0.74985  Biso   1.000  O
  O14      1.0000 0.26939  0.26732  0.99921  Biso   1.000  O
  O15      1.0000 0.22856  0.76863  0.00286  Biso   1.000  O
  O16      1.0000 0.22951  0.73756  0.75135  Biso   1.000  O
  Hf8      1.0000 0.63464  0.03252  0.12691  Biso   1.000  Hf
  Hf9      1.0000 0.63475  0.46734  0.37601  Biso   1.000  Hf
  Hf10     1.0000 0.86641  0.53140  0.12477  Biso   1.000  Hf
  Hf11     1.0000 0.86749  0.96796  0.37621  Biso   1.000  Hf
  O17      1.0000 0.53687  0.36830  0.19518  Biso   1.000  O
  O18      1.0000 0.53697  0.13147  0.44390  Biso   1.000  O
  O19      1.0000 0.96537  0.86527  0.19387  Biso   1.000  O
  O20      1.0000 0.96405  0.63074  0.44404  Biso   1.000  O
  O21      1.0000 0.77094  0.23421  0.24989  Biso   1.000  O
  O22      1.0000 0.77086  0.26525  0.49960  Biso   1.000  O
  O23      1.0000 0.73019  0.76549  0.49945  Biso   1.000  O
  O24      1.0000 0.73213  0.73486  0.24952  Biso   1.000  O
  Hf12     1.0000 0.63366  0.03331  0.62510  Biso   1.000  Hf
  Hf13     1.0000 0.63311  0.46728  0.87592  Biso   1.000  Hf
  Hf14     1.0000 0.86614  0.53326  0.62531  Biso   1.000  Hf
  Hf15     1.0000 0.86395  0.96686  0.87485  Biso   1.000  Hf
  O25      1.0000 0.53599  0.36874  0.69461  Biso   1.000  O
  O26      1.0000 0.53609  0.13217  0.94521  Biso   1.000  O
  O27      1.0000 0.96313  0.86935  0.69365  Biso   1.000  O
  O28      1.0000 0.96262  0.63304  0.94348  Biso   1.000  O
  O29      1.0000 0.76980  0.23578  0.74942  Biso   1.000  O
  O30      1.0000 0.77014  0.26433  0.99945  Biso   1.000  O
  O31      1.0000 0.72785  0.76356  0.99951  Biso   1.000  O
  O32      1.0000 0.72862  0.73511  0.74928  Biso   1.000  O
