data_image0
_cell_length_a       5.04739
_cell_length_b       10.478
_cell_length_c       10.223
_cell_angle_alpha    86.6871
_cell_angle_beta     93.2094
_cell_angle_gamma    92.8157

_symmetry_space_group_name_H-M    "P 1"
_symmetry_int_tables_number       1

loop_
  _symmetry_equiv_pos_as_xyz
  'x, y, z'

loop_
  _atom_site_label
  _atom_site_occupancy
  _atom_site_fract_x
  _atom_site_fract_y
  _atom_site_fract_z
  _atom_site_thermal_displace_type
  _atom_site_B_iso_or_equiv
  _atom_site_type_symbol
  Hf1      1.0000 0.29168  0.00024  0.10495  Biso   1.000  Hf
  Hf2      1.0000 0.23462  0.23334  0.40539  Biso   1.000  Hf
  Hf3      1.0000 0.60693  0.27399  0.15884  Biso   1.000  Hf
  Hf4      1.0000 0.73424  0.49754  0.39047  Biso   1.000  Hf
  O1       1.0000 0.90883  0.18407  0.26727  Biso   1.000  O
  O2       1.0000 0.07773  0.05679  0.46076  Biso   1.000  O
  O3       1.0000 0.84223  0.44882  0.21398  Biso   1.000  O
  O4       1.0000 0.94141  0.33436  0.46218  Biso   1.000  O
  O5       1.0000 0.43052  0.11218  0.25878  Biso   1.000  O
  O6       1.0000 0.56533  0.14162  0.50209  Biso   1.000  O
  O7       1.0000 0.46793  0.38949  0.49998  Biso   1.000  O
  O8       1.0000 0.34698  0.37101  0.25402  Biso   1.000  O
  Hf5      1.0000 0.31206  0.00721  0.62219  Biso   1.000  Hf
  Hf6      1.0000 0.34029  0.21498  0.85100  Biso   1.000  Hf
  Hf7      1.0000 0.78096  0.26797  0.63203  Biso   1.000  Hf
  Hf8      1.0000 0.75901  0.46667  0.86214  Biso   1.000  Hf
  O9       1.0000 0.13730  0.17969  0.66321  Biso   1.000  O
  O10      1.0000 0.13342  0.04667  0.91509  Biso   1.000  O
  O11      1.0000 0.93036  0.45134  0.67761  Biso   1.000  O
  O12      1.0000 0.96350  0.29229  0.85329  Biso   1.000  O
  O13      1.0000 0.59073  0.10699  0.74984  Biso   1.000  O
  O14      1.0000 0.61711  0.12415  0.00929  Biso   1.000  O
  O15      1.0000 0.48383  0.37289  0.98256  Biso   1.000  O
  O16      1.0000 0.48285  0.36261  0.73608  Biso   1.000  O
  Hf9      1.0000 0.21172  0.53327  0.14405  Biso   1.000  Hf
  Hf10     1.0000 0.27670  0.74701  0.38313  Biso   1.000  Hf
  Hf11     1.0000 0.71967  0.76459  0.13239  Biso   1.000  Hf
  Hf12     1.0000 0.75159  0.00454  0.35656  Biso   1.000  Hf
  O17      1.0000 0.05373  0.68877  0.20910  Biso   1.000  O
  O18      1.0000 0.07834  0.58012  0.45136  Biso   1.000  O
  O19      1.0000 0.94206  0.94586  0.18396  Biso   1.000  O
  O20      1.0000 0.94280  0.82326  0.44344  Biso   1.000  O
  O21      1.0000 0.51376  0.62545  0.26620  Biso   1.000  O
  O22      1.0000 0.54581  0.64212  0.50972  Biso   1.000  O
  O23      1.0000 0.48994  0.89243  0.49402  Biso   1.000  O
  O24      1.0000 0.47929  0.86906  0.24377  Biso   1.000  O
  Hf13     1.0000 0.29032  0.51672  0.62477  Biso   1.000  Hf
  Hf14     1.0000 0.27636  0.72971  0.87540  Biso   1.000  Hf
  Hf15     1.0000 0.76690  0.77049  0.62316  Biso   1.000  Hf
  Hf16     1.0000 0.77532  0.96770  0.87248  Biso   1.000  Hf
  O25      1.0000 0.09114  0.68152  0.69767  Biso   1.000  O
  O26      1.0000 0.05250  0.56302  0.95578  Biso   1.000  O
  O27      1.0000 0.97583  0.92543  0.70333  Biso   1.000  O
  O28      1.0000 0.95803  0.80644  0.95884  Biso   1.000  O
  O29      1.0000 0.55071  0.60962  0.76415  Biso   1.000  O
  O30      1.0000 0.50076  0.63724  0.02177  Biso   1.000  O
  O31      1.0000 0.48810  0.87848  0.99239  Biso   1.000  O
  O32      1.0000 0.50376  0.85678  0.74728  Biso   1.000  O
  Sn1      1.0000 0.05555  0.25459  0.05894  Biso   1.000  Sn
