data_image0
_cell_length_a       10.1431
_cell_length_b       10.365
_cell_length_c       5.12742
_cell_angle_alpha    89.9957
_cell_angle_beta     95.7857
_cell_angle_gamma    89.9943

_symmetry_space_group_name_H-M    "P 1"
_symmetry_int_tables_number       1

loop_
  _symmetry_equiv_pos_as_xyz
  'x, y, z'

loop_
  _atom_site_label
  _atom_site_occupancy
  _atom_site_fract_x
  _atom_site_fract_y
  _atom_site_fract_z
  _atom_site_thermal_displace_type
  _atom_site_B_iso_or_equiv
  _atom_site_type_symbol
  Hf1      1.0000 0.12493  0.98123  0.24983  Biso   1.000  Hf
  Hf2      1.0000 0.12493  0.19965  0.74990  Biso   1.000  Hf
  Hf3      1.0000 0.38253  0.24933  0.16888  Biso   1.000  Hf
  Hf4      1.0000 0.38988  0.01025  0.70551  Biso   1.000  Hf
  O1       1.0000 0.99321  0.13207  0.03632  Biso   1.000  O
  O2       1.0000 0.98664  0.08109  0.51925  Biso   1.000  O
  O3       1.0000 0.96678  0.33184  0.68985  Biso   1.000  O
  O4       1.0000 0.98204  0.43894  0.15240  Biso   1.000  O
  O5       1.0000 0.25662  0.13207  0.46347  Biso   1.000  O
  O6       1.0000 0.26320  0.08102  0.98052  Biso   1.000  O
  O7       1.0000 0.28308  0.33177  0.80996  Biso   1.000  O
  O8       1.0000 0.26780  0.43892  0.34746  Biso   1.000  O
  Hf5      1.0000 0.12491  0.58049  0.24987  Biso   1.000  Hf
  Hf6      1.0000 0.12491  0.76201  0.74985  Biso   1.000  Hf
  Hf7      1.0000 0.39626  0.74113  0.22219  Biso   1.000  Hf
  Hf8      1.0000 0.36805  0.49844  0.70480  Biso   1.000  Hf
  O9       1.0000 0.98383  0.66857  0.00274  Biso   1.000  O
  O10      1.0000 0.00598  0.60292  0.55065  Biso   1.000  O
  O11      1.0000 0.01835  0.83193  0.40470  Biso   1.000  O
  O12      1.0000 0.01636  0.90549  0.91077  Biso   1.000  O
  O13      1.0000 0.26597  0.66854  0.49702  Biso   1.000  O
  O14      1.0000 0.24373  0.60281  0.94899  Biso   1.000  O
  O15      1.0000 0.23150  0.83187  0.09498  Biso   1.000  O
  O16      1.0000 0.23353  0.90544  0.58889  Biso   1.000  O
  Hf9      1.0000 0.62497  0.99817  0.24978  Biso   1.000  Hf
  Hf10     1.0000 0.62500  0.26242  0.75003  Biso   1.000  Hf
  Hf11     1.0000 0.86738  0.24945  0.33099  Biso   1.000  Hf
  Hf12     1.0000 0.85998  0.01029  0.79415  Biso   1.000  Hf
  O17      1.0000 0.50496  0.14507  0.94733  Biso   1.000  O
  O18      1.0000 0.49879  0.10405  0.44028  Biso   1.000  O
  O19      1.0000 0.49960  0.35189  0.47055  Biso   1.000  O
  O20      1.0000 0.50439  0.39512  0.97687  Biso   1.000  O
  O21      1.0000 0.74483  0.14511  0.55215  Biso   1.000  O
  O22      1.0000 0.75096  0.10422  0.05907  Biso   1.000  O
  O23      1.0000 0.75030  0.35201  0.02928  Biso   1.000  O
  O24      1.0000 0.74547  0.39518  0.52300  Biso   1.000  O
  Hf13     1.0000 0.62487  0.49109  0.24996  Biso   1.000  Hf
  Hf14     1.0000 0.62488  0.73978  0.75010  Biso   1.000  Hf
  Hf15     1.0000 0.85359  0.74112  0.27785  Biso   1.000  Hf
  Hf16     1.0000 0.88174  0.49850  0.79510  Biso   1.000  Hf
  O25      1.0000 0.49661  0.64092  0.96216  Biso   1.000  O
  O26      1.0000 0.50619  0.60166  0.47056  Biso   1.000  O
  O27      1.0000 0.49851  0.85526  0.50639  Biso   1.000  O
  O28      1.0000 0.49403  0.88984  0.00571  Biso   1.000  O
  O29      1.0000 0.75318  0.64100  0.53795  Biso   1.000  O
  O30      1.0000 0.74361  0.60171  0.02955  Biso   1.000  O
  O31      1.0000 0.75136  0.85531  0.99343  Biso   1.000  O
  O32      1.0000 0.75588  0.88992  0.49402  Biso   1.000  O
  Sn1      1.0000 0.12495  0.29458  0.24988  Biso   1.000  Sn
