data_image0
_cell_length_a       5.1918
_cell_length_b       10.4516
_cell_length_c       10.6115
_cell_angle_alpha    89.783
_cell_angle_beta     77.9672
_cell_angle_gamma    89.7844

_symmetry_space_group_name_H-M    "P 1"
_symmetry_int_tables_number       1

loop_
  _symmetry_equiv_pos_as_xyz
  'x, y, z'

loop_
  _atom_site_label
  _atom_site_occupancy
  _atom_site_fract_x
  _atom_site_fract_y
  _atom_site_fract_z
  _atom_site_thermal_displace_type
  _atom_site_B_iso_or_equiv
  _atom_site_type_symbol
  Zr1      1.0000 0.26756  0.01177  0.15059  Biso   1.000  Zr
  Zr2      1.0000 0.33675  0.23443  0.40471  Biso   1.000  Zr
  Zr3      1.0000 0.65188  0.26557  0.10039  Biso   1.000  Zr
  Zr4      1.0000 0.72114  0.48822  0.35451  Biso   1.000  Zr
  O1       1.0000 0.01377  0.14909  0.06649  Biso   1.000  O
  O2       1.0000 0.05794  0.06122  0.34163  Biso   1.000  O
  O3       1.0000 0.93075  0.43880  0.16348  Biso   1.000  O
  O4       1.0000 0.97486  0.35090  0.43859  Biso   1.000  O
  O5       1.0000 0.54007  0.10872  0.24327  Biso   1.000  O
  O6       1.0000 0.57649  0.11697  0.49649  Biso   1.000  O
  O7       1.0000 0.41217  0.38304  0.00861  Biso   1.000  O
  O8       1.0000 0.44862  0.39128  0.26184  Biso   1.000  O
  Zr5      1.0000 0.27738  0.02161  0.64706  Biso   1.000  Zr
  Zr6      1.0000 0.24763  0.22757  0.89472  Biso   1.000  Zr
  Zr7      1.0000 0.74102  0.27243  0.61038  Biso   1.000  Zr
  Zr8      1.0000 0.71129  0.47840  0.85804  Biso   1.000  Zr
  O9       1.0000 0.08788  0.16779  0.57655  Biso   1.000  O
  O10      1.0000 0.04715  0.08876  0.82166  Biso   1.000  O
  O11      1.0000 0.94152  0.41125  0.68343  Biso   1.000  O
  O12      1.0000 0.90078  0.33222  0.92855  Biso   1.000  O
  O13      1.0000 0.53929  0.12843  0.74353  Biso   1.000  O
  O14      1.0000 0.50931  0.12236  0.99135  Biso   1.000  O
  O15      1.0000 0.47934  0.37764  0.51375  Biso   1.000  O
  O16      1.0000 0.44938  0.37157  0.76156  Biso   1.000  O
  Zr9      1.0000 0.27794  0.53137  0.14691  Biso   1.000  Zr
  Zr10     1.0000 0.27063  0.72711  0.40049  Biso   1.000  Zr
  Zr11     1.0000 0.71806  0.77289  0.10461  Biso   1.000  Zr
  Zr12     1.0000 0.71075  0.96864  0.35820  Biso   1.000  Zr
  O17      1.0000 0.06748  0.67496  0.07801  Biso   1.000  O
  O18      1.0000 0.06271  0.59120  0.32807  Biso   1.000  O
  O19      1.0000 0.92599  0.90881  0.17704  Biso   1.000  O
  O20      1.0000 0.92122  0.82506  0.42710  Biso   1.000  O
  O21      1.0000 0.55180  0.63351  0.24504  Biso   1.000  O
  O22      1.0000 0.53940  0.62178  0.49479  Biso   1.000  O
  O23      1.0000 0.44930  0.87822  0.01032  Biso   1.000  O
  O24      1.0000 0.43690  0.86649  0.26006  Biso   1.000  O
  Zr13     1.0000 0.27547  0.52172  0.65143  Biso   1.000  Zr
  Zr14     1.0000 0.26797  0.72896  0.89722  Biso   1.000  Zr
  Zr15     1.0000 0.72071  0.77104  0.60789  Biso   1.000  Zr
  Zr16     1.0000 0.71321  0.97828  0.85367  Biso   1.000  Zr
  O25      1.0000 0.05631  0.66130  0.58354  Biso   1.000  O
  O26      1.0000 0.05858  0.58473  0.83187  Biso   1.000  O
  O27      1.0000 0.93010  0.91527  0.67323  Biso   1.000  O
  O28      1.0000 0.93238  0.83871  0.92156  Biso   1.000  O
  O29      1.0000 0.54200  0.62718  0.74300  Biso   1.000  O
  O30      1.0000 0.54932  0.62449  0.99179  Biso   1.000  O
  O31      1.0000 0.43938  0.87551  0.51332  Biso   1.000  O
  O32      1.0000 0.44668  0.87283  0.76211  Biso   1.000  O
  Sn1      1.0000 0.99436  0.25000  0.25253  Biso   1.000  Sn
