data_image0
_cell_length_a       10.0924
_cell_length_b       10.5997
_cell_length_c       5.13566
_cell_angle_alpha    89.9844
_cell_angle_beta     87.7471
_cell_angle_gamma    90.867

_symmetry_space_group_name_H-M    "P 1"
_symmetry_int_tables_number       1

loop_
  _symmetry_equiv_pos_as_xyz
  'x, y, z'

loop_
  _atom_site_label
  _atom_site_occupancy
  _atom_site_fract_x
  _atom_site_fract_y
  _atom_site_fract_z
  _atom_site_thermal_displace_type
  _atom_site_B_iso_or_equiv
  _atom_site_type_symbol
  Zr1      1.0000 0.15242  0.00748  0.27500  Biso   1.000  Zr
  Zr2      1.0000 0.15208  0.21895  0.83186  Biso   1.000  Zr
  Zr3      1.0000 0.36191  0.26712  0.25904  Biso   1.000  Zr
  Zr4      1.0000 0.37007  0.48778  0.74822  Biso   1.000  Zr
  O1       1.0000 0.04510  0.10882  0.57367  Biso   1.000  O
  O2       1.0000 0.02369  0.07204  0.01331  Biso   1.000  O
  O3       1.0000 0.45901  0.43242  0.38562  Biso   1.000  O
  O4       1.0000 0.45662  0.31276  0.86473  Biso   1.000  O
  O5       1.0000 0.28998  0.12169  0.52218  Biso   1.000  O
  O6       1.0000 0.29374  0.11320  0.01452  Biso   1.000  O
  O7       1.0000 0.24050  0.39238  0.01407  Biso   1.000  O
  O8       1.0000 0.21250  0.36323  0.52399  Biso   1.000  O
  Zr5      1.0000 0.13761  0.53550  0.24586  Biso   1.000  Zr
  Zr6      1.0000 0.13591  0.73657  0.74987  Biso   1.000  Zr
  Zr7      1.0000 0.37463  0.76312  0.24097  Biso   1.000  Zr
  Zr8      1.0000 0.37303  0.97618  0.74838  Biso   1.000  Zr
  O9       1.0000 0.04175  0.69156  0.38893  Biso   1.000  O
  O10      1.0000 0.03301  0.57520  0.89277  Biso   1.000  O
  O11      1.0000 0.47014  0.93087  0.37518  Biso   1.000  O
  O12      1.0000 0.47618  0.81785  0.89230  Biso   1.000  O
  O13      1.0000 0.27344  0.61658  0.49376  Biso   1.000  O
  O14      1.0000 0.27104  0.63867  0.98827  Biso   1.000  O
  O15      1.0000 0.23519  0.87641  0.00025  Biso   1.000  O
  O16      1.0000 0.24306  0.86205  0.50163  Biso   1.000  O
  Zr9      1.0000 0.63641  0.00919  0.22047  Biso   1.000  Zr
  Zr10     1.0000 0.61870  0.23054  0.70726  Biso   1.000  Zr
  Zr11     1.0000 0.80731  0.26698  0.18374  Biso   1.000  Zr
  Zr12     1.0000 0.87108  0.48776  0.73643  Biso   1.000  Zr
  O17      1.0000 0.54444  0.18792  0.34022  Biso   1.000  O
  O18      1.0000 0.53908  0.06190  0.85642  Biso   1.000  O
  O19      1.0000 0.96452  0.45804  0.37747  Biso   1.000  O
  O20      1.0000 0.96069  0.32376  0.87077  Biso   1.000  O
  O21      1.0000 0.76909  0.11306  0.44723  Biso   1.000  O
  O22      1.0000 0.75878  0.13344  0.93303  Biso   1.000  O
  O23      1.0000 0.71331  0.39352  0.95666  Biso   1.000  O
  O24      1.0000 0.71790  0.37592  0.47165  Biso   1.000  O
  Zr13     1.0000 0.63151  0.52433  0.24543  Biso   1.000  Zr
  Zr14     1.0000 0.64449  0.73683  0.74493  Biso   1.000  Zr
  Zr15     1.0000 0.87061  0.76863  0.24044  Biso   1.000  Zr
  Zr16     1.0000 0.88592  0.99064  0.72364  Biso   1.000  Zr
  O25      1.0000 0.53581  0.68288  0.39761  Biso   1.000  O
  O26      1.0000 0.52923  0.57206  0.89852  Biso   1.000  O
  O27      1.0000 0.97425  0.91571  0.39325  Biso   1.000  O
  O28      1.0000 0.97229  0.82562  0.88346  Biso   1.000  O
  O29      1.0000 0.77022  0.62061  0.48940  Biso   1.000  O
  O30      1.0000 0.76890  0.63557  0.98919  Biso   1.000  O
  O31      1.0000 0.74040  0.88394  0.98713  Biso   1.000  O
  O32      1.0000 0.73478  0.86810  0.48791  Biso   1.000  O
  Sn1      1.0000 0.05161  0.26374  0.32887  Biso   1.000  Sn
