data_image0
_cell_length_a       5.03649
_cell_length_b       10.2176
_cell_length_c       10.0732
_cell_angle_alpha    89.9982
_cell_angle_beta     90.0019
_cell_angle_gamma    89.9987

_symmetry_space_group_name_H-M    "P 1"
_symmetry_int_tables_number       1

loop_
  _symmetry_equiv_pos_as_xyz
  'x, y, z'

loop_
  _atom_site_label
  _atom_site_occupancy
  _atom_site_fract_x
  _atom_site_fract_y
  _atom_site_fract_z
  _atom_site_thermal_displace_type
  _atom_site_B_iso_or_equiv
  _atom_site_type_symbol
  Sn1      1.0000 0.25013  0.99998  0.12491  Biso   1.000  Sn
  Zr1      1.0000 0.25014  0.99994  0.62492  Biso   1.000  Zr
  Zr2      1.0000 0.25014  0.49993  0.12493  Biso   1.000  Zr
  Zr3      1.0000 0.25014  0.49995  0.62492  Biso   1.000  Zr
  Zr4      1.0000 0.25358  0.25064  0.37504  Biso   1.000  Zr
  Zr5      1.0000 0.24674  0.25064  0.87482  Biso   1.000  Zr
  Zr6      1.0000 0.24671  0.74924  0.37502  Biso   1.000  Zr
  Zr7      1.0000 0.25358  0.74923  0.87484  Biso   1.000  Zr
  Zr8      1.0000 0.75016  0.25167  0.12493  Biso   1.000  Zr
  Zr9      1.0000 0.75015  0.24925  0.62493  Biso   1.000  Zr
  Zr10     1.0000 0.75014  0.74820  0.12493  Biso   1.000  Zr
  Zr11     1.0000 0.75015  0.75063  0.62493  Biso   1.000  Zr
  Zr12     1.0000 0.75011  0.99993  0.37568  Biso   1.000  Zr
  Zr13     1.0000 0.75016  0.99993  0.87417  Biso   1.000  Zr
  Zr14     1.0000 0.75014  0.49994  0.37588  Biso   1.000  Zr
  Zr15     1.0000 0.75014  0.49994  0.87398  Biso   1.000  Zr
  O1       1.0000 0.97068  0.14915  0.98701  Biso   1.000  O
  O2       1.0000 0.98693  0.14536  0.49041  Biso   1.000  O
  O3       1.0000 0.99516  0.64617  0.99606  Biso   1.000  O
  O4       1.0000 0.99260  0.64461  0.49681  Biso   1.000  O
  O5       1.0000 0.01821  0.10391  0.24325  Biso   1.000  O
  O6       1.0000 0.00569  0.10547  0.74296  Biso   1.000  O
  O7       1.0000 0.00309  0.60325  0.24755  Biso   1.000  O
  O8       1.0000 0.00452  0.60519  0.74746  Biso   1.000  O
  O9       1.0000 0.99519  0.35369  0.25379  Biso   1.000  O
  O10      1.0000 0.99257  0.35527  0.75304  Biso   1.000  O
  O11      1.0000 0.97051  0.85070  0.26290  Biso   1.000  O
  O12      1.0000 0.98696  0.85452  0.75947  Biso   1.000  O
  O13      1.0000 0.00311  0.39661  0.00229  Biso   1.000  O
  O14      1.0000 0.00451  0.39468  0.50239  Biso   1.000  O
  O15      1.0000 0.01825  0.89594  0.00664  Biso   1.000  O
  O16      1.0000 0.00563  0.89440  0.50692  Biso   1.000  O
  O17      1.0000 0.52968  0.14916  0.26286  Biso   1.000  O
  O18      1.0000 0.51338  0.14536  0.75946  Biso   1.000  O
  O19      1.0000 0.50510  0.64618  0.25379  Biso   1.000  O
  O20      1.0000 0.50771  0.64461  0.75305  Biso   1.000  O
  O21      1.0000 0.48215  0.10392  0.00662  Biso   1.000  O
  O22      1.0000 0.49463  0.10547  0.50690  Biso   1.000  O
  O23      1.0000 0.49717  0.60326  0.00230  Biso   1.000  O
  O24      1.0000 0.49580  0.60520  0.50240  Biso   1.000  O
  O25      1.0000 0.50512  0.35369  0.99607  Biso   1.000  O
  O26      1.0000 0.50770  0.35527  0.49682  Biso   1.000  O
  O27      1.0000 0.52974  0.85070  0.98696  Biso   1.000  O
  O28      1.0000 0.51333  0.85452  0.49039  Biso   1.000  O
  O29      1.0000 0.49719  0.39661  0.24757  Biso   1.000  O
  O30      1.0000 0.49576  0.39468  0.74747  Biso   1.000  O
  O31      1.0000 0.48201  0.89595  0.24322  Biso   1.000  O
  O32      1.0000 0.49467  0.89441  0.74294  Biso   1.000  O
