data_image0
_cell_length_a       10.3916
_cell_length_b       5.21069
_cell_length_c       10.646
_cell_angle_alpha    90.199
_cell_angle_beta     78.1105
_cell_angle_gamma    89.8745

_symmetry_space_group_name_H-M    "P 1"
_symmetry_int_tables_number       1

loop_
  _symmetry_equiv_pos_as_xyz
  'x, y, z'

loop_
  _atom_site_label
  _atom_site_occupancy
  _atom_site_fract_x
  _atom_site_fract_y
  _atom_site_fract_z
  _atom_site_thermal_displace_type
  _atom_site_B_iso_or_equiv
  _atom_site_type_symbol
  Zr1      1.0000 0.12818  0.04374  0.14267  Biso   1.000  Zr
  Zr2      1.0000 0.14029  0.45602  0.39212  Biso   1.000  Zr
  Zr3      1.0000 0.33717  0.53954  0.09070  Biso   1.000  Zr
  Zr4      1.0000 0.35033  0.95589  0.34979  Biso   1.000  Zr
  O1       1.0000 0.02545  0.33360  0.07544  Biso   1.000  O
  O2       1.0000 0.03033  0.17445  0.32862  Biso   1.000  O
  O3       1.0000 0.46409  0.87542  0.16074  Biso   1.000  O
  O4       1.0000 0.47781  0.68228  0.44097  Biso   1.000  O
  O5       1.0000 0.26147  0.23499  0.23328  Biso   1.000  O
  O6       1.0000 0.27449  0.24265  0.48597  Biso   1.000  O
  O7       1.0000 0.21322  0.76686  0.00064  Biso   1.000  O
  O8       1.0000 0.20948  0.74158  0.25055  Biso   1.000  O
  Zr5      1.0000 0.13770  0.04196  0.64428  Biso   1.000  Zr
  Zr6      1.0000 0.12817  0.45829  0.89200  Biso   1.000  Zr
  Zr7      1.0000 0.36257  0.54237  0.60612  Biso   1.000  Zr
  Zr8      1.0000 0.35668  0.95806  0.85110  Biso   1.000  Zr
  O9       1.0000 0.03472  0.32658  0.57823  Biso   1.000  O
  O10      1.0000 0.02701  0.17227  0.82615  Biso   1.000  O
  O11      1.0000 0.46797  0.82344  0.67832  Biso   1.000  O
  O12      1.0000 0.45964  0.67535  0.92192  Biso   1.000  O
  O13      1.0000 0.26985  0.25182  0.73663  Biso   1.000  O
  O14      1.0000 0.26376  0.25094  0.98368  Biso   1.000  O
  O15      1.0000 0.22673  0.75231  0.50540  Biso   1.000  O
  O16      1.0000 0.22311  0.74167  0.75546  Biso   1.000  O
  Zr9      1.0000 0.64401  0.04415  0.15530  Biso   1.000  Zr
  Zr10     1.0000 0.65717  0.46046  0.41440  Biso   1.000  Zr
  Zr11     1.0000 0.85406  0.54400  0.11298  Biso   1.000  Zr
  Zr12     1.0000 0.86616  0.95627  0.36243  Biso   1.000  Zr
  O17      1.0000 0.51654  0.31773  0.06415  Biso   1.000  O
  O18      1.0000 0.53024  0.12460  0.34434  Biso   1.000  O
  O19      1.0000 0.96402  0.82557  0.17648  Biso   1.000  O
  O20      1.0000 0.96889  0.66642  0.42966  Biso   1.000  O
  O21      1.0000 0.78485  0.25843  0.25454  Biso   1.000  O
  O22      1.0000 0.78112  0.23314  0.50446  Biso   1.000  O
  O23      1.0000 0.71985  0.75738  0.01913  Biso   1.000  O
  O24      1.0000 0.73288  0.76501  0.27183  Biso   1.000  O
  Zr13     1.0000 0.63766  0.04193  0.65400  Biso   1.000  Zr
  Zr14     1.0000 0.63177  0.45763  0.89898  Biso   1.000  Zr
  Zr15     1.0000 0.86617  0.54171  0.61310  Biso   1.000  Zr
  Zr16     1.0000 0.85664  0.95804  0.86082  Biso   1.000  Zr
  O25      1.0000 0.53470  0.32463  0.58318  Biso   1.000  O
  O26      1.0000 0.52637  0.17655  0.82679  Biso   1.000  O
  O27      1.0000 0.96733  0.82773  0.67896  Biso   1.000  O
  O28      1.0000 0.95961  0.67342  0.92687  Biso   1.000  O
  O29      1.0000 0.77122  0.25832  0.74964  Biso   1.000  O
  O30      1.0000 0.76762  0.24771  0.99970  Biso   1.000  O
  O31      1.0000 0.73058  0.74906  0.52142  Biso   1.000  O
  O32      1.0000 0.72450  0.74817  0.76848  Biso   1.000  O
  Sn1      1.0000 0.49717  0.50004  0.25255  Biso   1.000  Sn
