data_image0
_cell_length_a       10.2035
_cell_length_b       10.3426
_cell_length_c       5.12939
_cell_angle_alpha    83.8823
_cell_angle_beta     89.4562
_cell_angle_gamma    91.0611

_symmetry_space_group_name_H-M    "P 1"
_symmetry_int_tables_number       1

loop_
  _symmetry_equiv_pos_as_xyz
  'x, y, z'

loop_
  _atom_site_label
  _atom_site_occupancy
  _atom_site_fract_x
  _atom_site_fract_y
  _atom_site_fract_z
  _atom_site_thermal_displace_type
  _atom_site_B_iso_or_equiv
  _atom_site_type_symbol
  Hf1      1.0000 0.10898  0.96967  0.21379  Biso   1.000  Hf
  Hf2      1.0000 0.10471  0.22722  0.59564  Biso   1.000  Hf
  Hf3      1.0000 0.40116  0.24228  0.14645  Biso   1.000  Hf
  Hf4      1.0000 0.39223  0.48306  0.70254  Biso   1.000  Hf
  O1       1.0000 0.98426  0.12001  0.34735  Biso   1.000  O
  O2       1.0000 0.05130  0.05856  0.85137  Biso   1.000  O
  O3       1.0000 0.48778  0.37708  0.42182  Biso   1.000  O
  O4       1.0000 0.52294  0.35023  0.90713  Biso   1.000  O
  O5       1.0000 0.23962  0.12466  0.36214  Biso   1.000  O
  O6       1.0000 0.28316  0.18779  0.82722  Biso   1.000  O
  O7       1.0000 0.29803  0.42417  0.06703  Biso   1.000  O
  O8       1.0000 0.21910  0.39719  0.57051  Biso   1.000  O
  Hf5      1.0000 0.15499  0.53161  0.27343  Biso   1.000  Hf
  Hf6      1.0000 0.11157  0.72555  0.74144  Biso   1.000  Hf
  Hf7      1.0000 0.37018  0.77664  0.27582  Biso   1.000  Hf
  Hf8      1.0000 0.34831  0.02113  0.68581  Biso   1.000  Hf
  O9       1.0000 0.00337  0.63058  0.45312  Biso   1.000  O
  O10      1.0000 0.03909  0.54509  0.92393  Biso   1.000  O
  O11      1.0000 0.48443  0.88705  0.52857  Biso   1.000  O
  O12      1.0000 0.53562  0.84106  0.04889  Biso   1.000  O
  O13      1.0000 0.26471  0.63304  0.54073  Biso   1.000  O
  O14      1.0000 0.24321  0.68351  0.04312  Biso   1.000  O
  O15      1.0000 0.28120  0.92803  0.03106  Biso   1.000  O
  O16      1.0000 0.23314  0.87262  0.51723  Biso   1.000  O
  Hf9      1.0000 0.62434  0.99570  0.22003  Biso   1.000  Hf
  Hf10     1.0000 0.60742  0.22954  0.67328  Biso   1.000  Hf
  Hf11     1.0000 0.83561  0.26400  0.20992  Biso   1.000  Hf
  Hf12     1.0000 0.89218  0.47197  0.68195  Biso   1.000  Hf
  O17      1.0000 0.49695  0.12665  0.43102  Biso   1.000  O
  O18      1.0000 0.49316  0.08998  0.94095  Biso   1.000  O
  O19      1.0000 0.99033  0.38287  0.37550  Biso   1.000  O
  O20      1.0000 0.93560  0.28351  0.83227  Biso   1.000  O
  O21      1.0000 0.74316  0.11031  0.49271  Biso   1.000  O
  O22      1.0000 0.71295  0.16376  0.00172  Biso   1.000  O
  O23      1.0000 0.77197  0.43456  0.01020  Biso   1.000  O
  O24      1.0000 0.73635  0.36502  0.49103  Biso   1.000  O
  Hf13     1.0000 0.63613  0.51792  0.23830  Biso   1.000  Hf
  Hf14     1.0000 0.60347  0.73989  0.74174  Biso   1.000  Hf
  Hf15     1.0000 0.85547  0.75926  0.27489  Biso   1.000  Hf
  Hf16     1.0000 0.87955  0.99700  0.69421  Biso   1.000  Hf
  O25      1.0000 0.50628  0.63596  0.45855  Biso   1.000  O
  O26      1.0000 0.50565  0.58969  0.95307  Biso   1.000  O
  O27      1.0000 0.98699  0.86972  0.50858  Biso   1.000  O
  O28      1.0000 0.01741  0.81623  0.02806  Biso   1.000  O
  O29      1.0000 0.75292  0.60837  0.51625  Biso   1.000  O
  O30      1.0000 0.73885  0.67975  0.02195  Biso   1.000  O
  O31      1.0000 0.79214  0.93198  0.03811  Biso   1.000  O
  O32      1.0000 0.73849  0.86204  0.51435  Biso   1.000  O
  Sr1      1.0000 0.12171  0.28393  0.06950  Biso   1.000  Sr
