data_image0
_cell_length_a       10.2675
_cell_length_b       10.3864
_cell_length_c       5.16358
_cell_angle_alpha    84.2034
_cell_angle_beta     89.4839
_cell_angle_gamma    90.98

_symmetry_space_group_name_H-M    "P 1"
_symmetry_int_tables_number       1

loop_
  _symmetry_equiv_pos_as_xyz
  'x, y, z'

loop_
  _atom_site_label
  _atom_site_occupancy
  _atom_site_fract_x
  _atom_site_fract_y
  _atom_site_fract_z
  _atom_site_thermal_displace_type
  _atom_site_B_iso_or_equiv
  _atom_site_type_symbol
  Zr1      1.0000 0.10867  0.96921  0.21468  Biso   1.000  Zr
  Zr2      1.0000 0.10473  0.22676  0.59431  Biso   1.000  Zr
  Zr3      1.0000 0.40208  0.24216  0.14995  Biso   1.000  Zr
  Zr4      1.0000 0.39107  0.48334  0.70477  Biso   1.000  Zr
  O1       1.0000 0.98498  0.12070  0.34604  Biso   1.000  O
  O2       1.0000 0.05014  0.05954  0.85253  Biso   1.000  O
  O3       1.0000 0.48695  0.37694  0.42742  Biso   1.000  O
  O4       1.0000 0.52507  0.35201  0.91414  Biso   1.000  O
  O5       1.0000 0.24049  0.12515  0.36011  Biso   1.000  O
  O6       1.0000 0.28319  0.18784  0.82782  Biso   1.000  O
  O7       1.0000 0.29721  0.42274  0.06553  Biso   1.000  O
  O8       1.0000 0.21892  0.39717  0.56742  Biso   1.000  O
  Zr5      1.0000 0.15435  0.53239  0.27234  Biso   1.000  Zr
  Zr6      1.0000 0.11141  0.72698  0.74055  Biso   1.000  Zr
  Zr7      1.0000 0.37104  0.77557  0.27294  Biso   1.000  Zr
  Zr8      1.0000 0.34839  0.02105  0.68594  Biso   1.000  Zr
  O9       1.0000 0.00301  0.63102  0.45445  Biso   1.000  O
  O10      1.0000 0.03865  0.54616  0.92329  Biso   1.000  O
  O11      1.0000 0.48479  0.88662  0.52590  Biso   1.000  O
  O12      1.0000 0.53505  0.84243  0.04693  Biso   1.000  O
  O13      1.0000 0.26447  0.63333  0.53847  Biso   1.000  O
  O14      1.0000 0.24307  0.68242  0.04154  Biso   1.000  O
  O15      1.0000 0.28030  0.92706  0.02738  Biso   1.000  O
  O16      1.0000 0.23363  0.87282  0.51336  Biso   1.000  O
  Zr9      1.0000 0.62444  0.99548  0.21935  Biso   1.000  Zr
  Zr10     1.0000 0.60805  0.23070  0.67503  Biso   1.000  Zr
  Zr11     1.0000 0.83539  0.26372  0.20781  Biso   1.000  Zr
  Zr12     1.0000 0.89226  0.47267  0.68027  Biso   1.000  Zr
  O17      1.0000 0.49777  0.12653  0.43435  Biso   1.000  O
  O18      1.0000 0.49386  0.09251  0.94359  Biso   1.000  O
  O19      1.0000 0.99044  0.38270  0.37185  Biso   1.000  O
  O20      1.0000 0.93772  0.28573  0.83125  Biso   1.000  O
  O21      1.0000 0.74331  0.11134  0.48655  Biso   1.000  O
  O22      1.0000 0.71829  0.15978  0.99233  Biso   1.000  O
  O23      1.0000 0.77099  0.43343  0.00692  Biso   1.000  O
  O24      1.0000 0.73615  0.36520  0.48733  Biso   1.000  O
  Zr13     1.0000 0.63454  0.51675  0.23466  Biso   1.000  Zr
  Zr14     1.0000 0.60385  0.73957  0.73905  Biso   1.000  Zr
  Zr15     1.0000 0.85474  0.75839  0.27426  Biso   1.000  Zr
  Zr16     1.0000 0.87757  0.99834  0.69664  Biso   1.000  Zr
  O25      1.0000 0.50606  0.63530  0.46090  Biso   1.000  O
  O26      1.0000 0.50301  0.59271  0.95600  Biso   1.000  O
  O27      1.0000 0.98630  0.87079  0.50905  Biso   1.000  O
  O28      1.0000 0.01699  0.81604  0.02889  Biso   1.000  O
  O29      1.0000 0.75179  0.60845  0.51362  Biso   1.000  O
  O30      1.0000 0.73790  0.67776  0.02098  Biso   1.000  O
  O31      1.0000 0.79066  0.92852  0.03578  Biso   1.000  O
  O32      1.0000 0.73818  0.86254  0.51237  Biso   1.000  O
  Sr1      1.0000 0.12202  0.28275  0.06890  Biso   1.000  Sr
