data_image0
_cell_length_a       10.1072
_cell_length_b       10.2257
_cell_length_c       10.1072
_cell_angle_alpha    89.9962
_cell_angle_beta     89.9984
_cell_angle_gamma    89.9964

_symmetry_space_group_name_H-M    "P 1"
_symmetry_int_tables_number       1

loop_
  _symmetry_equiv_pos_as_xyz
  'x, y, z'

loop_
  _atom_site_label
  _atom_site_occupancy
  _atom_site_fract_x
  _atom_site_fract_y
  _atom_site_fract_z
  _atom_site_thermal_displace_type
  _atom_site_B_iso_or_equiv
  _atom_site_type_symbol
  Sr1      1.0000 0.12546  0.00020  0.12547  Biso   1.000  Sr
  Zr1      1.0000 0.12545  0.00020  0.62546  Biso   1.000  Zr
  Zr2      1.0000 0.12545  0.50020  0.12546  Biso   1.000  Zr
  Zr3      1.0000 0.12545  0.50019  0.62546  Biso   1.000  Zr
  Zr4      1.0000 0.62545  0.00020  0.12546  Biso   1.000  Zr
  Zr5      1.0000 0.62545  0.00019  0.62546  Biso   1.000  Zr
  Zr6      1.0000 0.62545  0.50019  0.12546  Biso   1.000  Zr
  Zr7      1.0000 0.62545  0.50019  0.62546  Biso   1.000  Zr
  Zr8      1.0000 0.12401  0.25128  0.37653  Biso   1.000  Zr
  Zr9      1.0000 0.12693  0.25128  0.87442  Biso   1.000  Zr
  Zr10     1.0000 0.12693  0.74913  0.37653  Biso   1.000  Zr
  Zr11     1.0000 0.12401  0.74912  0.87442  Biso   1.000  Zr
  Zr12     1.0000 0.62518  0.25012  0.37560  Biso   1.000  Zr
  Zr13     1.0000 0.62576  0.25012  0.87536  Biso   1.000  Zr
  Zr14     1.0000 0.62576  0.75027  0.37560  Biso   1.000  Zr
  Zr15     1.0000 0.62518  0.75027  0.87536  Biso   1.000  Zr
  Zr16     1.0000 0.37652  0.25128  0.12402  Biso   1.000  Zr
  Zr17     1.0000 0.37559  0.25013  0.62519  Biso   1.000  Zr
  Zr18     1.0000 0.37652  0.74913  0.12694  Biso   1.000  Zr
  Zr19     1.0000 0.37559  0.75027  0.62577  Biso   1.000  Zr
  Zr20     1.0000 0.87441  0.25128  0.12693  Biso   1.000  Zr
  Zr21     1.0000 0.87535  0.25012  0.62577  Biso   1.000  Zr
  Zr22     1.0000 0.87441  0.74912  0.12402  Biso   1.000  Zr
  Zr23     1.0000 0.87535  0.75027  0.62519  Biso   1.000  Zr
  Zr24     1.0000 0.37616  0.00118  0.37617  Biso   1.000  Zr
  Zr25     1.0000 0.37615  0.99921  0.87476  Biso   1.000  Zr
  Zr26     1.0000 0.37612  0.49953  0.37613  Biso   1.000  Zr
  Zr27     1.0000 0.37612  0.50087  0.87479  Biso   1.000  Zr
  Zr28     1.0000 0.87475  0.99921  0.37616  Biso   1.000  Zr
  Zr29     1.0000 0.87475  0.00118  0.87476  Biso   1.000  Zr
  Zr30     1.0000 0.87478  0.50087  0.37613  Biso   1.000  Zr
  Zr31     1.0000 0.87478  0.49953  0.87479  Biso   1.000  Zr
  O1       1.0000 0.99468  0.15280  0.99469  Biso   1.000  O
  O2       1.0000 0.00655  0.14707  0.50948  Biso   1.000  O
  O3       1.0000 0.00424  0.64192  0.00425  Biso   1.000  O
  O4       1.0000 0.00157  0.64551  0.50394  Biso   1.000  O
  O5       1.0000 0.50947  0.14707  0.00656  Biso   1.000  O
  O6       1.0000 0.50445  0.14664  0.50446  Biso   1.000  O
  O7       1.0000 0.50393  0.64551  0.00158  Biso   1.000  O
  O8       1.0000 0.50140  0.64629  0.50141  Biso   1.000  O
  O9       1.0000 0.98646  0.12077  0.26448  Biso   1.000  O
  O10      1.0000 0.99802  0.10366  0.75214  Biso   1.000  O
  O11      1.0000 0.99857  0.60300  0.25235  Biso   1.000  O
  O12      1.0000 0.00017  0.60397  0.75309  Biso   1.000  O
  O13      1.0000 0.49879  0.10366  0.25292  Biso   1.000  O
  O14      1.0000 0.49866  0.10455  0.75227  Biso   1.000  O
  O15      1.0000 0.49783  0.60396  0.25075  Biso   1.000  O
  O16      1.0000 0.50005  0.60406  0.75088  Biso   1.000  O
  O17      1.0000 0.00425  0.35848  0.24668  Biso   1.000  O
  O18      1.0000 0.00158  0.35489  0.74699  Biso   1.000  O
  O19      1.0000 0.99468  0.84761  0.25625  Biso   1.000  O
  O20      1.0000 0.00654  0.85333  0.74147  Biso   1.000  O
  O21      1.0000 0.50393  0.35488  0.24936  Biso   1.000  O
  O22      1.0000 0.50142  0.35410  0.74952  Biso   1.000  O
  O23      1.0000 0.50946  0.85333  0.24439  Biso   1.000  O
  O24      1.0000 0.50444  0.85374  0.74649  Biso   1.000  O
  O25      1.0000 0.99858  0.39740  0.99859  Biso   1.000  O
  O26      1.0000 0.00017  0.39644  0.49784  Biso   1.000  O
  O27      1.0000 0.98646  0.87963  0.98647  Biso   1.000  O
  O28      1.0000 0.99802  0.89675  0.49880  Biso   1.000  O
  O29      1.0000 0.49783  0.39644  0.00018  Biso   1.000  O
  O30      1.0000 0.50004  0.39634  0.50005  Biso   1.000  O
  O31      1.0000 0.49879  0.89675  0.99803  Biso   1.000  O
  O32      1.0000 0.49867  0.89585  0.49868  Biso   1.000  O
  O33      1.0000 0.25624  0.15279  0.25625  Biso   1.000  O
  O34      1.0000 0.24438  0.14706  0.74147  Biso   1.000  O
  O35      1.0000 0.24667  0.64191  0.24668  Biso   1.000  O
  O36      1.0000 0.24935  0.64551  0.74700  Biso   1.000  O
  O37      1.0000 0.74146  0.14706  0.24439  Biso   1.000  O
  O38      1.0000 0.74648  0.14664  0.74649  Biso   1.000  O
  O39      1.0000 0.74699  0.64551  0.24936  Biso   1.000  O
  O40      1.0000 0.74952  0.64629  0.74952  Biso   1.000  O
  O41      1.0000 0.26447  0.12077  0.98647  Biso   1.000  O
  O42      1.0000 0.25290  0.10366  0.49880  Biso   1.000  O
  O43      1.0000 0.25234  0.60301  0.99858  Biso   1.000  O
  O44      1.0000 0.25075  0.60396  0.49784  Biso   1.000  O
  O45      1.0000 0.75214  0.10366  0.99803  Biso   1.000  O
  O46      1.0000 0.75226  0.10455  0.49867  Biso   1.000  O
  O47      1.0000 0.75308  0.60396  0.00018  Biso   1.000  O
  O48      1.0000 0.75087  0.60406  0.50006  Biso   1.000  O
  O49      1.0000 0.24667  0.35848  0.00426  Biso   1.000  O
  O50      1.0000 0.24935  0.35488  0.50394  Biso   1.000  O
  O51      1.0000 0.25624  0.84761  0.99468  Biso   1.000  O
  O52      1.0000 0.24438  0.85333  0.50947  Biso   1.000  O
  O53      1.0000 0.74698  0.35489  0.00159  Biso   1.000  O
  O54      1.0000 0.74951  0.35410  0.50142  Biso   1.000  O
  O55      1.0000 0.74146  0.85333  0.00655  Biso   1.000  O
  O56      1.0000 0.74648  0.85374  0.50445  Biso   1.000  O
  O57      1.0000 0.25235  0.39739  0.25235  Biso   1.000  O
  O58      1.0000 0.25076  0.39643  0.75310  Biso   1.000  O
  O59      1.0000 0.26447  0.87963  0.26448  Biso   1.000  O
  O60      1.0000 0.25290  0.89674  0.75214  Biso   1.000  O
  O61      1.0000 0.75309  0.39643  0.25076  Biso   1.000  O
  O62      1.0000 0.75088  0.39633  0.75089  Biso   1.000  O
  O63      1.0000 0.75213  0.89674  0.25291  Biso   1.000  O
  O64      1.0000 0.75226  0.89584  0.75227  Biso   1.000  O
