data_image0
_cell_length_a       5.04642
_cell_length_b       10.4667
_cell_length_c       10.1755
_cell_angle_alpha    90.2223
_cell_angle_beta     90.3624
_cell_angle_gamma    90.0043

_symmetry_space_group_name_H-M    "P 1"
_symmetry_int_tables_number       1

loop_
  _symmetry_equiv_pos_as_xyz
  'x, y, z'

loop_
  _atom_site_label
  _atom_site_occupancy
  _atom_site_fract_x
  _atom_site_fract_y
  _atom_site_fract_z
  _atom_site_thermal_displace_type
  _atom_site_B_iso_or_equiv
  _atom_site_type_symbol
  Sr1      1.0000 0.25269  0.00758  0.11707  Biso   1.000  Sr
  Zr1      1.0000 0.26480  0.01719  0.62710  Biso   1.000  Zr
  Zr2      1.0000 0.26846  0.51387  0.12523  Biso   1.000  Zr
  Zr3      1.0000 0.26763  0.51525  0.62735  Biso   1.000  Zr
  Zr4      1.0000 0.26748  0.23413  0.37673  Biso   1.000  Zr
  Zr5      1.0000 0.27350  0.23540  0.87110  Biso   1.000  Zr
  Zr6      1.0000 0.26351  0.73229  0.38097  Biso   1.000  Zr
  Zr7      1.0000 0.27749  0.73209  0.87520  Biso   1.000  Zr
  Zr8      1.0000 0.71869  0.26513  0.12844  Biso   1.000  Zr
  Zr9      1.0000 0.73245  0.26658  0.62349  Biso   1.000  Zr
  Zr10     1.0000 0.72736  0.76014  0.12713  Biso   1.000  Zr
  Zr11     1.0000 0.73186  0.76539  0.62488  Biso   1.000  Zr
  Zr12     1.0000 0.72653  0.48398  0.37745  Biso   1.000  Zr
  Zr13     1.0000 0.73454  0.48173  0.87741  Biso   1.000  Zr
  Zr14     1.0000 0.72007  0.98454  0.37907  Biso   1.000  Zr
  Zr15     1.0000 0.73302  0.98401  0.87013  Biso   1.000  Zr
  O1       1.0000 0.06170  0.20216  0.20175  Biso   1.000  O
  O2       1.0000 0.08107  0.19047  0.68196  Biso   1.000  O
  O3       1.0000 0.07260  0.68278  0.19835  Biso   1.000  O
  O4       1.0000 0.07033  0.68325  0.69591  Biso   1.000  O
  O5       1.0000 0.06516  0.06592  0.44255  Biso   1.000  O
  O6       1.0000 0.07758  0.07082  0.90552  Biso   1.000  O
  O7       1.0000 0.06588  0.56558  0.44849  Biso   1.000  O
  O8       1.0000 0.06614  0.57022  0.94755  Biso   1.000  O
  O9       1.0000 0.92431  0.43833  0.19614  Biso   1.000  O
  O10      1.0000 0.93465  0.43365  0.69847  Biso   1.000  O
  O11      1.0000 0.86930  0.93055  0.20176  Biso   1.000  O
  O12      1.0000 0.92405  0.93289  0.68894  Biso   1.000  O
  O13      1.0000 0.92731  0.31962  0.44623  Biso   1.000  O
  O14      1.0000 0.93880  0.31939  0.94739  Biso   1.000  O
  O15      1.0000 0.92768  0.81553  0.44855  Biso   1.000  O
  O16      1.0000 0.96315  0.82567  0.95464  Biso   1.000  O
  O17      1.0000 0.55560  0.12895  0.25913  Biso   1.000  O
  O18      1.0000 0.54650  0.11885  0.74514  Biso   1.000  O
  O19      1.0000 0.53647  0.61193  0.24932  Biso   1.000  O
  O20      1.0000 0.54207  0.61619  0.74947  Biso   1.000  O
  O21      1.0000 0.53156  0.13269  0.50260  Biso   1.000  O
  O22      1.0000 0.56067  0.13706  0.99031  Biso   1.000  O
  O23      1.0000 0.53692  0.63198  0.50026  Biso   1.000  O
  O24      1.0000 0.53995  0.62576  0.99939  Biso   1.000  O
  O25      1.0000 0.45991  0.38378  0.50014  Biso   1.000  O
  O26      1.0000 0.46125  0.38252  0.99924  Biso   1.000  O
  O27      1.0000 0.45360  0.88271  0.50122  Biso   1.000  O
  O28      1.0000 0.49587  0.86596  0.98845  Biso   1.000  O
  O29      1.0000 0.45315  0.37050  0.25073  Biso   1.000  O
  O30      1.0000 0.46686  0.36847  0.74835  Biso   1.000  O
  O31      1.0000 0.46208  0.85058  0.25544  Biso   1.000  O
  O32      1.0000 0.45999  0.86737  0.74605  Biso   1.000  O
