data_image0
_cell_length_a       5.12716
_cell_length_b       10.4112
_cell_length_c       10.1769
_cell_angle_alpha    90.0004
_cell_angle_beta     90.0002
_cell_angle_gamma    90.0001

_symmetry_space_group_name_H-M    "P 1"
_symmetry_int_tables_number       1

loop_
  _symmetry_equiv_pos_as_xyz
  'x, y, z'

loop_
  _atom_site_label
  _atom_site_occupancy
  _atom_site_fract_x
  _atom_site_fract_y
  _atom_site_fract_z
  _atom_site_thermal_displace_type
  _atom_site_B_iso_or_equiv
  _atom_site_type_symbol
  Zr1      1.0000 0.25084  0.96597  0.12542  Biso   1.000  Zr
  Zr2      1.0000 0.25079  0.25008  0.39887  Biso   1.000  Zr
  Zr3      1.0000 0.75071  0.25007  0.12540  Biso   1.000  Zr
  Zr4      1.0000 0.75341  0.00941  0.37328  Biso   1.000  Zr
  O1       1.0000 0.96322  0.15532  0.97636  Biso   1.000  O
  O2       1.0000 0.01841  0.09074  0.24249  Biso   1.000  O
  O3       1.0000 0.96321  0.34482  0.27443  Biso   1.000  O
  O4       1.0000 0.01841  0.40941  0.00831  Biso   1.000  O
  O5       1.0000 0.53819  0.15526  0.27439  Biso   1.000  O
  O6       1.0000 0.48304  0.09078  0.00826  Biso   1.000  O
  O7       1.0000 0.53819  0.34490  0.97641  Biso   1.000  O
  O8       1.0000 0.48304  0.40937  0.24253  Biso   1.000  O
  Zr5      1.0000 0.25079  0.99314  0.62539  Biso   1.000  Zr
  Zr6      1.0000 0.25079  0.25007  0.85193  Biso   1.000  Zr
  Zr7      1.0000 0.75080  0.25007  0.62540  Biso   1.000  Zr
  Zr8      1.0000 0.74816  0.00941  0.87752  Biso   1.000  Zr
  O9       1.0000 0.97898  0.14461  0.49733  Biso   1.000  O
  O10      1.0000 0.01267  0.10222  0.74262  Biso   1.000  O
  O11      1.0000 0.97898  0.35554  0.75346  Biso   1.000  O
  O12      1.0000 0.01266  0.39793  0.50817  Biso   1.000  O
  O13      1.0000 0.52261  0.14462  0.75345  Biso   1.000  O
  O14      1.0000 0.48893  0.10222  0.50816  Biso   1.000  O
  O15      1.0000 0.52261  0.35553  0.49734  Biso   1.000  O
  O16      1.0000 0.48893  0.39793  0.74263  Biso   1.000  O
  Zr9      1.0000 0.25084  0.53419  0.12538  Biso   1.000  Zr
  Zr10     1.0000 0.25081  0.75006  0.38641  Biso   1.000  Zr
  Zr11     1.0000 0.75083  0.75007  0.12540  Biso   1.000  Zr
  Zr12     1.0000 0.74816  0.49074  0.37327  Biso   1.000  Zr
  O17      1.0000 0.01953  0.65715  0.00252  Biso   1.000  O
  O18      1.0000 0.97702  0.60344  0.25011  Biso   1.000  O
  O19      1.0000 0.01953  0.84300  0.24827  Biso   1.000  O
  O20      1.0000 0.97702  0.89671  0.00068  Biso   1.000  O
  O21      1.0000 0.48219  0.65711  0.24829  Biso   1.000  O
  O22      1.0000 0.52468  0.60349  0.00068  Biso   1.000  O
  O23      1.0000 0.48219  0.84304  0.00250  Biso   1.000  O
  O24      1.0000 0.52468  0.89666  0.25011  Biso   1.000  O
  Zr13     1.0000 0.25079  0.50701  0.62540  Biso   1.000  Zr
  Zr14     1.0000 0.25081  0.75010  0.86438  Biso   1.000  Zr
  Zr15     1.0000 0.75080  0.75007  0.62540  Biso   1.000  Zr
  Zr16     1.0000 0.75341  0.49074  0.87751  Biso   1.000  Zr
  O25      1.0000 0.99568  0.64730  0.50277  Biso   1.000  O
  O26      1.0000 0.00858  0.60353  0.75347  Biso   1.000  O
  O27      1.0000 0.99568  0.85285  0.74802  Biso   1.000  O
  O28      1.0000 0.00858  0.89662  0.49732  Biso   1.000  O
  O29      1.0000 0.50592  0.64730  0.74803  Biso   1.000  O
  O30      1.0000 0.49302  0.60352  0.49734  Biso   1.000  O
  O31      1.0000 0.50592  0.85285  0.50276  Biso   1.000  O
  O32      1.0000 0.49302  0.89663  0.75346  Biso   1.000  O
  Sr1      1.0000 0.25071  0.25007  0.12540  Biso   1.000  Sr
