data_image0
_cell_length_a       10.1601
_cell_length_b       10.3497
_cell_length_c       10.4918
_cell_angle_alpha    89.9917
_cell_angle_beta     80.2907
_cell_angle_gamma    89.9359

_symmetry_space_group_name_H-M    "P 1"
_symmetry_int_tables_number       1

loop_
  _symmetry_equiv_pos_as_xyz
  'x, y, z'

loop_
  _atom_site_label
  _atom_site_occupancy
  _atom_site_fract_x
  _atom_site_fract_y
  _atom_site_fract_z
  _atom_site_thermal_displace_type
  _atom_site_B_iso_or_equiv
  _atom_site_type_symbol
  Ta1      1.0000 0.13914  0.02291  0.14589  Biso   1.000  Ta
  Zr1      1.0000 0.13909  0.02108  0.64508  Biso   1.000  Zr
  Zr2      1.0000 0.13917  0.52152  0.14576  Biso   1.000  Zr
  Zr3      1.0000 0.13909  0.52155  0.64523  Biso   1.000  Zr
  Zr4      1.0000 0.63931  0.02186  0.14551  Biso   1.000  Zr
  Zr5      1.0000 0.63882  0.02120  0.64534  Biso   1.000  Zr
  Zr6      1.0000 0.63904  0.52264  0.14530  Biso   1.000  Zr
  Zr7      1.0000 0.63914  0.52145  0.64580  Biso   1.000  Zr
  Zr8      1.0000 0.13952  0.22932  0.39533  Biso   1.000  Zr
  Zr9      1.0000 0.13958  0.22841  0.89447  Biso   1.000  Zr
  Zr10     1.0000 0.13881  0.72904  0.39539  Biso   1.000  Zr
  Zr11     1.0000 0.13845  0.72816  0.89555  Biso   1.000  Zr
  Zr12     1.0000 0.63952  0.22860  0.39537  Biso   1.000  Zr
  Zr13     1.0000 0.63894  0.22846  0.89513  Biso   1.000  Zr
  Zr14     1.0000 0.64002  0.72864  0.39539  Biso   1.000  Zr
  Zr15     1.0000 0.63814  0.72883  0.89609  Biso   1.000  Zr
  Zr16     1.0000 0.36186  0.27253  0.10451  Biso   1.000  Zr
  Zr17     1.0000 0.36133  0.27174  0.60425  Biso   1.000  Zr
  Zr18     1.0000 0.35950  0.77333  0.10521  Biso   1.000  Zr
  Zr19     1.0000 0.36128  0.77112  0.60480  Biso   1.000  Zr
  Zr20     1.0000 0.86023  0.27156  0.10522  Biso   1.000  Zr
  Zr21     1.0000 0.86076  0.27115  0.60453  Biso   1.000  Zr
  Zr22     1.0000 0.86184  0.77204  0.10377  Biso   1.000  Zr
  Zr23     1.0000 0.86062  0.77127  0.60503  Biso   1.000  Zr
  Zr24     1.0000 0.36158  0.47932  0.35488  Biso   1.000  Zr
  Zr25     1.0000 0.36051  0.47891  0.85464  Biso   1.000  Zr
  Zr26     1.0000 0.36127  0.97797  0.35443  Biso   1.000  Zr
  Zr27     1.0000 0.36044  0.97884  0.85448  Biso   1.000  Zr
  Zr28     1.0000 0.86105  0.47853  0.35457  Biso   1.000  Zr
  Zr29     1.0000 0.86099  0.47819  0.85492  Biso   1.000  Zr
  Zr30     1.0000 0.86122  0.97863  0.35462  Biso   1.000  Zr
  Zr31     1.0000 0.86057  0.97864  0.85456  Biso   1.000  Zr
  O1       1.0000 0.03728  0.16300  0.08341  Biso   1.000  O
  O2       1.0000 0.03545  0.16817  0.57844  Biso   1.000  O
  O3       1.0000 0.03588  0.66964  0.08137  Biso   1.000  O
  O4       1.0000 0.03595  0.67007  0.58058  Biso   1.000  O
  O5       1.0000 0.53582  0.17059  0.08118  Biso   1.000  O
  O6       1.0000 0.53687  0.17089  0.58117  Biso   1.000  O
  O7       1.0000 0.53539  0.67206  0.08215  Biso   1.000  O
  O8       1.0000 0.53677  0.67073  0.58121  Biso   1.000  O
  O9       1.0000 0.04088  0.07701  0.32455  Biso   1.000  O
  O10      1.0000 0.03559  0.08067  0.83015  Biso   1.000  O
  O11      1.0000 0.03628  0.57905  0.33149  Biso   1.000  O
  O12      1.0000 0.03574  0.57981  0.83113  Biso   1.000  O
  O13      1.0000 0.53615  0.08036  0.33086  Biso   1.000  O
  O14      1.0000 0.53527  0.07935  0.83168  Biso   1.000  O
  O15      1.0000 0.53676  0.57974  0.33137  Biso   1.000  O
  O16      1.0000 0.53571  0.57941  0.83195  Biso   1.000  O
  O17      1.0000 0.46376  0.42179  0.16807  Biso   1.000  O
  O18      1.0000 0.46369  0.42077  0.66890  Biso   1.000  O
  O19      1.0000 0.46403  0.92038  0.16975  Biso   1.000  O
  O20      1.0000 0.46339  0.92077  0.66900  Biso   1.000  O
  O21      1.0000 0.96536  0.41809  0.16932  Biso   1.000  O
  O22      1.0000 0.96456  0.41883  0.66968  Biso   1.000  O
  O23      1.0000 0.97279  0.92106  0.16663  Biso   1.000  O
  O24      1.0000 0.96407  0.91989  0.66907  Biso   1.000  O
  O25      1.0000 0.46404  0.32984  0.41849  Biso   1.000  O
  O26      1.0000 0.46251  0.32831  0.91853  Biso   1.000  O
  O27      1.0000 0.46488  0.82992  0.41876  Biso   1.000  O
  O28      1.0000 0.46017  0.82909  0.91948  Biso   1.000  O
  O29      1.0000 0.96359  0.32798  0.41795  Biso   1.000  O
  O30      1.0000 0.96479  0.32881  0.92117  Biso   1.000  O
  O31      1.0000 0.96419  0.83055  0.41879  Biso   1.000  O
  O32      1.0000 0.96333  0.82953  0.91897  Biso   1.000  O
  O33      1.0000 0.27319  0.12620  0.23696  Biso   1.000  O
  O34      1.0000 0.27665  0.12919  0.74100  Biso   1.000  O
  O35      1.0000 0.27578  0.63109  0.24104  Biso   1.000  O
  O36      1.0000 0.27624  0.62883  0.74074  Biso   1.000  O
  O37      1.0000 0.77815  0.12876  0.24074  Biso   1.000  O
  O38      1.0000 0.77588  0.12893  0.74053  Biso   1.000  O
  O39      1.0000 0.77718  0.62927  0.24044  Biso   1.000  O
  O40      1.0000 0.77634  0.62890  0.74140  Biso   1.000  O
  O41      1.0000 0.27738  0.12132  0.48969  Biso   1.000  O
  O42      1.0000 0.27216  0.11855  0.99438  Biso   1.000  O
  O43      1.0000 0.27690  0.62119  0.49080  Biso   1.000  O
  O44      1.0000 0.27607  0.62169  0.99108  Biso   1.000  O
  O45      1.0000 0.77771  0.12014  0.49018  Biso   1.000  O
  O46      1.0000 0.77637  0.12131  0.99063  Biso   1.000  O
  O47      1.0000 0.77695  0.62090  0.49088  Biso   1.000  O
  O48      1.0000 0.77643  0.62141  0.99103  Biso   1.000  O
  O49      1.0000 0.22309  0.37837  0.00979  Biso   1.000  O
  O50      1.0000 0.22321  0.37906  0.50909  Biso   1.000  O
  O51      1.0000 0.21622  0.88422  0.01320  Biso   1.000  O
  O52      1.0000 0.22412  0.87873  0.50912  Biso   1.000  O
  O53      1.0000 0.72375  0.37905  0.00960  Biso   1.000  O
  O54      1.0000 0.72380  0.37910  0.50938  Biso   1.000  O
  O55      1.0000 0.72238  0.87955  0.00925  Biso   1.000  O
  O56      1.0000 0.72380  0.87913  0.50924  Biso   1.000  O
  O57      1.0000 0.22511  0.37035  0.25964  Biso   1.000  O
  O58      1.0000 0.22325  0.37056  0.75940  Biso   1.000  O
  O59      1.0000 0.21860  0.87541  0.25760  Biso   1.000  O
  O60      1.0000 0.22334  0.87075  0.76014  Biso   1.000  O
  O61      1.0000 0.72378  0.37086  0.25886  Biso   1.000  O
  O62      1.0000 0.72356  0.37094  0.75969  Biso   1.000  O
  O63      1.0000 0.72796  0.87177  0.25863  Biso   1.000  O
  O64      1.0000 0.72283  0.87090  0.75954  Biso   1.000  O
