data_image0
_cell_length_a       10.1008
_cell_length_b       5.12292
_cell_length_c       10.5449
_cell_angle_alpha    90.1924
_cell_angle_beta     90.6722
_cell_angle_gamma    89.6001

_symmetry_space_group_name_H-M    "P 1"
_symmetry_int_tables_number       1

loop_
  _symmetry_equiv_pos_as_xyz
  'x, y, z'

loop_
  _atom_site_label
  _atom_site_occupancy
  _atom_site_fract_x
  _atom_site_fract_y
  _atom_site_fract_z
  _atom_site_thermal_displace_type
  _atom_site_B_iso_or_equiv
  _atom_site_type_symbol
  Hf1      1.0000 0.14062  0.04112  0.17510  Biso   1.000  Hf
  Hf2      1.0000 0.13606  0.45741  0.42464  Biso   1.000  Hf
  Hf3      1.0000 0.35551  0.53023  0.17853  Biso   1.000  Hf
  Hf4      1.0000 0.36171  0.95448  0.42553  Biso   1.000  Hf
  Hf5      1.0000 0.63970  0.02126  0.07874  Biso   1.000  Hf
  Hf6      1.0000 0.63479  0.45213  0.33222  Biso   1.000  Hf
  Hf7      1.0000 0.87870  0.55184  0.07433  Biso   1.000  Hf
  Hf8      1.0000 0.86004  0.96014  0.32614  Biso   1.000  Hf
  O1       1.0000 0.03708  0.31437  0.07665  Biso   1.000  O
  O2       1.0000 0.02647  0.18713  0.32851  Biso   1.000  O
  O3       1.0000 0.47434  0.78386  0.07435  Biso   1.000  O
  O4       1.0000 0.46979  0.68583  0.32514  Biso   1.000  O
  O5       1.0000 0.27089  0.24727  0.30076  Biso   1.000  O
  O6       1.0000 0.27635  0.24427  0.04856  Biso   1.000  O
  O7       1.0000 0.22266  0.74584  0.29978  Biso   1.000  O
  O8       1.0000 0.22709  0.75084  0.04730  Biso   1.000  O
  O9       1.0000 0.51432  0.27341  0.18825  Biso   1.000  O
  O10      1.0000 0.52563  0.18473  0.43031  Biso   1.000  O
  O11      1.0000 0.97285  0.83101  0.17378  Biso   1.000  O
  O12      1.0000 0.96847  0.68599  0.42163  Biso   1.000  O
  O13      1.0000 0.77559  0.24593  0.45307  Biso   1.000  O
  O14      1.0000 0.76281  0.26608  0.19671  Biso   1.000  O
  O15      1.0000 0.72465  0.74994  0.45471  Biso   1.000  O
  O16      1.0000 0.72743  0.74454  0.20412  Biso   1.000  O
  Hf9      1.0000 0.13808  0.04324  0.67335  Biso   1.000  Hf
  Hf10     1.0000 0.14388  0.45768  0.92174  Biso   1.000  Hf
  Hf11     1.0000 0.36234  0.54302  0.67340  Biso   1.000  Hf
  Hf12     1.0000 0.36404  0.96083  0.92387  Biso   1.000  Hf
  Hf13     1.0000 0.63881  0.04022  0.57689  Biso   1.000  Hf
  Hf14     1.0000 0.64165  0.46266  0.81757  Biso   1.000  Hf
  Hf15     1.0000 0.86242  0.54676  0.57675  Biso   1.000  Hf
  Hf16     1.0000 0.86319  0.96521  0.82830  Biso   1.000  Hf
  O17      1.0000 0.03080  0.32442  0.58015  Biso   1.000  O
  O18      1.0000 0.03189  0.18276  0.82945  Biso   1.000  O
  O19      1.0000 0.47319  0.80419  0.57523  Biso   1.000  O
  O20      1.0000 0.47547  0.70103  0.82261  Biso   1.000  O
  O21      1.0000 0.27671  0.24864  0.79779  Biso   1.000  O
  O22      1.0000 0.27377  0.25008  0.54834  Biso   1.000  O
  O23      1.0000 0.22801  0.74910  0.79731  Biso   1.000  O
  O24      1.0000 0.22521  0.75228  0.54839  Biso   1.000  O
  O25      1.0000 0.52512  0.30088  0.67719  Biso   1.000  O
  O26      1.0000 0.52333  0.21461  0.93856  Biso   1.000  O
  O27      1.0000 0.96984  0.82531  0.67112  Biso   1.000  O
  O28      1.0000 0.97731  0.68471  0.91740  Biso   1.000  O
  O29      1.0000 0.76697  0.26256  0.95500  Biso   1.000  O
  O30      1.0000 0.77810  0.25169  0.70017  Biso   1.000  O
  O31      1.0000 0.73114  0.75373  0.95239  Biso   1.000  O
  O32      1.0000 0.72825  0.75454  0.70301  Biso   1.000  O
  Ti1      1.0000 0.62314  0.50247  0.06957  Biso   1.000  Ti
