data_image0
_cell_length_a       10.0005
_cell_length_b       10.2193
_cell_length_c       10.4302
_cell_angle_alpha    89.9909
_cell_angle_beta     90.0232
_cell_angle_gamma    89.9614

_symmetry_space_group_name_H-M    "P 1"
_symmetry_int_tables_number       1

loop_
  _symmetry_equiv_pos_as_xyz
  'x, y, z'

loop_
  _atom_site_label
  _atom_site_occupancy
  _atom_site_fract_x
  _atom_site_fract_y
  _atom_site_fract_z
  _atom_site_thermal_displace_type
  _atom_site_B_iso_or_equiv
  _atom_site_type_symbol
  Ti1      1.0000 0.13105  0.02413  0.17299  Biso   1.000  Ti
  Hf1      1.0000 0.13971  0.22894  0.41962  Biso   1.000  Hf
  Hf2      1.0000 0.35959  0.26887  0.17131  Biso   1.000  Hf
  Hf3      1.0000 0.36134  0.47936  0.42123  Biso   1.000  Hf
  Hf4      1.0000 0.63885  0.02127  0.07802  Biso   1.000  Hf
  Hf5      1.0000 0.63845  0.22876  0.32867  Biso   1.000  Hf
  Hf6      1.0000 0.86163  0.27053  0.07984  Biso   1.000  Hf
  Hf7      1.0000 0.86121  0.47907  0.32889  Biso   1.000  Hf
  O1       1.0000 0.03614  0.16011  0.08855  Biso   1.000  O
  O2       1.0000 0.03693  0.08206  0.32884  Biso   1.000  O
  O3       1.0000 0.46568  0.41649  0.08551  Biso   1.000  O
  O4       1.0000 0.46534  0.33198  0.33559  Biso   1.000  O
  O5       1.0000 0.27313  0.12253  0.29205  Biso   1.000  O
  O6       1.0000 0.27432  0.12391  0.04725  Biso   1.000  O
  O7       1.0000 0.22351  0.37436  0.29481  Biso   1.000  O
  O8       1.0000 0.22308  0.37551  0.04511  Biso   1.000  O
  O9       1.0000 0.53396  0.16682  0.16505  Biso   1.000  O
  O10      1.0000 0.53311  0.08304  0.41433  Biso   1.000  O
  O11      1.0000 0.96753  0.41516  0.16593  Biso   1.000  O
  O12      1.0000 0.96618  0.33221  0.41444  Biso   1.000  O
  O13      1.0000 0.77739  0.12310  0.45421  Biso   1.000  O
  O14      1.0000 0.77742  0.12594  0.20480  Biso   1.000  O
  O15      1.0000 0.72335  0.37347  0.45570  Biso   1.000  O
  O16      1.0000 0.72374  0.37594  0.20536  Biso   1.000  O
  Hf8      1.0000 0.13884  0.02110  0.67103  Biso   1.000  Hf
  Hf9      1.0000 0.14040  0.22674  0.92271  Biso   1.000  Hf
  Hf10     1.0000 0.36116  0.27136  0.67124  Biso   1.000  Hf
  Hf11     1.0000 0.36111  0.47879  0.92172  Biso   1.000  Hf
  Hf12     1.0000 0.63786  0.02059  0.57778  Biso   1.000  Hf
  Hf13     1.0000 0.63881  0.22891  0.82879  Biso   1.000  Hf
  Hf14     1.0000 0.86134  0.27059  0.57852  Biso   1.000  Hf
  Hf15     1.0000 0.86221  0.47829  0.82994  Biso   1.000  Hf
  O17      1.0000 0.03290  0.16401  0.58116  Biso   1.000  O
  O18      1.0000 0.03305  0.08437  0.83368  Biso   1.000  O
  O19      1.0000 0.46609  0.41745  0.58521  Biso   1.000  O
  O20      1.0000 0.46646  0.33345  0.83484  Biso   1.000  O
  O21      1.0000 0.27695  0.12360  0.79509  Biso   1.000  O
  O22      1.0000 0.27686  0.12684  0.54402  Biso   1.000  O
  O23      1.0000 0.22313  0.37301  0.79537  Biso   1.000  O
  O24      1.0000 0.22299  0.37622  0.54444  Biso   1.000  O
  O25      1.0000 0.53377  0.16701  0.66500  Biso   1.000  O
  O26      1.0000 0.53295  0.08393  0.91587  Biso   1.000  O
  O27      1.0000 0.96719  0.41500  0.66659  Biso   1.000  O
  O28      1.0000 0.96775  0.33191  0.91811  Biso   1.000  O
  O29      1.0000 0.77734  0.12372  0.95515  Biso   1.000  O
  O30      1.0000 0.77650  0.12600  0.70463  Biso   1.000  O
  O31      1.0000 0.72423  0.37352  0.95622  Biso   1.000  O
  O32      1.0000 0.72372  0.37625  0.70588  Biso   1.000  O
  Hf16     1.0000 0.13943  0.52119  0.17152  Biso   1.000  Hf
  Hf17     1.0000 0.13911  0.73005  0.42036  Biso   1.000  Hf
  Hf18     1.0000 0.35773  0.77458  0.17142  Biso   1.000  Hf
  Hf19     1.0000 0.35879  0.97970  0.41916  Biso   1.000  Hf
  Hf20     1.0000 0.63773  0.52174  0.07949  Biso   1.000  Hf
  Hf21     1.0000 0.63794  0.72915  0.32802  Biso   1.000  Hf
  Hf22     1.0000 0.86291  0.77156  0.07839  Biso   1.000  Hf
  Hf23     1.0000 0.86292  0.97929  0.32805  Biso   1.000  Hf
  O33      1.0000 0.03376  0.66676  0.08542  Biso   1.000  O
  O34      1.0000 0.03374  0.58330  0.33467  Biso   1.000  O
  O35      1.0000 0.46734  0.91610  0.08444  Biso   1.000  O
  O36      1.0000 0.46544  0.83432  0.33424  Biso   1.000  O
  O37      1.0000 0.27664  0.62486  0.29470  Biso   1.000  O
  O38      1.0000 0.27671  0.62717  0.04480  Biso   1.000  O
  O39      1.0000 0.22030  0.87691  0.29314  Biso   1.000  O
  O40      1.0000 0.22008  0.87959  0.04709  Biso   1.000  O
  O41      1.0000 0.53280  0.66812  0.16500  Biso   1.000  O
  O42      1.0000 0.53415  0.58320  0.41499  Biso   1.000  O
  O43      1.0000 0.97511  0.91951  0.16435  Biso   1.000  O
  O44      1.0000 0.96601  0.83343  0.41473  Biso   1.000  O
  O45      1.0000 0.77665  0.62364  0.45546  Biso   1.000  O
  O46      1.0000 0.77674  0.62622  0.20545  Biso   1.000  O
  O47      1.0000 0.72317  0.87380  0.45446  Biso   1.000  O
  O48      1.0000 0.72816  0.87657  0.20454  Biso   1.000  O
  Hf24     1.0000 0.13906  0.52138  0.67158  Biso   1.000  Hf
  Hf25     1.0000 0.13954  0.73027  0.92208  Biso   1.000  Hf
  Hf26     1.0000 0.36149  0.77156  0.67129  Biso   1.000  Hf
  Hf27     1.0000 0.35941  0.97889  0.92349  Biso   1.000  Hf
  Hf28     1.0000 0.63917  0.52107  0.57936  Biso   1.000  Hf
  Hf29     1.0000 0.63871  0.72918  0.82925  Biso   1.000  Hf
  Hf30     1.0000 0.86083  0.77072  0.57860  Biso   1.000  Hf
  Hf31     1.0000 0.86107  0.97897  0.82803  Biso   1.000  Hf
  O49      1.0000 0.03355  0.66633  0.58427  Biso   1.000  O
  O50      1.0000 0.03416  0.58346  0.83558  Biso   1.000  O
  O51      1.0000 0.46540  0.91705  0.58399  Biso   1.000  O
  O52      1.0000 0.46587  0.83330  0.83535  Biso   1.000  O
  O53      1.0000 0.27692  0.62374  0.79485  Biso   1.000  O
  O54      1.0000 0.27692  0.62672  0.54464  Biso   1.000  O
  O55      1.0000 0.22308  0.87392  0.79518  Biso   1.000  O
  O56      1.0000 0.22265  0.87666  0.54437  Biso   1.000  O
  O57      1.0000 0.53420  0.66731  0.66512  Biso   1.000  O
  O58      1.0000 0.53421  0.58257  0.91501  Biso   1.000  O
  O59      1.0000 0.96661  0.91608  0.66525  Biso   1.000  O
  O60      1.0000 0.96621  0.83344  0.91525  Biso   1.000  O
  O61      1.0000 0.77741  0.62447  0.95645  Biso   1.000  O
  O62      1.0000 0.77731  0.62578  0.70613  Biso   1.000  O
  O63      1.0000 0.72360  0.87409  0.95503  Biso   1.000  O
  O64      1.0000 0.72301  0.87604  0.70488  Biso   1.000  O
