data_image0
_cell_length_a       10.1335
_cell_length_b       5.15975
_cell_length_c       10.4575
_cell_angle_alpha    90.0847
_cell_angle_beta     80.4529
_cell_angle_gamma    89.9009

_symmetry_space_group_name_H-M    "P 1"
_symmetry_int_tables_number       1

loop_
  _symmetry_equiv_pos_as_xyz
  'x, y, z'

loop_
  _atom_site_label
  _atom_site_occupancy
  _atom_site_fract_x
  _atom_site_fract_y
  _atom_site_fract_z
  _atom_site_thermal_displace_type
  _atom_site_B_iso_or_equiv
  _atom_site_type_symbol
  Ti1      1.0000 0.13284  0.05001  0.14613  Biso   1.000  Ti
  Zr1      1.0000 0.13980  0.45634  0.39192  Biso   1.000  Zr
  Zr2      1.0000 0.35578  0.54498  0.10590  Biso   1.000  Zr
  Zr3      1.0000 0.35931  0.95728  0.35223  Biso   1.000  Zr
  O1       1.0000 0.03830  0.32237  0.08478  Biso   1.000  O
  O2       1.0000 0.04051  0.15340  0.32369  Biso   1.000  O
  O3       1.0000 0.46492  0.83870  0.16847  Biso   1.000  O
  O4       1.0000 0.46441  0.66070  0.41814  Biso   1.000  O
  O5       1.0000 0.27152  0.24992  0.23609  Biso   1.000  O
  O6       1.0000 0.27700  0.24347  0.48898  Biso   1.000  O
  O7       1.0000 0.21803  0.77283  0.01507  Biso   1.000  O
  O8       1.0000 0.22226  0.74203  0.25876  Biso   1.000  O
  Zr4      1.0000 0.13936  0.04319  0.64478  Biso   1.000  Zr
  Zr5      1.0000 0.14077  0.45736  0.89650  Biso   1.000  Zr
  Zr6      1.0000 0.36152  0.54448  0.60437  Biso   1.000  Zr
  Zr7      1.0000 0.35869  0.96031  0.85763  Biso   1.000  Zr
  O9       1.0000 0.03489  0.33378  0.57730  Biso   1.000  O
  O10      1.0000 0.03565  0.16399  0.83038  Biso   1.000  O
  O11      1.0000 0.46257  0.84388  0.66908  Biso   1.000  O
  O12      1.0000 0.45905  0.65579  0.91864  Biso   1.000  O
  O13      1.0000 0.27653  0.25875  0.74069  Biso   1.000  O
  O14      1.0000 0.27350  0.24422  0.99310  Biso   1.000  O
  O15      1.0000 0.22320  0.75775  0.50878  Biso   1.000  O
  O16      1.0000 0.22325  0.74191  0.76075  Biso   1.000  O
  Zr8      1.0000 0.63792  0.04555  0.14531  Biso   1.000  Zr
  Zr9      1.0000 0.63966  0.45825  0.39501  Biso   1.000  Zr
  Zr10     1.0000 0.86382  0.54398  0.10547  Biso   1.000  Zr
  Zr11     1.0000 0.86402  0.95816  0.35351  Biso   1.000  Zr
  O17      1.0000 0.53487  0.34359  0.08215  Biso   1.000  O
  O18      1.0000 0.53606  0.16029  0.33098  Biso   1.000  O
  O19      1.0000 0.97523  0.84089  0.16662  Biso   1.000  O
  O20      1.0000 0.96346  0.65547  0.41737  Biso   1.000  O
  O21      1.0000 0.77800  0.25829  0.24048  Biso   1.000  O
  O22      1.0000 0.77734  0.24026  0.49024  Biso   1.000  O
  O23      1.0000 0.72486  0.75862  0.01009  Biso   1.000  O
  O24      1.0000 0.72918  0.74331  0.25790  Biso   1.000  O
  Zr12     1.0000 0.63833  0.04164  0.64588  Biso   1.000  Zr
  Zr13     1.0000 0.63720  0.45851  0.89681  Biso   1.000  Zr
  Zr14     1.0000 0.86071  0.54086  0.60478  Biso   1.000  Zr
  Zr15     1.0000 0.86161  0.95746  0.85540  Biso   1.000  Zr
  O25      1.0000 0.53745  0.34359  0.58156  Biso   1.000  O
  O26      1.0000 0.53587  0.15719  0.83319  Biso   1.000  O
  O27      1.0000 0.96497  0.83606  0.67025  Biso   1.000  O
  O28      1.0000 0.96523  0.65850  0.92206  Biso   1.000  O
  O29      1.0000 0.77590  0.25762  0.74159  Biso   1.000  O
  O30      1.0000 0.77713  0.24448  0.99161  Biso   1.000  O
  O31      1.0000 0.72425  0.75780  0.50932  Biso   1.000  O
  O32      1.0000 0.72328  0.74218  0.76028  Biso   1.000  O
