data_image0
_cell_length_a       10.0962
_cell_length_b       5.02956
_cell_length_c       10.0964
_cell_angle_alpha    89.9998
_cell_angle_beta     90
_cell_angle_gamma    89.9998

_symmetry_space_group_name_H-M    "P 1"
_symmetry_int_tables_number       1

loop_
  _symmetry_equiv_pos_as_xyz
  'x, y, z'

loop_
  _atom_site_label
  _atom_site_occupancy
  _atom_site_fract_x
  _atom_site_fract_y
  _atom_site_fract_z
  _atom_site_thermal_displace_type
  _atom_site_B_iso_or_equiv
  _atom_site_type_symbol
  Ti1      1.0000 0.12540  0.00015  0.12540  Biso   1.000  Ti
  Zr1      1.0000 0.12540  0.50015  0.37518  Biso   1.000  Zr
  Zr2      1.0000 0.37517  0.50015  0.12540  Biso   1.000  Zr
  Zr3      1.0000 0.37465  0.00655  0.37465  Biso   1.000  Zr
  O1       1.0000 0.98003  0.29413  0.98002  Biso   1.000  O
  O2       1.0000 0.01987  0.21373  0.23090  Biso   1.000  O
  O3       1.0000 0.98003  0.70618  0.27077  Biso   1.000  O
  O4       1.0000 0.01987  0.78658  0.01989  Biso   1.000  O
  O5       1.0000 0.27076  0.29413  0.27077  Biso   1.000  O
  O6       1.0000 0.23092  0.21373  0.01989  Biso   1.000  O
  O7       1.0000 0.27076  0.70618  0.98002  Biso   1.000  O
  O8       1.0000 0.23092  0.78658  0.23090  Biso   1.000  O
  Zr4      1.0000 0.12540  0.00015  0.62540  Biso   1.000  Zr
  Zr5      1.0000 0.12540  0.50015  0.87561  Biso   1.000  Zr
  Zr6      1.0000 0.37574  0.50015  0.62540  Biso   1.000  Zr
  Zr7      1.0000 0.37465  0.99376  0.87614  Biso   1.000  Zr
  O9       1.0000 0.98825  0.26536  0.48221  Biso   1.000  O
  O10      1.0000 0.01033  0.24274  0.73515  Biso   1.000  O
  O11      1.0000 0.98825  0.73494  0.76858  Biso   1.000  O
  O12      1.0000 0.01033  0.75756  0.51564  Biso   1.000  O
  O13      1.0000 0.26255  0.26536  0.76858  Biso   1.000  O
  O14      1.0000 0.24046  0.24274  0.51564  Biso   1.000  O
  O15      1.0000 0.26254  0.73494  0.48221  Biso   1.000  O
  O16      1.0000 0.24046  0.75757  0.73515  Biso   1.000  O
  Zr8      1.0000 0.62540  0.00015  0.12540  Biso   1.000  Zr
  Zr9      1.0000 0.62540  0.50015  0.37573  Biso   1.000  Zr
  Zr10     1.0000 0.87562  0.50015  0.12540  Biso   1.000  Zr
  Zr11     1.0000 0.87614  0.99376  0.37465  Biso   1.000  Zr
  O17      1.0000 0.48222  0.26538  0.98822  Biso   1.000  O
  O18      1.0000 0.51562  0.24274  0.24044  Biso   1.000  O
  O19      1.0000 0.48222  0.73492  0.26257  Biso   1.000  O
  O20      1.0000 0.51562  0.75757  0.01035  Biso   1.000  O
  O21      1.0000 0.76857  0.26538  0.26257  Biso   1.000  O
  O22      1.0000 0.73517  0.24273  0.01035  Biso   1.000  O
  O23      1.0000 0.76857  0.73492  0.98823  Biso   1.000  O
  O24      1.0000 0.73517  0.75757  0.24044  Biso   1.000  O
  Zr12     1.0000 0.62540  0.00015  0.62540  Biso   1.000  Zr
  Zr13     1.0000 0.62540  0.50015  0.87506  Biso   1.000  Zr
  Zr14     1.0000 0.87505  0.50015  0.62540  Biso   1.000  Zr
  Zr15     1.0000 0.87614  0.00655  0.87614  Biso   1.000  Zr
  O25      1.0000 0.48841  0.26279  0.48838  Biso   1.000  O
  O26      1.0000 0.51122  0.24424  0.73955  Biso   1.000  O
  O27      1.0000 0.48841  0.73751  0.76241  Biso   1.000  O
  O28      1.0000 0.51122  0.75606  0.51124  Biso   1.000  O
  O29      1.0000 0.76239  0.26279  0.76241  Biso   1.000  O
  O30      1.0000 0.73957  0.24424  0.51124  Biso   1.000  O
  O31      1.0000 0.76239  0.73751  0.48838  Biso   1.000  O
  O32      1.0000 0.73957  0.75607  0.73955  Biso   1.000  O
