data_image0
_cell_length_a       10.0975
_cell_length_b       10.4108
_cell_length_c       5.28088
_cell_angle_alpha    90.4019
_cell_angle_beta     91.935
_cell_angle_gamma    89.594

_symmetry_space_group_name_H-M    "P 1"
_symmetry_int_tables_number       1

loop_
  _symmetry_equiv_pos_as_xyz
  'x, y, z'

loop_
  _atom_site_label
  _atom_site_occupancy
  _atom_site_fract_x
  _atom_site_fract_y
  _atom_site_fract_z
  _atom_site_thermal_displace_type
  _atom_site_B_iso_or_equiv
  _atom_site_type_symbol
  Hf1      1.0000 0.13656  0.01677  0.35244  Biso   1.000  Hf
  Hf2      1.0000 0.13797  0.22657  0.86489  Biso   1.000  Hf
  Hf3      1.0000 0.33904  0.26152  0.39104  Biso   1.000  Hf
  Hf4      1.0000 0.36469  0.48850  0.84815  Biso   1.000  Hf
  Hf5      1.0000 0.64098  0.01106  0.15577  Biso   1.000  Hf
  Hf6      1.0000 0.65108  0.22196  0.62567  Biso   1.000  Hf
  Hf7      1.0000 0.86220  0.27262  0.14640  Biso   1.000  Hf
  Hf8      1.0000 0.86776  0.48121  0.65361  Biso   1.000  Hf
  O1       1.0000 0.03356  0.16537  0.17584  Biso   1.000  O
  O2       1.0000 0.03559  0.08222  0.67294  Biso   1.000  O
  O3       1.0000 0.46178  0.46423  0.19138  Biso   1.000  O
  O4       1.0000 0.47398  0.34023  0.63919  Biso   1.000  O
  O5       1.0000 0.27097  0.12153  0.61592  Biso   1.000  O
  O6       1.0000 0.27232  0.11656  0.11176  Biso   1.000  O
  O7       1.0000 0.22034  0.37541  0.61884  Biso   1.000  O
  O8       1.0000 0.22526  0.37251  0.11689  Biso   1.000  O
  O9       1.0000 0.52019  0.12724  0.39808  Biso   1.000  O
  O10      1.0000 0.53494  0.06239  0.83577  Biso   1.000  O
  O11      1.0000 0.96870  0.41465  0.33494  Biso   1.000  O
  O12      1.0000 0.97160  0.33375  0.83500  Biso   1.000  O
  O13      1.0000 0.78566  0.12339  0.88609  Biso   1.000  O
  O14      1.0000 0.78213  0.12253  0.39045  Biso   1.000  O
  O15      1.0000 0.74116  0.39263  0.90299  Biso   1.000  O
  O16      1.0000 0.72696  0.37473  0.40480  Biso   1.000  O
  Hf9      1.0000 0.13931  0.51985  0.34344  Biso   1.000  Hf
  Hf10     1.0000 0.13939  0.72962  0.84321  Biso   1.000  Hf
  Hf11     1.0000 0.36273  0.76933  0.34831  Biso   1.000  Hf
  Hf12     1.0000 0.36211  0.97149  0.85780  Biso   1.000  Hf
  Hf13     1.0000 0.64542  0.53595  0.14993  Biso   1.000  Hf
  Hf14     1.0000 0.64248  0.73334  0.65378  Biso   1.000  Hf
  Hf15     1.0000 0.86646  0.77037  0.15861  Biso   1.000  Hf
  Hf16     1.0000 0.86604  0.97825  0.66018  Biso   1.000  Hf
  O17      1.0000 0.03558  0.66351  0.16567  Biso   1.000  O
  O18      1.0000 0.03739  0.58490  0.66665  Biso   1.000  O
  O19      1.0000 0.46859  0.90831  0.17297  Biso   1.000  O
  O20      1.0000 0.46584  0.82768  0.67550  Biso   1.000  O
  O21      1.0000 0.27774  0.62380  0.58638  Biso   1.000  O
  O22      1.0000 0.27340  0.62632  0.08406  Biso   1.000  O
  O23      1.0000 0.22472  0.87214  0.59762  Biso   1.000  O
  O24      1.0000 0.22387  0.87181  0.10074  Biso   1.000  O
  O25      1.0000 0.54353  0.68197  0.32138  Biso   1.000  O
  O26      1.0000 0.53840  0.58548  0.81492  Biso   1.000  O
  O27      1.0000 0.96920  0.91431  0.33587  Biso   1.000  O
  O28      1.0000 0.96952  0.83482  0.83898  Biso   1.000  O
  O29      1.0000 0.78026  0.63273  0.90303  Biso   1.000  O
  O30      1.0000 0.78221  0.62705  0.40697  Biso   1.000  O
  O31      1.0000 0.72957  0.87537  0.91508  Biso   1.000  O
  O32      1.0000 0.73026  0.87385  0.41498  Biso   1.000  O
  Tl1      1.0000 0.53942  0.26851  0.06563  Biso   1.000  Tl
