data_image0
_cell_length_a       10.0002
_cell_length_b       10.3966
_cell_length_c       5.01841
_cell_angle_alpha    90.0564
_cell_angle_beta     89.9967
_cell_angle_gamma    90.0112

_symmetry_space_group_name_H-M    "P 1"
_symmetry_int_tables_number       1

loop_
  _symmetry_equiv_pos_as_xyz
  'x, y, z'

loop_
  _atom_site_label
  _atom_site_occupancy
  _atom_site_fract_x
  _atom_site_fract_y
  _atom_site_fract_z
  _atom_site_thermal_displace_type
  _atom_site_B_iso_or_equiv
  _atom_site_type_symbol
  Tl1      1.0000 0.12632  0.01493  0.24464  Biso   1.000  Tl
  Hf1      1.0000 0.13425  0.23536  0.75035  Biso   1.000  Hf
  Hf2      1.0000 0.36677  0.26771  0.25538  Biso   1.000  Hf
  Hf3      1.0000 0.36547  0.48325  0.75380  Biso   1.000  Hf
  O1       1.0000 0.03604  0.19879  0.38729  Biso   1.000  O
  O2       1.0000 0.03295  0.06972  0.84353  Biso   1.000  O
  O3       1.0000 0.46489  0.43387  0.39215  Biso   1.000  O
  O4       1.0000 0.46391  0.31538  0.88797  Biso   1.000  O
  O5       1.0000 0.28132  0.12685  0.51199  Biso   1.000  O
  O6       1.0000 0.27524  0.13271  0.99737  Biso   1.000  O
  O7       1.0000 0.23031  0.38246  0.00162  Biso   1.000  O
  O8       1.0000 0.22923  0.37061  0.50042  Biso   1.000  O
  Hf4      1.0000 0.13459  0.51657  0.25291  Biso   1.000  Hf
  Hf5      1.0000 0.13522  0.73331  0.75500  Biso   1.000  Hf
  Hf6      1.0000 0.36732  0.76473  0.25363  Biso   1.000  Hf
  Hf7      1.0000 0.36673  0.98187  0.74989  Biso   1.000  Hf
  O9       1.0000 0.03642  0.68478  0.38994  Biso   1.000  O
  O10      1.0000 0.03524  0.56602  0.89163  Biso   1.000  O
  O11      1.0000 0.46562  0.93377  0.38842  Biso   1.000  O
  O12      1.0000 0.46635  0.81548  0.89279  Biso   1.000  O
  O13      1.0000 0.27033  0.61508  0.50075  Biso   1.000  O
  O14      1.0000 0.27087  0.63080  0.00133  Biso   1.000  O
  O15      1.0000 0.23420  0.87706  0.99863  Biso   1.000  O
  O16      1.0000 0.23849  0.85918  0.51063  Biso   1.000  O
  Hf8      1.0000 0.63386  0.01597  0.25054  Biso   1.000  Hf
  Hf9      1.0000 0.63338  0.23266  0.75040  Biso   1.000  Hf
  Hf10     1.0000 0.86228  0.26747  0.25032  Biso   1.000  Hf
  Hf11     1.0000 0.86558  0.48366  0.75366  Biso   1.000  Hf
  O17      1.0000 0.53916  0.18557  0.38304  Biso   1.000  O
  O18      1.0000 0.53846  0.06445  0.88450  Biso   1.000  O
  O19      1.0000 0.96296  0.43625  0.39056  Biso   1.000  O
  O20      1.0000 0.96384  0.31837  0.89143  Biso   1.000  O
  O21      1.0000 0.76941  0.11799  0.49951  Biso   1.000  O
  O22      1.0000 0.77077  0.13240  0.99955  Biso   1.000  O
  O23      1.0000 0.72847  0.38238  0.99954  Biso   1.000  O
  O24      1.0000 0.72935  0.36821  0.50112  Biso   1.000  O
  Hf12     1.0000 0.63370  0.51588  0.25354  Biso   1.000  Hf
  Hf13     1.0000 0.63360  0.73260  0.75336  Biso   1.000  Hf
  Hf14     1.0000 0.86496  0.76410  0.25040  Biso   1.000  Hf
  Hf15     1.0000 0.86229  0.98222  0.75213  Biso   1.000  Hf
  O25      1.0000 0.53670  0.68229  0.39315  Biso   1.000  O
  O26      1.0000 0.53530  0.56540  0.89299  Biso   1.000  O
  O27      1.0000 0.94893  0.93290  0.38769  Biso   1.000  O
  O28      1.0000 0.96477  0.81648  0.89202  Biso   1.000  O
  O29      1.0000 0.77074  0.61671  0.49930  Biso   1.000  O
  O30      1.0000 0.76962  0.63089  0.99857  Biso   1.000  O
  O31      1.0000 0.72812  0.87986  0.00180  Biso   1.000  O
  O32      1.0000 0.72697  0.86605  0.50034  Biso   1.000  O
