data_image0
_cell_length_a       10.0569
_cell_length_b       10.2415
_cell_length_c       5.19721
_cell_angle_alpha    90.0473
_cell_angle_beta     80.3334
_cell_angle_gamma    89.8721

_symmetry_space_group_name_H-M    "P 1"
_symmetry_int_tables_number       1

loop_
  _symmetry_equiv_pos_as_xyz
  'x, y, z'

loop_
  _atom_site_label
  _atom_site_occupancy
  _atom_site_fract_x
  _atom_site_fract_y
  _atom_site_fract_z
  _atom_site_thermal_displace_type
  _atom_site_B_iso_or_equiv
  _atom_site_type_symbol
  V1       1.0000 0.13108  0.02547  0.29411  Biso   1.000  V
  Hf1      1.0000 0.14128  0.22584  0.78779  Biso   1.000  Hf
  Hf2      1.0000 0.35911  0.26918  0.20869  Biso   1.000  Hf
  Hf3      1.0000 0.36095  0.47901  0.70920  Biso   1.000  Hf
  O1       1.0000 0.03847  0.15916  0.16000  Biso   1.000  O
  O2       1.0000 0.04007  0.07950  0.63808  Biso   1.000  O
  O3       1.0000 0.46256  0.42114  0.33593  Biso   1.000  O
  O4       1.0000 0.46222  0.32779  0.83621  Biso   1.000  O
  O5       1.0000 0.27252  0.12483  0.47400  Biso   1.000  O
  O6       1.0000 0.27452  0.12029  0.98614  Biso   1.000  O
  O7       1.0000 0.22201  0.37882  0.01835  Biso   1.000  O
  O8       1.0000 0.22367  0.36921  0.51920  Biso   1.000  O
  Hf4      1.0000 0.14025  0.52176  0.29245  Biso   1.000  Hf
  Hf5      1.0000 0.13995  0.73110  0.79201  Biso   1.000  Hf
  Hf6      1.0000 0.35678  0.77614  0.21112  Biso   1.000  Hf
  Hf7      1.0000 0.35631  0.97933  0.70929  Biso   1.000  Hf
  O9       1.0000 0.03610  0.66935  0.16340  Biso   1.000  O
  O10      1.0000 0.03714  0.57957  0.66462  Biso   1.000  O
  O11      1.0000 0.46426  0.92030  0.33964  Biso   1.000  O
  O12      1.0000 0.46025  0.82972  0.83703  Biso   1.000  O
  O13      1.0000 0.27718  0.63045  0.48291  Biso   1.000  O
  O14      1.0000 0.27710  0.62216  0.98289  Biso   1.000  O
  O15      1.0000 0.21694  0.88552  0.02805  Biso   1.000  O
  O16      1.0000 0.21983  0.87319  0.51854  Biso   1.000  O
  Hf8      1.0000 0.63804  0.02127  0.29226  Biso   1.000  Hf
  Hf9      1.0000 0.63878  0.22832  0.79134  Biso   1.000  Hf
  Hf10     1.0000 0.86177  0.27026  0.20952  Biso   1.000  Hf
  Hf11     1.0000 0.86196  0.47833  0.70990  Biso   1.000  Hf
  O17      1.0000 0.53764  0.17183  0.16412  Biso   1.000  O
  O18      1.0000 0.53539  0.07929  0.66413  Biso   1.000  O
  O19      1.0000 0.96636  0.41662  0.34084  Biso   1.000  O
  O20      1.0000 0.96495  0.32679  0.84110  Biso   1.000  O
  O21      1.0000 0.77764  0.12862  0.48068  Biso   1.000  O
  O22      1.0000 0.77903  0.12025  0.97966  Biso   1.000  O
  O23      1.0000 0.72432  0.37916  0.01970  Biso   1.000  O
  O24      1.0000 0.72387  0.37037  0.51843  Biso   1.000  O
  Hf12     1.0000 0.63782  0.52259  0.29222  Biso   1.000  Hf
  Hf13     1.0000 0.63782  0.72979  0.79466  Biso   1.000  Hf
  Hf14     1.0000 0.86303  0.77216  0.20806  Biso   1.000  Hf
  Hf15     1.0000 0.86331  0.97934  0.70471  Biso   1.000  Hf
  O25      1.0000 0.53549  0.67258  0.16432  Biso   1.000  O
  O26      1.0000 0.53718  0.57855  0.66572  Biso   1.000  O
  O27      1.0000 0.97512  0.92228  0.33063  Biso   1.000  O
  O28      1.0000 0.96328  0.82996  0.83643  Biso   1.000  O
  O29      1.0000 0.77760  0.62947  0.48326  Biso   1.000  O
  O30      1.0000 0.77765  0.62175  0.98369  Biso   1.000  O
  O31      1.0000 0.72315  0.87976  0.01817  Biso   1.000  O
  O32      1.0000 0.72825  0.87179  0.51678  Biso   1.000  O
