data_image0
_cell_length_a       9.91666
_cell_length_b       5.19101
_cell_length_c       9.96877
_cell_angle_alpha    90.7478
_cell_angle_beta     89.5184
_cell_angle_gamma    90.2941

_symmetry_space_group_name_H-M    "P 1"
_symmetry_int_tables_number       1

loop_
  _symmetry_equiv_pos_as_xyz
  'x, y, z'

loop_
  _atom_site_label
  _atom_site_occupancy
  _atom_site_fract_x
  _atom_site_fract_y
  _atom_site_fract_z
  _atom_site_thermal_displace_type
  _atom_site_B_iso_or_equiv
  _atom_site_type_symbol
  V1       1.0000 0.12140  0.06123  0.11509  Biso   1.000  V
  Hf1      1.0000 0.13516  0.45402  0.37490  Biso   1.000  Hf
  Hf2      1.0000 0.36806  0.52323  0.12369  Biso   1.000  Hf
  Hf3      1.0000 0.36439  0.95567  0.37230  Biso   1.000  Hf
  O1       1.0000 0.03598  0.36611  0.19010  Biso   1.000  O
  O2       1.0000 0.03572  0.12778  0.44980  Biso   1.000  O
  O3       1.0000 0.46986  0.86112  0.19408  Biso   1.000  O
  O4       1.0000 0.47001  0.63756  0.45194  Biso   1.000  O
  O5       1.0000 0.25425  0.18549  0.24029  Biso   1.000  O
  O6       1.0000 0.27466  0.26202  0.49680  Biso   1.000  O
  O7       1.0000 0.22868  0.76091  0.50429  Biso   1.000  O
  O8       1.0000 0.25033  0.68341  0.26227  Biso   1.000  O
  Hf4      1.0000 0.13622  0.03615  0.62743  Biso   1.000  Hf
  Hf5      1.0000 0.13317  0.47901  0.87925  Biso   1.000  Hf
  Hf6      1.0000 0.36561  0.53774  0.62787  Biso   1.000  Hf
  Hf7      1.0000 0.35962  0.97329  0.88292  Biso   1.000  Hf
  O9       1.0000 0.03559  0.37071  0.69782  Biso   1.000  O
  O10      1.0000 0.03327  0.13879  0.95139  Biso   1.000  O
  O11      1.0000 0.46209  0.87262  0.69951  Biso   1.000  O
  O12      1.0000 0.45834  0.63697  0.94172  Biso   1.000  O
  O13      1.0000 0.27075  0.24244  0.75184  Biso   1.000  O
  O14      1.0000 0.26246  0.27207  0.00052  Biso   1.000  O
  O15      1.0000 0.22174  0.78145  0.01308  Biso   1.000  O
  O16      1.0000 0.22738  0.74313  0.75566  Biso   1.000  O
  Hf8      1.0000 0.63485  0.03513  0.12623  Biso   1.000  Hf
  Hf9      1.0000 0.63602  0.46709  0.37667  Biso   1.000  Hf
  Hf10     1.0000 0.86909  0.53353  0.12107  Biso   1.000  Hf
  Hf11     1.0000 0.86892  0.96911  0.37510  Biso   1.000  Hf
  O17      1.0000 0.53493  0.36582  0.19980  Biso   1.000  O
  O18      1.0000 0.53788  0.13057  0.44126  Biso   1.000  O
  O19      1.0000 0.98560  0.87307  0.18774  Biso   1.000  O
  O20      1.0000 0.96492  0.62926  0.43950  Biso   1.000  O
  O21      1.0000 0.77516  0.23224  0.24703  Biso   1.000  O
  O22      1.0000 0.77173  0.26504  0.49787  Biso   1.000  O
  O23      1.0000 0.73350  0.76726  0.49821  Biso   1.000  O
  O24      1.0000 0.73854  0.73413  0.24700  Biso   1.000  O
  Hf12     1.0000 0.63015  0.03120  0.62265  Biso   1.000  Hf
  Hf13     1.0000 0.63122  0.47050  0.87371  Biso   1.000  Hf
  Hf14     1.0000 0.86789  0.53300  0.62397  Biso   1.000  Hf
  Hf15     1.0000 0.86319  0.97160  0.87255  Biso   1.000  Hf
  O25      1.0000 0.53578  0.37017  0.69310  Biso   1.000  O
  O26      1.0000 0.53093  0.14247  0.94976  Biso   1.000  O
  O27      1.0000 0.96481  0.87041  0.69387  Biso   1.000  O
  O28      1.0000 0.95895  0.63633  0.93934  Biso   1.000  O
  O29      1.0000 0.76789  0.23453  0.74760  Biso   1.000  O
  O30      1.0000 0.76856  0.27146  0.99741  Biso   1.000  O
  O31      1.0000 0.72709  0.77011  0.99730  Biso   1.000  O
  O32      1.0000 0.72898  0.73518  0.74747  Biso   1.000  O
