data_image0
_cell_length_a       10.041
_cell_length_b       5.13655
_cell_length_c       10.4497
_cell_angle_alpha    89.8974
_cell_angle_beta     90.0036
_cell_angle_gamma    89.9227

_symmetry_space_group_name_H-M    "P 1"
_symmetry_int_tables_number       1

loop_
  _symmetry_equiv_pos_as_xyz
  'x, y, z'

loop_
  _atom_site_label
  _atom_site_occupancy
  _atom_site_fract_x
  _atom_site_fract_y
  _atom_site_fract_z
  _atom_site_thermal_displace_type
  _atom_site_B_iso_or_equiv
  _atom_site_type_symbol
  V1       1.0000 0.13033  0.04997  0.17616  Biso   1.000  V
  Zr1      1.0000 0.13922  0.04291  0.67107  Biso   1.000  Zr
  Zr2      1.0000 0.14021  0.46327  0.41789  Biso   1.000  Zr
  Zr3      1.0000 0.14158  0.45428  0.92426  Biso   1.000  Zr
  Zr4      1.0000 0.35493  0.54549  0.17083  Biso   1.000  Zr
  Zr5      1.0000 0.36152  0.54417  0.67089  Biso   1.000  Zr
  Zr6      1.0000 0.35835  0.96253  0.41788  Biso   1.000  Zr
  Zr7      1.0000 0.35849  0.95637  0.92442  Biso   1.000  Zr
  Zr8      1.0000 0.63811  0.04431  0.07908  Biso   1.000  Zr
  Zr9      1.0000 0.63790  0.04125  0.57918  Biso   1.000  Zr
  Zr10     1.0000 0.63718  0.45891  0.32802  Biso   1.000  Zr
  Zr11     1.0000 0.63892  0.45913  0.83054  Biso   1.000  Zr
  Zr12     1.0000 0.86639  0.54132  0.08047  Biso   1.000  Zr
  Zr13     1.0000 0.86052  0.54020  0.57865  Biso   1.000  Zr
  Zr14     1.0000 0.86265  0.96052  0.32837  Biso   1.000  Zr
  Zr15     1.0000 0.86202  0.95660  0.82979  Biso   1.000  Zr
  O1       1.0000 0.03677  0.31746  0.09137  Biso   1.000  O
  O2       1.0000 0.03175  0.32534  0.57850  Biso   1.000  O
  O3       1.0000 0.03878  0.16153  0.32607  Biso   1.000  O
  O4       1.0000 0.03283  0.16872  0.83376  Biso   1.000  O
  O5       1.0000 0.46746  0.83175  0.08608  Biso   1.000  O
  O6       1.0000 0.46454  0.83856  0.58537  Biso   1.000  O
  O7       1.0000 0.46265  0.66336  0.33642  Biso   1.000  O
  O8       1.0000 0.46587  0.66577  0.83652  Biso   1.000  O
  O9       1.0000 0.27106  0.24983  0.29195  Biso   1.000  O
  O10      1.0000 0.27689  0.24772  0.79622  Biso   1.000  O
  O11      1.0000 0.27042  0.24147  0.05103  Biso   1.000  O
  O12      1.0000 0.27646  0.25488  0.54398  Biso   1.000  O
  O13      1.0000 0.21970  0.76151  0.29129  Biso   1.000  O
  O14      1.0000 0.22335  0.74679  0.79509  Biso   1.000  O
  O15      1.0000 0.22046  0.75304  0.04637  Biso   1.000  O
  O16      1.0000 0.22261  0.75293  0.54292  Biso   1.000  O
  O17      1.0000 0.53287  0.33818  0.16424  Biso   1.000  O
  O18      1.0000 0.53454  0.33769  0.66421  Biso   1.000  O
  O19      1.0000 0.53373  0.16433  0.41298  Biso   1.000  O
  O20      1.0000 0.53283  0.16631  0.91569  Biso   1.000  O
  O21      1.0000 0.98183  0.83902  0.16335  Biso   1.000  O
  O22      1.0000 0.96790  0.82790  0.66576  Biso   1.000  O
  O23      1.0000 0.96534  0.66319  0.41164  Biso   1.000  O
  O24      1.0000 0.96830  0.66172  0.91780  Biso   1.000  O
  O25      1.0000 0.77779  0.25042  0.95660  Biso   1.000  O
  O26      1.0000 0.77673  0.24679  0.45410  Biso   1.000  O
  O27      1.0000 0.77689  0.25134  0.20519  Biso   1.000  O
  O28      1.0000 0.77651  0.25031  0.70566  Biso   1.000  O
  O29      1.0000 0.72561  0.74896  0.95639  Biso   1.000  O
  O30      1.0000 0.72358  0.74809  0.45513  Biso   1.000  O
  O31      1.0000 0.73167  0.75223  0.20510  Biso   1.000  O
  O32      1.0000 0.72396  0.75165  0.70575  Biso   1.000  O
