data_image0
_cell_length_a       9.99789
_cell_length_b       5.07069
_cell_length_c       9.99788
_cell_angle_alpha    90.0001
_cell_angle_beta     90
_cell_angle_gamma    90.0001

_symmetry_space_group_name_H-M    "P 1"
_symmetry_int_tables_number       1

loop_
  _symmetry_equiv_pos_as_xyz
  'x, y, z'

loop_
  _atom_site_label
  _atom_site_occupancy
  _atom_site_fract_x
  _atom_site_fract_y
  _atom_site_fract_z
  _atom_site_thermal_displace_type
  _atom_site_B_iso_or_equiv
  _atom_site_type_symbol
  W1       1.0000 0.12491  0.00011  0.12491  Biso   1.000  W
  Hf1      1.0000 0.12491  0.50011  0.37312  Biso   1.000  Hf
  Hf2      1.0000 0.37313  0.50011  0.12491  Biso   1.000  Hf
  Hf3      1.0000 0.37457  0.99924  0.37457  Biso   1.000  Hf
  O1       1.0000 0.99658  0.28477  0.99657  Biso   1.000  O
  O2       1.0000 0.00492  0.20930  0.24487  Biso   1.000  O
  O3       1.0000 0.99658  0.71545  0.25325  Biso   1.000  O
  O4       1.0000 0.00492  0.79091  0.00495  Biso   1.000  O
  O5       1.0000 0.25324  0.28477  0.25325  Biso   1.000  O
  O6       1.0000 0.24489  0.20930  0.00495  Biso   1.000  O
  O7       1.0000 0.25324  0.71545  0.99656  Biso   1.000  O
  O8       1.0000 0.24489  0.79092  0.24487  Biso   1.000  O
  Hf4      1.0000 0.12491  0.00011  0.62491  Biso   1.000  Hf
  Hf5      1.0000 0.12491  0.50011  0.87669  Biso   1.000  Hf
  Hf6      1.0000 0.37507  0.50011  0.62491  Biso   1.000  Hf
  Hf7      1.0000 0.37457  0.00097  0.87525  Biso   1.000  Hf
  O9       1.0000 0.99527  0.29341  0.49376  Biso   1.000  O
  O10      1.0000 0.00208  0.20831  0.74677  Biso   1.000  O
  O11      1.0000 0.99527  0.70681  0.75605  Biso   1.000  O
  O12      1.0000 0.00208  0.79190  0.50304  Biso   1.000  O
  O13      1.0000 0.25455  0.29341  0.75605  Biso   1.000  O
  O14      1.0000 0.24774  0.20832  0.50305  Biso   1.000  O
  O15      1.0000 0.25455  0.70681  0.49376  Biso   1.000  O
  O16      1.0000 0.24773  0.79190  0.74677  Biso   1.000  O
  Hf8      1.0000 0.62491  0.00011  0.12491  Biso   1.000  Hf
  Hf9      1.0000 0.62491  0.50011  0.37507  Biso   1.000  Hf
  Hf10     1.0000 0.87669  0.50011  0.12491  Biso   1.000  Hf
  Hf11     1.0000 0.87525  0.00097  0.37457  Biso   1.000  Hf
  O17      1.0000 0.49378  0.29340  0.99526  Biso   1.000  O
  O18      1.0000 0.50303  0.20831  0.24772  Biso   1.000  O
  O19      1.0000 0.49377  0.70681  0.25456  Biso   1.000  O
  O20      1.0000 0.50303  0.79190  0.00209  Biso   1.000  O
  O21      1.0000 0.75604  0.29340  0.25456  Biso   1.000  O
  O22      1.0000 0.74679  0.20832  0.00210  Biso   1.000  O
  O23      1.0000 0.75604  0.70681  0.99526  Biso   1.000  O
  O24      1.0000 0.74679  0.79190  0.24772  Biso   1.000  O
  Hf12     1.0000 0.62491  0.00011  0.62491  Biso   1.000  Hf
  Hf13     1.0000 0.62491  0.50011  0.87474  Biso   1.000  Hf
  Hf14     1.0000 0.87474  0.50011  0.62491  Biso   1.000  Hf
  Hf15     1.0000 0.87525  0.99924  0.87525  Biso   1.000  Hf
  O25      1.0000 0.49580  0.29165  0.49579  Biso   1.000  O
  O26      1.0000 0.50230  0.20893  0.74751  Biso   1.000  O
  O27      1.0000 0.49580  0.70857  0.75402  Biso   1.000  O
  O28      1.0000 0.50230  0.79128  0.50231  Biso   1.000  O
  O29      1.0000 0.75402  0.29165  0.75403  Biso   1.000  O
  O30      1.0000 0.74752  0.20894  0.50231  Biso   1.000  O
  O31      1.0000 0.75402  0.70857  0.49579  Biso   1.000  O
  O32      1.0000 0.74752  0.79128  0.74751  Biso   1.000  O
