data_image0
_cell_length_a       5.08685
_cell_length_b       10.3415
_cell_length_c       10.2952
_cell_angle_alpha    93.537
_cell_angle_beta     91.8286
_cell_angle_gamma    90.3013

_symmetry_space_group_name_H-M    "P 1"
_symmetry_int_tables_number       1

loop_
  _symmetry_equiv_pos_as_xyz
  'x, y, z'

loop_
  _atom_site_label
  _atom_site_occupancy
  _atom_site_fract_x
  _atom_site_fract_y
  _atom_site_fract_z
  _atom_site_thermal_displace_type
  _atom_site_B_iso_or_equiv
  _atom_site_type_symbol
  Zr1      1.0000 0.20977  0.96972  0.13740  Biso   1.000  Zr
  Zr2      1.0000 0.24253  0.20272  0.39914  Biso   1.000  Zr
  Zr3      1.0000 0.80167  0.32088  0.04179  Biso   1.000  Zr
  Zr4      1.0000 0.74860  0.46376  0.35253  Biso   1.000  Zr
  O1       1.0000 0.98659  0.12435  0.23951  Biso   1.000  O
  O2       1.0000 0.06463  0.04212  0.46601  Biso   1.000  O
  O3       1.0000 0.02525  0.38736  0.21833  Biso   1.000  O
  O4       1.0000 0.97397  0.32991  0.47315  Biso   1.000  O
  O5       1.0000 0.46952  0.10445  0.25172  Biso   1.000  O
  O6       1.0000 0.55442  0.12733  0.50999  Biso   1.000  O
  O7       1.0000 0.47954  0.37097  0.45886  Biso   1.000  O
  O8       1.0000 0.52677  0.36510  0.19153  Biso   1.000  O
  Zr5      1.0000 0.28839  0.99581  0.62513  Biso   1.000  Zr
  Zr6      1.0000 0.26988  0.25271  0.85177  Biso   1.000  Zr
  Zr7      1.0000 0.75752  0.27220  0.63318  Biso   1.000  Zr
  Zr8      1.0000 0.70161  0.52400  0.83118  Biso   1.000  Zr
  O9       1.0000 0.08413  0.17068  0.67963  Biso   1.000  O
  O10      1.0000 0.02300  0.12627  0.98993  Biso   1.000  O
  O11      1.0000 0.88629  0.47863  0.65803  Biso   1.000  O
  O12      1.0000 0.88517  0.33130  0.84171  Biso   1.000  O
  O13      1.0000 0.55292  0.12055  0.75684  Biso   1.000  O
  O14      1.0000 0.51638  0.17503  0.99930  Biso   1.000  O
  O15      1.0000 0.45164  0.41974  0.94253  Biso   1.000  O
  O16      1.0000 0.43101  0.37044  0.70912  Biso   1.000  O
  Zr9      1.0000 0.27851  0.50952  0.10543  Biso   1.000  Zr
  Zr10     1.0000 0.27419  0.73826  0.37135  Biso   1.000  Zr
  Zr11     1.0000 0.75775  0.73397  0.12731  Biso   1.000  Zr
  Zr12     1.0000 0.72971  0.99999  0.35639  Biso   1.000  Zr
  O17      1.0000 0.08511  0.65633  0.20418  Biso   1.000  O
  O18      1.0000 0.04001  0.58283  0.43362  Biso   1.000  O
  O19      1.0000 0.98379  0.87017  0.27122  Biso   1.000  O
  O20      1.0000 0.08781  0.80753  0.54750  Biso   1.000  O
  O21      1.0000 0.56247  0.60481  0.24381  Biso   1.000  O
  O22      1.0000 0.53055  0.62096  0.48761  Biso   1.000  O
  O23      1.0000 0.55155  0.87581  0.48658  Biso   1.000  O
  O24      1.0000 0.48992  0.85183  0.23491  Biso   1.000  O
  Zr13     1.0000 0.25450  0.49576  0.57787  Biso   1.000  Zr
  Zr14     1.0000 0.25660  0.78032  0.85635  Biso   1.000  Zr
  Zr15     1.0000 0.74355  0.74505  0.61571  Biso   1.000  Zr
  Zr16     1.0000 0.74463  0.00894  0.88908  Biso   1.000  Zr
  O25      1.0000 0.91216  0.69242  0.79130  Biso   1.000  O
  O26      1.0000 0.90764  0.52834  0.00992  Biso   1.000  O
  O27      1.0000 0.05602  0.94153  0.77634  Biso   1.000  O
  O28      1.0000 0.96932  0.84813  0.00565  Biso   1.000  O
  O29      1.0000 0.41338  0.62653  0.72680  Biso   1.000  O
  O30      1.0000 0.46006  0.66440  0.98923  Biso   1.000  O
  O31      1.0000 0.46145  0.92058  0.98564  Biso   1.000  O
  O32      1.0000 0.53624  0.86998  0.74018  Biso   1.000  O
  W1       1.0000 0.24921  0.22943  0.13551  Biso   1.000  W
