data_image0
_cell_length_a       5.18997
_cell_length_b       10.3037
_cell_length_c       10.6468
_cell_angle_alpha    89.8698
_cell_angle_beta     78.7491
_cell_angle_gamma    90.3934

_symmetry_space_group_name_H-M    "P 1"
_symmetry_int_tables_number       1

loop_
  _symmetry_equiv_pos_as_xyz
  'x, y, z'

loop_
  _atom_site_label
  _atom_site_occupancy
  _atom_site_fract_x
  _atom_site_fract_y
  _atom_site_fract_z
  _atom_site_thermal_displace_type
  _atom_site_B_iso_or_equiv
  _atom_site_type_symbol
  Zr1      1.0000 0.27376  0.02107  0.14329  Biso   1.000  Zr
  Zr2      1.0000 0.25538  0.23371  0.40000  Biso   1.000  Zr
  Zr3      1.0000 0.71469  0.27228  0.10212  Biso   1.000  Zr
  Zr4      1.0000 0.71274  0.49755  0.34849  Biso   1.000  Zr
  O1       1.0000 0.05146  0.15276  0.06819  Biso   1.000  O
  O2       1.0000 0.04700  0.08874  0.31491  Biso   1.000  O
  O3       1.0000 0.95416  0.38300  0.20222  Biso   1.000  O
  O4       1.0000 0.97547  0.38023  0.44884  Biso   1.000  O
  O5       1.0000 0.55152  0.12707  0.24679  Biso   1.000  O
  O6       1.0000 0.57705  0.11356  0.49115  Biso   1.000  O
  O7       1.0000 0.45064  0.37663  0.00483  Biso   1.000  O
  O8       1.0000 0.43890  0.38173  0.24924  Biso   1.000  O
  Zr5      1.0000 0.28334  0.02061  0.64809  Biso   1.000  Zr
  Zr6      1.0000 0.27165  0.22886  0.89701  Biso   1.000  Zr
  Zr7      1.0000 0.74265  0.27053  0.60981  Biso   1.000  Zr
  Zr8      1.0000 0.72230  0.47837  0.85449  Biso   1.000  Zr
  O9       1.0000 0.08246  0.16230  0.57999  Biso   1.000  O
  O10      1.0000 0.05623  0.09230  0.82244  Biso   1.000  O
  O11      1.0000 0.95752  0.40058  0.69332  Biso   1.000  O
  O12      1.0000 0.94843  0.35219  0.93862  Biso   1.000  O
  O13      1.0000 0.54646  0.12672  0.74594  Biso   1.000  O
  O14      1.0000 0.54298  0.12296  0.99211  Biso   1.000  O
  O15      1.0000 0.49498  0.36752  0.49380  Biso   1.000  O
  O16      1.0000 0.45551  0.37486  0.75718  Biso   1.000  O
  Zr9      1.0000 0.27082  0.51938  0.14497  Biso   1.000  Zr
  Zr10     1.0000 0.26271  0.72815  0.39712  Biso   1.000  Zr
  Zr11     1.0000 0.71948  0.77083  0.09977  Biso   1.000  Zr
  Zr12     1.0000 0.71083  0.96522  0.35250  Biso   1.000  Zr
  O17      1.0000 0.03770  0.64678  0.06282  Biso   1.000  O
  O18      1.0000 0.04898  0.60724  0.30864  Biso   1.000  O
  O19      1.0000 0.93929  0.90215  0.17661  Biso   1.000  O
  O20      1.0000 0.93631  0.84237  0.43158  Biso   1.000  O
  O21      1.0000 0.53549  0.63094  0.23754  Biso   1.000  O
  O22      1.0000 0.53094  0.62619  0.49319  Biso   1.000  O
  O23      1.0000 0.44900  0.87697  0.00927  Biso   1.000  O
  O24      1.0000 0.44066  0.87188  0.25836  Biso   1.000  O
  Zr13     1.0000 0.27507  0.52003  0.64599  Biso   1.000  Zr
  Zr14     1.0000 0.27004  0.72579  0.89513  Biso   1.000  Zr
  Zr15     1.0000 0.72095  0.77144  0.60663  Biso   1.000  Zr
  Zr16     1.0000 0.72279  0.97862  0.85415  Biso   1.000  Zr
  O25      1.0000 0.04414  0.65174  0.56863  Biso   1.000  O
  O26      1.0000 0.05410  0.59792  0.81289  Biso   1.000  O
  O27      1.0000 0.94176  0.90850  0.67886  Biso   1.000  O
  O28      1.0000 0.94004  0.84213  0.92734  Biso   1.000  O
  O29      1.0000 0.54388  0.62581  0.73999  Biso   1.000  O
  O30      1.0000 0.53680  0.62279  0.98930  Biso   1.000  O
  O31      1.0000 0.44478  0.87374  0.51155  Biso   1.000  O
  O32      1.0000 0.45292  0.87167  0.76076  Biso   1.000  O
  W1       1.0000 0.78587  0.24568  0.35854  Biso   1.000  W
