data_image0
_cell_length_a       10.0945
_cell_length_b       10.2564
_cell_length_c       5.23457
_cell_angle_alpha    89.9979
_cell_angle_beta     89.9297
_cell_angle_gamma    90.0821

_symmetry_space_group_name_H-M    "P 1"
_symmetry_int_tables_number       1

loop_
  _symmetry_equiv_pos_as_xyz
  'x, y, z'

loop_
  _atom_site_label
  _atom_site_occupancy
  _atom_site_fract_x
  _atom_site_fract_y
  _atom_site_fract_z
  _atom_site_thermal_displace_type
  _atom_site_B_iso_or_equiv
  _atom_site_type_symbol
  Y1       1.0000 0.13948  0.01740  0.34009  Biso   1.000  Y
  Hf1      1.0000 0.13976  0.22949  0.84426  Biso   1.000  Hf
  Hf2      1.0000 0.35967  0.26866  0.34371  Biso   1.000  Hf
  Hf3      1.0000 0.36078  0.47766  0.84358  Biso   1.000  Hf
  Hf4      1.0000 0.63910  0.02085  0.15865  Biso   1.000  Hf
  Hf5      1.0000 0.63848  0.22915  0.65600  Biso   1.000  Hf
  Hf6      1.0000 0.85981  0.27192  0.15263  Biso   1.000  Hf
  Hf7      1.0000 0.85983  0.48026  0.65344  Biso   1.000  Hf
  O1       1.0000 0.03176  0.17834  0.16960  Biso   1.000  O
  O2       1.0000 0.02724  0.08601  0.69028  Biso   1.000  O
  O3       1.0000 0.46779  0.41279  0.16492  Biso   1.000  O
  O4       1.0000 0.46848  0.33628  0.66513  Biso   1.000  O
  O5       1.0000 0.28032  0.12720  0.59933  Biso   1.000  O
  O6       1.0000 0.28207  0.13077  0.08207  Biso   1.000  O
  O7       1.0000 0.22356  0.37417  0.58991  Biso   1.000  O
  O8       1.0000 0.22357  0.37720  0.09137  Biso   1.000  O
  O9       1.0000 0.53293  0.16499  0.33294  Biso   1.000  O
  O10      1.0000 0.53504  0.08384  0.83150  Biso   1.000  O
  O11      1.0000 0.96506  0.41986  0.32579  Biso   1.000  O
  O12      1.0000 0.96628  0.33742  0.82494  Biso   1.000  O
  O13      1.0000 0.77435  0.12563  0.91228  Biso   1.000  O
  O14      1.0000 0.77561  0.12652  0.41170  Biso   1.000  O
  O15      1.0000 0.72308  0.37512  0.90507  Biso   1.000  O
  O16      1.0000 0.72365  0.37644  0.40692  Biso   1.000  O
  Hf8      1.0000 0.13975  0.52054  0.34346  Biso   1.000  Hf
  Hf9      1.0000 0.14200  0.72851  0.84384  Biso   1.000  Hf
  Hf10     1.0000 0.36254  0.76976  0.34322  Biso   1.000  Hf
  Hf11     1.0000 0.36190  0.97954  0.84221  Biso   1.000  Hf
  Hf12     1.0000 0.63784  0.51979  0.15419  Biso   1.000  Hf
  Hf13     1.0000 0.63867  0.72927  0.65518  Biso   1.000  Hf
  Hf14     1.0000 0.85917  0.76988  0.15653  Biso   1.000  Hf
  Hf15     1.0000 0.85949  0.97915  0.65924  Biso   1.000  Hf
  O17      1.0000 0.03310  0.66617  0.17025  Biso   1.000  O
  O18      1.0000 0.03224  0.58484  0.66822  Biso   1.000  O
  O19      1.0000 0.46903  0.91504  0.16801  Biso   1.000  O
  O20      1.0000 0.47073  0.83615  0.66484  Biso   1.000  O
  O21      1.0000 0.27667  0.62141  0.59107  Biso   1.000  O
  O22      1.0000 0.27571  0.62282  0.09264  Biso   1.000  O
  O23      1.0000 0.23005  0.86719  0.59531  Biso   1.000  O
  O24      1.0000 0.23351  0.86811  0.08127  Biso   1.000  O
  O25      1.0000 0.53233  0.66213  0.33471  Biso   1.000  O
  O26      1.0000 0.53088  0.58603  0.83494  Biso   1.000  O
  O27      1.0000 0.95516  0.91228  0.33750  Biso   1.000  O
  O28      1.0000 0.96912  0.83476  0.83446  Biso   1.000  O
  O29      1.0000 0.77449  0.62327  0.90614  Biso   1.000  O
  O30      1.0000 0.77502  0.62627  0.40654  Biso   1.000  O
  O31      1.0000 0.72515  0.87371  0.91012  Biso   1.000  O
  O32      1.0000 0.71774  0.87539  0.41000  Biso   1.000  O
