data_image0
_cell_length_a       10.1104
_cell_length_b       10.3548
_cell_length_c       5.10026
_cell_angle_alpha    90.4168
_cell_angle_beta     91.3601
_cell_angle_gamma    89.6015

_symmetry_space_group_name_H-M    "P 1"
_symmetry_int_tables_number       1

loop_
  _symmetry_equiv_pos_as_xyz
  'x, y, z'

loop_
  _atom_site_label
  _atom_site_occupancy
  _atom_site_fract_x
  _atom_site_fract_y
  _atom_site_fract_z
  _atom_site_thermal_displace_type
  _atom_site_B_iso_or_equiv
  _atom_site_type_symbol
  Hf1      1.0000 0.10889  0.97160  0.25652  Biso   1.000  Hf
  Hf2      1.0000 0.12482  0.23881  0.69388  Biso   1.000  Hf
  Hf3      1.0000 0.38996  0.27178  0.20497  Biso   1.000  Hf
  Hf4      1.0000 0.36697  0.49054  0.72837  Biso   1.000  Hf
  O1       1.0000 0.98794  0.12968  0.44562  Biso   1.000  O
  O2       1.0000 0.03331  0.07696  0.93290  Biso   1.000  O
  O3       1.0000 0.47261  0.43918  0.38002  Biso   1.000  O
  O4       1.0000 0.47864  0.33553  0.87847  Biso   1.000  O
  O5       1.0000 0.24434  0.10510  0.44641  Biso   1.000  O
  O6       1.0000 0.28079  0.15633  0.92760  Biso   1.000  O
  O7       1.0000 0.23274  0.39730  0.96363  Biso   1.000  O
  O8       1.0000 0.24788  0.36533  0.46556  Biso   1.000  O
  Hf5      1.0000 0.14299  0.52601  0.23946  Biso   1.000  Hf
  Hf6      1.0000 0.12239  0.74171  0.74397  Biso   1.000  Hf
  Hf7      1.0000 0.37299  0.77078  0.23564  Biso   1.000  Hf
  Hf8      1.0000 0.35965  0.99716  0.73267  Biso   1.000  Hf
  O9       1.0000 0.02233  0.65652  0.42525  Biso   1.000  O
  O10      1.0000 0.02675  0.57837  0.91245  Biso   1.000  O
  O11      1.0000 0.46743  0.93529  0.40234  Biso   1.000  O
  O12      1.0000 0.48009  0.83508  0.90800  Biso   1.000  O
  O13      1.0000 0.27420  0.62147  0.48402  Biso   1.000  O
  O14      1.0000 0.26596  0.64470  0.98497  Biso   1.000  O
  O15      1.0000 0.24247  0.89595  0.99030  Biso   1.000  O
  O16      1.0000 0.23948  0.85544  0.49528  Biso   1.000  O
  Hf9      1.0000 0.62651  0.00893  0.23664  Biso   1.000  Hf
  Hf10     1.0000 0.63247  0.23462  0.74455  Biso   1.000  Hf
  Hf11     1.0000 0.84583  0.26153  0.25710  Biso   1.000  Hf
  Hf12     1.0000 0.87179  0.47996  0.75072  Biso   1.000  Hf
  O17      1.0000 0.52880  0.17826  0.40751  Biso   1.000  O
  O18      1.0000 0.52545  0.08154  0.90853  Biso   1.000  O
  O19      1.0000 0.99081  0.39615  0.42689  Biso   1.000  O
  O20      1.0000 0.95944  0.31710  0.90666  Biso   1.000  O
  O21      1.0000 0.75175  0.10978  0.50056  Biso   1.000  O
  O22      1.0000 0.76293  0.13431  0.99644  Biso   1.000  O
  O23      1.0000 0.73259  0.38885  0.00005  Biso   1.000  O
  O24      1.0000 0.72982  0.36902  0.50287  Biso   1.000  O
  Hf13     1.0000 0.63236  0.52180  0.23865  Biso   1.000  Hf
  Hf14     1.0000 0.63394  0.74106  0.74828  Biso   1.000  Hf
  Hf15     1.0000 0.86221  0.75719  0.26649  Biso   1.000  Hf
  Hf16     1.0000 0.87275  0.99903  0.74949  Biso   1.000  Hf
  O25      1.0000 0.53832  0.68859  0.39311  Biso   1.000  O
  O26      1.0000 0.53028  0.58151  0.89226  Biso   1.000  O
  O27      1.0000 0.98684  0.88320  0.51709  Biso   1.000  O
  O28      1.0000 0.99673  0.83343  0.00993  Biso   1.000  O
  O29      1.0000 0.76941  0.61126  0.49511  Biso   1.000  O
  O30      1.0000 0.76956  0.63783  0.99198  Biso   1.000  O
  O31      1.0000 0.74597  0.88756  0.99221  Biso   1.000  O
  O32      1.0000 0.73483  0.86621  0.49057  Biso   1.000  O
  Y1       1.0000 0.11827  0.24583  0.19148  Biso   1.000  Y
