data_image0
_cell_length_a       10.1572
_cell_length_b       10.354
_cell_length_c       5.15965
_cell_angle_alpha    92.8275
_cell_angle_beta     90.1083
_cell_angle_gamma    91.2411

_symmetry_space_group_name_H-M    "P 1"
_symmetry_int_tables_number       1

loop_
  _symmetry_equiv_pos_as_xyz
  'x, y, z'

loop_
  _atom_site_label
  _atom_site_occupancy
  _atom_site_fract_x
  _atom_site_fract_y
  _atom_site_fract_z
  _atom_site_thermal_displace_type
  _atom_site_B_iso_or_equiv
  _atom_site_type_symbol
  Zr1      1.0000 0.11219  0.96437  0.22784  Biso   1.000  Zr
  Zr2      1.0000 0.11879  0.24121  0.66935  Biso   1.000  Zr
  Zr3      1.0000 0.40036  0.25526  0.22982  Biso   1.000  Zr
  Zr4      1.0000 0.35734  0.49093  0.73121  Biso   1.000  Zr
  O1       1.0000 0.98450  0.11900  0.40486  Biso   1.000  O
  O2       1.0000 0.03703  0.06776  0.89751  Biso   1.000  O
  O3       1.0000 0.48653  0.42645  0.44080  Biso   1.000  O
  O4       1.0000 0.48813  0.36982  0.95095  Biso   1.000  O
  O5       1.0000 0.24497  0.11110  0.40625  Biso   1.000  O
  O6       1.0000 0.28129  0.17448  0.89612  Biso   1.000  O
  O7       1.0000 0.20684  0.40802  0.93223  Biso   1.000  O
  O8       1.0000 0.24725  0.36716  0.43802  Biso   1.000  O
  Zr5      1.0000 0.13898  0.52304  0.25905  Biso   1.000  Zr
  Zr6      1.0000 0.14698  0.75856  0.72397  Biso   1.000  Zr
  Zr7      1.0000 0.39147  0.77512  0.19328  Biso   1.000  Zr
  Zr8      1.0000 0.37108  0.02208  0.69533  Biso   1.000  Zr
  O9       1.0000 0.00812  0.62820  0.54268  Biso   1.000  O
  O10      1.0000 0.97757  0.56556  0.05464  Biso   1.000  O
  O11      1.0000 0.48888  0.93166  0.40930  Biso   1.000  O
  O12      1.0000 0.51402  0.86336  0.92380  Biso   1.000  O
  O13      1.0000 0.26947  0.62540  0.50707  Biso   1.000  O
  O14      1.0000 0.24436  0.65242  0.00656  Biso   1.000  O
  O15      1.0000 0.26223  0.90506  0.96139  Biso   1.000  O
  O16      1.0000 0.25223  0.86648  0.46313  Biso   1.000  O
  Zr9      1.0000 0.64217  0.98574  0.17867  Biso   1.000  Zr
  Zr10     1.0000 0.63019  0.24445  0.76688  Biso   1.000  Zr
  Zr11     1.0000 0.83965  0.25983  0.25203  Biso   1.000  Zr
  Zr12     1.0000 0.87893  0.48198  0.74145  Biso   1.000  Zr
  O17      1.0000 0.48563  0.17492  0.53124  Biso   1.000  O
  O18      1.0000 0.51241  0.11293  0.00501  Biso   1.000  O
  O19      1.0000 0.99510  0.37933  0.43215  Biso   1.000  O
  O20      1.0000 0.95668  0.31141  0.89970  Biso   1.000  O
  O21      1.0000 0.73377  0.11066  0.47245  Biso   1.000  O
  O22      1.0000 0.76145  0.12944  0.96792  Biso   1.000  O
  O23      1.0000 0.73605  0.38846  0.02824  Biso   1.000  O
  O24      1.0000 0.74082  0.35806  0.53763  Biso   1.000  O
  Zr13     1.0000 0.60621  0.52220  0.19609  Biso   1.000  Zr
  Zr14     1.0000 0.64581  0.74339  0.71525  Biso   1.000  Zr
  Zr15     1.0000 0.88619  0.72084  0.26031  Biso   1.000  Zr
  Zr16     1.0000 0.87163  0.00629  0.68583  Biso   1.000  Zr
  O25      1.0000 0.52659  0.68392  0.40383  Biso   1.000  O
  O26      1.0000 0.49639  0.61805  0.92179  Biso   1.000  O
  O27      1.0000 0.99938  0.87016  0.50533  Biso   1.000  O
  O28      1.0000 0.01968  0.81225  0.02011  Biso   1.000  O
  O29      1.0000 0.75737  0.59871  0.47403  Biso   1.000  O
  O30      1.0000 0.74961  0.63773  0.97102  Biso   1.000  O
  O31      1.0000 0.76660  0.88536  0.92711  Biso   1.000  O
  O32      1.0000 0.74897  0.85633  0.43243  Biso   1.000  O
  Y1       1.0000 0.11772  0.24271  0.16329  Biso   1.000  Y
