data_image0
_cell_length_a       5.12336
_cell_length_b       10.4046
_cell_length_c       10.7266
_cell_angle_alpha    89.9829
_cell_angle_beta     78.627
_cell_angle_gamma    91.0785

_symmetry_space_group_name_H-M    "P 1"
_symmetry_int_tables_number       1

loop_
  _symmetry_equiv_pos_as_xyz
  'x, y, z'

loop_
  _atom_site_label
  _atom_site_occupancy
  _atom_site_fract_x
  _atom_site_fract_y
  _atom_site_fract_z
  _atom_site_thermal_displace_type
  _atom_site_B_iso_or_equiv
  _atom_site_type_symbol
  Zr1      1.0000 0.28794  0.01473  0.15060  Biso   1.000  Zr
  Zr2      1.0000 0.31686  0.22935  0.41973  Biso   1.000  Zr
  Zr3      1.0000 0.67172  0.27061  0.08523  Biso   1.000  Zr
  Zr4      1.0000 0.70062  0.48523  0.35435  Biso   1.000  Zr
  O1       1.0000 0.03445  0.15766  0.06583  Biso   1.000  O
  O2       1.0000 0.09698  0.07150  0.33946  Biso   1.000  O
  O3       1.0000 0.89161  0.42846  0.16550  Biso   1.000  O
  O4       1.0000 0.95416  0.34230  0.43913  Biso   1.000  O
  O5       1.0000 0.59284  0.13275  0.24949  Biso   1.000  O
  O6       1.0000 0.58246  0.11611  0.49997  Biso   1.000  O
  O7       1.0000 0.40613  0.38385  0.00499  Biso   1.000  O
  O8       1.0000 0.39575  0.36723  0.25547  Biso   1.000  O
  Zr5      1.0000 0.28216  0.01832  0.64944  Biso   1.000  Zr
  Zr6      1.0000 0.25475  0.22541  0.89266  Biso   1.000  Zr
  Zr7      1.0000 0.73384  0.27455  0.61229  Biso   1.000  Zr
  Zr8      1.0000 0.70642  0.48164  0.85551  Biso   1.000  Zr
  O9       1.0000 0.08138  0.16753  0.58974  Biso   1.000  O
  O10      1.0000 0.05576  0.08139  0.82501  Biso   1.000  O
  O11      1.0000 0.93283  0.41857  0.67995  Biso   1.000  O
  O12      1.0000 0.90720  0.33243  0.91522  Biso   1.000  O
  O13      1.0000 0.54602  0.12809  0.74500  Biso   1.000  O
  O14      1.0000 0.52709  0.11805  0.98793  Biso   1.000  O
  O15      1.0000 0.46150  0.38192  0.51702  Biso   1.000  O
  O16      1.0000 0.44256  0.37188  0.75996  Biso   1.000  O
  Zr9      1.0000 0.26500  0.52628  0.14689  Biso   1.000  Zr
  Zr10     1.0000 0.26886  0.72726  0.39945  Biso   1.000  Zr
  Zr11     1.0000 0.71971  0.77270  0.10550  Biso   1.000  Zr
  Zr12     1.0000 0.72357  0.97369  0.35806  Biso   1.000  Zr
  O17      1.0000 0.05920  0.66961  0.07906  Biso   1.000  O
  O18      1.0000 0.05138  0.58513  0.32789  Biso   1.000  O
  O19      1.0000 0.93719  0.91484  0.17706  Biso   1.000  O
  O20      1.0000 0.92937  0.83036  0.42590  Biso   1.000  O
  O21      1.0000 0.53805  0.63042  0.24435  Biso   1.000  O
  O22      1.0000 0.53857  0.62419  0.49358  Biso   1.000  O
  O23      1.0000 0.45001  0.87578  0.01137  Biso   1.000  O
  O24      1.0000 0.45052  0.86955  0.26061  Biso   1.000  O
  Zr13     1.0000 0.27472  0.52434  0.64977  Biso   1.000  Zr
  Zr14     1.0000 0.26901  0.72862  0.89905  Biso   1.000  Zr
  Zr15     1.0000 0.71957  0.77134  0.60590  Biso   1.000  Zr
  Zr16     1.0000 0.71386  0.97563  0.85518  Biso   1.000  Zr
  O25      1.0000 0.05623  0.66312  0.57934  Biso   1.000  O
  O26      1.0000 0.05823  0.58715  0.82977  Biso   1.000  O
  O27      1.0000 0.93035  0.91281  0.67518  Biso   1.000  O
  O28      1.0000 0.93235  0.83685  0.92562  Biso   1.000  O
  O29      1.0000 0.54643  0.62911  0.74320  Biso   1.000  O
  O30      1.0000 0.54400  0.62368  0.99310  Biso   1.000  O
  O31      1.0000 0.44458  0.87629  0.51185  Biso   1.000  O
  O32      1.0000 0.44215  0.87085  0.76176  Biso   1.000  O
  Y1       1.0000 0.99429  0.24998  0.25248  Biso   1.000  Y
