data_image0
_cell_length_a       10.1517
_cell_length_b       10.3532
_cell_length_c       5.34032
_cell_angle_alpha    90.0003
_cell_angle_beta     91.211
_cell_angle_gamma    90.417

_symmetry_space_group_name_H-M    "P 1"
_symmetry_int_tables_number       1

loop_
  _symmetry_equiv_pos_as_xyz
  'x, y, z'

loop_
  _atom_site_label
  _atom_site_occupancy
  _atom_site_fract_x
  _atom_site_fract_y
  _atom_site_fract_z
  _atom_site_thermal_displace_type
  _atom_site_B_iso_or_equiv
  _atom_site_type_symbol
  Zr1      1.0000 0.14066  0.02049  0.35304  Biso   1.000  Zr
  Zr2      1.0000 0.14174  0.22772  0.85823  Biso   1.000  Zr
  Zr3      1.0000 0.35191  0.27285  0.38352  Biso   1.000  Zr
  Zr4      1.0000 0.35861  0.48438  0.85773  Biso   1.000  Zr
  Zr5      1.0000 0.64387  0.00637  0.15299  Biso   1.000  Zr
  Zr6      1.0000 0.65306  0.21989  0.60092  Biso   1.000  Zr
  Zr7      1.0000 0.87008  0.27155  0.14475  Biso   1.000  Zr
  Zr8      1.0000 0.86197  0.47810  0.65382  Biso   1.000  Zr
  O1       1.0000 0.03485  0.15920  0.16471  Biso   1.000  O
  O2       1.0000 0.03306  0.08851  0.66565  Biso   1.000  O
  O3       1.0000 0.45857  0.42920  0.19244  Biso   1.000  O
  O4       1.0000 0.47091  0.33186  0.68571  Biso   1.000  O
  O5       1.0000 0.27327  0.12426  0.60901  Biso   1.000  O
  O6       1.0000 0.27988  0.12701  0.10471  Biso   1.000  O
  O7       1.0000 0.22051  0.37693  0.61607  Biso   1.000  O
  O8       1.0000 0.22199  0.37597  0.11070  Biso   1.000  O
  O9       1.0000 0.52165  0.14136  0.35319  Biso   1.000  O
  O10      1.0000 0.53177  0.08453  0.84369  Biso   1.000  O
  O11      1.0000 0.96861  0.41166  0.34827  Biso   1.000  O
  O12      1.0000 0.97297  0.33723  0.84337  Biso   1.000  O
  O13      1.0000 0.76955  0.12868  0.90059  Biso   1.000  O
  O14      1.0000 0.79007  0.11659  0.39010  Biso   1.000  O
  O15      1.0000 0.72815  0.37875  0.89110  Biso   1.000  O
  O16      1.0000 0.71778  0.37242  0.37420  Biso   1.000  O
  Zr9      1.0000 0.13936  0.52108  0.35227  Biso   1.000  Zr
  Zr10     1.0000 0.13886  0.72903  0.84925  Biso   1.000  Zr
  Zr11     1.0000 0.36138  0.77202  0.35378  Biso   1.000  Zr
  Zr12     1.0000 0.36297  0.97669  0.85461  Biso   1.000  Zr
  Zr13     1.0000 0.64226  0.53623  0.15238  Biso   1.000  Zr
  Zr14     1.0000 0.64091  0.73050  0.65561  Biso   1.000  Zr
  Zr15     1.0000 0.86791  0.77020  0.16070  Biso   1.000  Zr
  Zr16     1.0000 0.86569  0.97934  0.66027  Biso   1.000  Zr
  O17      1.0000 0.03333  0.66028  0.16552  Biso   1.000  O
  O18      1.0000 0.03185  0.58726  0.66829  Biso   1.000  O
  O19      1.0000 0.47221  0.90278  0.15592  Biso   1.000  O
  O20      1.0000 0.47219  0.84036  0.66194  Biso   1.000  O
  O21      1.0000 0.27445  0.62648  0.59742  Biso   1.000  O
  O22      1.0000 0.27444  0.62725  0.09633  Biso   1.000  O
  O23      1.0000 0.22703  0.87433  0.60180  Biso   1.000  O
  O24      1.0000 0.22551  0.87672  0.10289  Biso   1.000  O
  O25      1.0000 0.53266  0.66659  0.34445  Biso   1.000  O
  O26      1.0000 0.53042  0.59073  0.84037  Biso   1.000  O
  O27      1.0000 0.97389  0.90928  0.34981  Biso   1.000  O
  O28      1.0000 0.97268  0.83923  0.84862  Biso   1.000  O
  O29      1.0000 0.77829  0.62895  0.90266  Biso   1.000  O
  O30      1.0000 0.77961  0.62563  0.41011  Biso   1.000  O
  O31      1.0000 0.73016  0.87391  0.91021  Biso   1.000  O
  O32      1.0000 0.73189  0.87037  0.41316  Biso   1.000  O
  Yb1      1.0000 0.56327  0.26942  0.04366  Biso   1.000  Yb
