data_image0
_cell_length_a       10.0904
_cell_length_b       10.1942
_cell_length_c       5.0328
_cell_angle_alpha    90.0002
_cell_angle_beta     89.9996
_cell_angle_gamma    89.9995

_symmetry_space_group_name_H-M    "P 1"
_symmetry_int_tables_number       1

loop_
  _symmetry_equiv_pos_as_xyz
  'x, y, z'

loop_
  _atom_site_label
  _atom_site_occupancy
  _atom_site_fract_x
  _atom_site_fract_y
  _atom_site_fract_z
  _atom_site_thermal_displace_type
  _atom_site_B_iso_or_equiv
  _atom_site_type_symbol
  Yb1      1.0000 0.12510  0.00006  0.25215  Biso   1.000  Yb
  Zr1      1.0000 0.12510  0.50006  0.25215  Biso   1.000  Zr
  Zr2      1.0000 0.62510  0.00006  0.25216  Biso   1.000  Zr
  Zr3      1.0000 0.62510  0.50006  0.25217  Biso   1.000  Zr
  Zr4      1.0000 0.12510  0.25143  0.75216  Biso   1.000  Zr
  Zr5      1.0000 0.12510  0.74869  0.75216  Biso   1.000  Zr
  Zr6      1.0000 0.62510  0.24978  0.75217  Biso   1.000  Zr
  Zr7      1.0000 0.62510  0.75034  0.75217  Biso   1.000  Zr
  Zr8      1.0000 0.37538  0.25077  0.25039  Biso   1.000  Zr
  Zr9      1.0000 0.37538  0.74935  0.25395  Biso   1.000  Zr
  Zr10     1.0000 0.87483  0.25077  0.25394  Biso   1.000  Zr
  Zr11     1.0000 0.87482  0.74935  0.25039  Biso   1.000  Zr
  Zr12     1.0000 0.37521  0.00006  0.75216  Biso   1.000  Zr
  Zr13     1.0000 0.37495  0.50006  0.75216  Biso   1.000  Zr
  Zr14     1.0000 0.87499  0.00006  0.75216  Biso   1.000  Zr
  Zr15     1.0000 0.87525  0.50006  0.75217  Biso   1.000  Zr
  O1       1.0000 0.00024  0.14278  0.00561  Biso   1.000  O
  O2       1.0000 0.00392  0.63996  0.01298  Biso   1.000  O
  O3       1.0000 0.50453  0.14484  0.00966  Biso   1.000  O
  O4       1.0000 0.50349  0.64433  0.00694  Biso   1.000  O
  O5       1.0000 0.99441  0.11516  0.51477  Biso   1.000  O
  O6       1.0000 0.99836  0.60852  0.51017  Biso   1.000  O
  O7       1.0000 0.49874  0.10554  0.50616  Biso   1.000  O
  O8       1.0000 0.49762  0.60560  0.50444  Biso   1.000  O
  O9       1.0000 0.00392  0.36015  0.49136  Biso   1.000  O
  O10      1.0000 0.00024  0.85734  0.49870  Biso   1.000  O
  O11      1.0000 0.50350  0.35580  0.49738  Biso   1.000  O
  O12      1.0000 0.50452  0.85529  0.49470  Biso   1.000  O
  O13      1.0000 0.99836  0.39160  0.99418  Biso   1.000  O
  O14      1.0000 0.99442  0.88496  0.98954  Biso   1.000  O
  O15      1.0000 0.49762  0.39453  0.99987  Biso   1.000  O
  O16      1.0000 0.49873  0.89458  0.99820  Biso   1.000  O
  O17      1.0000 0.24996  0.14278  0.49871  Biso   1.000  O
  O18      1.0000 0.24628  0.63997  0.49136  Biso   1.000  O
  O19      1.0000 0.74568  0.14483  0.49467  Biso   1.000  O
  O20      1.0000 0.74671  0.64432  0.49739  Biso   1.000  O
  O21      1.0000 0.25579  0.11516  0.98955  Biso   1.000  O
  O22      1.0000 0.25184  0.60852  0.99417  Biso   1.000  O
  O23      1.0000 0.75147  0.10554  0.99817  Biso   1.000  O
  O24      1.0000 0.75258  0.60560  0.99988  Biso   1.000  O
  O25      1.0000 0.24628  0.36015  0.01296  Biso   1.000  O
  O26      1.0000 0.24997  0.85734  0.00561  Biso   1.000  O
  O27      1.0000 0.74671  0.35580  0.00694  Biso   1.000  O
  O28      1.0000 0.74568  0.85529  0.00964  Biso   1.000  O
  O29      1.0000 0.25184  0.39160  0.51016  Biso   1.000  O
  O30      1.0000 0.25578  0.88496  0.51478  Biso   1.000  O
  O31      1.0000 0.75259  0.39453  0.50445  Biso   1.000  O
  O32      1.0000 0.75147  0.89458  0.50614  Biso   1.000  O
