data_image0
_cell_length_a       10.0275
_cell_length_b       10.1839
_cell_length_c       10.0275
_cell_angle_alpha    90.0056
_cell_angle_beta     90.0005
_cell_angle_gamma    90.0036

_symmetry_space_group_name_H-M    "P 1"
_symmetry_int_tables_number       1

loop_
  _symmetry_equiv_pos_as_xyz
  'x, y, z'

loop_
  _atom_site_label
  _atom_site_occupancy
  _atom_site_fract_x
  _atom_site_fract_y
  _atom_site_fract_z
  _atom_site_thermal_displace_type
  _atom_site_B_iso_or_equiv
  _atom_site_type_symbol
  Zn1      1.0000 0.12488  0.99969  0.12484  Biso   1.000  Zn
  Hf1      1.0000 0.12485  0.99967  0.62484  Biso   1.000  Hf
  Hf2      1.0000 0.12487  0.49965  0.12484  Biso   1.000  Hf
  Hf3      1.0000 0.12486  0.49967  0.62483  Biso   1.000  Hf
  Hf4      1.0000 0.62487  0.99967  0.12483  Biso   1.000  Hf
  Hf5      1.0000 0.62485  0.99966  0.62483  Biso   1.000  Hf
  Hf6      1.0000 0.62484  0.49967  0.12483  Biso   1.000  Hf
  Hf7      1.0000 0.62486  0.49968  0.62483  Biso   1.000  Hf
  Hf8      1.0000 0.12866  0.25024  0.37728  Biso   1.000  Hf
  Hf9      1.0000 0.12102  0.25027  0.87234  Biso   1.000  Hf
  Hf10     1.0000 0.12103  0.74907  0.37727  Biso   1.000  Hf
  Hf11     1.0000 0.12866  0.74908  0.87235  Biso   1.000  Hf
  Hf12     1.0000 0.62688  0.24677  0.37503  Biso   1.000  Hf
  Hf13     1.0000 0.62279  0.24678  0.87459  Biso   1.000  Hf
  Hf14     1.0000 0.62277  0.75256  0.37503  Biso   1.000  Hf
  Hf15     1.0000 0.62687  0.75257  0.87461  Biso   1.000  Hf
  Hf16     1.0000 0.37729  0.25024  0.12863  Biso   1.000  Hf
  Hf17     1.0000 0.37506  0.24677  0.62687  Biso   1.000  Hf
  Hf18     1.0000 0.37727  0.74908  0.12102  Biso   1.000  Hf
  Hf19     1.0000 0.37505  0.75256  0.62276  Biso   1.000  Hf
  Hf20     1.0000 0.87234  0.25027  0.12099  Biso   1.000  Hf
  Hf21     1.0000 0.87462  0.24678  0.62277  Biso   1.000  Hf
  Hf22     1.0000 0.87236  0.74907  0.12865  Biso   1.000  Hf
  Hf23     1.0000 0.87463  0.75256  0.62686  Biso   1.000  Hf
  Hf24     1.0000 0.37216  0.00140  0.37214  Biso   1.000  Hf
  Hf25     1.0000 0.37218  0.99793  0.87751  Biso   1.000  Hf
  Hf26     1.0000 0.37865  0.50047  0.37863  Biso   1.000  Hf
  Hf27     1.0000 0.37865  0.49886  0.87103  Biso   1.000  Hf
  Hf28     1.0000 0.87753  0.99792  0.37216  Biso   1.000  Hf
  Hf29     1.0000 0.87754  0.00141  0.87751  Biso   1.000  Hf
  Hf30     1.0000 0.87105  0.49885  0.37863  Biso   1.000  Hf
  Hf31     1.0000 0.87105  0.50051  0.87103  Biso   1.000  Hf
  O1       1.0000 0.97962  0.15882  0.97959  Biso   1.000  O
  O2       1.0000 0.99553  0.14635  0.49013  Biso   1.000  O
  O3       1.0000 0.00514  0.65846  0.00512  Biso   1.000  O
  O4       1.0000 0.99782  0.64598  0.50323  Biso   1.000  O
  O5       1.0000 0.49015  0.14636  0.99551  Biso   1.000  O
  O6       1.0000 0.49790  0.14792  0.49788  Biso   1.000  O
  O7       1.0000 0.50324  0.64599  0.99780  Biso   1.000  O
  O8       1.0000 0.49802  0.64666  0.49800  Biso   1.000  O
  O9       1.0000 0.00794  0.09113  0.24176  Biso   1.000  O
  O10      1.0000 0.00002  0.10312  0.74106  Biso   1.000  O
  O11      1.0000 0.99793  0.59331  0.25174  Biso   1.000  O
  O12      1.0000 0.00247  0.60273  0.75302  Biso   1.000  O
  O13      1.0000 0.50861  0.10310  0.24964  Biso   1.000  O
  O14      1.0000 0.50111  0.10158  0.74854  Biso   1.000  O
  O15      1.0000 0.49665  0.60273  0.24724  Biso   1.000  O
  O16      1.0000 0.50154  0.60314  0.74818  Biso   1.000  O
  O17      1.0000 0.00515  0.34088  0.24451  Biso   1.000  O
  O18      1.0000 0.99779  0.35337  0.74643  Biso   1.000  O
  O19      1.0000 0.97960  0.84052  0.27008  Biso   1.000  O
  O20      1.0000 0.99554  0.85299  0.75953  Biso   1.000  O
  O21      1.0000 0.50323  0.35336  0.25188  Biso   1.000  O
  O22      1.0000 0.49799  0.35268  0.75168  Biso   1.000  O
  O23      1.0000 0.49015  0.85299  0.25413  Biso   1.000  O
  O24      1.0000 0.49792  0.85142  0.75175  Biso   1.000  O
  O25      1.0000 0.99791  0.40603  0.99791  Biso   1.000  O
  O26      1.0000 0.00246  0.39661  0.49662  Biso   1.000  O
  O27      1.0000 0.00795  0.90820  0.00792  Biso   1.000  O
  O28      1.0000 0.00001  0.89624  0.50861  Biso   1.000  O
  O29      1.0000 0.49663  0.39662  0.00244  Biso   1.000  O
  O30      1.0000 0.50152  0.39620  0.50150  Biso   1.000  O
  O31      1.0000 0.50863  0.89624  0.99999  Biso   1.000  O
  O32      1.0000 0.50111  0.89776  0.50109  Biso   1.000  O
  O33      1.0000 0.27008  0.15878  0.27006  Biso   1.000  O
  O34      1.0000 0.25415  0.14635  0.75953  Biso   1.000  O
  O35      1.0000 0.24455  0.65837  0.24453  Biso   1.000  O
  O36      1.0000 0.25191  0.64598  0.74643  Biso   1.000  O
  O37      1.0000 0.75955  0.14634  0.25413  Biso   1.000  O
  O38      1.0000 0.75177  0.14792  0.75175  Biso   1.000  O
  O39      1.0000 0.74645  0.64597  0.25189  Biso   1.000  O
  O40      1.0000 0.75172  0.64668  0.75170  Biso   1.000  O
  O41      1.0000 0.24178  0.09116  0.00792  Biso   1.000  O
  O42      1.0000 0.24966  0.10310  0.50859  Biso   1.000  O
  O43      1.0000 0.25175  0.59333  0.99791  Biso   1.000  O
  O44      1.0000 0.24726  0.60273  0.49664  Biso   1.000  O
  O45      1.0000 0.74109  0.10312  1.00000  Biso   1.000  O
  O46      1.0000 0.74856  0.10158  0.50109  Biso   1.000  O
  O47      1.0000 0.75303  0.60273  0.00245  Biso   1.000  O
  O48      1.0000 0.74820  0.60313  0.50152  Biso   1.000  O
  O49      1.0000 0.24451  0.34091  0.00515  Biso   1.000  O
  O50      1.0000 0.25190  0.35336  0.50323  Biso   1.000  O
  O51      1.0000 0.27010  0.84053  0.97958  Biso   1.000  O
  O52      1.0000 0.25415  0.85299  0.49013  Biso   1.000  O
  O53      1.0000 0.74643  0.35337  0.99777  Biso   1.000  O
  O54      1.0000 0.75170  0.35267  0.49797  Biso   1.000  O
  O55      1.0000 0.75956  0.85300  0.99552  Biso   1.000  O
  O56      1.0000 0.75177  0.85142  0.49790  Biso   1.000  O
  O57      1.0000 0.25175  0.40597  0.25175  Biso   1.000  O
  O58      1.0000 0.24723  0.39661  0.75303  Biso   1.000  O
  O59      1.0000 0.24176  0.90812  0.24173  Biso   1.000  O
  O60      1.0000 0.24967  0.89623  0.74106  Biso   1.000  O
  O61      1.0000 0.75303  0.39661  0.24721  Biso   1.000  O
  O62      1.0000 0.74817  0.39621  0.74815  Biso   1.000  O
  O63      1.0000 0.74108  0.89622  0.24965  Biso   1.000  O
  O64      1.0000 0.74857  0.89777  0.74855  Biso   1.000  O
