data_image0
_cell_length_a       10.0566
_cell_length_b       10.1951
_cell_length_c       5.21536
_cell_angle_alpha    89.9197
_cell_angle_beta     90.4201
_cell_angle_gamma    89.6984

_symmetry_space_group_name_H-M    "P 1"
_symmetry_int_tables_number       1

loop_
  _symmetry_equiv_pos_as_xyz
  'x, y, z'

loop_
  _atom_site_label
  _atom_site_occupancy
  _atom_site_fract_x
  _atom_site_fract_y
  _atom_site_fract_z
  _atom_site_thermal_displace_type
  _atom_site_B_iso_or_equiv
  _atom_site_type_symbol
  Zn1      1.0000 0.12644  0.01059  0.36481  Biso   1.000  Zn
  Hf1      1.0000 0.14005  0.52218  0.34615  Biso   1.000  Hf
  Hf2      1.0000 0.14402  0.22690  0.84241  Biso   1.000  Hf
  Hf3      1.0000 0.14009  0.73259  0.84506  Biso   1.000  Hf
  Hf4      1.0000 0.35771  0.26837  0.34072  Biso   1.000  Hf
  Hf5      1.0000 0.35816  0.77550  0.33952  Biso   1.000  Hf
  Hf6      1.0000 0.36018  0.47902  0.84501  Biso   1.000  Hf
  Hf7      1.0000 0.35719  0.98160  0.83944  Biso   1.000  Hf
  Hf8      1.0000 0.63809  0.02134  0.15454  Biso   1.000  Hf
  Hf9      1.0000 0.63899  0.51978  0.15729  Biso   1.000  Hf
  Hf10     1.0000 0.63922  0.22971  0.65632  Biso   1.000  Hf
  Hf11     1.0000 0.63729  0.72883  0.65484  Biso   1.000  Hf
  Hf12     1.0000 0.86540  0.26719  0.15978  Biso   1.000  Hf
  Hf13     1.0000 0.86037  0.77060  0.15837  Biso   1.000  Hf
  Hf14     1.0000 0.86249  0.47832  0.66044  Biso   1.000  Hf
  Hf15     1.0000 0.85855  0.97856  0.65822  Biso   1.000  Hf
  O1       1.0000 0.03838  0.15558  0.16232  Biso   1.000  O
  O2       1.0000 0.03200  0.66416  0.16719  Biso   1.000  O
  O3       1.0000 0.02701  0.08789  0.68271  Biso   1.000  O
  O4       1.0000 0.03197  0.58704  0.66781  Biso   1.000  O
  O5       1.0000 0.46751  0.41454  0.16808  Biso   1.000  O
  O6       1.0000 0.46897  0.91485  0.16329  Biso   1.000  O
  O7       1.0000 0.46845  0.33587  0.66721  Biso   1.000  O
  O8       1.0000 0.46685  0.83664  0.66356  Biso   1.000  O
  O9       1.0000 0.27273  0.12229  0.57676  Biso   1.000  O
  O10      1.0000 0.27605  0.62518  0.59153  Biso   1.000  O
  O11      1.0000 0.29445  0.14041  0.05883  Biso   1.000  O
  O12      1.0000 0.27601  0.62732  0.09190  Biso   1.000  O
  O13      1.0000 0.22501  0.37468  0.59327  Biso   1.000  O
  O14      1.0000 0.22229  0.87346  0.58659  Biso   1.000  O
  O15      1.0000 0.22150  0.37988  0.09287  Biso   1.000  O
  O16      1.0000 0.22664  0.87848  0.08339  Biso   1.000  O
  O17      1.0000 0.53382  0.16644  0.33011  Biso   1.000  O
  O18      1.0000 0.53134  0.66462  0.33098  Biso   1.000  O
  O19      1.0000 0.53501  0.08295  0.82493  Biso   1.000  O
  O20      1.0000 0.53182  0.58485  0.83223  Biso   1.000  O
  O21      1.0000 0.97077  0.41058  0.34142  Biso   1.000  O
  O22      1.0000 0.96068  0.91345  0.33830  Biso   1.000  O
  O23      1.0000 0.97037  0.33679  0.84318  Biso   1.000  O
  O24      1.0000 0.96642  0.83547  0.83649  Biso   1.000  O
  O25      1.0000 0.77610  0.12427  0.91143  Biso   1.000  O
  O26      1.0000 0.77507  0.62291  0.90965  Biso   1.000  O
  O27      1.0000 0.77620  0.12580  0.40995  Biso   1.000  O
  O28      1.0000 0.77572  0.62525  0.41007  Biso   1.000  O
  O29      1.0000 0.72604  0.37306  0.91201  Biso   1.000  O
  O30      1.0000 0.72315  0.87312  0.90889  Biso   1.000  O
  O31      1.0000 0.72672  0.37548  0.41043  Biso   1.000  O
  O32      1.0000 0.72072  0.87563  0.40973  Biso   1.000  O
