data_image0
_cell_length_a       5.15811
_cell_length_b       10.3558
_cell_length_c       10.5951
_cell_angle_alpha    90.2502
_cell_angle_beta     78.8951
_cell_angle_gamma    90.1354

_symmetry_space_group_name_H-M    "P 1"
_symmetry_int_tables_number       1

loop_
  _symmetry_equiv_pos_as_xyz
  'x, y, z'

loop_
  _atom_site_label
  _atom_site_occupancy
  _atom_site_fract_x
  _atom_site_fract_y
  _atom_site_fract_z
  _atom_site_thermal_displace_type
  _atom_site_B_iso_or_equiv
  _atom_site_type_symbol
  Zr1      1.0000 0.26766  0.02042  0.14353  Biso   1.000  Zr
  Zr2      1.0000 0.32174  0.23334  0.40137  Biso   1.000  Zr
  Zr3      1.0000 0.69871  0.27359  0.10439  Biso   1.000  Zr
  Zr4      1.0000 0.71738  0.47743  0.34676  Biso   1.000  Zr
  O1       1.0000 0.05428  0.16936  0.08412  Biso   1.000  O
  O2       1.0000 0.06045  0.08537  0.33241  Biso   1.000  O
  O3       1.0000 0.91077  0.43209  0.15933  Biso   1.000  O
  O4       1.0000 0.97728  0.34861  0.43832  Biso   1.000  O
  O5       1.0000 0.52987  0.11392  0.23773  Biso   1.000  O
  O6       1.0000 0.57465  0.11742  0.49266  Biso   1.000  O
  O7       1.0000 0.43566  0.38168  0.00667  Biso   1.000  O
  O8       1.0000 0.40418  0.37553  0.25331  Biso   1.000  O
  Zr5      1.0000 0.27888  0.02092  0.64851  Biso   1.000  Zr
  Zr6      1.0000 0.26820  0.23099  0.89734  Biso   1.000  Zr
  Zr7      1.0000 0.73929  0.27285  0.61187  Biso   1.000  Zr
  Zr8      1.0000 0.71975  0.47944  0.85737  Biso   1.000  Zr
  O9       1.0000 0.08532  0.16598  0.57949  Biso   1.000  O
  O10      1.0000 0.06348  0.08458  0.82970  Biso   1.000  O
  O11      1.0000 0.94235  0.41339  0.68086  Biso   1.000  O
  O12      1.0000 0.92290  0.33351  0.92339  Biso   1.000  O
  O13      1.0000 0.54987  0.12906  0.74221  Biso   1.000  O
  O14      1.0000 0.53639  0.12358  0.98965  Biso   1.000  O
  O15      1.0000 0.47311  0.37622  0.51363  Biso   1.000  O
  O16      1.0000 0.45301  0.37245  0.76108  Biso   1.000  O
  Zr9      1.0000 0.26640  0.52411  0.14369  Biso   1.000  Zr
  Zr10     1.0000 0.27124  0.72261  0.39705  Biso   1.000  Zr
  Zr11     1.0000 0.71455  0.77092  0.10425  Biso   1.000  Zr
  Zr12     1.0000 0.71191  0.96608  0.35634  Biso   1.000  Zr
  O17      1.0000 0.06224  0.67265  0.07711  Biso   1.000  O
  O18      1.0000 0.05478  0.58697  0.32553  Biso   1.000  O
  O19      1.0000 0.92618  0.91271  0.17679  Biso   1.000  O
  O20      1.0000 0.93046  0.83263  0.42545  Biso   1.000  O
  O21      1.0000 0.54286  0.62740  0.24116  Biso   1.000  O
  O22      1.0000 0.54252  0.61996  0.49065  Biso   1.000  O
  O23      1.0000 0.44742  0.87971  0.01017  Biso   1.000  O
  O24      1.0000 0.43950  0.86686  0.26157  Biso   1.000  O
  Zr13     1.0000 0.28094  0.52203  0.64750  Biso   1.000  Zr
  Zr14     1.0000 0.27110  0.73016  0.89684  Biso   1.000  Zr
  Zr15     1.0000 0.72161  0.77050  0.60614  Biso   1.000  Zr
  Zr16     1.0000 0.71909  0.97942  0.85513  Biso   1.000  Zr
  O25      1.0000 0.05894  0.66118  0.57907  Biso   1.000  O
  O26      1.0000 0.06457  0.58656  0.82877  Biso   1.000  O
  O27      1.0000 0.93336  0.91477  0.67387  Biso   1.000  O
  O28      1.0000 0.93015  0.83766  0.92368  Biso   1.000  O
  O29      1.0000 0.54875  0.62797  0.74096  Biso   1.000  O
  O30      1.0000 0.54491  0.62447  0.99069  Biso   1.000  O
  O31      1.0000 0.44365  0.87531  0.51195  Biso   1.000  O
  O32      1.0000 0.44952  0.87216  0.76102  Biso   1.000  O
  Zn1      1.0000 0.86081  0.23356  0.31392  Biso   1.000  Zn
