data_image0
_cell_length_a       10.1373
_cell_length_b       5.12261
_cell_length_c       10.5023
_cell_angle_alpha    90.026
_cell_angle_beta     90.163
_cell_angle_gamma    89.5893

_symmetry_space_group_name_H-M    "P 1"
_symmetry_int_tables_number       1

loop_
  _symmetry_equiv_pos_as_xyz
  'x, y, z'

loop_
  _atom_site_label
  _atom_site_occupancy
  _atom_site_fract_x
  _atom_site_fract_y
  _atom_site_fract_z
  _atom_site_thermal_displace_type
  _atom_site_B_iso_or_equiv
  _atom_site_type_symbol
  Zn1      1.0000 0.12685  0.01938  0.17902  Biso   1.000  Zn
  Zr1      1.0000 0.13984  0.04066  0.67138  Biso   1.000  Zr
  Zr2      1.0000 0.14139  0.45997  0.41719  Biso   1.000  Zr
  Zr3      1.0000 0.14364  0.45825  0.92593  Biso   1.000  Zr
  Zr4      1.0000 0.35410  0.54492  0.17100  Biso   1.000  Zr
  Zr5      1.0000 0.36109  0.54434  0.67194  Biso   1.000  Zr
  Zr6      1.0000 0.35773  0.96305  0.41869  Biso   1.000  Zr
  Zr7      1.0000 0.35913  0.96251  0.92481  Biso   1.000  Zr
  Zr8      1.0000 0.63914  0.03956  0.07798  Biso   1.000  Zr
  Zr9      1.0000 0.63730  0.04176  0.57822  Biso   1.000  Zr
  Zr10     1.0000 0.63655  0.45818  0.32681  Biso   1.000  Zr
  Zr11     1.0000 0.63972  0.45905  0.82916  Biso   1.000  Zr
  Zr12     1.0000 0.86647  0.53297  0.08038  Biso   1.000  Zr
  Zr13     1.0000 0.85951  0.53966  0.57780  Biso   1.000  Zr
  Zr14     1.0000 0.85870  0.95548  0.32829  Biso   1.000  Zr
  Zr15     1.0000 0.86241  0.95571  0.82946  Biso   1.000  Zr
  O1       1.0000 0.03760  0.31409  0.08216  Biso   1.000  O
  O2       1.0000 0.02784  0.31141  0.57502  Biso   1.000  O
  O3       1.0000 0.02876  0.17694  0.33402  Biso   1.000  O
  O4       1.0000 0.02966  0.18375  0.82810  Biso   1.000  O
  O5       1.0000 0.47021  0.82343  0.08148  Biso   1.000  O
  O6       1.0000 0.46710  0.83041  0.58257  Biso   1.000  O
  O7       1.0000 0.46793  0.67824  0.33206  Biso   1.000  O
  O8       1.0000 0.47000  0.67604  0.83184  Biso   1.000  O
  O9       1.0000 0.27644  0.25368  0.29639  Biso   1.000  O
  O10      1.0000 0.27400  0.24711  0.79228  Biso   1.000  O
  O11      1.0000 0.29193  0.28233  0.03404  Biso   1.000  O
  O12      1.0000 0.27415  0.25435  0.54534  Biso   1.000  O
  O13      1.0000 0.22315  0.75105  0.29631  Biso   1.000  O
  O14      1.0000 0.22632  0.74956  0.79653  Biso   1.000  O
  O15      1.0000 0.22277  0.77010  0.04707  Biso   1.000  O
  O16      1.0000 0.22430  0.75206  0.54528  Biso   1.000  O
  O17      1.0000 0.53123  0.32690  0.16691  Biso   1.000  O
  O18      1.0000 0.53221  0.33021  0.66688  Biso   1.000  O
  O19      1.0000 0.53039  0.17388  0.41675  Biso   1.000  O
  O20      1.0000 0.53424  0.17022  0.91573  Biso   1.000  O
  O21      1.0000 0.96462  0.81443  0.17309  Biso   1.000  O
  O22      1.0000 0.97158  0.81371  0.67169  Biso   1.000  O
  O23      1.0000 0.96856  0.67850  0.42113  Biso   1.000  O
  O24      1.0000 0.97150  0.67726  0.92256  Biso   1.000  O
  O25      1.0000 0.77647  0.24441  0.95455  Biso   1.000  O
  O26      1.0000 0.77294  0.24898  0.45438  Biso   1.000  O
  O27      1.0000 0.77452  0.24862  0.20432  Biso   1.000  O
  O28      1.0000 0.77520  0.24974  0.70430  Biso   1.000  O
  O29      1.0000 0.72744  0.74423  0.95478  Biso   1.000  O
  O30      1.0000 0.72385  0.74773  0.45478  Biso   1.000  O
  O31      1.0000 0.72352  0.74925  0.20500  Biso   1.000  O
  O32      1.0000 0.72601  0.75193  0.70459  Biso   1.000  O
