data_image0
_cell_length_a       5.10889
_cell_length_b       10.3023
_cell_length_c       10.5081
_cell_angle_alpha    90.2598
_cell_angle_beta     80.3033
_cell_angle_gamma    89.7195

_symmetry_space_group_name_H-M    "P 1"
_symmetry_int_tables_number       1

loop_
  _symmetry_equiv_pos_as_xyz
  'x, y, z'

loop_
  _atom_site_label
  _atom_site_occupancy
  _atom_site_fract_x
  _atom_site_fract_y
  _atom_site_fract_z
  _atom_site_thermal_displace_type
  _atom_site_B_iso_or_equiv
  _atom_site_type_symbol
  Zn1      1.0000 0.25501  0.01151  0.15616  Biso   1.000  Zn
  Zr1      1.0000 0.27693  0.02118  0.64387  Biso   1.000  Zr
  Zr2      1.0000 0.27844  0.52068  0.14435  Biso   1.000  Zr
  Zr3      1.0000 0.27965  0.52132  0.64687  Biso   1.000  Zr
  Zr4      1.0000 0.28122  0.22795  0.38991  Biso   1.000  Zr
  Zr5      1.0000 0.28374  0.22738  0.89790  Biso   1.000  Zr
  Zr6      1.0000 0.27668  0.72752  0.39571  Biso   1.000  Zr
  Zr7      1.0000 0.27738  0.73306  0.89784  Biso   1.000  Zr
  Zr8      1.0000 0.72606  0.26298  0.10375  Biso   1.000  Zr
  Zr9      1.0000 0.71954  0.27157  0.60310  Biso   1.000  Zr
  Zr10     1.0000 0.71426  0.77522  0.10633  Biso   1.000  Zr
  Zr11     1.0000 0.72089  0.77131  0.60593  Biso   1.000  Zr
  Zr12     1.0000 0.72136  0.47822  0.35331  Biso   1.000  Zr
  Zr13     1.0000 0.72411  0.47902  0.85626  Biso   1.000  Zr
  Zr14     1.0000 0.71280  0.97682  0.35230  Biso   1.000  Zr
  Zr15     1.0000 0.71908  0.98281  0.85620  Biso   1.000  Zr
  O1       1.0000 0.08004  0.16462  0.07777  Biso   1.000  O
  O2       1.0000 0.06309  0.16293  0.57274  Biso   1.000  O
  O3       1.0000 0.06489  0.66665  0.07861  Biso   1.000  O
  O4       1.0000 0.06628  0.66519  0.57984  Biso   1.000  O
  O5       1.0000 0.06097  0.08346  0.33017  Biso   1.000  O
  O6       1.0000 0.06992  0.08629  0.82478  Biso   1.000  O
  O7       1.0000 0.06715  0.58262  0.32837  Biso   1.000  O
  O8       1.0000 0.06740  0.58668  0.82906  Biso   1.000  O
  O9       1.0000 0.93563  0.41426  0.17168  Biso   1.000  O
  O10      1.0000 0.93604  0.41406  0.67296  Biso   1.000  O
  O11      1.0000 0.92863  0.91351  0.17487  Biso   1.000  O
  O12      1.0000 0.93188  0.91585  0.67254  Biso   1.000  O
  O13      1.0000 0.93248  0.33397  0.42093  Biso   1.000  O
  O14      1.0000 0.94357  0.33885  0.92432  Biso   1.000  O
  O15      1.0000 0.93027  0.83318  0.42343  Biso   1.000  O
  O16      1.0000 0.92764  0.83622  0.92344  Biso   1.000  O
  O17      1.0000 0.54489  0.12382  0.23807  Biso   1.000  O
  O18      1.0000 0.55043  0.12802  0.73535  Biso   1.000  O
  O19      1.0000 0.55084  0.62591  0.23982  Biso   1.000  O
  O20      1.0000 0.55048  0.62952  0.74169  Biso   1.000  O
  O21      1.0000 0.54852  0.12229  0.48795  Biso   1.000  O
  O22      1.0000 0.58256  0.13419  0.97625  Biso   1.000  O
  O23      1.0000 0.55066  0.62072  0.49133  Biso   1.000  O
  O24      1.0000 0.54944  0.62472  0.99050  Biso   1.000  O
  O25      1.0000 0.45562  0.38111  0.00943  Biso   1.000  O
  O26      1.0000 0.44720  0.37810  0.50893  Biso   1.000  O
  O27      1.0000 0.44708  0.88639  0.01218  Biso   1.000  O
  O28      1.0000 0.44666  0.87742  0.51098  Biso   1.000  O
  O29      1.0000 0.45238  0.36990  0.25844  Biso   1.000  O
  O30      1.0000 0.45340  0.37224  0.75970  Biso   1.000  O
  O31      1.0000 0.44923  0.86577  0.26344  Biso   1.000  O
  O32      1.0000 0.44758  0.87302  0.76066  Biso   1.000  O
