data_image0
_cell_length_a       10.2214
_cell_length_b       10.3028
_cell_length_c       5.32117
_cell_angle_alpha    90.2565
_cell_angle_beta     78.8388
_cell_angle_gamma    89.675

_symmetry_space_group_name_H-M    "P 1"
_symmetry_int_tables_number       1

loop_
  _symmetry_equiv_pos_as_xyz
  'x, y, z'

loop_
  _atom_site_label
  _atom_site_occupancy
  _atom_site_fract_x
  _atom_site_fract_y
  _atom_site_fract_z
  _atom_site_thermal_displace_type
  _atom_site_B_iso_or_equiv
  _atom_site_type_symbol
  Hf1      1.0000 0.12901  0.01732  0.29751  Biso   1.000  Hf
  Hf2      1.0000 0.12890  0.22716  0.77564  Biso   1.000  Hf
  Hf3      1.0000 0.34810  0.27878  0.15655  Biso   1.000  Hf
  Hf4      1.0000 0.35780  0.49501  0.69990  Biso   1.000  Hf
  O1       1.0000 0.03801  0.16272  0.14471  Biso   1.000  O
  O2       1.0000 0.02615  0.08291  0.65290  Biso   1.000  O
  O3       1.0000 0.47137  0.41247  0.35412  Biso   1.000  O
  O4       1.0000 0.47872  0.35971  0.85527  Biso   1.000  O
  O5       1.0000 0.27052  0.11985  0.44074  Biso   1.000  O
  O6       1.0000 0.28775  0.13408  0.91496  Biso   1.000  O
  O7       1.0000 0.21311  0.39141  0.99514  Biso   1.000  O
  O8       1.0000 0.23762  0.36363  0.50409  Biso   1.000  O
  Hf5      1.0000 0.13569  0.52440  0.28971  Biso   1.000  Hf
  Hf6      1.0000 0.13192  0.72963  0.79747  Biso   1.000  Hf
  Hf7      1.0000 0.36028  0.77137  0.20916  Biso   1.000  Hf
  Hf8      1.0000 0.36116  0.96353  0.70432  Biso   1.000  Hf
  O9       1.0000 0.02766  0.66201  0.15444  Biso   1.000  O
  O10      1.0000 0.03259  0.58729  0.65330  Biso   1.000  O
  O11      1.0000 0.46789  0.91084  0.35299  Biso   1.000  O
  O12      1.0000 0.46539  0.82977  0.85747  Biso   1.000  O
  O13      1.0000 0.27342  0.62740  0.47732  Biso   1.000  O
  O14      1.0000 0.27179  0.63071  0.98345  Biso   1.000  O
  O15      1.0000 0.22171  0.88294  0.02307  Biso   1.000  O
  O16      1.0000 0.21916  0.86540  0.52089  Biso   1.000  O
  Hf9      1.0000 0.63619  0.02557  0.31152  Biso   1.000  Hf
  Hf10     1.0000 0.64574  0.23062  0.81374  Biso   1.000  Hf
  Hf11     1.0000 0.86112  0.27109  0.22490  Biso   1.000  Hf
  Hf12     1.0000 0.86186  0.47891  0.71869  Biso   1.000  Hf
  O17      1.0000 0.52052  0.16873  0.17496  Biso   1.000  O
  O18      1.0000 0.54059  0.06794  0.69245  Biso   1.000  O
  O19      1.0000 0.97247  0.40946  0.36028  Biso   1.000  O
  O20      1.0000 0.96342  0.33746  0.85964  Biso   1.000  O
  O21      1.0000 0.78152  0.12751  0.49744  Biso   1.000  O
  O22      1.0000 0.77682  0.12065  0.00589  Biso   1.000  O
  O23      1.0000 0.72656  0.37744  0.03981  Biso   1.000  O
  O24      1.0000 0.73166  0.37480  0.53776  Biso   1.000  O
  Hf13     1.0000 0.63896  0.52209  0.30077  Biso   1.000  Hf
  Hf14     1.0000 0.63891  0.72724  0.80149  Biso   1.000  Hf
  Hf15     1.0000 0.85587  0.77229  0.21857  Biso   1.000  Hf
  Hf16     1.0000 0.85253  0.97735  0.72279  Biso   1.000  Hf
  O25      1.0000 0.53059  0.66029  0.15513  Biso   1.000  O
  O26      1.0000 0.53173  0.59381  0.64878  Biso   1.000  O
  O27      1.0000 0.96257  0.90803  0.36515  Biso   1.000  O
  O28      1.0000 0.96357  0.83862  0.86265  Biso   1.000  O
  O29      1.0000 0.77618  0.62836  0.48807  Biso   1.000  O
  O30      1.0000 0.77446  0.62169  0.98794  Biso   1.000  O
  O31      1.0000 0.71985  0.87846  0.03421  Biso   1.000  O
  O32      1.0000 0.72065  0.87118  0.53072  Biso   1.000  O
  Zr1      1.0000 0.42125  0.23006  0.58150  Biso   1.000  Zr
