data_image0
_cell_length_a       5.13154
_cell_length_b       10.3116
_cell_length_c       10.5872
_cell_angle_alpha    90.1262
_cell_angle_beta     78.4732
_cell_angle_gamma    89.8204

_symmetry_space_group_name_H-M    "P 1"
_symmetry_int_tables_number       1

loop_
  _symmetry_equiv_pos_as_xyz
  'x, y, z'

loop_
  _atom_site_label
  _atom_site_occupancy
  _atom_site_fract_x
  _atom_site_fract_y
  _atom_site_fract_z
  _atom_site_thermal_displace_type
  _atom_site_B_iso_or_equiv
  _atom_site_type_symbol
  Hf1      1.0000 0.26611  0.02310  0.15406  Biso   1.000  Hf
  Hf2      1.0000 0.30053  0.22882  0.40170  Biso   1.000  Hf
  Hf3      1.0000 0.67665  0.26997  0.08262  Biso   1.000  Hf
  Hf4      1.0000 0.72323  0.49008  0.35804  Biso   1.000  Hf
  O1       1.0000 0.02624  0.16480  0.07964  Biso   1.000  O
  O2       1.0000 0.08590  0.06241  0.34525  Biso   1.000  O
  O3       1.0000 0.95193  0.41080  0.17771  Biso   1.000  O
  O4       1.0000 0.96227  0.35332  0.43301  Biso   1.000  O
  O5       1.0000 0.56700  0.11357  0.23680  Biso   1.000  O
  O6       1.0000 0.60700  0.13011  0.47710  Biso   1.000  O
  O7       1.0000 0.41497  0.38634  0.00182  Biso   1.000  O
  O8       1.0000 0.49440  0.36823  0.25872  Biso   1.000  O
  Hf5      1.0000 0.26800  0.02195  0.64954  Biso   1.000  Hf
  Hf6      1.0000 0.25426  0.23035  0.89370  Biso   1.000  Hf
  Hf7      1.0000 0.72780  0.27505  0.60882  Biso   1.000  Hf
  Hf8      1.0000 0.70986  0.48426  0.85277  Biso   1.000  Hf
  O9       1.0000 0.08353  0.17049  0.58268  Biso   1.000  O
  O10      1.0000 0.05031  0.08513  0.82919  Biso   1.000  O
  O11      1.0000 0.93050  0.41849  0.67620  Biso   1.000  O
  O12      1.0000 0.91370  0.33731  0.91724  Biso   1.000  O
  O13      1.0000 0.54034  0.12907  0.73814  Biso   1.000  O
  O14      1.0000 0.51721  0.12289  0.98578  Biso   1.000  O
  O15      1.0000 0.46316  0.38200  0.51455  Biso   1.000  O
  O16      1.0000 0.44356  0.37162  0.75991  Biso   1.000  O
  Hf9      1.0000 0.27657  0.52437  0.14778  Biso   1.000  Hf
  Hf10     1.0000 0.27317  0.72811  0.40004  Biso   1.000  Hf
  Hf11     1.0000 0.71529  0.77207  0.10548  Biso   1.000  Hf
  Hf12     1.0000 0.71803  0.96514  0.35521  Biso   1.000  Hf
  O17      1.0000 0.06138  0.66350  0.07829  Biso   1.000  O
  O18      1.0000 0.07152  0.58919  0.32686  Biso   1.000  O
  O19      1.0000 0.93240  0.90922  0.17692  Biso   1.000  O
  O20      1.0000 0.92398  0.82554  0.42834  Biso   1.000  O
  O21      1.0000 0.55643  0.62661  0.24271  Biso   1.000  O
  O22      1.0000 0.54112  0.62681  0.49636  Biso   1.000  O
  O23      1.0000 0.44434  0.87979  0.01262  Biso   1.000  O
  O24      1.0000 0.43859  0.86399  0.26061  Biso   1.000  O
  Hf13     1.0000 0.27232  0.52329  0.64919  Biso   1.000  Hf
  Hf14     1.0000 0.26766  0.72928  0.90042  Biso   1.000  Hf
  Hf15     1.0000 0.71784  0.77226  0.60815  Biso   1.000  Hf
  Hf16     1.0000 0.70953  0.97665  0.85652  Biso   1.000  Hf
  O25      1.0000 0.05756  0.66443  0.58213  Biso   1.000  O
  O26      1.0000 0.05904  0.58702  0.82998  Biso   1.000  O
  O27      1.0000 0.92796  0.91552  0.67657  Biso   1.000  O
  O28      1.0000 0.92870  0.83756  0.92559  Biso   1.000  O
  O29      1.0000 0.54272  0.62927  0.74333  Biso   1.000  O
  O30      1.0000 0.54949  0.62560  0.99232  Biso   1.000  O
  O31      1.0000 0.44132  0.88170  0.51440  Biso   1.000  O
  O32      1.0000 0.44153  0.87262  0.76355  Biso   1.000  O
  Zr1      1.0000 0.87567  0.23024  0.28663  Biso   1.000  Zr
