data_image0
_cell_length_a       5.06388
_cell_length_b       10.1713
_cell_length_c       10.0528
_cell_angle_alpha    90
_cell_angle_beta     90
_cell_angle_gamma    90

_symmetry_space_group_name_H-M    "P 1"
_symmetry_int_tables_number       1

loop_
  _symmetry_equiv_pos_as_xyz
  'x, y, z'

loop_
  _atom_site_label
  _atom_site_occupancy
  _atom_site_fract_x
  _atom_site_fract_y
  _atom_site_fract_z
  _atom_site_thermal_displace_type
  _atom_site_B_iso_or_equiv
  _atom_site_type_symbol
  Ag1      1.0000 0.22115  0.02273  0.11399  Biso   1.000  Ag
  Hf1      1.0000 0.21345  0.24826  0.38596  Biso   1.000  Hf
  Hf2      1.0000 0.71912  0.25766  0.13541  Biso   1.000  Hf
  Hf3      1.0000 0.67951  0.98627  0.35238  Biso   1.000  Hf
  O1       1.0000 0.00652  0.15470  0.00853  Biso   1.000  O 
  O2       1.0000 0.90910  0.12213  0.26866  Biso   1.000  O 
  O3       1.0000 0.99327  0.36273  0.26498  Biso   1.000  O 
  O4       1.0000 0.89483  0.40926  0.03206  Biso   1.000  O 
  O5       1.0000 0.41813  0.13690  0.24432  Biso   1.000  O 
  O6       1.0000 0.41646  0.10757  0.99203  Biso   1.000  O 
  O7       1.0000 0.39438  0.33811  0.03346  Biso   1.000  O 
  O8       1.0000 0.49154  0.38665  0.26681  Biso   1.000  O 
  Hf4      1.0000 0.21175  0.99470  0.61796  Biso   1.000  Hf
  Hf5      1.0000 0.16120  0.24082  0.86500  Biso   1.000  Hf
  Hf6      1.0000 0.70550  0.23731  0.62251  Biso   1.000  Hf
  Hf7      1.0000 0.66115  0.99959  0.87532  Biso   1.000  Hf
  O9       1.0000 0.00224  0.15138  0.52220  Biso   1.000  O 
  O10      1.0000 0.94111  0.09135  0.75510  Biso   1.000  O 
  O11      1.0000 0.84728  0.34015  0.78152  Biso   1.000  O 
  O12      1.0000 0.94134  0.39486  0.51933  Biso   1.000  O 
  O13      1.0000 0.42720  0.14795  0.74460  Biso   1.000  O 
  O14      1.0000 0.48575  0.10323  0.49309  Biso   1.000  O 
  O15      1.0000 0.43926  0.35493  0.52085  Biso   1.000  O 
  O16      1.0000 0.34899  0.40534  0.77895  Biso   1.000  O 
  Hf8      1.0000 0.21861  0.49133  0.13181  Biso   1.000  Hf
  Hf9      1.0000 0.17723  0.75873  0.35560  Biso   1.000  Hf
  Hf10     1.0000 0.70313  0.73122  0.12213  Biso   1.000  Hf
  Hf11     1.0000 0.72883  0.49884  0.38266  Biso   1.000  Hf
  O17      1.0000 0.87811  0.64550  0.99768  Biso   1.000  O 
  O18      1.0000 0.94332  0.60660  0.24801  Biso   1.000  O 
  O19      1.0000 0.91667  0.85445  0.23945  Biso   1.000  O 
  O20      1.0000 0.96543  0.90056  0.97691  Biso   1.000  O 
  O21      1.0000 0.44144  0.63846  0.25137  Biso   1.000  O 
  O22      1.0000 0.48554  0.59215  0.00143  Biso   1.000  O 
  O23      1.0000 0.47030  0.83774  0.96019  Biso   1.000  O 
  O24      1.0000 0.42911  0.88533  0.21932  Biso   1.000  O 
  Hf12     1.0000 0.21714  0.51210  0.61999  Biso   1.000  Hf
  Hf13     1.0000 0.15672  0.73697  0.87858  Biso   1.000  Hf
  Hf14     1.0000 0.70899  0.75372  0.61597  Biso   1.000  Hf
  Hf15     1.0000 0.65654  0.50635  0.86615  Biso   1.000  Hf
  O25      1.0000 0.99272  0.64728  0.49631  Biso   1.000  O 
  O26      1.0000 0.92982  0.59749  0.74656  Biso   1.000  O 
  O27      1.0000 0.02411  0.83994  0.72177  Biso   1.000  O 
  O28      1.0000 0.94879  0.90174  0.48341  Biso   1.000  O 
  O29      1.0000 0.44021  0.65432  0.74836  Biso   1.000  O 
  O30      1.0000 0.50210  0.60104  0.51081  Biso   1.000  O 
  O31      1.0000 0.44991  0.84834  0.47530  Biso   1.000  O 
  O32      1.0000 0.53273  0.91002  0.71146  Biso   1.000  O 
