data_image0
_cell_length_a       9.94732
_cell_length_b       10.3706
_cell_length_c       10.007
_cell_angle_alpha    90
_cell_angle_beta     90
_cell_angle_gamma    90

_symmetry_space_group_name_H-M    "P 1"
_symmetry_int_tables_number       1

loop_
  _symmetry_equiv_pos_as_xyz
  'x, y, z'

loop_
  _atom_site_label
  _atom_site_occupancy
  _atom_site_fract_x
  _atom_site_fract_y
  _atom_site_fract_z
  _atom_site_thermal_displace_type
  _atom_site_B_iso_or_equiv
  _atom_site_type_symbol
  Ag1      1.0000 0.12222  0.02542  0.10643  Biso   1.000  Ag
  Hf1      1.0000 0.14218  0.22968  0.37756  Biso   1.000  Hf
  Hf2      1.0000 0.36758  0.26705  0.13003  Biso   1.000  Hf
  Hf3      1.0000 0.36942  0.48324  0.37775  Biso   1.000  Hf
  O1       1.0000 0.04030  0.18274  0.19142  Biso   1.000  O 
  O2       1.0000 0.04249  0.06458  0.44661  Biso   1.000  O 
  O3       1.0000 0.46603  0.43361  0.19569  Biso   1.000  O 
  O4       1.0000 0.46787  0.31540  0.44494  Biso   1.000  O 
  O5       1.0000 0.28605  0.12781  0.25862  Biso   1.000  O 
  O6       1.0000 0.27517  0.12961  0.50585  Biso   1.000  O 
  O7       1.0000 0.23383  0.38032  0.50109  Biso   1.000  O 
  O8       1.0000 0.22987  0.36955  0.25134  Biso   1.000  O 
  Hf4      1.0000 0.13910  0.01699  0.63232  Biso   1.000  Hf
  Hf5      1.0000 0.14102  0.23768  0.87421  Biso   1.000  Hf
  Hf6      1.0000 0.37208  0.26609  0.62726  Biso   1.000  Hf
  Hf7      1.0000 0.37318  0.48342  0.87680  Biso   1.000  Hf
  O9       1.0000 0.04459  0.18939  0.68939  Biso   1.000  O 
  O10      1.0000 0.04486  0.06401  0.90534  Biso   1.000  O 
  O11      1.0000 0.46927  0.43410  0.69498  Biso   1.000  O 
  O12      1.0000 0.46768  0.31134  0.94193  Biso   1.000  O 
  O13      1.0000 0.28046  0.12062  0.75440  Biso   1.000  O 
  O14      1.0000 0.26421  0.13074  0.00477  Biso   1.000  O 
  O15      1.0000 0.23033  0.38265  0.00114  Biso   1.000  O 
  O16      1.0000 0.23508  0.36948  0.75001  Biso   1.000  O 
  Hf8      1.0000 0.13623  0.51586  0.12783  Biso   1.000  Hf
  Hf9      1.0000 0.13956  0.73354  0.37751  Biso   1.000  Hf
  Hf10     1.0000 0.36708  0.76574  0.13025  Biso   1.000  Hf
  Hf11     1.0000 0.36658  0.98227  0.37608  Biso   1.000  Hf
  O17      1.0000 0.03964  0.68377  0.19446  Biso   1.000  O 
  O18      1.0000 0.04076  0.56363  0.44514  Biso   1.000  O 
  O19      1.0000 0.47071  0.93282  0.19644  Biso   1.000  O 
  O20      1.0000 0.47092  0.81657  0.45018  Biso   1.000  O 
  O21      1.0000 0.27369  0.61412  0.25076  Biso   1.000  O 
  O22      1.0000 0.27614  0.63173  0.50155  Biso   1.000  O 
  O23      1.0000 0.23251  0.88146  0.50656  Biso   1.000  O 
  O24      1.0000 0.24397  0.85868  0.26085  Biso   1.000  O 
  Hf12     1.0000 0.13925  0.51653  0.62622  Biso   1.000  Hf
  Hf13     1.0000 0.13988  0.73138  0.87822  Biso   1.000  Hf
  Hf14     1.0000 0.37101  0.76695  0.62856  Biso   1.000  Hf
  Hf15     1.0000 0.37203  0.98239  0.87999  Biso   1.000  Hf
  O25      1.0000 0.04203  0.68428  0.69505  Biso   1.000  O 
  O26      1.0000 0.04261  0.56387  0.94514  Biso   1.000  O 
  O27      1.0000 0.46861  0.93441  0.69743  Biso   1.000  O 
  O28      1.0000 0.46629  0.81374  0.94396  Biso   1.000  O 
  O29      1.0000 0.27590  0.61741  0.75155  Biso   1.000  O 
  O30      1.0000 0.27005  0.63308  0.00148  Biso   1.000  O 
  O31      1.0000 0.22557  0.88275  0.00840  Biso   1.000  O 
  O32      1.0000 0.23481  0.86817  0.75587  Biso   1.000  O 
  Hf16     1.0000 0.63672  0.01596  0.12678  Biso   1.000  Hf
  Hf17     1.0000 0.63696  0.23245  0.37549  Biso   1.000  Hf
  Hf18     1.0000 0.86430  0.26597  0.12519  Biso   1.000  Hf
  Hf19     1.0000 0.87059  0.48252  0.37587  Biso   1.000  Hf
  O33      1.0000 0.54305  0.18649  0.19073  Biso   1.000  O 
  O34      1.0000 0.54003  0.06520  0.44267  Biso   1.000  O 
  O35      1.0000 0.96608  0.43009  0.19371  Biso   1.000  O 
  O36      1.0000 0.96758  0.31355  0.44092  Biso   1.000  O 
  O37      1.0000 0.77437  0.11775  0.24949  Biso   1.000  O 
  O38      1.0000 0.77497  0.13187  0.49816  Biso   1.000  O 
  O39      1.0000 0.73422  0.38179  0.49994  Biso   1.000  O 
  O40      1.0000 0.73146  0.36820  0.25031  Biso   1.000  O 
  Hf20     1.0000 0.63645  0.01498  0.62291  Biso   1.000  Hf
  Hf21     1.0000 0.64037  0.23112  0.87546  Biso   1.000  Hf
  Hf22     1.0000 0.86978  0.26585  0.62345  Biso   1.000  Hf
  Hf23     1.0000 0.87197  0.48214  0.87536  Biso   1.000  Hf
  O41      1.0000 0.54323  0.18425  0.69304  Biso   1.000  O 
  O42      1.0000 0.54283  0.06405  0.94548  Biso   1.000  O 
  O43      1.0000 0.96852  0.43383  0.69355  Biso   1.000  O 
  O44      1.0000 0.97016  0.31436  0.94422  Biso   1.000  O 
  O45      1.0000 0.77496  0.11631  0.74684  Biso   1.000  O 
  O46      1.0000 0.78118  0.12860  0.99745  Biso   1.000  O 
  O47      1.0000 0.72804  0.38024  0.00047  Biso   1.000  O 
  O48      1.0000 0.73486  0.36661  0.75010  Biso   1.000  O 
  Hf24     1.0000 0.63622  0.51663  0.12819  Biso   1.000  Hf
  Hf25     1.0000 0.63859  0.73444  0.37608  Biso   1.000  Hf
  Hf26     1.0000 0.87041  0.76499  0.12338  Biso   1.000  Hf
  Hf27     1.0000 0.87431  0.98493  0.37609  Biso   1.000  Hf
  O49      1.0000 0.53988  0.68443  0.19619  Biso   1.000  O 
  O50      1.0000 0.54104  0.56573  0.44429  Biso   1.000  O 
  O51      1.0000 0.96610  0.93618  0.18884  Biso   1.000  O 
  O52      1.0000 0.96758  0.81426  0.44143  Biso   1.000  O 
  O53      1.0000 0.77508  0.61665  0.24936  Biso   1.000  O 
  O54      1.0000 0.77445  0.63181  0.49921  Biso   1.000  O 
  O55      1.0000 0.73554  0.88258  0.49801  Biso   1.000  O 
  O56      1.0000 0.73929  0.86746  0.24863  Biso   1.000  O 
  Hf28     1.0000 0.63897  0.51618  0.62581  Biso   1.000  Hf
  Hf29     1.0000 0.63914  0.73145  0.87682  Biso   1.000  Hf
  Hf30     1.0000 0.87157  0.76482  0.62354  Biso   1.000  Hf
  Hf31     1.0000 0.86737  0.97936  0.87031  Biso   1.000  Hf
  O57      1.0000 0.54089  0.68268  0.69639  Biso   1.000  O 
  O58      1.0000 0.54365  0.56343  0.94666  Biso   1.000  O 
  O59      1.0000 0.96522  0.93384  0.68637  Biso   1.000  O 
  O60      1.0000 0.96892  0.81511  0.94087  Biso   1.000  O 
  O61      1.0000 0.77581  0.61652  0.74997  Biso   1.000  O 
  O62      1.0000 0.77837  0.62994  0.99960  Biso   1.000  O 
  O63      1.0000 0.73358  0.87822  0.99894  Biso   1.000  O 
  O64      1.0000 0.73344  0.86530  0.74803  Biso   1.000  O 
