data_image0
_cell_length_a       10.1195
_cell_length_b       10.2528
_cell_length_c       5.23305
_cell_angle_alpha    90
_cell_angle_beta     80
_cell_angle_gamma    90

_symmetry_space_group_name_H-M    "P 1"
_symmetry_int_tables_number       1

loop_
  _symmetry_equiv_pos_as_xyz
  'x, y, z'

loop_
  _atom_site_label
  _atom_site_occupancy
  _atom_site_fract_x
  _atom_site_fract_y
  _atom_site_fract_z
  _atom_site_thermal_displace_type
  _atom_site_B_iso_or_equiv
  _atom_site_type_symbol
  Ag1      1.0000 0.12130  0.01294  0.33045  Biso   1.000  Ag
  Hf1      1.0000 0.13739  0.22876  0.79135  Biso   1.000  Hf
  Hf2      1.0000 0.35940  0.26988  0.19886  Biso   1.000  Hf
  Hf3      1.0000 0.35847  0.48020  0.70725  Biso   1.000  Hf
  O1       1.0000 0.04087  0.16477  0.15768  Biso   1.000  O 
  O2       1.0000 0.02025  0.08536  0.69038  Biso   1.000  O 
  O3       1.0000 0.46414  0.41719  0.34193  Biso   1.000  O 
  O4       1.0000 0.46412  0.33861  0.84640  Biso   1.000  O 
  O5       1.0000 0.26526  0.12212  0.45803  Biso   1.000  O 
  O6       1.0000 0.28686  0.13702  0.93755  Biso   1.000  O 
  O7       1.0000 0.22533  0.38242  0.01578  Biso   1.000  O 
  O8       1.0000 0.22461  0.36896  0.51714  Biso   1.000  O 
  Hf4      1.0000 0.14063  0.52185  0.29369  Biso   1.000  Hf
  Hf5      1.0000 0.13515  0.73023  0.79601  Biso   1.000  Hf
  Hf6      1.0000 0.36374  0.77421  0.20152  Biso   1.000  Hf
  Hf7      1.0000 0.36019  0.98167  0.70576  Biso   1.000  Hf
  O9       1.0000 0.03871  0.67029  0.16297  Biso   1.000  O 
  O10      1.0000 0.03526  0.58015  0.66359  Biso   1.000  O 
  O11      1.0000 0.46707  0.91769  0.34271  Biso   1.000  O 
  O12      1.0000 0.46407  0.83387  0.84038  Biso   1.000  O 
  O13      1.0000 0.27633  0.63143  0.48092  Biso   1.000  O 
  O14      1.0000 0.27182  0.62256  0.98282  Biso   1.000  O 
  O15      1.0000 0.23332  0.88171  0.00364  Biso   1.000  O 
  O16      1.0000 0.22046  0.86865  0.51333  Biso   1.000  O 
  Hf8      1.0000 0.63539  0.02180  0.29461  Biso   1.000  Hf
  Hf9      1.0000 0.63335  0.23015  0.79633  Biso   1.000  Hf
  Hf10     1.0000 0.86330  0.26917  0.21586  Biso   1.000  Hf
  Hf11     1.0000 0.86030  0.47743  0.71391  Biso   1.000  Hf
  O17      1.0000 0.53440  0.16838  0.15833  Biso   1.000  O 
  O18      1.0000 0.53255  0.08216  0.65862  Biso   1.000  O 
  O19      1.0000 0.96678  0.41601  0.35039  Biso   1.000  O 
  O20      1.0000 0.96184  0.33305  0.85851  Biso   1.000  O 
  O21      1.0000 0.77290  0.12909  0.48703  Biso   1.000  O 
  O22      1.0000 0.76736  0.12138  0.99024  Biso   1.000  O 
  O23      1.0000 0.72806  0.37772  0.02334  Biso   1.000  O 
  O24      1.0000 0.72379  0.37076  0.52344  Biso   1.000  O 
  Hf12     1.0000 0.63787  0.51961  0.29214  Biso   1.000  Hf
  Hf13     1.0000 0.63536  0.72774  0.79202  Biso   1.000  Hf
  Hf14     1.0000 0.86197  0.76742  0.20674  Biso   1.000  Hf
  Hf15     1.0000 0.85458  0.97869  0.72135  Biso   1.000  Hf
  O25      1.0000 0.53799  0.66728  0.15362  Biso   1.000  O 
  O26      1.0000 0.53307  0.58311  0.65527  Biso   1.000  O 
  O27      1.0000 0.95572  0.92261  0.34349  Biso   1.000  O 
  O28      1.0000 0.95924  0.82970  0.84299  Biso   1.000  O 
  O29      1.0000 0.77632  0.62739  0.48218  Biso   1.000  O 
  O30      1.0000 0.77231  0.62055  0.98392  Biso   1.000  O 
  O31      1.0000 0.72581  0.87820  0.02062  Biso   1.000  O 
  O32      1.0000 0.72553  0.86987  0.51943  Biso   1.000  O 
