data_image0
_cell_length_a       5.11048
_cell_length_b       10.3012
_cell_length_c       10.5631
_cell_angle_alpha    90
_cell_angle_beta     80
_cell_angle_gamma    90

_symmetry_space_group_name_H-M    "P 1"
_symmetry_int_tables_number       1

loop_
  _symmetry_equiv_pos_as_xyz
  'x, y, z'

loop_
  _atom_site_label
  _atom_site_occupancy
  _atom_site_fract_x
  _atom_site_fract_y
  _atom_site_fract_z
  _atom_site_thermal_displace_type
  _atom_site_B_iso_or_equiv
  _atom_site_type_symbol
  Hf1      1.0000 0.27263  0.01750  0.14575  Biso   1.000  Hf
  Hf2      1.0000 0.32708  0.23226  0.40331  Biso   1.000  Hf
  Hf3      1.0000 0.69845  0.27506  0.09576  Biso   1.000  Hf
  Hf4      1.0000 0.73069  0.47937  0.34979  Biso   1.000  Hf
  O1       1.0000 0.05638  0.16537  0.07723  Biso   1.000  O 
  O2       1.0000 0.10036  0.05854  0.34345  Biso   1.000  O 
  O3       1.0000 0.92259  0.42589  0.16360  Biso   1.000  O 
  O4       1.0000 0.98725  0.35660  0.44154  Biso   1.000  O 
  O5       1.0000 0.53197  0.12619  0.23359  Biso   1.000  O 
  O6       1.0000 0.58108  0.11396  0.49443  Biso   1.000  O 
  O7       1.0000 0.43098  0.38267  0.00614  Biso   1.000  O 
  O8       1.0000 0.42872  0.37633  0.25504  Biso   1.000  O 
  Hf5      1.0000 0.29590  0.01841  0.64573  Biso   1.000  Hf
  Hf6      1.0000 0.29486  0.22579  0.89264  Biso   1.000  Hf
  Hf7      1.0000 0.75376  0.27186  0.60912  Biso   1.000  Hf
  Hf8      1.0000 0.74259  0.47820  0.85343  Biso   1.000  Hf
  O9       1.0000 0.09851  0.16688  0.57900  Biso   1.000  O 
  O10      1.0000 0.08682  0.08140  0.82526  Biso   1.000  O 
  O11      1.0000 0.95785  0.41272  0.67949  Biso   1.000  O 
  O12      1.0000 0.94992  0.33113  0.91855  Biso   1.000  O 
  O13      1.0000 0.57098  0.12653  0.73974  Biso   1.000  O 
  O14      1.0000 0.56934  0.11986  0.98509  Biso   1.000  O 
  O15      1.0000 0.48446  0.37509  0.51297  Biso   1.000  O 
  O16      1.0000 0.47253  0.36943  0.75897  Biso   1.000  O 
  Hf9      1.0000 0.27393  0.52439  0.14558  Biso   1.000  Hf
  Hf10     1.0000 0.28487  0.72367  0.39636  Biso   1.000  Hf
  Hf11     1.0000 0.71704  0.77147  0.10446  Biso   1.000  Hf
  Hf12     1.0000 0.72840  0.96665  0.35778  Biso   1.000  Hf
  O17      1.0000 0.06418  0.67172  0.07785  Biso   1.000  O 
  O18      1.0000 0.06952  0.58706  0.32401  Biso   1.000  O 
  O19      1.0000 0.92422  0.91708  0.17465  Biso   1.000  O 
  O20      1.0000 0.93324  0.82392  0.42289  Biso   1.000  O 
  O21      1.0000 0.55512  0.62839  0.24122  Biso   1.000  O 
  O22      1.0000 0.55885  0.61799  0.49030  Biso   1.000  O 
  O23      1.0000 0.44299  0.88016  0.01110  Biso   1.000  O 
  O24      1.0000 0.44935  0.86666  0.26031  Biso   1.000  O 
  Hf13     1.0000 0.29641  0.51978  0.64621  Biso   1.000  Hf
  Hf14     1.0000 0.29632  0.72692  0.89531  Biso   1.000  Hf
  Hf15     1.0000 0.73719  0.76752  0.60463  Biso   1.000  Hf
  Hf16     1.0000 0.74227  0.97608  0.85164  Biso   1.000  Hf
  O25      1.0000 0.07846  0.66081  0.57798  Biso   1.000  O 
  O26      1.0000 0.08903  0.58344  0.82697  Biso   1.000  O 
  O27      1.0000 0.94752  0.91358  0.67019  Biso   1.000  O 
  O28      1.0000 0.95500  0.83369  0.92079  Biso   1.000  O 
  O29      1.0000 0.57021  0.62543  0.73953  Biso   1.000  O 
  O30      1.0000 0.57657  0.62123  0.98867  Biso   1.000  O 
  O31      1.0000 0.45676  0.87336  0.51118  Biso   1.000  O 
  O32      1.0000 0.46705  0.86903  0.75964  Biso   1.000  O 
  Ag1      1.0000 0.89480  0.22608  0.29877  Biso   1.000  Ag
