data_image0
_cell_length_a       5.08108
_cell_length_b       10.6084
_cell_length_c       10.2281
_cell_angle_alpha    90
_cell_angle_beta     90
_cell_angle_gamma    90

_symmetry_space_group_name_H-M    "P 1"
_symmetry_int_tables_number       1

loop_
  _symmetry_equiv_pos_as_xyz
  'x, y, z'

loop_
  _atom_site_label
  _atom_site_occupancy
  _atom_site_fract_x
  _atom_site_fract_y
  _atom_site_fract_z
  _atom_site_thermal_displace_type
  _atom_site_B_iso_or_equiv
  _atom_site_type_symbol
  Hf1      1.0000 0.25912  0.95160  0.11672  Biso   1.000  Hf
  Hf2      1.0000 0.25611  0.19901  0.40904  Biso   1.000  Hf
  Hf3      1.0000 0.75672  0.27204  0.13421  Biso   1.000  Hf
  Hf4      1.0000 0.76637  0.97377  0.36762  Biso   1.000  Hf
  O1       1.0000 0.87862  0.13635  0.00316  Biso   1.000  O 
  O2       1.0000 0.10682  0.04133  0.28642  Biso   1.000  O 
  O3       1.0000 0.01501  0.30527  0.28859  Biso   1.000  O 
  O4       1.0000 0.02038  0.38843  0.02855  Biso   1.000  O 
  O5       1.0000 0.61106  0.14924  0.28290  Biso   1.000  O 
  O6       1.0000 0.41831  0.95657  0.95402  Biso   1.000  O 
  O7       1.0000 0.54450  0.25107  0.97939  Biso   1.000  O 
  O8       1.0000 0.56806  0.41581  0.23578  Biso   1.000  O 
  Hf5      1.0000 0.26829  0.95082  0.60871  Biso   1.000  Hf
  Hf6      1.0000 0.22438  0.12213  0.88561  Biso   1.000  Hf
  Hf7      1.0000 0.73188  0.20329  0.62812  Biso   1.000  Hf
  Hf8      1.0000 0.77704  0.88588  0.87173  Biso   1.000  Hf
  O9       1.0000 0.00897  0.09677  0.52303  Biso   1.000  O 
  O10      1.0000 0.02994  0.98430  0.76254  Biso   1.000  O 
  O11      1.0000 0.97706  0.22968  0.77941  Biso   1.000  O 
  O12      1.0000 0.04028  0.34147  0.52799  Biso   1.000  O 
  O13      1.0000 0.46758  0.10529  0.73190  Biso   1.000  O 
  O14      1.0000 0.51347  0.06353  0.49926  Biso   1.000  O 
  O15      1.0000 0.53517  0.31830  0.48831  Biso   1.000  O 
  O16      1.0000 0.58116  0.36273  0.72557  Biso   1.000  O 
  Hf9      1.0000 0.31142  0.50654  0.11444  Biso   1.000  Hf
  Hf10     1.0000 0.23276  0.70196  0.37303  Biso   1.000  Hf
  Hf11     1.0000 0.74029  0.74449  0.10486  Biso   1.000  Hf
  Hf12     1.0000 0.82523  0.45119  0.39290  Biso   1.000  Hf
  O17      1.0000 0.02215  0.63191  0.01402  Biso   1.000  O 
  O18      1.0000 0.05162  0.55176  0.26779  Biso   1.000  O 
  O19      1.0000 0.04308  0.80778  0.23527  Biso   1.000  O 
  O20      1.0000 0.01300  0.77068  0.98889  Biso   1.000  O 
  O21      1.0000 0.48555  0.65988  0.22255  Biso   1.000  O 
  O22      1.0000 0.55701  0.49722  0.97421  Biso   1.000  O 
  O23      1.0000 0.51862  0.73025  0.97193  Biso   1.000  O 
  O24      1.0000 0.59306  0.90689  0.20757  Biso   1.000  O 
  Hf13     1.0000 0.32784  0.45866  0.61111  Biso   1.000  Hf
  Hf14     1.0000 0.23111  0.63697  0.86225  Biso   1.000  Hf
  Hf15     1.0000 0.73155  0.71353  0.59468  Biso   1.000  Hf
  Hf16     1.0000 0.82835  0.38268  0.88370  Biso   1.000  Hf
  O25      1.0000 0.02560  0.59286  0.51256  Biso   1.000  O 
  O26      1.0000 0.08117  0.48010  0.76690  Biso   1.000  O 
  O27      1.0000 0.97707  0.73606  0.75177  Biso   1.000  O 
  O28      1.0000 0.00709  0.84563  0.49619  Biso   1.000  O 
  O29      1.0000 0.48418  0.61256  0.71176  Biso   1.000  O 
  O30      1.0000 0.53026  0.56960  0.47067  Biso   1.000  O 
  O31      1.0000 0.50856  0.82111  0.46074  Biso   1.000  O 
  O32      1.0000 0.55221  0.85532  0.70847  Biso   1.000  O 
  Ag1      1.0000 0.27524  0.19701  0.14796  Biso   1.000  Ag
