data_image0
_cell_length_a       10.1651
_cell_length_b       10.2878
_cell_length_c       10.5101
_cell_angle_alpha    90
_cell_angle_beta     80
_cell_angle_gamma    90

_symmetry_space_group_name_H-M    "P 1"
_symmetry_int_tables_number       1

loop_
  _symmetry_equiv_pos_as_xyz
  'x, y, z'

loop_
  _atom_site_label
  _atom_site_occupancy
  _atom_site_fract_x
  _atom_site_fract_y
  _atom_site_fract_z
  _atom_site_thermal_displace_type
  _atom_site_B_iso_or_equiv
  _atom_site_type_symbol
  Hf1      1.0000 0.13315  0.02065  0.14366  Biso   1.000  Hf
  Hf2      1.0000 0.14112  0.22795  0.39254  Biso   1.000  Hf
  Hf3      1.0000 0.35115  0.27389  0.09393  Biso   1.000  Hf
  Hf4      1.0000 0.36048  0.47902  0.34999  Biso   1.000  Hf
  O1       1.0000 0.03263  0.16837  0.07678  Biso   1.000  O 
  O2       1.0000 0.03250  0.08062  0.32944  Biso   1.000  O 
  O3       1.0000 0.46091  0.42595  0.16334  Biso   1.000  O 
  O4       1.0000 0.48675  0.35803  0.44232  Biso   1.000  O 
  O5       1.0000 0.26474  0.12394  0.23347  Biso   1.000  O 
  O6       1.0000 0.28027  0.11613  0.48955  Biso   1.000  O 
  O7       1.0000 0.21754  0.38297  0.00389  Biso   1.000  O 
  O8       1.0000 0.21195  0.37465  0.25327  Biso   1.000  O 
  Hf5      1.0000 0.14160  0.01926  0.64492  Biso   1.000  Hf
  Hf6      1.0000 0.13889  0.22686  0.89213  Biso   1.000  Hf
  Hf7      1.0000 0.36456  0.27347  0.60675  Biso   1.000  Hf
  Hf8      1.0000 0.36321  0.47865  0.85397  Biso   1.000  Hf
  O9       1.0000 0.04107  0.16701  0.57816  Biso   1.000  O 
  O10      1.0000 0.03659  0.08058  0.82677  Biso   1.000  O 
  O11      1.0000 0.46956  0.41382  0.67913  Biso   1.000  O 
  O12      1.0000 0.46787  0.33166  0.91997  Biso   1.000  O 
  O13      1.0000 0.27838  0.12741  0.73831  Biso   1.000  O 
  O14      1.0000 0.27633  0.12076  0.98488  Biso   1.000  O 
  O15      1.0000 0.22912  0.37568  0.50808  Biso   1.000  O 
  O16      1.0000 0.22664  0.37010  0.75740  Biso   1.000  O 
  Hf9      1.0000 0.13774  0.52333  0.14500  Biso   1.000  Hf
  Hf10     1.0000 0.13870  0.72646  0.39631  Biso   1.000  Hf
  Hf11     1.0000 0.36006  0.77276  0.10437  Biso   1.000  Hf
  Hf12     1.0000 0.36156  0.96780  0.35714  Biso   1.000  Hf
  O17      1.0000 0.03250  0.66912  0.07808  Biso   1.000  O 
  O18      1.0000 0.03419  0.58357  0.32772  Biso   1.000  O 
  O19      1.0000 0.46452  0.91919  0.17363  Biso   1.000  O 
  O20      1.0000 0.46335  0.82414  0.42214  Biso   1.000  O 
  O21      1.0000 0.27565  0.62929  0.24066  Biso   1.000  O 
  O22      1.0000 0.27599  0.61890  0.49055  Biso   1.000  O 
  O23      1.0000 0.22249  0.87994  0.00985  Biso   1.000  O 
  O24      1.0000 0.22301  0.86901  0.26060  Biso   1.000  O 
  Hf13     1.0000 0.14151  0.52042  0.64476  Biso   1.000  Hf
  Hf14     1.0000 0.14041  0.72718  0.89601  Biso   1.000  Hf
  Hf15     1.0000 0.36308  0.76772  0.60518  Biso   1.000  Hf
  Hf16     1.0000 0.36322  0.97694  0.85282  Biso   1.000  Hf
  O25      1.0000 0.03487  0.66498  0.57862  Biso   1.000  O 
  O26      1.0000 0.03773  0.58138  0.82791  Biso   1.000  O 
  O27      1.0000 0.46715  0.91500  0.67073  Biso   1.000  O 
  O28      1.0000 0.46813  0.83301  0.92162  Biso   1.000  O 
  O29      1.0000 0.27864  0.62629  0.74035  Biso   1.000  O 
  O30      1.0000 0.27962  0.62191  0.99032  Biso   1.000  O 
  O31      1.0000 0.22445  0.87483  0.51089  Biso   1.000  O 
  O32      1.0000 0.22594  0.86918  0.75970  Biso   1.000  O 
  Hf17     1.0000 0.64099  0.01911  0.14786  Biso   1.000  Hf
  Hf18     1.0000 0.65576  0.23059  0.40739  Biso   1.000  Hf
  Hf19     1.0000 0.85945  0.27293  0.10541  Biso   1.000  Hf
  Hf20     1.0000 0.86396  0.47801  0.35384  Biso   1.000  Hf
  O33      1.0000 0.53080  0.16498  0.07907  Biso   1.000  O 
  O34      1.0000 0.55201  0.06052  0.34452  Biso   1.000  O 
  O35      1.0000 0.96296  0.41960  0.16969  Biso   1.000  O 
  O36      1.0000 0.96741  0.33136  0.42162  Biso   1.000  O 
  O37      1.0000 0.77809  0.13001  0.24236  Biso   1.000  O 
  O38      1.0000 0.78370  0.11819  0.49536  Biso   1.000  O 
  O39      1.0000 0.72151  0.37893  0.01215  Biso   1.000  O 
  O40      1.0000 0.72365  0.37136  0.26284  Biso   1.000  O 
  Hf21     1.0000 0.64062  0.01958  0.64742  Biso   1.000  Hf
  Hf22     1.0000 0.64147  0.22652  0.89743  Biso   1.000  Hf
  Hf23     1.0000 0.86866  0.26980  0.60805  Biso   1.000  Hf
  Hf24     1.0000 0.86370  0.47751  0.85499  Biso   1.000  Hf
  O41      1.0000 0.53850  0.16700  0.58046  Biso   1.000  O 
  O42      1.0000 0.53663  0.08161  0.82843  Biso   1.000  O 
  O43      1.0000 0.96941  0.41643  0.67238  Biso   1.000  O 
  O44      1.0000 0.96590  0.33024  0.91988  Biso   1.000  O 
  O45      1.0000 0.77854  0.12757  0.74260  Biso   1.000  O 
  O46      1.0000 0.77861  0.11904  0.99181  Biso   1.000  O 
  O47      1.0000 0.73251  0.37660  0.51517  Biso   1.000  O 
  O48      1.0000 0.72778  0.36981  0.76248  Biso   1.000  O 
  Hf25     1.0000 0.63690  0.52299  0.14619  Biso   1.000  Hf
  Hf26     1.0000 0.64025  0.72492  0.39620  Biso   1.000  Hf
  Hf27     1.0000 0.85881  0.77014  0.10429  Biso   1.000  Hf
  Hf28     1.0000 0.86117  0.97570  0.35489  Biso   1.000  Hf
  O49      1.0000 0.53472  0.67164  0.07906  Biso   1.000  O 
  O50      1.0000 0.53366  0.58508  0.32539  Biso   1.000  O 
  O51      1.0000 0.96156  0.91609  0.17217  Biso   1.000  O 
  O52      1.0000 0.96528  0.83068  0.42174  Biso   1.000  O 
  O53      1.0000 0.77683  0.62806  0.24089  Biso   1.000  O 
  O54      1.0000 0.77689  0.61885  0.49057  Biso   1.000  O 
  O55      1.0000 0.72228  0.87983  0.01101  Biso   1.000  O 
  O56      1.0000 0.72351  0.86802  0.25957  Biso   1.000  O 
  Hf29     1.0000 0.64121  0.52005  0.64798  Biso   1.000  Hf
  Hf30     1.0000 0.64056  0.72765  0.89616  Biso   1.000  Hf
  Hf31     1.0000 0.86256  0.77028  0.60410  Biso   1.000  Hf
  Hf32     1.0000 0.86320  0.97672  0.85402  Biso   1.000  Hf
  O57      1.0000 0.53595  0.66341  0.57931  Biso   1.000  O 
  O58      1.0000 0.53681  0.58291  0.82948  Biso   1.000  O 
  O59      1.0000 0.96655  0.91612  0.67070  Biso   1.000  O 
  O60      1.0000 0.96755  0.83143  0.92076  Biso   1.000  O 
  O61      1.0000 0.77821  0.62745  0.74034  Biso   1.000  O 
  O62      1.0000 0.77843  0.61961  0.98975  Biso   1.000  O 
  O63      1.0000 0.72388  0.87677  0.51062  Biso   1.000  O 
  O64      1.0000 0.72573  0.87017  0.76041  Biso   1.000  O 
  Ag1      1.0000 0.44011  0.22369  0.30194  Biso   1.000  Ag
