data_image0
_cell_length_a       10.0193
_cell_length_b       10.2454
_cell_length_c       10.4346
_cell_angle_alpha    90
_cell_angle_beta     90
_cell_angle_gamma    90

_symmetry_space_group_name_H-M    "P 1"
_symmetry_int_tables_number       1

loop_
  _symmetry_equiv_pos_as_xyz
  'x, y, z'

loop_
  _atom_site_label
  _atom_site_occupancy
  _atom_site_fract_x
  _atom_site_fract_y
  _atom_site_fract_z
  _atom_site_thermal_displace_type
  _atom_site_B_iso_or_equiv
  _atom_site_type_symbol
  Ag1      1.0000 0.12454  0.01685  0.18904  Biso   1.000  Ag
  Hf1      1.0000 0.13686  0.23499  0.42081  Biso   1.000  Hf
  Hf2      1.0000 0.35875  0.27040  0.16665  Biso   1.000  Hf
  Hf3      1.0000 0.35891  0.48114  0.42032  Biso   1.000  Hf
  Hf4      1.0000 0.63965  0.02191  0.07808  Biso   1.000  Hf
  Hf5      1.0000 0.63473  0.23086  0.32883  Biso   1.000  Hf
  Hf6      1.0000 0.86415  0.26863  0.08230  Biso   1.000  Hf
  Hf7      1.0000 0.85886  0.48057  0.32914  Biso   1.000  Hf
  O1       1.0000 0.04277  0.16635  0.09131  Biso   1.000  O 
  O2       1.0000 0.02356  0.08407  0.35787  Biso   1.000  O 
  O3       1.0000 0.46717  0.41704  0.08465  Biso   1.000  O 
  O4       1.0000 0.46147  0.33161  0.33600  Biso   1.000  O 
  O5       1.0000 0.27018  0.12335  0.28943  Biso   1.000  O 
  O6       1.0000 0.29487  0.13881  0.03028  Biso   1.000  O 
  O7       1.0000 0.22186  0.37588  0.29396  Biso   1.000  O 
  O8       1.0000 0.22212  0.37965  0.04424  Biso   1.000  O 
  O9       1.0000 0.53475  0.16879  0.16371  Biso   1.000  O 
  O10      1.0000 0.52982  0.08297  0.41357  Biso   1.000  O 
  O11      1.0000 0.96504  0.41891  0.16534  Biso   1.000  O 
  O12      1.0000 0.96270  0.33595  0.41674  Biso   1.000  O 
  O13      1.0000 0.77038  0.12561  0.45788  Biso   1.000  O 
  O14      1.0000 0.77574  0.12706  0.20823  Biso   1.000  O 
  O15      1.0000 0.72000  0.37579  0.45593  Biso   1.000  O 
  O16      1.0000 0.72320  0.37593  0.20608  Biso   1.000  O 
  Hf8      1.0000 0.13375  0.02254  0.66807  Biso   1.000  Hf
  Hf9      1.0000 0.13844  0.22760  0.92178  Biso   1.000  Hf
  Hf10     1.0000 0.35749  0.27318  0.67063  Biso   1.000  Hf
  Hf11     1.0000 0.35589  0.48114  0.92094  Biso   1.000  Hf
  Hf12     1.0000 0.63263  0.02289  0.58039  Biso   1.000  Hf
  Hf13     1.0000 0.63466  0.23160  0.82970  Biso   1.000  Hf
  Hf14     1.0000 0.85647  0.27337  0.57998  Biso   1.000  Hf
  Hf15     1.0000 0.85938  0.47927  0.83140  Biso   1.000  Hf
  O17      1.0000 0.03095  0.17260  0.58690  Biso   1.000  O 
  O18      1.0000 0.03034  0.08381  0.83451  Biso   1.000  O 
  O19      1.0000 0.46250  0.42010  0.58477  Biso   1.000  O 
  O20      1.0000 0.46237  0.33547  0.83421  Biso   1.000  O 
  O21      1.0000 0.27144  0.12418  0.78807  Biso   1.000  O 
  O22      1.0000 0.27338  0.12945  0.54010  Biso   1.000  O 
  O23      1.0000 0.21991  0.37465  0.79485  Biso   1.000  O 
  O24      1.0000 0.21982  0.37886  0.54466  Biso   1.000  O 
  O25      1.0000 0.53021  0.17045  0.66392  Biso   1.000  O 
  O26      1.0000 0.53258  0.08311  0.91185  Biso   1.000  O 
  O27      1.0000 0.96303  0.41776  0.66779  Biso   1.000  O 
  O28      1.0000 0.96296  0.33183  0.92019  Biso   1.000  O 
  O29      1.0000 0.77351  0.12649  0.95690  Biso   1.000  O 
  O30      1.0000 0.77216  0.12860  0.70632  Biso   1.000  O 
  O31      1.0000 0.71992  0.37555  0.95716  Biso   1.000  O 
  O32      1.0000 0.72026  0.37850  0.70634  Biso   1.000  O 
  Hf16     1.0000 0.13875  0.52215  0.17038  Biso   1.000  Hf
  Hf17     1.0000 0.13438  0.72882  0.42132  Biso   1.000  Hf
  Hf18     1.0000 0.36117  0.77320  0.16639  Biso   1.000  Hf
  Hf19     1.0000 0.35958  0.98079  0.41923  Biso   1.000  Hf
  Hf20     1.0000 0.63960  0.52032  0.07843  Biso   1.000  Hf
  Hf21     1.0000 0.63604  0.72919  0.32764  Biso   1.000  Hf
  Hf22     1.0000 0.86294  0.76925  0.07703  Biso   1.000  Hf
  Hf23     1.0000 0.85460  0.97995  0.33413  Biso   1.000  Hf
  O33      1.0000 0.03725  0.67157  0.08691  Biso   1.000  O 
  O34      1.0000 0.03238  0.58252  0.33572  Biso   1.000  O 
  O35      1.0000 0.47175  0.91733  0.08407  Biso   1.000  O 
  O36      1.0000 0.46207  0.83332  0.33375  Biso   1.000  O 
  O37      1.0000 0.27466  0.62748  0.29410  Biso   1.000  O 
  O38      1.0000 0.27868  0.62512  0.04401  Biso   1.000  O 
  O39      1.0000 0.21909  0.87425  0.29041  Biso   1.000  O 
  O40      1.0000 0.23300  0.87312  0.03767  Biso   1.000  O 
  O41      1.0000 0.53408  0.66771  0.16337  Biso   1.000  O 
  O42      1.0000 0.53183  0.58338  0.41350  Biso   1.000  O 
  O43      1.0000 0.95619  0.92508  0.16382  Biso   1.000  O 
  O44      1.0000 0.96129  0.83127  0.41362  Biso   1.000  O 
  O45      1.0000 0.77346  0.62544  0.45564  Biso   1.000  O 
  O46      1.0000 0.77580  0.62671  0.20527  Biso   1.000  O 
  O47      1.0000 0.71864  0.87486  0.45607  Biso   1.000  O 
  O48      1.0000 0.72558  0.87583  0.20544  Biso   1.000  O 
  Hf24     1.0000 0.13547  0.52267  0.67265  Biso   1.000  Hf
  Hf25     1.0000 0.13633  0.73402  0.92037  Biso   1.000  Hf
  Hf26     1.0000 0.35805  0.77305  0.67006  Biso   1.000  Hf
  Hf27     1.0000 0.35752  0.98316  0.92057  Biso   1.000  Hf
  Hf28     1.0000 0.63582  0.52265  0.57949  Biso   1.000  Hf
  Hf29     1.0000 0.63468  0.73164  0.82850  Biso   1.000  Hf
  Hf30     1.0000 0.85755  0.77196  0.57986  Biso   1.000  Hf
  Hf31     1.0000 0.85915  0.98207  0.82925  Biso   1.000  Hf
  O49      1.0000 0.03053  0.66852  0.58603  Biso   1.000  O 
  O50      1.0000 0.03130  0.58309  0.83750  Biso   1.000  O 
  O51      1.0000 0.46232  0.91977  0.58416  Biso   1.000  O 
  O52      1.0000 0.46276  0.83517  0.83319  Biso   1.000  O 
  O53      1.0000 0.27324  0.62599  0.79390  Biso   1.000  O 
  O54      1.0000 0.27295  0.62741  0.54434  Biso   1.000  O 
  O55      1.0000 0.21953  0.87554  0.79077  Biso   1.000  O 
  O56      1.0000 0.22085  0.87801  0.54109  Biso   1.000  O 
  O57      1.0000 0.53147  0.66993  0.66337  Biso   1.000  O 
  O58      1.0000 0.52969  0.58489  0.91398  Biso   1.000  O 
  O59      1.0000 0.96226  0.92022  0.66291  Biso   1.000  O 
  O60      1.0000 0.96171  0.83396  0.91369  Biso   1.000  O 
  O61      1.0000 0.77258  0.62579  0.95617  Biso   1.000  O 
  O62      1.0000 0.77401  0.62739  0.70667  Biso   1.000  O 
  O63      1.0000 0.71980  0.87622  0.95492  Biso   1.000  O 
  O64      1.0000 0.72059  0.87829  0.70547  Biso   1.000  O 
