data_image0
_cell_length_a       10.022
_cell_length_b       10.213
_cell_length_c       10.022
_cell_angle_alpha    90
_cell_angle_beta     90
_cell_angle_gamma    90

_symmetry_space_group_name_H-M    "P 1"
_symmetry_int_tables_number       1

loop_
  _symmetry_equiv_pos_as_xyz
  'x, y, z'

loop_
  _atom_site_label
  _atom_site_occupancy
  _atom_site_fract_x
  _atom_site_fract_y
  _atom_site_fract_z
  _atom_site_thermal_displace_type
  _atom_site_B_iso_or_equiv
  _atom_site_type_symbol
  Ag1      1.0000 0.12659  0.97707  0.12490  Biso   1.000  Ag
  Hf1      1.0000 0.13393  0.25297  0.37115  Biso   1.000  Hf
  Hf2      1.0000 0.37294  0.25297  0.12878  Biso   1.000  Hf
  Hf3      1.0000 0.38605  0.00649  0.38078  Biso   1.000  Hf
  O1       1.0000 0.98933  0.15549  0.97561  Biso   1.000  O 
  O2       1.0000 0.01831  0.10313  0.23476  Biso   1.000  O 
  O3       1.0000 0.00289  0.35275  0.25043  Biso   1.000  O 
  O4       1.0000 0.00130  0.40027  0.00134  Biso   1.000  O 
  O5       1.0000 0.27794  0.15545  0.27412  Biso   1.000  O 
  O6       1.0000 0.23493  0.10315  0.01508  Biso   1.000  O 
  O7       1.0000 0.26441  0.35282  0.99934  Biso   1.000  O 
  O8       1.0000 0.25197  0.40030  0.24852  Biso   1.000  O 
  Hf4      1.0000 0.13361  0.99281  0.62490  Biso   1.000  Hf
  Hf5      1.0000 0.13337  0.25301  0.87862  Biso   1.000  Hf
  Hf6      1.0000 0.38101  0.24936  0.62843  Biso   1.000  Hf
  Hf7      1.0000 0.38120  0.00452  0.88092  Biso   1.000  Hf
  O9       1.0000 0.00510  0.14917  0.48594  Biso   1.000  O 
  O10      1.0000 0.00399  0.10082  0.73443  Biso   1.000  O 
  O11      1.0000 0.01059  0.35196  0.74870  Biso   1.000  O 
  O12      1.0000 0.00631  0.39921  0.50070  Biso   1.000  O 
  O13      1.0000 0.26213  0.14917  0.76379  Biso   1.000  O 
  O14      1.0000 0.26326  0.10088  0.51529  Biso   1.000  O 
  O15      1.0000 0.25670  0.35200  0.50106  Biso   1.000  O 
  O16      1.0000 0.26097  0.39922  0.74907  Biso   1.000  O 
  Hf8      1.0000 0.12665  0.50772  0.12490  Biso   1.000  Hf
  Hf9      1.0000 0.13634  0.75043  0.37905  Biso   1.000  Hf
  Hf10     1.0000 0.38090  0.75042  0.13101  Biso   1.000  Hf
  Hf11     1.0000 0.38071  0.49686  0.37544  Biso   1.000  Hf
  O17      1.0000 0.00389  0.64616  0.00384  Biso   1.000  O 
  O18      1.0000 0.00046  0.60514  0.25277  Biso   1.000  O 
  O19      1.0000 0.01598  0.85032  0.23711  Biso   1.000  O 
  O20      1.0000 0.99797  0.89103  0.98401  Biso   1.000  O 
  O21      1.0000 0.24932  0.64621  0.24586  Biso   1.000  O 
  O22      1.0000 0.26677  0.60522  0.99683  Biso   1.000  O 
  O23      1.0000 0.23739  0.85040  0.01257  Biso   1.000  O 
  O24      1.0000 0.26939  0.89102  0.26557  Biso   1.000  O 
  Hf12     1.0000 0.13367  0.50106  0.62485  Biso   1.000  Hf
  Hf13     1.0000 0.13100  0.75043  0.87064  Biso   1.000  Hf
  Hf14     1.0000 0.38750  0.74930  0.62777  Biso   1.000  Hf
  Hf15     1.0000 0.38728  0.49869  0.87473  Biso   1.000  Hf
  O25      1.0000 0.00850  0.64801  0.50328  Biso   1.000  O 
  O26      1.0000 0.01132  0.60225  0.75423  Biso   1.000  O 
  O27      1.0000 0.00957  0.85000  0.73888  Biso   1.000  O 
  O28      1.0000 0.01379  0.89898  0.48808  Biso   1.000  O 
  O29      1.0000 0.25875  0.64801  0.74631  Biso   1.000  O 
  O30      1.0000 0.25593  0.60228  0.49540  Biso   1.000  O 
  O31      1.0000 0.25787  0.85009  0.51069  Biso   1.000  O 
  O32      1.0000 0.25363  0.89896  0.76152  Biso   1.000  O 
  Hf16     1.0000 0.62662  0.99278  0.12496  Biso   1.000  Hf
  Hf17     1.0000 0.63366  0.24932  0.37222  Biso   1.000  Hf
  Hf18     1.0000 0.88035  0.25296  0.12111  Biso   1.000  Hf
  Hf19     1.0000 0.88608  0.00446  0.36891  Biso   1.000  Hf
  O33      1.0000 0.49991  0.14922  0.99824  Biso   1.000  O 
  O34      1.0000 0.51888  0.10081  0.25605  Biso   1.000  O 
  O35      1.0000 0.50456  0.35195  0.24972  Biso   1.000  O 
  O36      1.0000 0.51472  0.39925  0.99925  Biso   1.000  O 
  O37      1.0000 0.76731  0.14912  0.25145  Biso   1.000  O 
  O38      1.0000 0.74836  0.10089  0.99363  Biso   1.000  O 
  O39      1.0000 0.74872  0.35194  0.00016  Biso   1.000  O 
  O40      1.0000 0.75261  0.39918  0.25051  Biso   1.000  O 
  Hf20     1.0000 0.63362  0.00473  0.62492  Biso   1.000  Hf
  Hf21     1.0000 0.63366  0.24938  0.87754  Biso   1.000  Hf
  Hf22     1.0000 0.88627  0.24935  0.62135  Biso   1.000  Hf
  Hf23     1.0000 0.88119  0.00650  0.86903  Biso   1.000  Hf
  O41      1.0000 0.51137  0.15046  0.50432  Biso   1.000  O 
  O42      1.0000 0.50779  0.10125  0.75247  Biso   1.000  O 
  O43      1.0000 0.51073  0.35197  0.74954  Biso   1.000  O 
  O44      1.0000 0.50663  0.39759  0.49963  Biso   1.000  O 
  O45      1.0000 0.75587  0.15046  0.74542  Biso   1.000  O 
  O46      1.0000 0.75945  0.10120  0.49725  Biso   1.000  O 
  O47      1.0000 0.75655  0.35194  0.50023  Biso   1.000  O 
  O48      1.0000 0.76066  0.39760  0.75013  Biso   1.000  O 
  Hf24     1.0000 0.62665  0.50103  0.12493  Biso   1.000  Hf
  Hf25     1.0000 0.63312  0.74925  0.37868  Biso   1.000  Hf
  Hf26     1.0000 0.87238  0.75039  0.11877  Biso   1.000  Hf
  Hf27     1.0000 0.88005  0.49867  0.37501  Biso   1.000  Hf
  O49      1.0000 0.50335  0.64798  0.00147  Biso   1.000  O 
  O50      1.0000 0.49893  0.60222  0.24900  Biso   1.000  O 
  O51      1.0000 0.51434  0.84998  0.25059  Biso   1.000  O 
  O52      1.0000 0.48828  0.89894  0.00687  Biso   1.000  O 
  O53      1.0000 0.74987  0.64798  0.24828  Biso   1.000  O 
  O54      1.0000 0.75430  0.60224  0.00077  Biso   1.000  O 
  O55      1.0000 0.75305  0.85010  0.99901  Biso   1.000  O 
  O56      1.0000 0.76506  0.89894  0.24285  Biso   1.000  O 
  Hf28     1.0000 0.63365  0.49583  0.62487  Biso   1.000  Hf
  Hf29     1.0000 0.63420  0.74929  0.87102  Biso   1.000  Hf
  Hf30     1.0000 0.87981  0.74925  0.62194  Biso   1.000  Hf
  Hf31     1.0000 0.88661  0.49688  0.87429  Biso   1.000  Hf
  O57      1.0000 0.50727  0.64636  0.50023  Biso   1.000  O 
  O58      1.0000 0.51055  0.60253  0.74966  Biso   1.000  O 
  O59      1.0000 0.50400  0.85377  0.75634  Biso   1.000  O 
  O60      1.0000 0.51085  0.89672  0.50366  Biso   1.000  O 
  O61      1.0000 0.75999  0.64636  0.74944  Biso   1.000  O 
  O62      1.0000 0.75671  0.60249  0.50002  Biso   1.000  O 
  O63      1.0000 0.76345  0.85371  0.49322  Biso   1.000  O 
  O64      1.0000 0.75654  0.89673  0.74593  Biso   1.000  O 
