data_image0
_cell_length_a       10.0527
_cell_length_b       5.06385
_cell_length_c       10.1714
_cell_angle_alpha    90
_cell_angle_beta     90
_cell_angle_gamma    90

_symmetry_space_group_name_H-M    "P 1"
_symmetry_int_tables_number       1

loop_
  _symmetry_equiv_pos_as_xyz
  'x, y, z'

loop_
  _atom_site_label
  _atom_site_occupancy
  _atom_site_fract_x
  _atom_site_fract_y
  _atom_site_fract_z
  _atom_site_thermal_displace_type
  _atom_site_B_iso_or_equiv
  _atom_site_type_symbol
  Ag1      1.0000 0.11424  0.01342  0.14784  Biso   1.000  Ag
  Hf1      1.0000 0.15024  0.51198  0.38276  Biso   1.000  Hf
  Hf2      1.0000 0.36914  0.53939  0.11193  Biso   1.000  Hf
  Hf3      1.0000 0.41579  0.98664  0.37400  Biso   1.000  Hf
  O1       1.0000 0.98413  0.17911  0.02770  Biso   1.000  O 
  O2       1.0000 0.01512  0.24028  0.27953  Biso   1.000  O 
  O3       1.0000 0.01488  0.71131  0.23472  Biso   1.000  O 
  O4       1.0000 0.97969  0.66161  0.96481  Biso   1.000  O 
  O5       1.0000 0.27776  0.30629  0.24748  Biso   1.000  O 
  O6       1.0000 0.24671  0.30255  0.97976  Biso   1.000  O 
  O7       1.0000 0.24420  0.80530  0.01070  Biso   1.000  O 
  O8       1.0000 0.26844  0.79927  0.26232  Biso   1.000  O 
  Hf4      1.0000 0.13091  0.01387  0.61643  Biso   1.000  Hf
  Hf5      1.0000 0.13633  0.52963  0.85631  Biso   1.000  Hf
  Hf6      1.0000 0.39619  0.47268  0.62452  Biso   1.000  Hf
  Hf7      1.0000 0.35491  0.02844  0.88437  Biso   1.000  Hf
  O9       1.0000 0.04139  0.34899  0.53415  Biso   1.000  O 
  O10      1.0000 0.00518  0.24999  0.77269  Biso   1.000  O 
  O11      1.0000 0.02281  0.76130  0.71694  Biso   1.000  O 
  O12      1.0000 0.05815  0.84832  0.46298  Biso   1.000  O 
  O13      1.0000 0.25500  0.27475  0.73196  Biso   1.000  O 
  O14      1.0000 0.27101  0.22287  0.48810  Biso   1.000  O 
  O15      1.0000 0.28801  0.72346  0.51212  Biso   1.000  O 
  O16      1.0000 0.27351  0.77535  0.76387  Biso   1.000  O 
  Hf8      1.0000 0.64842  0.97443  0.12098  Biso   1.000  Hf
  Hf9      1.0000 0.63696  0.46713  0.36357  Biso   1.000  Hf
  Hf10     1.0000 0.89121  0.48104  0.12646  Biso   1.000  Hf
  Hf11     1.0000 0.89553  0.98136  0.36768  Biso   1.000  Hf
  O17      1.0000 0.49198  0.25489  0.02770  Biso   1.000  O 
  O18      1.0000 0.52797  0.18301  0.27740  Biso   1.000  O 
  O19      1.0000 0.51477  0.70202  0.22920  Biso   1.000  O 
  O20      1.0000 0.49631  0.74014  0.97425  Biso   1.000  O 
  O21      1.0000 0.76248  0.21606  0.21794  Biso   1.000  O 
  O22      1.0000 0.72491  0.13743  0.96647  Biso   1.000  O 
  O23      1.0000 0.73221  0.64285  0.03653  Biso   1.000  O 
  O24      1.0000 0.76747  0.73029  0.27451  Biso   1.000  O 
  Hf12     1.0000 0.64861  0.95496  0.63838  Biso   1.000  Hf
  Hf13     1.0000 0.62904  0.46457  0.87999  Biso   1.000  Hf
  Hf14     1.0000 0.88098  0.48687  0.63320  Biso   1.000  Hf
  Hf15     1.0000 0.90802  0.98436  0.86387  Biso   1.000  Hf
  O25      1.0000 0.52637  0.24402  0.52088  Biso   1.000  O 
  O26      1.0000 0.50125  0.19565  0.77325  Biso   1.000  O 
  O27      1.0000 0.53075  0.68361  0.72704  Biso   1.000  O 
  O28      1.0000 0.54323  0.74500  0.48097  Biso   1.000  O 
  O29      1.0000 0.75307  0.22846  0.72407  Biso   1.000  O 
  O30      1.0000 0.79108  0.30655  0.46682  Biso   1.000  O 
  O31      1.0000 0.80351  0.80425  0.53199  Biso   1.000  O 
  O32      1.0000 0.76961  0.71700  0.78089  Biso   1.000  O 
