data_image0
_cell_length_a       10.0221
_cell_length_b       5.12086
_cell_length_c       10.4376
_cell_angle_alpha    90
_cell_angle_beta     90
_cell_angle_gamma    90

_symmetry_space_group_name_H-M    "P 1"
_symmetry_int_tables_number       1

loop_
  _symmetry_equiv_pos_as_xyz
  'x, y, z'

loop_
  _atom_site_label
  _atom_site_occupancy
  _atom_site_fract_x
  _atom_site_fract_y
  _atom_site_fract_z
  _atom_site_thermal_displace_type
  _atom_site_B_iso_or_equiv
  _atom_site_type_symbol
  Ag1      1.0000 0.12314  0.03375  0.18721  Biso   1.000  Ag
  Hf1      1.0000 0.13138  0.46832  0.42052  Biso   1.000  Hf
  Hf2      1.0000 0.35772  0.54575  0.16264  Biso   1.000  Hf
  Hf3      1.0000 0.35626  0.96571  0.41838  Biso   1.000  Hf
  Hf4      1.0000 0.63917  0.04210  0.07788  Biso   1.000  Hf
  Hf5      1.0000 0.63113  0.46155  0.32784  Biso   1.000  Hf
  Hf6      1.0000 0.86490  0.53247  0.08055  Biso   1.000  Hf
  Hf7      1.0000 0.85124  0.96258  0.33469  Biso   1.000  Hf
  O1       1.0000 0.04395  0.33599  0.09084  Biso   1.000  O 
  O2       1.0000 0.02054  0.17006  0.35521  Biso   1.000  O 
  O3       1.0000 0.47136  0.83484  0.08378  Biso   1.000  O 
  O4       1.0000 0.45591  0.66258  0.33525  Biso   1.000  O 
  O5       1.0000 0.26846  0.25236  0.28860  Biso   1.000  O 
  O6       1.0000 0.29642  0.27822  0.02878  Biso   1.000  O 
  O7       1.0000 0.21630  0.75134  0.28995  Biso   1.000  O 
  O8       1.0000 0.22913  0.75892  0.03870  Biso   1.000  O 
  O9       1.0000 0.53414  0.33906  0.16233  Biso   1.000  O 
  O10      1.0000 0.52709  0.16569  0.41201  Biso   1.000  O 
  O11      1.0000 0.95404  0.84929  0.16531  Biso   1.000  O 
  O12      1.0000 0.95730  0.66975  0.41614  Biso   1.000  O 
  O13      1.0000 0.76648  0.25415  0.45821  Biso   1.000  O 
  O14      1.0000 0.77377  0.25462  0.20805  Biso   1.000  O 
  O15      1.0000 0.71437  0.75297  0.45696  Biso   1.000  O 
  O16      1.0000 0.72413  0.75118  0.20658  Biso   1.000  O 
  Hf8      1.0000 0.12921  0.04841  0.66919  Biso   1.000  Hf
  Hf9      1.0000 0.13435  0.46491  0.92028  Biso   1.000  Hf
  Hf10     1.0000 0.35331  0.55045  0.66942  Biso   1.000  Hf
  Hf11     1.0000 0.35148  0.97122  0.92000  Biso   1.000  Hf
  Hf12     1.0000 0.62868  0.04867  0.58115  Biso   1.000  Hf
  Hf13     1.0000 0.62956  0.46824  0.82943  Biso   1.000  Hf
  Hf14     1.0000 0.85223  0.54811  0.58126  Biso   1.000  Hf
  Hf15     1.0000 0.85629  0.96460  0.83194  Biso   1.000  Hf
  O17      1.0000 0.02690  0.34767  0.58756  Biso   1.000  O 
  O18      1.0000 0.02615  0.17055  0.83589  Biso   1.000  O 
  O19      1.0000 0.45777  0.84581  0.58419  Biso   1.000  O 
  O20      1.0000 0.45782  0.67476  0.83266  Biso   1.000  O 
  O21      1.0000 0.26695  0.25238  0.78696  Biso   1.000  O 
  O22      1.0000 0.26886  0.26131  0.53948  Biso   1.000  O 
  O23      1.0000 0.21533  0.75295  0.79148  Biso   1.000  O 
  O24      1.0000 0.21631  0.76123  0.54134  Biso   1.000  O 
  O25      1.0000 0.52683  0.34672  0.66225  Biso   1.000  O 
  O26      1.0000 0.52742  0.16963  0.91085  Biso   1.000  O 
  O27      1.0000 0.95846  0.84091  0.66645  Biso   1.000  O 
  O28      1.0000 0.95797  0.66783  0.92014  Biso   1.000  O 
  O29      1.0000 0.76813  0.25584  0.95753  Biso   1.000  O 
  O30      1.0000 0.76848  0.25939  0.70765  Biso   1.000  O 
  O31      1.0000 0.71543  0.75460  0.95704  Biso   1.000  O 
  O32      1.0000 0.71664  0.76114  0.70677  Biso   1.000  O 
