data_image0
_cell_length_a       10.0187
_cell_length_b       5.07473
_cell_length_c       10.4196
_cell_angle_alpha    90
_cell_angle_beta     90
_cell_angle_gamma    90

_symmetry_space_group_name_H-M    "P 1"
_symmetry_int_tables_number       1

loop_
  _symmetry_equiv_pos_as_xyz
  'x, y, z'

loop_
  _atom_site_label
  _atom_site_occupancy
  _atom_site_fract_x
  _atom_site_fract_y
  _atom_site_fract_z
  _atom_site_thermal_displace_type
  _atom_site_B_iso_or_equiv
  _atom_site_type_symbol
  Al1      1.0000 0.12129  0.01857  0.18822  Biso   1.000  Al
  Hf1      1.0000 0.13367  0.45381  0.41522  Biso   1.000  Hf
  Hf2      1.0000 0.35217  0.54953  0.17016  Biso   1.000  Hf
  Hf3      1.0000 0.35427  0.96075  0.41717  Biso   1.000  Hf
  Hf4      1.0000 0.64015  0.03979  0.07778  Biso   1.000  Hf
  Hf5      1.0000 0.63396  0.45724  0.32695  Biso   1.000  Hf
  Hf6      1.0000 0.87229  0.53097  0.08320  Biso   1.000  Hf
  Hf7      1.0000 0.85888  0.95525  0.33005  Biso   1.000  Hf
  O1       1.0000 0.04837  0.30606  0.09036  Biso   1.000  O 
  O2       1.0000 0.02807  0.15911  0.33346  Biso   1.000  O 
  O3       1.0000 0.47247  0.82795  0.08339  Biso   1.000  O 
  O4       1.0000 0.46154  0.66720  0.33432  Biso   1.000  O 
  O5       1.0000 0.26549  0.23677  0.28170  Biso   1.000  O 
  O6       1.0000 0.30160  0.30280  0.02578  Biso   1.000  O 
  O7       1.0000 0.21392  0.75059  0.29442  Biso   1.000  O 
  O8       1.0000 0.22006  0.79812  0.05332  Biso   1.000  O 
  O9       1.0000 0.53137  0.33183  0.16436  Biso   1.000  O 
  O10      1.0000 0.52533  0.16650  0.41286  Biso   1.000  O 
  O11      1.0000 0.97253  0.82403  0.17025  Biso   1.000  O 
  O12      1.0000 0.96084  0.66195  0.41678  Biso   1.000  O 
  O13      1.0000 0.76872  0.24476  0.45540  Biso   1.000  O 
  O14      1.0000 0.77530  0.24831  0.20524  Biso   1.000  O 
  O15      1.0000 0.71833  0.74520  0.45600  Biso   1.000  O 
  O16      1.0000 0.72701  0.74654  0.20547  Biso   1.000  O 
  Hf8      1.0000 0.12982  0.03948  0.66958  Biso   1.000  Hf
  Hf9      1.0000 0.13329  0.45580  0.92394  Biso   1.000  Hf
  Hf10     1.0000 0.35342  0.54316  0.67097  Biso   1.000  Hf
  Hf11     1.0000 0.35009  0.96283  0.92538  Biso   1.000  Hf
  Hf12     1.0000 0.62900  0.03935  0.57845  Biso   1.000  Hf
  Hf13     1.0000 0.63140  0.45782  0.82977  Biso   1.000  Hf
  Hf14     1.0000 0.85425  0.53703  0.57990  Biso   1.000  Hf
  Hf15     1.0000 0.85682  0.95366  0.83143  Biso   1.000  Hf
  O17      1.0000 0.02578  0.32542  0.58156  Biso   1.000  O 
  O18      1.0000 0.02390  0.17064  0.83448  Biso   1.000  O 
  O19      1.0000 0.46039  0.83396  0.58327  Biso   1.000  O 
  O20      1.0000 0.46096  0.67338  0.83294  Biso   1.000  O 
  O21      1.0000 0.26615  0.24320  0.78798  Biso   1.000  O 
  O22      1.0000 0.26963  0.25475  0.53928  Biso   1.000  O 
  O23      1.0000 0.21719  0.74495  0.79780  Biso   1.000  O 
  O24      1.0000 0.21744  0.75209  0.54392  Biso   1.000  O 
  O25      1.0000 0.52587  0.33422  0.66441  Biso   1.000  O 
  O26      1.0000 0.52535  0.16252  0.91314  Biso   1.000  O 
  O27      1.0000 0.96250  0.82335  0.66899  Biso   1.000  O 
  O28      1.0000 0.96056  0.66445  0.92260  Biso   1.000  O 
  O29      1.0000 0.76866  0.24146  0.95663  Biso   1.000  O 
  O30      1.0000 0.76855  0.24929  0.70590  Biso   1.000  O 
  O31      1.0000 0.71853  0.74007  0.95723  Biso   1.000  O 
  O32      1.0000 0.71802  0.75148  0.70645  Biso   1.000  O 
