data_image0
_cell_length_a       10.0891
_cell_length_b       10.4559
_cell_length_c       10.0784
_cell_angle_alpha    90
_cell_angle_beta     90
_cell_angle_gamma    90

_symmetry_space_group_name_H-M    "P 1"
_symmetry_int_tables_number       1

loop_
  _symmetry_equiv_pos_as_xyz
  'x, y, z'

loop_
  _atom_site_label
  _atom_site_occupancy
  _atom_site_fract_x
  _atom_site_fract_y
  _atom_site_fract_z
  _atom_site_thermal_displace_type
  _atom_site_B_iso_or_equiv
  _atom_site_type_symbol
  Hf1      1.0000 0.13975  0.00693  0.11809  Biso   1.000  Hf
  Hf2      1.0000 0.10059  0.20250  0.39719  Biso   1.000  Hf
  Hf3      1.0000 0.38637  0.26928  0.13435  Biso   1.000  Hf
  Hf4      1.0000 0.40535  0.95770  0.38635  Biso   1.000  Hf
  O1       1.0000 0.00782  0.16553  0.02691  Biso   1.000  O 
  O2       1.0000 0.03875  0.03346  0.30227  Biso   1.000  O 
  O3       1.0000 0.97361  0.28445  0.26302  Biso   1.000  O 
  O4       1.0000 0.97444  0.41339  0.06105  Biso   1.000  O 
  O5       1.0000 0.20927  0.19029  0.20801  Biso   1.000  O 
  O6       1.0000 0.23316  0.02011  0.96319  Biso   1.000  O 
  O7       1.0000 0.21624  0.27013  0.99520  Biso   1.000  O 
  O8       1.0000 0.29435  0.43525  0.21883  Biso   1.000  O 
  Hf5      1.0000 0.14066  0.95826  0.59921  Biso   1.000  Hf
  Hf6      1.0000 0.14077  0.15456  0.83799  Biso   1.000  Hf
  Hf7      1.0000 0.36897  0.21181  0.59388  Biso   1.000  Hf
  Hf8      1.0000 0.37463  0.91438  0.86296  Biso   1.000  Hf
  O9       1.0000 0.02761  0.12343  0.56374  Biso   1.000  O 
  O10      1.0000 0.03949  0.99448  0.77478  Biso   1.000  O 
  O11      1.0000 0.96735  0.24545  0.79708  Biso   1.000  O 
  O12      1.0000 0.98911  0.35761  0.50503  Biso   1.000  O 
  O13      1.0000 0.28019  0.06473  0.71741  Biso   1.000  O 
  O14      1.0000 0.25809  0.07808  0.46784  Biso   1.000  O 
  O15      1.0000 0.24500  0.32679  0.47145  Biso   1.000  O 
  O16      1.0000 0.22605  0.31378  0.72597  Biso   1.000  O 
  Hf9      1.0000 0.14590  0.53702  0.12422  Biso   1.000  Hf
  Hf10     1.0000 0.10097  0.70999  0.39166  Biso   1.000  Hf
  Hf11     1.0000 0.36621  0.76789  0.12090  Biso   1.000  Hf
  Hf12     1.0000 0.40211  0.46337  0.38925  Biso   1.000  Hf
  O17      1.0000 0.01731  0.65601  0.01049  Biso   1.000  O 
  O18      1.0000 0.03471  0.53946  0.29907  Biso   1.000  O 
  O19      1.0000 0.96164  0.78539  0.27345  Biso   1.000  O 
  O20      1.0000 0.97762  0.91441  0.05284  Biso   1.000  O 
  O21      1.0000 0.21888  0.68917  0.22703  Biso   1.000  O 
  O22      1.0000 0.27753  0.53627  0.98048  Biso   1.000  O 
  O23      1.0000 0.23285  0.77933  0.98660  Biso   1.000  O 
  O24      1.0000 0.29480  0.93648  0.21840  Biso   1.000  O 
  Hf13     1.0000 0.14072  0.46134  0.59748  Biso   1.000  Hf
  Hf14     1.0000 0.14377  0.65958  0.84947  Biso   1.000  Hf
  Hf15     1.0000 0.36773  0.71447  0.59968  Biso   1.000  Hf
  Hf16     1.0000 0.36561  0.40783  0.84972  Biso   1.000  Hf
  O25      1.0000 0.02215  0.61871  0.55381  Biso   1.000  O 
  O26      1.0000 0.04907  0.49473  0.77494  Biso   1.000  O 
  O27      1.0000 0.97051  0.74300  0.79322  Biso   1.000  O 
  O28      1.0000 0.99151  0.85904  0.51044  Biso   1.000  O 
  O29      1.0000 0.27948  0.56369  0.72370  Biso   1.000  O 
  O30      1.0000 0.25821  0.57966  0.47443  Biso   1.000  O 
  O31      1.0000 0.24840  0.82850  0.47268  Biso   1.000  O 
  O32      1.0000 0.22690  0.81555  0.72688  Biso   1.000  O 
  Hf17     1.0000 0.63257  0.01053  0.09810  Biso   1.000  Hf
  Hf18     1.0000 0.64605  0.19745  0.34668  Biso   1.000  Hf
  Hf19     1.0000 0.82763  0.24603  0.10021  Biso   1.000  Hf
  Hf20     1.0000 0.86658  0.94549  0.35097  Biso   1.000  Hf
  O33      1.0000 0.47289  0.12946  0.00928  Biso   1.000  O 
  O34      1.0000 0.53507  0.04394  0.26787  Biso   1.000  O 
  O35      1.0000 0.47030  0.28860  0.31040  Biso   1.000  O 
  O36      1.0000 0.48250  0.39760  0.01356  Biso   1.000  O 
  O37      1.0000 0.78786  0.09269  0.22715  Biso   1.000  O 
  O38      1.0000 0.75165  0.03347  0.95759  Biso   1.000  O 
  O39      1.0000 0.73765  0.29053  0.96437  Biso   1.000  O 
  O40      1.0000 0.73303  0.36252  0.23625  Biso   1.000  O 
  Hf21     1.0000 0.64446  0.97974  0.61230  Biso   1.000  Hf
  Hf22     1.0000 0.59558  0.16104  0.88539  Biso   1.000  Hf
  Hf23     1.0000 0.85702  0.23010  0.62144  Biso   1.000  Hf
  Hf24     1.0000 0.89979  0.91360  0.88032  Biso   1.000  Hf
  O41      1.0000 0.51701  0.11047  0.50421  Biso   1.000  O 
  O42      1.0000 0.53409  0.99198  0.77943  Biso   1.000  O 
  O43      1.0000 0.45708  0.24442  0.77396  Biso   1.000  O 
  O44      1.0000 0.47720  0.37633  0.55787  Biso   1.000  O 
  O45      1.0000 0.71005  0.14478  0.71671  Biso   1.000  O 
  O46      1.0000 0.77636  0.08181  0.47989  Biso   1.000  O 
  O47      1.0000 0.73168  0.33138  0.48454  Biso   1.000  O 
  O48      1.0000 0.79317  0.39717  0.71785  Biso   1.000  O 
  Hf25     1.0000 0.64111  0.50298  0.09808  Biso   1.000  Hf
  Hf26     1.0000 0.64216  0.69911  0.35119  Biso   1.000  Hf
  Hf27     1.0000 0.86188  0.75278  0.09685  Biso   1.000  Hf
  Hf28     1.0000 0.86798  0.45133  0.35845  Biso   1.000  Hf
  O49      1.0000 0.52591  0.65767  0.05477  Biso   1.000  O 
  O50      1.0000 0.54641  0.53569  0.27597  Biso   1.000  O 
  O51      1.0000 0.47338  0.78724  0.29573  Biso   1.000  O 
  O52      1.0000 0.49234  0.89306  0.01179  Biso   1.000  O 
  O53      1.0000 0.77793  0.60651  0.22389  Biso   1.000  O 
  O54      1.0000 0.76003  0.53680  0.96894  Biso   1.000  O 
  O55      1.0000 0.74484  0.78735  0.96777  Biso   1.000  O 
  O56      1.0000 0.72510  0.85501  0.22422  Biso   1.000  O 
  Hf29     1.0000 0.64378  0.47864  0.61780  Biso   1.000  Hf
  Hf30     1.0000 0.60160  0.66720  0.88551  Biso   1.000  Hf
  Hf31     1.0000 0.85981  0.72733  0.61798  Biso   1.000  Hf
  Hf32     1.0000 0.90614  0.41713  0.88545  Biso   1.000  Hf
  O57      1.0000 0.51703  0.61291  0.50870  Biso   1.000  O 
  O58      1.0000 0.53312  0.49334  0.79547  Biso   1.000  O 
  O59      1.0000 0.45753  0.74541  0.77706  Biso   1.000  O 
  O60      1.0000 0.48520  0.87019  0.54900  Biso   1.000  O 
  O61      1.0000 0.71168  0.64389  0.71696  Biso   1.000  O 
  O62      1.0000 0.77250  0.58053  0.48094  Biso   1.000  O 
  O63      1.0000 0.73610  0.82958  0.47910  Biso   1.000  O 
  O64      1.0000 0.79124  0.89142  0.71457  Biso   1.000  O 
  Al1      1.0000 0.09081  0.28926  0.12086  Biso   1.000  Al
