data_image0
_cell_length_a       10.045
_cell_length_b       5.17076
_cell_length_c       10.4909
_cell_angle_alpha    90
_cell_angle_beta     90
_cell_angle_gamma    90

_symmetry_space_group_name_H-M    "P 1"
_symmetry_int_tables_number       1

loop_
  _symmetry_equiv_pos_as_xyz
  'x, y, z'

loop_
  _atom_site_label
  _atom_site_occupancy
  _atom_site_fract_x
  _atom_site_fract_y
  _atom_site_fract_z
  _atom_site_thermal_displace_type
  _atom_site_B_iso_or_equiv
  _atom_site_type_symbol
  Hf1      1.0000 0.13160  0.03898  0.17431  Biso   1.000  Hf
  Hf2      1.0000 0.12449  0.45196  0.42653  Biso   1.000  Hf
  Hf3      1.0000 0.33840  0.54003  0.18417  Biso   1.000  Hf
  Hf4      1.0000 0.34853  0.95322  0.42851  Biso   1.000  Hf
  Hf5      1.0000 0.64955  0.10866  0.06308  Biso   1.000  Hf
  Hf6      1.0000 0.62927  0.45392  0.33950  Biso   1.000  Hf
  Hf7      1.0000 0.86494  0.53678  0.07541  Biso   1.000  Hf
  Hf8      1.0000 0.84900  0.95346  0.32690  Biso   1.000  Hf
  O1       1.0000 0.03612  0.33233  0.08622  Biso   1.000  O 
  O2       1.0000 0.02324  0.15893  0.33727  Biso   1.000  O 
  O3       1.0000 0.46888  0.83279  0.08615  Biso   1.000  O 
  O4       1.0000 0.45328  0.66259  0.34045  Biso   1.000  O 
  O5       1.0000 0.26523  0.24588  0.29940  Biso   1.000  O 
  O6       1.0000 0.27806  0.24651  0.04818  Biso   1.000  O 
  O7       1.0000 0.20881  0.74752  0.30233  Biso   1.000  O 
  O8       1.0000 0.22172  0.75144  0.05123  Biso   1.000  O 
  O9       1.0000 0.52038  0.35148  0.17002  Biso   1.000  O 
  O10      1.0000 0.52245  0.16198  0.41657  Biso   1.000  O 
  O11      1.0000 0.95541  0.83725  0.16623  Biso   1.000  O 
  O12      1.0000 0.95361  0.66074  0.41604  Biso   1.000  O 
  O13      1.0000 0.76599  0.24273  0.45586  Biso   1.000  O 
  O14      1.0000 0.77553  0.26036  0.21046  Biso   1.000  O 
  O15      1.0000 0.71066  0.74568  0.45428  Biso   1.000  O 
  O16      1.0000 0.70447  0.74455  0.19767  Biso   1.000  O 
  Hf9      1.0000 0.12856  0.03869  0.67242  Biso   1.000  Hf
  Hf10     1.0000 0.12315  0.45485  0.92225  Biso   1.000  Hf
  Hf11     1.0000 0.34982  0.53817  0.67547  Biso   1.000  Hf
  Hf12     1.0000 0.34106  0.95845  0.92099  Biso   1.000  Hf
  Hf13     1.0000 0.62868  0.03988  0.58057  Biso   1.000  Hf
  Hf14     1.0000 0.62814  0.45475  0.82505  Biso   1.000  Hf
  Hf15     1.0000 0.84973  0.53885  0.57914  Biso   1.000  Hf
  Hf16     1.0000 0.84999  0.95419  0.82492  Biso   1.000  Hf
  O17      1.0000 0.02138  0.32913  0.58691  Biso   1.000  O 
  O18      1.0000 0.02452  0.16284  0.83423  Biso   1.000  O 
  O19      1.0000 0.45320  0.83388  0.58996  Biso   1.000  O 
  O20      1.0000 0.45115  0.65728  0.84270  Biso   1.000  O 
  O21      1.0000 0.26444  0.24652  0.79683  Biso   1.000  O 
  O22      1.0000 0.26505  0.24808  0.54838  Biso   1.000  O 
  O23      1.0000 0.20935  0.74570  0.79879  Biso   1.000  O 
  O24      1.0000 0.21167  0.74498  0.54984  Biso   1.000  O 
  O25      1.0000 0.52228  0.33576  0.66238  Biso   1.000  O 
  O26      1.0000 0.51740  0.14977  0.90154  Biso   1.000  O 
  O27      1.0000 0.95597  0.82838  0.66378  Biso   1.000  O 
  O28      1.0000 0.95243  0.66696  0.91545  Biso   1.000  O 
  O29      1.0000 0.78198  0.24730  0.94335  Biso   1.000  O 
  O30      1.0000 0.76581  0.24614  0.70126  Biso   1.000  O 
  O31      1.0000 0.70562  0.77705  0.95551  Biso   1.000  O 
  O32      1.0000 0.71096  0.74848  0.70351  Biso   1.000  O 
  Al1      1.0000 0.59700  0.60461  0.06894  Biso   1.000  Al
