data_image0
_cell_length_a       10.0478
_cell_length_b       4.99728
_cell_length_c       10.0481
_cell_angle_alpha    90
_cell_angle_beta     90
_cell_angle_gamma    90

_symmetry_space_group_name_H-M    "P 1"
_symmetry_int_tables_number       1

loop_
  _symmetry_equiv_pos_as_xyz
  'x, y, z'

loop_
  _atom_site_label
  _atom_site_occupancy
  _atom_site_fract_x
  _atom_site_fract_y
  _atom_site_fract_z
  _atom_site_thermal_displace_type
  _atom_site_B_iso_or_equiv
  _atom_site_type_symbol
  Al1      1.0000 0.12491  0.00011  0.12491  Biso   1.000  Al
  Hf1      1.0000 0.12491  0.50011  0.37327  Biso   1.000  Hf
  Hf2      1.0000 0.37326  0.50011  0.12491  Biso   1.000  Hf
  Hf3      1.0000 0.37327  0.00295  0.37327  Biso   1.000  Hf
  O1       1.0000 0.97716  0.29957  0.97714  Biso   1.000  O 
  O2       1.0000 0.02107  0.20763  0.22872  Biso   1.000  O 
  O3       1.0000 0.97716  0.70064  0.27268  Biso   1.000  O 
  O4       1.0000 0.02107  0.79259  0.02110  Biso   1.000  O 
  O5       1.0000 0.27266  0.29958  0.27268  Biso   1.000  O 
  O6       1.0000 0.22875  0.20763  0.02110  Biso   1.000  O 
  O7       1.0000 0.27266  0.70063  0.97714  Biso   1.000  O 
  O8       1.0000 0.22875  0.79259  0.22872  Biso   1.000  O 
  Hf4      1.0000 0.12491  0.00011  0.62491  Biso   1.000  Hf
  Hf5      1.0000 0.12491  0.50010  0.87655  Biso   1.000  Hf
  Hf6      1.0000 0.37555  0.50011  0.62491  Biso   1.000  Hf
  Hf7      1.0000 0.37327  0.99725  0.87655  Biso   1.000  Hf
  O9       1.0000 0.98660  0.26869  0.48121  Biso   1.000  O 
  O10      1.0000 0.01064  0.24085  0.73432  Biso   1.000  O 
  O11      1.0000 0.98660  0.73151  0.76861  Biso   1.000  O 
  O12      1.0000 0.01064  0.75936  0.51550  Biso   1.000  O 
  O13      1.0000 0.26322  0.26868  0.76861  Biso   1.000  O 
  O14      1.0000 0.23918  0.24086  0.51550  Biso   1.000  O 
  O15      1.0000 0.26322  0.73152  0.48121  Biso   1.000  O 
  O16      1.0000 0.23918  0.75935  0.73432  Biso   1.000  O 
  Hf8      1.0000 0.62491  0.00011  0.12491  Biso   1.000  Hf
  Hf9      1.0000 0.62491  0.50011  0.37554  Biso   1.000  Hf
  Hf10     1.0000 0.87655  0.50011  0.12491  Biso   1.000  Hf
  Hf11     1.0000 0.87655  0.99726  0.37327  Biso   1.000  Hf
  O17      1.0000 0.48123  0.26871  0.98656  Biso   1.000  O 
  O18      1.0000 0.51546  0.24085  0.23913  Biso   1.000  O 
  O19      1.0000 0.48123  0.73149  0.26326  Biso   1.000  O 
  O20      1.0000 0.51546  0.75937  0.01068  Biso   1.000  O 
  O21      1.0000 0.76858  0.26872  0.26325  Biso   1.000  O 
  O22      1.0000 0.73436  0.24085  0.01068  Biso   1.000  O 
  O23      1.0000 0.76859  0.73148  0.98656  Biso   1.000  O 
  O24      1.0000 0.73436  0.75937  0.23914  Biso   1.000  O 
  Hf12     1.0000 0.62491  0.00011  0.62491  Biso   1.000  Hf
  Hf13     1.0000 0.62491  0.50010  0.87427  Biso   1.000  Hf
  Hf14     1.0000 0.87426  0.50011  0.62491  Biso   1.000  Hf
  Hf15     1.0000 0.87655  0.00295  0.87655  Biso   1.000  Hf
  O25      1.0000 0.48681  0.26401  0.48678  Biso   1.000  O 
  O26      1.0000 0.51131  0.24332  0.73847  Biso   1.000  O 
  O27      1.0000 0.48681  0.73619  0.76304  Biso   1.000  O 
  O28      1.0000 0.51131  0.75688  0.51135  Biso   1.000  O 
  O29      1.0000 0.76300  0.26400  0.76304  Biso   1.000  O 
  O30      1.0000 0.73851  0.24334  0.51135  Biso   1.000  O 
  O31      1.0000 0.76300  0.73621  0.48678  Biso   1.000  O 
  O32      1.0000 0.73851  0.75687  0.73847  Biso   1.000  O 
