data_image0
_cell_length_a       5.14979
_cell_length_b       10.2708
_cell_length_c       10.5126
_cell_angle_alpha    90
_cell_angle_beta     80
_cell_angle_gamma    90

_symmetry_space_group_name_H-M    "P 1"
_symmetry_int_tables_number       1

loop_
  _symmetry_equiv_pos_as_xyz
  'x, y, z'

loop_
  _atom_site_label
  _atom_site_occupancy
  _atom_site_fract_x
  _atom_site_fract_y
  _atom_site_fract_z
  _atom_site_thermal_displace_type
  _atom_site_B_iso_or_equiv
  _atom_site_type_symbol
  Hf1      1.0000 0.28275  0.01673  0.14744  Biso   1.000  Hf
  Hf2      1.0000 0.37193  0.22832  0.39772  Biso   1.000  Hf
  Hf3      1.0000 0.66958  0.27114  0.10452  Biso   1.000  Hf
  Hf4      1.0000 0.73018  0.47747  0.34830  Biso   1.000  Hf
  O1       1.0000 0.04383  0.17496  0.09625  Biso   1.000  O 
  O2       1.0000 0.07435  0.09243  0.32536  Biso   1.000  O 
  O3       1.0000 0.94910  0.40934  0.17389  Biso   1.000  O 
  O4       1.0000 0.00352  0.33174  0.41670  Biso   1.000  O 
  O5       1.0000 0.56612  0.10636  0.23719  Biso   1.000  O 
  O6       1.0000 0.62317  0.11416  0.49455  Biso   1.000  O 
  O7       1.0000 0.41403  0.38312  0.00689  Biso   1.000  O 
  O8       1.0000 0.43152  0.38606  0.25547  Biso   1.000  O 
  Hf5      1.0000 0.32875  0.01911  0.64612  Biso   1.000  Hf
  Hf6      1.0000 0.32406  0.23139  0.89212  Biso   1.000  Hf
  Hf7      1.0000 0.78652  0.26567  0.60186  Biso   1.000  Hf
  Hf8      1.0000 0.77534  0.47619  0.84804  Biso   1.000  Hf
  O9       1.0000 0.13678  0.16588  0.57549  Biso   1.000  O 
  O10      1.0000 0.11937  0.08347  0.82831  Biso   1.000  O 
  O11      1.0000 0.98724  0.41106  0.67021  Biso   1.000  O 
  O12      1.0000 0.97529  0.33129  0.92121  Biso   1.000  O 
  O13      1.0000 0.60395  0.12736  0.73920  Biso   1.000  O 
  O14      1.0000 0.59192  0.12022  0.98461  Biso   1.000  O 
  O15      1.0000 0.51248  0.37647  0.50970  Biso   1.000  O 
  O16      1.0000 0.50138  0.36852  0.75477  Biso   1.000  O 
  Hf9      1.0000 0.27885  0.52836  0.14541  Biso   1.000  Hf
  Hf10     1.0000 0.29085  0.72375  0.39660  Biso   1.000  Hf
  Hf11     1.0000 0.71689  0.77244  0.10332  Biso   1.000  Hf
  Hf12     1.0000 0.72669  0.96965  0.35476  Biso   1.000  Hf
  O17      1.0000 0.05357  0.66485  0.07606  Biso   1.000  O 
  O18      1.0000 0.07075  0.58843  0.32502  Biso   1.000  O 
  O19      1.0000 0.93453  0.90999  0.17509  Biso   1.000  O 
  O20      1.0000 0.95635  0.83515  0.42384  Biso   1.000  O 
  O21      1.0000 0.56103  0.62798  0.24057  Biso   1.000  O 
  O22      1.0000 0.57333  0.62112  0.48868  Biso   1.000  O 
  O23      1.0000 0.43670  0.87723  0.01045  Biso   1.000  O 
  O24      1.0000 0.44713  0.86704  0.25913  Biso   1.000  O 
  Hf13     1.0000 0.32308  0.52032  0.64339  Biso   1.000  Hf
  Hf14     1.0000 0.33104  0.72517  0.89115  Biso   1.000  Hf
  Hf15     1.0000 0.75904  0.77086  0.60139  Biso   1.000  Hf
  Hf16     1.0000 0.77121  0.97613  0.84962  Biso   1.000  Hf
  O25      1.0000 0.09373  0.66049  0.57682  Biso   1.000  O 
  O26      1.0000 0.11822  0.58222  0.82268  Biso   1.000  O 
  O27      1.0000 0.97410  0.91452  0.67078  Biso   1.000  O 
  O28      1.0000 0.99396  0.83439  0.91662  Biso   1.000  O 
  O29      1.0000 0.59686  0.62537  0.73655  Biso   1.000  O 
  O30      1.0000 0.61766  0.62158  0.98367  Biso   1.000  O 
  O31      1.0000 0.46914  0.87347  0.50930  Biso   1.000  O 
  O32      1.0000 0.49571  0.86999  0.75649  Biso   1.000  O 
  Al1      1.0000 0.98026  0.24884  0.26507  Biso   1.000  Al
