data_image0
_cell_length_a       10.0144
_cell_length_b       10.4055
_cell_length_c       5.07023
_cell_angle_alpha    90
_cell_angle_beta     90
_cell_angle_gamma    90

_symmetry_space_group_name_H-M    "P 1"
_symmetry_int_tables_number       1

loop_
  _symmetry_equiv_pos_as_xyz
  'x, y, z'

loop_
  _atom_site_label
  _atom_site_occupancy
  _atom_site_fract_x
  _atom_site_fract_y
  _atom_site_fract_z
  _atom_site_thermal_displace_type
  _atom_site_B_iso_or_equiv
  _atom_site_type_symbol
  Hf1      1.0000 0.16281  0.93636  0.25786  Biso   1.000  Hf
  Hf2      1.0000 0.14138  0.25074  0.73125  Biso   1.000  Hf
  Hf3      1.0000 0.40143  0.26769  0.31117  Biso   1.000  Hf
  Hf4      1.0000 0.40239  0.98477  0.81231  Biso   1.000  Hf
  O1       1.0000 0.98987  0.16662  0.96992  Biso   1.000  O 
  O2       1.0000 0.02180  0.06982  0.45531  Biso   1.000  O 
  O3       1.0000 0.02725  0.31022  0.41203  Biso   1.000  O 
  O4       1.0000 0.01105  0.40020  0.94328  Biso   1.000  O 
  O5       1.0000 0.24883  0.14448  0.45114  Biso   1.000  O 
  O6       1.0000 0.21334  0.07398  0.96359  Biso   1.000  O 
  O7       1.0000 0.21986  0.30947  0.07550  Biso   1.000  O 
  O8       1.0000 0.27249  0.38641  0.54903  Biso   1.000  O 
  Hf5      1.0000 0.12003  0.48504  0.21882  Biso   1.000  Hf
  Hf6      1.0000 0.15244  0.72097  0.74752  Biso   1.000  Hf
  Hf7      1.0000 0.42353  0.76633  0.29803  Biso   1.000  Hf
  Hf8      1.0000 0.40633  0.52036  0.72190  Biso   1.000  Hf
  O9       1.0000 0.00430  0.64313  0.02545  Biso   1.000  O 
  O10      1.0000 0.04955  0.56881  0.54482  Biso   1.000  O 
  O11      1.0000 0.04294  0.81126  0.45542  Biso   1.000  O 
  O12      1.0000 0.03892  0.88767  0.96269  Biso   1.000  O 
  O13      1.0000 0.29399  0.63904  0.48124  Biso   1.000  O 
  O14      1.0000 0.25460  0.56639  0.96080  Biso   1.000  O 
  O15      1.0000 0.28216  0.81890  0.01760  Biso   1.000  O 
  O16      1.0000 0.28443  0.87261  0.54964  Biso   1.000  O 
  Hf9      1.0000 0.61997  0.03533  0.29638  Biso   1.000  Hf
  Hf10     1.0000 0.61462  0.24601  0.81892  Biso   1.000  Hf
  Hf11     1.0000 0.83642  0.27285  0.21578  Biso   1.000  Hf
  Hf12     1.0000 0.88481  0.01249  0.74368  Biso   1.000  Hf
  O17      1.0000 0.46730  0.13223  0.04205  Biso   1.000  O 
  O18      1.0000 0.49598  0.12880  0.56276  Biso   1.000  O 
  O19      1.0000 0.52968  0.38332  0.53649  Biso   1.000  O 
  O20      1.0000 0.47061  0.39406  0.01935  Biso   1.000  O 
  O21      1.0000 0.75855  0.16857  0.52865  Biso   1.000  O 
  O22      1.0000 0.73649  0.11848  0.00068  Biso   1.000  O 
  O23      1.0000 0.75460  0.38472  0.91716  Biso   1.000  O 
  O24      1.0000 0.79726  0.43906  0.41678  Biso   1.000  O 
  Hf13     1.0000 0.62696  0.48977  0.22309  Biso   1.000  Hf
  Hf14     1.0000 0.65020  0.75242  0.77906  Biso   1.000  Hf
  Hf15     1.0000 0.88086  0.77397  0.21948  Biso   1.000  Hf
  Hf16     1.0000 0.88318  0.52667  0.75341  Biso   1.000  Hf
  O25      1.0000 0.51480  0.63814  0.99590  Biso   1.000  O 
  O26      1.0000 0.54831  0.62879  0.49466  Biso   1.000  O 
  O27      1.0000 0.54311  0.88110  0.54292  Biso   1.000  O 
  O28      1.0000 0.53558  0.89238  0.04414  Biso   1.000  O 
  O29      1.0000 0.80367  0.68508  0.54965  Biso   1.000  O 
  O30      1.0000 0.75009  0.63113  0.03736  Biso   1.000  O 
  O31      1.0000 0.79346  0.86976  0.92905  Biso   1.000  O 
  O32      1.0000 0.80019  0.93308  0.42642  Biso   1.000  O 
  Al1      1.0000 0.11032  0.18252  0.22457  Biso   1.000  Al
