data_image0
_cell_length_a       9.98022
_cell_length_b       5.24986
_cell_length_c       10.0664
_cell_angle_alpha    90
_cell_angle_beta     90
_cell_angle_gamma    90

_symmetry_space_group_name_H-M    "P 1"
_symmetry_int_tables_number       1

loop_
  _symmetry_equiv_pos_as_xyz
  'x, y, z'

loop_
  _atom_site_label
  _atom_site_occupancy
  _atom_site_fract_x
  _atom_site_fract_y
  _atom_site_fract_z
  _atom_site_thermal_displace_type
  _atom_site_B_iso_or_equiv
  _atom_site_type_symbol
  Hf1      1.0000 0.13743  0.14315  0.10537  Biso   1.000  Hf
  Hf2      1.0000 0.13713  0.45750  0.39256  Biso   1.000  Hf
  Hf3      1.0000 0.36625  0.52743  0.12358  Biso   1.000  Hf
  Hf4      1.0000 0.36231  0.95750  0.37603  Biso   1.000  Hf
  O1       1.0000 0.01385  0.39412  0.21397  Biso   1.000  O 
  O2       1.0000 0.03591  0.12507  0.44889  Biso   1.000  O 
  O3       1.0000 0.45783  0.86492  0.19568  Biso   1.000  O 
  O4       1.0000 0.46262  0.62259  0.44473  Biso   1.000  O 
  O5       1.0000 0.27167  0.23443  0.25574  Biso   1.000  O 
  O6       1.0000 0.27395  0.25090  0.50388  Biso   1.000  O 
  O7       1.0000 0.22961  0.75545  0.50318  Biso   1.000  O 
  O8       1.0000 0.22090  0.71498  0.25383  Biso   1.000  O 
  Hf5      1.0000 0.13401  0.02443  0.63002  Biso   1.000  Hf
  Hf6      1.0000 0.14165  0.46008  0.87002  Biso   1.000  Hf
  Hf7      1.0000 0.36893  0.52631  0.62628  Biso   1.000  Hf
  Hf8      1.0000 0.37015  0.95830  0.87261  Biso   1.000  Hf
  O9       1.0000 0.03895  0.36386  0.68734  Biso   1.000  O 
  O10      1.0000 0.03526  0.13620  0.92526  Biso   1.000  O 
  O11      1.0000 0.47023  0.85558  0.69361  Biso   1.000  O 
  O12      1.0000 0.46752  0.63157  0.94522  Biso   1.000  O 
  O13      1.0000 0.27228  0.22808  0.74637  Biso   1.000  O 
  O14      1.0000 0.29626  0.26017  0.98461  Biso   1.000  O 
  O15      1.0000 0.22720  0.78990  0.00426  Biso   1.000  O 
  O16      1.0000 0.23482  0.73440  0.74958  Biso   1.000  O 
  Hf9      1.0000 0.62575  0.02679  0.12467  Biso   1.000  Hf
  Hf10     1.0000 0.63016  0.45353  0.37870  Biso   1.000  Hf
  Hf11     1.0000 0.83679  0.52394  0.12762  Biso   1.000  Hf
  Hf12     1.0000 0.86909  0.96145  0.37405  Biso   1.000  Hf
  O17      1.0000 0.53652  0.36166  0.19467  Biso   1.000  O 
  O18      1.0000 0.53395  0.12115  0.44518  Biso   1.000  O 
  O19      1.0000 0.97139  0.87539  0.18809  Biso   1.000  O 
  O20      1.0000 0.96552  0.63478  0.44810  Biso   1.000  O 
  O21      1.0000 0.76418  0.22191  0.24963  Biso   1.000  O 
  O22      1.0000 0.77146  0.25748  0.49770  Biso   1.000  O 
  O23      1.0000 0.73133  0.75864  0.49973  Biso   1.000  O 
  O24      1.0000 0.72296  0.73392  0.25357  Biso   1.000  O 
  Hf13     1.0000 0.63813  0.02277  0.62413  Biso   1.000  Hf
  Hf14     1.0000 0.63148  0.45725  0.87110  Biso   1.000  Hf
  Hf15     1.0000 0.86726  0.52522  0.62421  Biso   1.000  Hf
  Hf16     1.0000 0.86499  0.95710  0.87593  Biso   1.000  Hf
  O25      1.0000 0.53850  0.35790  0.69224  Biso   1.000  O 
  O26      1.0000 0.54282  0.12238  0.93943  Biso   1.000  O 
  O27      1.0000 0.96715  0.85054  0.70228  Biso   1.000  O 
  O28      1.0000 0.97233  0.63600  0.96667  Biso   1.000  O 
  O29      1.0000 0.77399  0.22427  0.74834  Biso   1.000  O 
  O30      1.0000 0.76893  0.25868  0.99834  Biso   1.000  O 
  O31      1.0000 0.72673  0.75792  0.00069  Biso   1.000  O 
  O32      1.0000 0.73330  0.72384  0.75074  Biso   1.000  O 
  Al1      1.0000 0.09681  0.65095  0.11833  Biso   1.000  Al
