data_image0
_cell_length_a       9.93526
_cell_length_b       10.3264
_cell_length_c       4.99734
_cell_angle_alpha    90
_cell_angle_beta     90
_cell_angle_gamma    90

_symmetry_space_group_name_H-M    "P 1"
_symmetry_int_tables_number       1

loop_
  _symmetry_equiv_pos_as_xyz
  'x, y, z'

loop_
  _atom_site_label
  _atom_site_occupancy
  _atom_site_fract_x
  _atom_site_fract_y
  _atom_site_fract_z
  _atom_site_thermal_displace_type
  _atom_site_B_iso_or_equiv
  _atom_site_type_symbol
  Al1      1.0000 0.12689  0.02928  0.21955  Biso   1.000  Al
  Hf1      1.0000 0.13475  0.22487  0.74066  Biso   1.000  Hf
  Hf2      1.0000 0.36341  0.25962  0.24706  Biso   1.000  Hf
  Hf3      1.0000 0.36794  0.47858  0.75149  Biso   1.000  Hf
  O1       1.0000 0.03342  0.17670  0.38112  Biso   1.000  O 
  O2       1.0000 0.03802  0.06160  0.90086  Biso   1.000  O 
  O3       1.0000 0.46423  0.42966  0.38841  Biso   1.000  O 
  O4       1.0000 0.46695  0.31096  0.88933  Biso   1.000  O 
  O5       1.0000 0.26132  0.10190  0.48104  Biso   1.000  O 
  O6       1.0000 0.26939  0.12889  0.99044  Biso   1.000  O 
  O7       1.0000 0.23190  0.37629  0.99473  Biso   1.000  O 
  O8       1.0000 0.23073  0.35952  0.49478  Biso   1.000  O 
  Hf4      1.0000 0.13477  0.51305  0.25217  Biso   1.000  Hf
  Hf5      1.0000 0.13577  0.72999  0.76572  Biso   1.000  Hf
  Hf6      1.0000 0.36190  0.76688  0.26153  Biso   1.000  Hf
  Hf7      1.0000 0.35495  0.97966  0.75846  Biso   1.000  Hf
  O9       1.0000 0.03542  0.68182  0.39478  Biso   1.000  O 
  O10      1.0000 0.03601  0.55990  0.89693  Biso   1.000  O 
  O11      1.0000 0.46691  0.93020  0.40551  Biso   1.000  O 
  O12      1.0000 0.46618  0.81551  0.90448  Biso   1.000  O 
  O13      1.0000 0.26853  0.60788  0.50303  Biso   1.000  O 
  O14      1.0000 0.26836  0.63388  0.00405  Biso   1.000  O 
  O15      1.0000 0.21775  0.89173  0.03979  Biso   1.000  O 
  O16      1.0000 0.24194  0.84989  0.53788  Biso   1.000  O 
  Hf8      1.0000 0.63380  0.01367  0.24440  Biso   1.000  Hf
  Hf9      1.0000 0.63600  0.22863  0.74826  Biso   1.000  Hf
  Hf10     1.0000 0.86513  0.26376  0.24399  Biso   1.000  Hf
  Hf11     1.0000 0.86641  0.48064  0.75019  Biso   1.000  Hf
  O17      1.0000 0.53379  0.18086  0.39202  Biso   1.000  O 
  O18      1.0000 0.53559  0.06341  0.89494  Biso   1.000  O 
  O19      1.0000 0.96555  0.42966  0.38968  Biso   1.000  O 
  O20      1.0000 0.96564  0.31058  0.88132  Biso   1.000  O 
  O21      1.0000 0.77117  0.11333  0.48952  Biso   1.000  O 
  O22      1.0000 0.77381  0.12815  0.98893  Biso   1.000  O 
  O23      1.0000 0.73201  0.37814  0.99645  Biso   1.000  O 
  O24      1.0000 0.72965  0.36425  0.49544  Biso   1.000  O 
  Hf12     1.0000 0.63282  0.51645  0.25316  Biso   1.000  Hf
  Hf13     1.0000 0.63495  0.73272  0.75222  Biso   1.000  Hf
  Hf14     1.0000 0.87008  0.76831  0.24569  Biso   1.000  Hf
  Hf15     1.0000 0.87006  0.98208  0.73845  Biso   1.000  Hf
  O25      1.0000 0.53290  0.68129  0.39847  Biso   1.000  O 
  O26      1.0000 0.53759  0.56289  0.89165  Biso   1.000  O 
  O27      1.0000 0.98019  0.93491  0.38139  Biso   1.000  O 
  O28      1.0000 0.96256  0.81163  0.87961  Biso   1.000  O 
  O29      1.0000 0.77114  0.61471  0.49847  Biso   1.000  O 
  O30      1.0000 0.76637  0.63570  0.00004  Biso   1.000  O 
  O31      1.0000 0.73317  0.88026  0.99015  Biso   1.000  O 
  O32      1.0000 0.73394  0.86412  0.48972  Biso   1.000  O 
