data_image0
_cell_length_a       10.212
_cell_length_b       10.3276
_cell_length_c       5.26695
_cell_angle_alpha    90
_cell_angle_beta     80
_cell_angle_gamma    90

_symmetry_space_group_name_H-M    "P 1"
_symmetry_int_tables_number       1

loop_
  _symmetry_equiv_pos_as_xyz
  'x, y, z'

loop_
  _atom_site_label
  _atom_site_occupancy
  _atom_site_fract_x
  _atom_site_fract_y
  _atom_site_fract_z
  _atom_site_thermal_displace_type
  _atom_site_B_iso_or_equiv
  _atom_site_type_symbol
  Hf1      1.0000 0.14051  0.02225  0.28640  Biso   1.000  Hf
  Hf2      1.0000 0.14031  0.23309  0.78155  Biso   1.000  Hf
  Hf3      1.0000 0.35579  0.27870  0.22354  Biso   1.000  Hf
  Hf4      1.0000 0.35991  0.47307  0.68735  Biso   1.000  Hf
  O1       1.0000 0.03917  0.17106  0.15278  Biso   1.000  O 
  O2       1.0000 0.04243  0.08198  0.64902  Biso   1.000  O 
  O3       1.0000 0.46234  0.43070  0.32191  Biso   1.000  O 
  O4       1.0000 0.48449  0.32754  0.85111  Biso   1.000  O 
  O5       1.0000 0.28656  0.11501  0.46996  Biso   1.000  O 
  O6       1.0000 0.29966  0.12499  0.94795  Biso   1.000  O 
  O7       1.0000 0.22017  0.38162  0.00767  Biso   1.000  O 
  O8       1.0000 0.20253  0.37703  0.49791  Biso   1.000  O 
  Hf5      1.0000 0.13547  0.52396  0.28060  Biso   1.000  Hf
  Hf6      1.0000 0.13892  0.72281  0.78939  Biso   1.000  Hf
  Hf7      1.0000 0.35613  0.76648  0.20754  Biso   1.000  Hf
  Hf8      1.0000 0.35404  0.95319  0.70052  Biso   1.000  Hf
  O9       1.0000 0.02584  0.66845  0.15417  Biso   1.000  O 
  O10      1.0000 0.03330  0.58395  0.64970  Biso   1.000  O 
  O11      1.0000 0.46347  0.91144  0.34673  Biso   1.000  O 
  O12      1.0000 0.47006  0.82711  0.84470  Biso   1.000  O 
  O13      1.0000 0.27474  0.62340  0.47679  Biso   1.000  O 
  O14      1.0000 0.28028  0.61923  0.97306  Biso   1.000  O 
  O15      1.0000 0.21479  0.87773  0.02131  Biso   1.000  O 
  O16      1.0000 0.21410  0.86444  0.50872  Biso   1.000  O 
  Hf9      1.0000 0.64358  0.01888  0.29682  Biso   1.000  Hf
  Hf10     1.0000 0.66390  0.22752  0.81670  Biso   1.000  Hf
  Hf11     1.0000 0.86293  0.27210  0.21944  Biso   1.000  Hf
  Hf12     1.0000 0.86469  0.47916  0.70747  Biso   1.000  Hf
  O17      1.0000 0.53651  0.16991  0.18007  Biso   1.000  O 
  O18      1.0000 0.53463  0.08637  0.66551  Biso   1.000  O 
  O19      1.0000 0.96127  0.42152  0.33808  Biso   1.000  O 
  O20      1.0000 0.96622  0.33072  0.84030  Biso   1.000  O 
  O21      1.0000 0.77962  0.12708  0.49327  Biso   1.000  O 
  O22      1.0000 0.79266  0.11497  0.99226  Biso   1.000  O 
  O23      1.0000 0.72270  0.37896  0.03549  Biso   1.000  O 
  O24      1.0000 0.72638  0.36872  0.53136  Biso   1.000  O 
  Hf13     1.0000 0.63728  0.52463  0.29816  Biso   1.000  Hf
  Hf14     1.0000 0.64157  0.72381  0.79471  Biso   1.000  Hf
  Hf15     1.0000 0.85548  0.77305  0.20973  Biso   1.000  Hf
  Hf16     1.0000 0.86306  0.97319  0.70762  Biso   1.000  Hf
  O25      1.0000 0.53246  0.66992  0.16375  Biso   1.000  O 
  O26      1.0000 0.53541  0.57749  0.66246  Biso   1.000  O 
  O27      1.0000 0.96087  0.91860  0.34124  Biso   1.000  O 
  O28      1.0000 0.96852  0.83194  0.84206  Biso   1.000  O 
  O29      1.0000 0.77541  0.62946  0.48368  Biso   1.000  O 
  O30      1.0000 0.78134  0.61873  0.98133  Biso   1.000  O 
  O31      1.0000 0.71703  0.87914  0.02387  Biso   1.000  O 
  O32      1.0000 0.71923  0.87220  0.52367  Biso   1.000  O 
  Al1      1.0000 0.41152  0.20744  0.67229  Biso   1.000  Al
