data_image0
_cell_length_a       10.0353
_cell_length_b       10.2713
_cell_length_c       10.483
_cell_angle_alpha    90
_cell_angle_beta     90
_cell_angle_gamma    90

_symmetry_space_group_name_H-M    "P 1"
_symmetry_int_tables_number       1

loop_
  _symmetry_equiv_pos_as_xyz
  'x, y, z'

loop_
  _atom_site_label
  _atom_site_occupancy
  _atom_site_fract_x
  _atom_site_fract_y
  _atom_site_fract_z
  _atom_site_thermal_displace_type
  _atom_site_B_iso_or_equiv
  _atom_site_type_symbol
  Hf1      1.0000 0.13585  0.01935  0.17285  Biso   1.000  Hf
  Hf2      1.0000 0.12860  0.22892  0.42691  Biso   1.000  Hf
  Hf3      1.0000 0.33825  0.27162  0.18362  Biso   1.000  Hf
  Hf4      1.0000 0.35300  0.48126  0.42526  Biso   1.000  Hf
  Hf5      1.0000 0.64257  0.02587  0.06790  Biso   1.000  Hf
  Hf6      1.0000 0.63076  0.22823  0.33800  Biso   1.000  Hf
  Hf7      1.0000 0.86223  0.26455  0.07396  Biso   1.000  Hf
  Hf8      1.0000 0.85357  0.47773  0.32579  Biso   1.000  Hf
  O1       1.0000 0.03672  0.16785  0.08644  Biso   1.000  O 
  O2       1.0000 0.02713  0.08445  0.33501  Biso   1.000  O 
  O3       1.0000 0.46938  0.41067  0.08464  Biso   1.000  O 
  O4       1.0000 0.45600  0.33507  0.33732  Biso   1.000  O 
  O5       1.0000 0.26800  0.12492  0.29942  Biso   1.000  O 
  O6       1.0000 0.27667  0.12613  0.04712  Biso   1.000  O 
  O7       1.0000 0.20962  0.37582  0.30130  Biso   1.000  O 
  O8       1.0000 0.22142  0.37854  0.04897  Biso   1.000  O 
  O9       1.0000 0.51784  0.17007  0.17183  Biso   1.000  O 
  O10      1.0000 0.52541  0.08461  0.41823  Biso   1.000  O 
  O11      1.0000 0.95562  0.41705  0.16517  Biso   1.000  O 
  O12      1.0000 0.95822  0.33517  0.41825  Biso   1.000  O 
  O13      1.0000 0.76927  0.12467  0.45642  Biso   1.000  O 
  O14      1.0000 0.76886  0.12798  0.20777  Biso   1.000  O 
  O15      1.0000 0.71363  0.37497  0.45316  Biso   1.000  O 
  O16      1.0000 0.70231  0.37231  0.19295  Biso   1.000  O 
  Hf9      1.0000 0.13314  0.02206  0.67248  Biso   1.000  Hf
  Hf10     1.0000 0.12796  0.23033  0.92136  Biso   1.000  Hf
  Hf11     1.0000 0.35550  0.27183  0.67519  Biso   1.000  Hf
  Hf12     1.0000 0.34644  0.48273  0.92156  Biso   1.000  Hf
  Hf13     1.0000 0.63219  0.02142  0.58026  Biso   1.000  Hf
  Hf14     1.0000 0.63534  0.22534  0.82786  Biso   1.000  Hf
  Hf15     1.0000 0.85305  0.27269  0.57987  Biso   1.000  Hf
  Hf16     1.0000 0.85121  0.48232  0.82721  Biso   1.000  Hf
  O17      1.0000 0.02519  0.16747  0.58712  Biso   1.000  O 
  O18      1.0000 0.02904  0.08391  0.83364  Biso   1.000  O 
  O19      1.0000 0.45860  0.41861  0.58757  Biso   1.000  O 
  O20      1.0000 0.45933  0.33292  0.84304  Biso   1.000  O 
  O21      1.0000 0.26965  0.12607  0.79693  Biso   1.000  O 
  O22      1.0000 0.26987  0.12690  0.54818  Biso   1.000  O 
  O23      1.0000 0.21548  0.37565  0.79791  Biso   1.000  O 
  O24      1.0000 0.21634  0.37641  0.54954  Biso   1.000  O 
  O25      1.0000 0.52687  0.16842  0.66482  Biso   1.000  O 
  O26      1.0000 0.52643  0.07157  0.90188  Biso   1.000  O 
  O27      1.0000 0.95811  0.41752  0.66658  Biso   1.000  O 
  O28      1.0000 0.95532  0.33546  0.91482  Biso   1.000  O 
  O29      1.0000 0.78668  0.11743  0.94583  Biso   1.000  O 
  O30      1.0000 0.77117  0.12499  0.70160  Biso   1.000  O 
  O31      1.0000 0.70990  0.38874  0.95337  Biso   1.000  O 
  O32      1.0000 0.71508  0.37681  0.70391  Biso   1.000  O 
  Hf17     1.0000 0.13096  0.52348  0.17263  Biso   1.000  Hf
  Hf18     1.0000 0.12909  0.72889  0.42184  Biso   1.000  Hf
  Hf19     1.0000 0.35584  0.77444  0.17404  Biso   1.000  Hf
  Hf20     1.0000 0.35082  0.97829  0.42528  Biso   1.000  Hf
  Hf21     1.0000 0.64353  0.54454  0.07476  Biso   1.000  Hf
  Hf22     1.0000 0.63215  0.73240  0.32975  Biso   1.000  Hf
  Hf23     1.0000 0.85851  0.77543  0.07818  Biso   1.000  Hf
  Hf24     1.0000 0.85160  0.98049  0.32816  Biso   1.000  Hf
  O33      1.0000 0.03008  0.66714  0.08479  Biso   1.000  O 
  O34      1.0000 0.02411  0.58236  0.33556  Biso   1.000  O 
  O35      1.0000 0.46399  0.91920  0.08585  Biso   1.000  O 
  O36      1.0000 0.45898  0.83572  0.33718  Biso   1.000  O 
  O37      1.0000 0.26727  0.62516  0.29697  Biso   1.000  O 
  O38      1.0000 0.27572  0.62457  0.04647  Biso   1.000  O 
  O39      1.0000 0.21596  0.87505  0.29748  Biso   1.000  O 
  O40      1.0000 0.21969  0.87538  0.04734  Biso   1.000  O 
  O41      1.0000 0.52547  0.66797  0.16986  Biso   1.000  O 
  O42      1.0000 0.52488  0.58617  0.41688  Biso   1.000  O 
  O43      1.0000 0.96036  0.92004  0.16547  Biso   1.000  O 
  O44      1.0000 0.95680  0.83299  0.41339  Biso   1.000  O 
  O45      1.0000 0.76790  0.62451  0.45373  Biso   1.000  O 
  O46      1.0000 0.77603  0.63092  0.20621  Biso   1.000  O 
  O47      1.0000 0.71446  0.87610  0.45520  Biso   1.000  O 
  O48      1.0000 0.71829  0.87758  0.20436  Biso   1.000  O 
  Hf25     1.0000 0.12947  0.52188  0.67193  Biso   1.000  Hf
  Hf26     1.0000 0.12606  0.73089  0.92273  Biso   1.000  Hf
  Hf27     1.0000 0.35054  0.77161  0.67282  Biso   1.000  Hf
  Hf28     1.0000 0.34763  0.97957  0.92250  Biso   1.000  Hf
  Hf29     1.0000 0.63047  0.52337  0.57850  Biso   1.000  Hf
  Hf30     1.0000 0.62697  0.73341  0.82623  Biso   1.000  Hf
  Hf31     1.0000 0.85268  0.77137  0.57678  Biso   1.000  Hf
  Hf32     1.0000 0.85325  0.97730  0.82496  Biso   1.000  Hf
  O49      1.0000 0.02407  0.66607  0.58373  Biso   1.000  O 
  O50      1.0000 0.02380  0.58556  0.83453  Biso   1.000  O 
  O51      1.0000 0.45634  0.91697  0.58647  Biso   1.000  O 
  O52      1.0000 0.45211  0.83193  0.83554  Biso   1.000  O 
  O53      1.0000 0.26593  0.62471  0.79562  Biso   1.000  O 
  O54      1.0000 0.26663  0.62687  0.54654  Biso   1.000  O 
  O55      1.0000 0.21158  0.87462  0.79612  Biso   1.000  O 
  O56      1.0000 0.21359  0.87593  0.54617  Biso   1.000  O 
  O57      1.0000 0.52301  0.66741  0.66556  Biso   1.000  O 
  O58      1.0000 0.51884  0.59006  0.91715  Biso   1.000  O 
  O59      1.0000 0.95915  0.91580  0.66236  Biso   1.000  O 
  O60      1.0000 0.95608  0.83650  0.91650  Biso   1.000  O 
  O61      1.0000 0.76885  0.63236  0.94944  Biso   1.000  O 
  O62      1.0000 0.76672  0.62762  0.70314  Biso   1.000  O 
  O63      1.0000 0.71100  0.87801  0.95267  Biso   1.000  O 
  O64      1.0000 0.71369  0.87611  0.70295  Biso   1.000  O 
  Al1      1.0000 0.59268  0.28935  0.06789  Biso   1.000  Al
