data_image0
_cell_length_a       4.98686
_cell_length_b       10.456
_cell_length_c       10.0875
_cell_angle_alpha    90
_cell_angle_beta     90
_cell_angle_gamma    90

_symmetry_space_group_name_H-M    "P 1"
_symmetry_int_tables_number       1

loop_
  _symmetry_equiv_pos_as_xyz
  'x, y, z'

loop_
  _atom_site_label
  _atom_site_occupancy
  _atom_site_fract_x
  _atom_site_fract_y
  _atom_site_fract_z
  _atom_site_thermal_displace_type
  _atom_site_B_iso_or_equiv
  _atom_site_type_symbol
  Hf1      1.0000 0.27536  0.02318  0.11512  Biso   1.000  Hf
  Hf2      1.0000 0.28259  0.22319  0.40238  Biso   1.000  Hf
  Hf3      1.0000 0.69858  0.25177  0.11230  Biso   1.000  Hf
  Hf4      1.0000 0.74712  0.47840  0.37569  Biso   1.000  Hf
  O1       1.0000 0.02146  0.17681  0.24284  Biso   1.000  O 
  O2       1.0000 0.09970  0.05776  0.45958  Biso   1.000  O 
  O3       1.0000 0.94644  0.42133  0.18009  Biso   1.000  O 
  O4       1.0000 0.95167  0.32204  0.45591  Biso   1.000  O 
  O5       1.0000 0.52139  0.11377  0.25734  Biso   1.000  O 
  O6       1.0000 0.58124  0.13013  0.50685  Biso   1.000  O 
  O7       1.0000 0.48390  0.38021  0.50360  Biso   1.000  O 
  O8       1.0000 0.43608  0.36458  0.25359  Biso   1.000  O 
  Hf5      1.0000 0.30869  0.01282  0.63213  Biso   1.000  Hf
  Hf6      1.0000 0.28844  0.22707  0.87579  Biso   1.000  Hf
  Hf7      1.0000 0.75838  0.26838  0.63592  Biso   1.000  Hf
  Hf8      1.0000 0.75412  0.48330  0.87268  Biso   1.000  Hf
  O9       1.0000 0.10627  0.18322  0.68823  Biso   1.000  O 
  O10      1.0000 0.13691  0.05120  0.92595  Biso   1.000  O 
  O11      1.0000 0.94406  0.43975  0.69305  Biso   1.000  O 
  O12      1.0000 0.91982  0.31068  0.91659  Biso   1.000  O 
  O13      1.0000 0.57583  0.11735  0.75261  Biso   1.000  O 
  O14      1.0000 0.62892  0.10874  0.99354  Biso   1.000  O 
  O15      1.0000 0.42295  0.38475  0.00718  Biso   1.000  O 
  O16      1.0000 0.47105  0.37076  0.75302  Biso   1.000  O 
  Hf9      1.0000 0.26556  0.54266  0.12361  Biso   1.000  Hf
  Hf10     1.0000 0.28327  0.73685  0.37822  Biso   1.000  Hf
  Hf11     1.0000 0.72414  0.77256  0.12452  Biso   1.000  Hf
  Hf12     1.0000 0.74546  0.98905  0.37086  Biso   1.000  Hf
  O17      1.0000 0.06917  0.69123  0.19708  Biso   1.000  O 
  O18      1.0000 0.08370  0.56530  0.43830  Biso   1.000  O 
  O19      1.0000 0.92193  0.93756  0.18760  Biso   1.000  O 
  O20      1.0000 0.93871  0.81582  0.43832  Biso   1.000  O 
  O21      1.0000 0.55638  0.61776  0.24730  Biso   1.000  O 
  O22      1.0000 0.55646  0.62856  0.49601  Biso   1.000  O 
  O23      1.0000 0.47713  0.88254  0.49901  Biso   1.000  O 
  O24      1.0000 0.46162  0.86716  0.24998  Biso   1.000  O 
  Hf13     1.0000 0.28752  0.51484  0.62431  Biso   1.000  Hf
  Hf14     1.0000 0.29340  0.73307  0.87079  Biso   1.000  Hf
  Hf15     1.0000 0.75435  0.76387  0.61895  Biso   1.000  Hf
  Hf16     1.0000 0.76068  0.97325  0.86967  Biso   1.000  Hf
  O25      1.0000 0.09557  0.68387  0.68886  Biso   1.000  O 
  O26      1.0000 0.09611  0.56824  0.94457  Biso   1.000  O 
  O27      1.0000 0.95061  0.92694  0.69037  Biso   1.000  O 
  O28      1.0000 0.95478  0.81140  0.94303  Biso   1.000  O 
  O29      1.0000 0.56097  0.61676  0.74653  Biso   1.000  O 
  O30      1.0000 0.57010  0.63406  0.99650  Biso   1.000  O 
  O31      1.0000 0.48313  0.87466  0.99934  Biso   1.000  O 
  O32      1.0000 0.48584  0.86374  0.74707  Biso   1.000  O 
  Al1      1.0000 0.19276  0.28991  0.13848  Biso   1.000  Al
