data_image0
_cell_length_a       10.0867
_cell_length_b       5.06161
_cell_length_c       10.484
_cell_angle_alpha    90
_cell_angle_beta     90
_cell_angle_gamma    90

_symmetry_space_group_name_H-M    "P 1"
_symmetry_int_tables_number       1

loop_
  _symmetry_equiv_pos_as_xyz
  'x, y, z'

loop_
  _atom_site_label
  _atom_site_occupancy
  _atom_site_fract_x
  _atom_site_fract_y
  _atom_site_fract_z
  _atom_site_thermal_displace_type
  _atom_site_B_iso_or_equiv
  _atom_site_type_symbol
  Hf1      1.0000 0.11376  0.10788  0.12287  Biso   1.000  Hf
  Hf2      1.0000 0.10634  0.54405  0.40318  Biso   1.000  Hf
  Hf3      1.0000 0.37341  0.49304  0.09829  Biso   1.000  Hf
  Hf4      1.0000 0.33851  0.04017  0.36459  Biso   1.000  Hf
  O1       1.0000 0.97396  0.29627  0.95469  Biso   1.000  O 
  O2       1.0000 0.93392  0.12490  0.20393  Biso   1.000  O 
  O3       1.0000 0.92717  0.63525  0.31333  Biso   1.000  O 
  O4       1.0000 0.01484  0.82987  0.97162  Biso   1.000  O 
  O5       1.0000 0.22696  0.32593  0.26790  Biso   1.000  O 
  O6       1.0000 0.28997  0.13441  0.03506  Biso   1.000  O 
  O7       1.0000 0.25723  0.65880  0.93487  Biso   1.000  O 
  O8       1.0000 0.16283  0.84688  0.27483  Biso   1.000  O 
  Hf5      1.0000 0.10287  0.03684  0.61486  Biso   1.000  Hf
  Hf6      1.0000 0.08674  0.54363  0.83694  Biso   1.000  Hf
  Hf7      1.0000 0.34890  0.52363  0.64029  Biso   1.000  Hf
  Hf8      1.0000 0.33767  0.00601  0.86977  Biso   1.000  Hf
  O9       1.0000 0.00804  0.19996  0.44999  Biso   1.000  O 
  O10      1.0000 0.99143  0.32372  0.69603  Biso   1.000  O 
  O11      1.0000 0.95412  0.81162  0.75514  Biso   1.000  O 
  O12      1.0000 0.98074  0.73885  0.53075  Biso   1.000  O 
  O13      1.0000 0.22696  0.26018  0.76821  Biso   1.000  O 
  O14      1.0000 0.23870  0.28858  0.51865  Biso   1.000  O 
  O15      1.0000 0.24102  0.78726  0.49309  Biso   1.000  O 
  O16      1.0000 0.21120  0.77419  0.71881  Biso   1.000  O 
  Hf9      1.0000 0.60854  0.02569  0.13495  Biso   1.000  Hf
  Hf10     1.0000 0.57873  0.52075  0.37022  Biso   1.000  Hf
  Hf11     1.0000 0.83690  0.48015  0.15748  Biso   1.000  Hf
  Hf12     1.0000 0.84504  0.98656  0.38044  Biso   1.000  Hf
  O17      1.0000 0.46663  0.27304  0.97301  Biso   1.000  O 
  O18      1.0000 0.47828  0.25889  0.22672  Biso   1.000  O 
  O19      1.0000 0.43704  0.74862  0.26865  Biso   1.000  O 
  O20      1.0000 0.52212  0.74384  0.02271  Biso   1.000  O 
  O21      1.0000 0.71728  0.24966  0.28879  Biso   1.000  O 
  O22      1.0000 0.74348  0.21850  0.02786  Biso   1.000  O 
  O23      1.0000 0.74847  0.71813  0.98668  Biso   1.000  O 
  O24      1.0000 0.69646  0.73964  0.23353  Biso   1.000  O 
  Hf13     1.0000 0.58879  0.00116  0.61662  Biso   1.000  Hf
  Hf14     1.0000 0.60069  0.51664  0.87938  Biso   1.000  Hf
  Hf15     1.0000 0.83087  0.53640  0.63255  Biso   1.000  Hf
  Hf16     1.0000 0.83374  0.00951  0.88221  Biso   1.000  Hf
  O25      1.0000 0.49534  0.20030  0.46617  Biso   1.000  O 
  O26      1.0000 0.48366  0.25409  0.72396  Biso   1.000  O 
  O27      1.0000 0.46589  0.75301  0.77337  Biso   1.000  O 
  O28      1.0000 0.48705  0.69964  0.52861  Biso   1.000  O 
  O29      1.0000 0.74234  0.29796  0.78496  Biso   1.000  O 
  O30      1.0000 0.75578  0.20606  0.54119  Biso   1.000  O 
  O31      1.0000 0.72197  0.72158  0.48306  Biso   1.000  O 
  O32      1.0000 0.70871  0.78287  0.74063  Biso   1.000  O 
  As1      1.0000 0.09930  0.60970  0.11356  Biso   1.000  As
