data_image0
_cell_length_a       10.1301
_cell_length_b       5.15176
_cell_length_c       10.4836
_cell_angle_alpha    90
_cell_angle_beta     90
_cell_angle_gamma    90

_symmetry_space_group_name_H-M    "P 1"
_symmetry_int_tables_number       1

loop_
  _symmetry_equiv_pos_as_xyz
  'x, y, z'

loop_
  _atom_site_label
  _atom_site_occupancy
  _atom_site_fract_x
  _atom_site_fract_y
  _atom_site_fract_z
  _atom_site_thermal_displace_type
  _atom_site_B_iso_or_equiv
  _atom_site_type_symbol
  Hf1      1.0000 0.12764  0.04396  0.17641  Biso   1.000  Hf
  Hf2      1.0000 0.12704  0.45942  0.42628  Biso   1.000  Hf
  Hf3      1.0000 0.34188  0.54876  0.18483  Biso   1.000  Hf
  Hf4      1.0000 0.35282  0.95860  0.42276  Biso   1.000  Hf
  Hf5      1.0000 0.63336  0.02910  0.08029  Biso   1.000  Hf
  Hf6      1.0000 0.62945  0.46441  0.33117  Biso   1.000  Hf
  Hf7      1.0000 0.85962  0.54018  0.07620  Biso   1.000  Hf
  Hf8      1.0000 0.85123  0.96232  0.32735  Biso   1.000  Hf
  O1       1.0000 0.02911  0.33407  0.08625  Biso   1.000  O 
  O2       1.0000 0.02041  0.17384  0.33729  Biso   1.000  O 
  O3       1.0000 0.44435  0.90163  0.13680  Biso   1.000  O 
  O4       1.0000 0.45114  0.64495  0.34983  Biso   1.000  O 
  O5       1.0000 0.26134  0.25452  0.30075  Biso   1.000  O 
  O6       1.0000 0.26490  0.24287  0.05209  Biso   1.000  O 
  O7       1.0000 0.20939  0.75566  0.30468  Biso   1.000  O 
  O8       1.0000 0.21204  0.75323  0.05532  Biso   1.000  O 
  O9       1.0000 0.52611  0.35963  0.16643  Biso   1.000  O 
  O10      1.0000 0.52606  0.15881  0.41078  Biso   1.000  O 
  O11      1.0000 0.95769  0.83450  0.16786  Biso   1.000  O 
  O12      1.0000 0.95693  0.67233  0.41730  Biso   1.000  O 
  O13      1.0000 0.76518  0.25482  0.45296  Biso   1.000  O 
  O14      1.0000 0.76550  0.24740  0.20224  Biso   1.000  O 
  O15      1.0000 0.71507  0.75312  0.45419  Biso   1.000  O 
  O16      1.0000 0.71697  0.74368  0.20555  Biso   1.000  O 
  Hf9      1.0000 0.12789  0.04513  0.67489  Biso   1.000  Hf
  Hf10     1.0000 0.11491  0.47315  0.92433  Biso   1.000  Hf
  Hf11     1.0000 0.34780  0.54548  0.67128  Biso   1.000  Hf
  Hf12     1.0000 0.32525  0.97733  0.93646  Biso   1.000  Hf
  Hf13     1.0000 0.62709  0.04342  0.57446  Biso   1.000  Hf
  Hf14     1.0000 0.63395  0.47033  0.81360  Biso   1.000  Hf
  Hf15     1.0000 0.85436  0.54900  0.57697  Biso   1.000  Hf
  Hf16     1.0000 0.84902  0.97562  0.82874  Biso   1.000  Hf
  O17      1.0000 0.02331  0.33636  0.58781  Biso   1.000  O 
  O18      1.0000 0.02148  0.17222  0.83752  Biso   1.000  O 
  O19      1.0000 0.45646  0.83467  0.58286  Biso   1.000  O 
  O20      1.0000 0.45996  0.69347  0.81684  Biso   1.000  O 
  O21      1.0000 0.26056  0.26054  0.79897  Biso   1.000  O 
  O22      1.0000 0.26484  0.24975  0.54777  Biso   1.000  O 
  O23      1.0000 0.21062  0.75405  0.80232  Biso   1.000  O 
  O24      1.0000 0.21332  0.75281  0.55110  Biso   1.000  O 
  O25      1.0000 0.52119  0.33023  0.66417  Biso   1.000  O 
  O26      1.0000 0.50287  0.15319  0.92025  Biso   1.000  O 
  O27      1.0000 0.95703  0.83781  0.66689  Biso   1.000  O 
  O28      1.0000 0.94613  0.67363  0.91392  Biso   1.000  O 
  O29      1.0000 0.75343  0.27387  0.94699  Biso   1.000  O 
  O30      1.0000 0.76667  0.25337  0.69813  Biso   1.000  O 
  O31      1.0000 0.71888  0.79531  0.95292  Biso   1.000  O 
  O32      1.0000 0.71622  0.75683  0.70185  Biso   1.000  O 
  As1      1.0000 0.48056  0.57618  0.99809  Biso   1.000  As
