data_image0
_cell_length_a       10.1084
_cell_length_b       10.2294
_cell_length_c       5.23454
_cell_angle_alpha    90
_cell_angle_beta     80
_cell_angle_gamma    90

_symmetry_space_group_name_H-M    "P 1"
_symmetry_int_tables_number       1

loop_
  _symmetry_equiv_pos_as_xyz
  'x, y, z'

loop_
  _atom_site_label
  _atom_site_occupancy
  _atom_site_fract_x
  _atom_site_fract_y
  _atom_site_fract_z
  _atom_site_thermal_displace_type
  _atom_site_B_iso_or_equiv
  _atom_site_type_symbol
  As1      1.0000 0.11207  0.01875  0.32038  Biso   1.000  As
  Hf1      1.0000 0.14326  0.22684  0.78789  Biso   1.000  Hf
  Hf2      1.0000 0.36016  0.26894  0.20527  Biso   1.000  Hf
  Hf3      1.0000 0.36113  0.47920  0.70850  Biso   1.000  Hf
  O1       1.0000 0.03979  0.15339  0.14952  Biso   1.000  O 
  O2       1.0000 0.03083  0.08172  0.64186  Biso   1.000  O 
  O3       1.0000 0.46592  0.41718  0.34266  Biso   1.000  O 
  O4       1.0000 0.46605  0.33604  0.84559  Biso   1.000  O 
  O5       1.0000 0.27093  0.12798  0.47313  Biso   1.000  O 
  O6       1.0000 0.28537  0.13186  0.95391  Biso   1.000  O 
  O7       1.0000 0.22546  0.38037  0.01693  Biso   1.000  O 
  O8       1.0000 0.22503  0.37104  0.51920  Biso   1.000  O 
  Hf4      1.0000 0.14275  0.52198  0.29285  Biso   1.000  Hf
  Hf5      1.0000 0.14036  0.73045  0.79307  Biso   1.000  Hf
  Hf6      1.0000 0.36322  0.77632  0.20666  Biso   1.000  Hf
  Hf7      1.0000 0.36164  0.98111  0.70736  Biso   1.000  Hf
  O9       1.0000 0.03905  0.66805  0.16001  Biso   1.000  O 
  O10      1.0000 0.03642  0.58146  0.66048  Biso   1.000  O 
  O11      1.0000 0.47011  0.91807  0.34404  Biso   1.000  O 
  O12      1.0000 0.46687  0.83378  0.84414  Biso   1.000  O 
  O13      1.0000 0.27843  0.63054  0.48050  Biso   1.000  O 
  O14      1.0000 0.27553  0.62172  0.98248  Biso   1.000  O 
  O15      1.0000 0.23049  0.88234  0.01001  Biso   1.000  O 
  O16      1.0000 0.22385  0.87129  0.51864  Biso   1.000  O 
  Hf8      1.0000 0.63547  0.02170  0.29526  Biso   1.000  Hf
  Hf9      1.0000 0.63569  0.22893  0.79418  Biso   1.000  Hf
  Hf10     1.0000 0.86361  0.26949  0.21229  Biso   1.000  Hf
  Hf11     1.0000 0.86376  0.47593  0.71204  Biso   1.000  Hf
  O17      1.0000 0.53720  0.16932  0.15901  Biso   1.000  O 
  O18      1.0000 0.53478  0.08098  0.66014  Biso   1.000  O 
  O19      1.0000 0.97023  0.41217  0.34869  Biso   1.000  O 
  O20      1.0000 0.96531  0.32859  0.85305  Biso   1.000  O 
  O21      1.0000 0.77604  0.12776  0.48272  Biso   1.000  O 
  O22      1.0000 0.77282  0.11971  0.98518  Biso   1.000  O 
  O23      1.0000 0.72949  0.37785  0.02285  Biso   1.000  O 
  O24      1.0000 0.72596  0.36995  0.52171  Biso   1.000  O 
  Hf12     1.0000 0.63936  0.52049  0.29278  Biso   1.000  Hf
  Hf13     1.0000 0.63756  0.72720  0.79503  Biso   1.000  Hf
  Hf14     1.0000 0.86451  0.76747  0.20816  Biso   1.000  Hf
  Hf15     1.0000 0.85796  0.97702  0.71852  Biso   1.000  Hf
  O25      1.0000 0.53864  0.66816  0.15711  Biso   1.000  O 
  O26      1.0000 0.53581  0.58224  0.65730  Biso   1.000  O 
  O27      1.0000 0.96867  0.91945  0.34590  Biso   1.000  O 
  O28      1.0000 0.96475  0.83278  0.84673  Biso   1.000  O 
  O29      1.0000 0.77885  0.62664  0.48232  Biso   1.000  O 
  O30      1.0000 0.77642  0.61994  0.98389  Biso   1.000  O 
  O31      1.0000 0.72813  0.87826  0.02291  Biso   1.000  O 
  O32      1.0000 0.73041  0.86944  0.52164  Biso   1.000  O 
