data_image0
_cell_length_a       10.0182
_cell_length_b       5.09975
_cell_length_c       10.4637
_cell_angle_alpha    90
_cell_angle_beta     90
_cell_angle_gamma    90

_symmetry_space_group_name_H-M    "P 1"
_symmetry_int_tables_number       1

loop_
  _symmetry_equiv_pos_as_xyz
  'x, y, z'

loop_
  _atom_site_label
  _atom_site_occupancy
  _atom_site_fract_x
  _atom_site_fract_y
  _atom_site_fract_z
  _atom_site_thermal_displace_type
  _atom_site_B_iso_or_equiv
  _atom_site_type_symbol
  As1      1.0000 0.11292  0.03799  0.18453  Biso   1.000  As
  Hf1      1.0000 0.13847  0.46635  0.42084  Biso   1.000  Hf
  Hf2      1.0000 0.35610  0.54732  0.16782  Biso   1.000  Hf
  Hf3      1.0000 0.36015  0.96756  0.41846  Biso   1.000  Hf
  Hf4      1.0000 0.63706  0.04334  0.07804  Biso   1.000  Hf
  Hf5      1.0000 0.63364  0.46053  0.32738  Biso   1.000  Hf
  Hf6      1.0000 0.86446  0.53457  0.07888  Biso   1.000  Hf
  Hf7      1.0000 0.85451  0.95841  0.33275  Biso   1.000  Hf
  O1       1.0000 0.04013  0.31411  0.08688  Biso   1.000  O 
  O2       1.0000 0.03053  0.16722  0.32874  Biso   1.000  O 
  O3       1.0000 0.47183  0.83139  0.08348  Biso   1.000  O 
  O4       1.0000 0.46503  0.67689  0.33241  Biso   1.000  O 
  O5       1.0000 0.27310  0.26309  0.29616  Biso   1.000  O 
  O6       1.0000 0.29227  0.27598  0.03380  Biso   1.000  O 
  O7       1.0000 0.21880  0.75868  0.29329  Biso   1.000  O 
  O8       1.0000 0.22654  0.75783  0.04202  Biso   1.000  O 
  O9       1.0000 0.53338  0.33590  0.16527  Biso   1.000  O 
  O10      1.0000 0.53007  0.17262  0.41584  Biso   1.000  O 
  O11      1.0000 0.96969  0.83581  0.16957  Biso   1.000  O 
  O12      1.0000 0.96384  0.67234  0.41655  Biso   1.000  O 
  O13      1.0000 0.77277  0.24846  0.45596  Biso   1.000  O 
  O14      1.0000 0.77587  0.25150  0.20611  Biso   1.000  O 
  O15      1.0000 0.72011  0.74850  0.45659  Biso   1.000  O 
  O16      1.0000 0.72942  0.75121  0.20593  Biso   1.000  O 
  Hf8      1.0000 0.13420  0.04639  0.67090  Biso   1.000  Hf
  Hf9      1.0000 0.14090  0.46174  0.92151  Biso   1.000  Hf
  Hf10     1.0000 0.35910  0.54915  0.67088  Biso   1.000  Hf
  Hf11     1.0000 0.35746  0.96630  0.92330  Biso   1.000  Hf
  Hf12     1.0000 0.63277  0.04565  0.58055  Biso   1.000  Hf
  Hf13     1.0000 0.63509  0.46423  0.82930  Biso   1.000  Hf
  Hf14     1.0000 0.85834  0.54347  0.57983  Biso   1.000  Hf
  Hf15     1.0000 0.86258  0.96036  0.83033  Biso   1.000  Hf
  O17      1.0000 0.02766  0.32494  0.57751  Biso   1.000  O 
  O18      1.0000 0.02861  0.17682  0.83204  Biso   1.000  O 
  O19      1.0000 0.46409  0.83997  0.58330  Biso   1.000  O 
  O20      1.0000 0.46480  0.67567  0.83260  Biso   1.000  O 
  O21      1.0000 0.27208  0.24990  0.79026  Biso   1.000  O 
  O22      1.0000 0.27285  0.25902  0.54410  Biso   1.000  O 
  O23      1.0000 0.22160  0.75050  0.79369  Biso   1.000  O 
  O24      1.0000 0.22157  0.75795  0.54254  Biso   1.000  O 
  O25      1.0000 0.53107  0.33988  0.66532  Biso   1.000  O 
  O26      1.0000 0.53123  0.17027  0.91375  Biso   1.000  O 
  O27      1.0000 0.96730  0.82545  0.66960  Biso   1.000  O 
  O28      1.0000 0.96603  0.67245  0.92364  Biso   1.000  O 
  O29      1.0000 0.77395  0.25284  0.95720  Biso   1.000  O 
  O30      1.0000 0.77343  0.25533  0.70625  Biso   1.000  O 
  O31      1.0000 0.72229  0.75117  0.95701  Biso   1.000  O 
  O32      1.0000 0.72270  0.75754  0.70645  Biso   1.000  O 
