data_image0
_cell_length_a       10.0021
_cell_length_b       10.4018
_cell_length_c       10.0661
_cell_angle_alpha    90
_cell_angle_beta     90
_cell_angle_gamma    90

_symmetry_space_group_name_H-M    "P 1"
_symmetry_int_tables_number       1

loop_
  _symmetry_equiv_pos_as_xyz
  'x, y, z'

loop_
  _atom_site_label
  _atom_site_occupancy
  _atom_site_fract_x
  _atom_site_fract_y
  _atom_site_fract_z
  _atom_site_thermal_displace_type
  _atom_site_B_iso_or_equiv
  _atom_site_type_symbol
  Hf1      1.0000 0.13082  0.01575  0.12146  Biso   1.000  Hf
  Hf2      1.0000 0.12125  0.23536  0.37850  Biso   1.000  Hf
  Hf3      1.0000 0.36391  0.26953  0.12113  Biso   1.000  Hf
  Hf4      1.0000 0.35466  0.48498  0.37336  Biso   1.000  Hf
  O1       1.0000 0.01253  0.17899  0.20686  Biso   1.000  O 
  O2       1.0000 0.03029  0.06093  0.43809  Biso   1.000  O 
  O3       1.0000 0.45521  0.43747  0.19454  Biso   1.000  O 
  O4       1.0000 0.44908  0.31654  0.44316  Biso   1.000  O 
  O5       1.0000 0.25859  0.11984  0.24400  Biso   1.000  O 
  O6       1.0000 0.26046  0.13304  0.49419  Biso   1.000  O 
  O7       1.0000 0.21573  0.38509  0.49521  Biso   1.000  O 
  O8       1.0000 0.21924  0.36490  0.24532  Biso   1.000  O 
  Hf5      1.0000 0.11983  0.00932  0.61847  Biso   1.000  Hf
  Hf6      1.0000 0.13366  0.22495  0.84701  Biso   1.000  Hf
  Hf7      1.0000 0.35631  0.26728  0.62007  Biso   1.000  Hf
  Hf8      1.0000 0.35130  0.49025  0.87120  Biso   1.000  Hf
  O9       1.0000 0.03510  0.18076  0.66915  Biso   1.000  O 
  O10      1.0000 0.01858  0.06343  0.93532  Biso   1.000  O 
  O11      1.0000 0.44760  0.43536  0.69028  Biso   1.000  O 
  O12      1.0000 0.44852  0.31837  0.94213  Biso   1.000  O 
  O13      1.0000 0.26353  0.11053  0.73947  Biso   1.000  O 
  O14      1.0000 0.25907  0.13042  0.99217  Biso   1.000  O 
  O15      1.0000 0.22656  0.39850  0.99485  Biso   1.000  O 
  O16      1.0000 0.21660  0.36977  0.74070  Biso   1.000  O 
  Hf9      1.0000 0.12576  0.51610  0.12492  Biso   1.000  Hf
  Hf10     1.0000 0.12303  0.73494  0.37380  Biso   1.000  Hf
  Hf11     1.0000 0.35795  0.76602  0.12782  Biso   1.000  Hf
  Hf12     1.0000 0.35253  0.98576  0.37408  Biso   1.000  Hf
  O17      1.0000 0.03078  0.68358  0.19296  Biso   1.000  O 
  O18      1.0000 0.02727  0.57127  0.44148  Biso   1.000  O 
  O19      1.0000 0.45462  0.93640  0.19657  Biso   1.000  O 
  O20      1.0000 0.45157  0.81799  0.44513  Biso   1.000  O 
  O21      1.0000 0.26282  0.61896  0.25043  Biso   1.000  O 
  O22      1.0000 0.25752  0.63425  0.49951  Biso   1.000  O 
  O23      1.0000 0.21928  0.88216  0.49651  Biso   1.000  O 
  O24      1.0000 0.22016  0.86885  0.24748  Biso   1.000  O 
  Hf13     1.0000 0.11831  0.52051  0.62110  Biso   1.000  Hf
  Hf14     1.0000 0.11055  0.73683  0.87524  Biso   1.000  Hf
  Hf15     1.0000 0.35164  0.76735  0.62624  Biso   1.000  Hf
  Hf16     1.0000 0.34711  0.98140  0.87702  Biso   1.000  Hf
  O25      1.0000 0.01994  0.68753  0.69505  Biso   1.000  O 
  O26      1.0000 0.01066  0.56385  0.94249  Biso   1.000  O 
  O27      1.0000 0.45116  0.93122  0.69879  Biso   1.000  O 
  O28      1.0000 0.44151  0.81742  0.95107  Biso   1.000  O 
  O29      1.0000 0.25120  0.62007  0.74946  Biso   1.000  O 
  O30      1.0000 0.26669  0.63694  0.00036  Biso   1.000  O 
  O31      1.0000 0.20395  0.88621  0.99917  Biso   1.000  O 
  O32      1.0000 0.21338  0.86608  0.74913  Biso   1.000  O 
  Hf17     1.0000 0.62773  0.01329  0.12873  Biso   1.000  Hf
  Hf18     1.0000 0.61981  0.23077  0.39216  Biso   1.000  Hf
  Hf19     1.0000 0.82204  0.26668  0.16214  Biso   1.000  Hf
  Hf20     1.0000 0.85467  0.48459  0.39252  Biso   1.000  Hf
  O33      1.0000 0.53382  0.18701  0.19527  Biso   1.000  O 
  O34      1.0000 0.52253  0.06630  0.45257  Biso   1.000  O 
  O35      1.0000 0.94803  0.43797  0.21712  Biso   1.000  O 
  O36      1.0000 0.94710  0.31114  0.44649  Biso   1.000  O 
  O37      1.0000 0.75079  0.11174  0.26781  Biso   1.000  O 
  O38      1.0000 0.76228  0.13110  0.51203  Biso   1.000  O 
  O39      1.0000 0.71328  0.37701  0.51251  Biso   1.000  O 
  O40      1.0000 0.70146  0.38054  0.27148  Biso   1.000  O 
  Hf21     1.0000 0.62336  0.01746  0.63236  Biso   1.000  Hf
  Hf22     1.0000 0.61684  0.23528  0.88073  Biso   1.000  Hf
  Hf23     1.0000 0.85656  0.27129  0.63893  Biso   1.000  Hf
  Hf24     1.0000 0.83868  0.48862  0.87416  Biso   1.000  Hf
  O41      1.0000 0.52429  0.18600  0.69429  Biso   1.000  O 
  O42      1.0000 0.51987  0.06583  0.94302  Biso   1.000  O 
  O43      1.0000 0.93370  0.45464  0.66394  Biso   1.000  O 
  O44      1.0000 0.94505  0.31491  0.85224  Biso   1.000  O 
  O45      1.0000 0.75655  0.12043  0.75991  Biso   1.000  O 
  O46      1.0000 0.77182  0.13301  0.01463  Biso   1.000  O 
  O47      1.0000 0.73572  0.38145  0.01146  Biso   1.000  O 
  O48      1.0000 0.70568  0.37442  0.75793  Biso   1.000  O 
  Hf25     1.0000 0.62817  0.52142  0.13307  Biso   1.000  Hf
  Hf26     1.0000 0.62245  0.73535  0.37935  Biso   1.000  Hf
  Hf27     1.0000 0.86012  0.76611  0.13158  Biso   1.000  Hf
  Hf28     1.0000 0.85492  0.98150  0.38210  Biso   1.000  Hf
  O49      1.0000 0.52882  0.68587  0.19772  Biso   1.000  O 
  O50      1.0000 0.52270  0.56716  0.44660  Biso   1.000  O 
  O51      1.0000 0.95709  0.93474  0.19582  Biso   1.000  O 
  O52      1.0000 0.95287  0.81546  0.44965  Biso   1.000  O 
  O53      1.0000 0.76344  0.62144  0.25770  Biso   1.000  O 
  O54      1.0000 0.75416  0.63477  0.50663  Biso   1.000  O 
  O55      1.0000 0.71594  0.88331  0.50429  Biso   1.000  O 
  O56      1.0000 0.72167  0.86734  0.25364  Biso   1.000  O 
  Hf29     1.0000 0.61817  0.51786  0.62832  Biso   1.000  Hf
  Hf30     1.0000 0.61166  0.73756  0.87979  Biso   1.000  Hf
  Hf31     1.0000 0.85005  0.76885  0.63067  Biso   1.000  Hf
  Hf32     1.0000 0.84258  0.98364  0.88214  Biso   1.000  Hf
  O57      1.0000 0.51708  0.68312  0.70034  Biso   1.000  O 
  O58      1.0000 0.51489  0.57046  0.94868  Biso   1.000  O 
  O59      1.0000 0.94621  0.93641  0.69773  Biso   1.000  O 
  O60      1.0000 0.93936  0.81499  0.94778  Biso   1.000  O 
  O61      1.0000 0.75109  0.62325  0.75536  Biso   1.000  O 
  O62      1.0000 0.76917  0.63195  0.00525  Biso   1.000  O 
  O63      1.0000 0.72856  0.88166  0.00470  Biso   1.000  O 
  O64      1.0000 0.71259  0.86935  0.75438  Biso   1.000  O 
  As1      1.0000 0.02509  0.28903  0.03878  Biso   1.000  As
