data_image0
_cell_length_a       10.1084
_cell_length_b       10.3681
_cell_length_c       5.25119
_cell_angle_alpha    90
_cell_angle_beta     90
_cell_angle_gamma    90

_symmetry_space_group_name_H-M    "P 1"
_symmetry_int_tables_number       1

loop_
  _symmetry_equiv_pos_as_xyz
  'x, y, z'

loop_
  _atom_site_label
  _atom_site_occupancy
  _atom_site_fract_x
  _atom_site_fract_y
  _atom_site_fract_z
  _atom_site_thermal_displace_type
  _atom_site_B_iso_or_equiv
  _atom_site_type_symbol
  Hf1      1.0000 0.12942  0.01465  0.35495  Biso   1.000  Hf
  Hf2      1.0000 0.12824  0.22221  0.86472  Biso   1.000  Hf
  Hf3      1.0000 0.33954  0.25325  0.38002  Biso   1.000  Hf
  Hf4      1.0000 0.36088  0.48097  0.84109  Biso   1.000  Hf
  Hf5      1.0000 0.64007  0.01280  0.16362  Biso   1.000  Hf
  Hf6      1.0000 0.63798  0.22711  0.63569  Biso   1.000  Hf
  Hf7      1.0000 0.86140  0.27174  0.15049  Biso   1.000  Hf
  Hf8      1.0000 0.86741  0.47694  0.65333  Biso   1.000  Hf
  O1       1.0000 0.03167  0.16590  0.17960  Biso   1.000  O 
  O2       1.0000 0.02471  0.07828  0.67791  Biso   1.000  O 
  O3       1.0000 0.48256  0.44365  0.16434  Biso   1.000  O 
  O4       1.0000 0.47023  0.33803  0.63295  Biso   1.000  O 
  O5       1.0000 0.26251  0.11680  0.61570  Biso   1.000  O 
  O6       1.0000 0.26699  0.11182  0.11251  Biso   1.000  O 
  O7       1.0000 0.21903  0.37082  0.61464  Biso   1.000  O 
  O8       1.0000 0.23294  0.37216  0.11250  Biso   1.000  O 
  O9       1.0000 0.51556  0.11539  0.40162  Biso   1.000  O 
  O10      1.0000 0.51436  0.07858  0.86375  Biso   1.000  O 
  O11      1.0000 0.97178  0.41425  0.32987  Biso   1.000  O 
  O12      1.0000 0.96362  0.32794  0.83404  Biso   1.000  O 
  O13      1.0000 0.76540  0.11965  0.89699  Biso   1.000  O 
  O14      1.0000 0.77530  0.12365  0.39967  Biso   1.000  O 
  O15      1.0000 0.73279  0.38494  0.89926  Biso   1.000  O 
  O16      1.0000 0.73058  0.37773  0.40817  Biso   1.000  O 
  Hf9      1.0000 0.14370  0.51708  0.34286  Biso   1.000  Hf
  Hf10     1.0000 0.13982  0.72363  0.84312  Biso   1.000  Hf
  Hf11     1.0000 0.37209  0.76720  0.34561  Biso   1.000  Hf
  Hf12     1.0000 0.36355  0.96615  0.85850  Biso   1.000  Hf
  Hf13     1.0000 0.65916  0.53260  0.14481  Biso   1.000  Hf
  Hf14     1.0000 0.64510  0.72829  0.65126  Biso   1.000  Hf
  Hf15     1.0000 0.87729  0.77089  0.15739  Biso   1.000  Hf
  Hf16     1.0000 0.86946  0.97657  0.66292  Biso   1.000  Hf
  O17      1.0000 0.04633  0.66477  0.16798  Biso   1.000  O 
  O18      1.0000 0.03919  0.57965  0.66836  Biso   1.000  O 
  O19      1.0000 0.48470  0.90045  0.15843  Biso   1.000  O 
  O20      1.0000 0.47414  0.83347  0.66169  Biso   1.000  O 
  O21      1.0000 0.28143  0.61995  0.58528  Biso   1.000  O 
  O22      1.0000 0.28594  0.62228  0.08582  Biso   1.000  O 
  O23      1.0000 0.22999  0.86729  0.59762  Biso   1.000  O 
  O24      1.0000 0.23782  0.87013  0.10014  Biso   1.000  O 
  O25      1.0000 0.54696  0.66948  0.32695  Biso   1.000  O 
  O26      1.0000 0.53520  0.58502  0.81824  Biso   1.000  O 
  O27      1.0000 0.97652  0.91482  0.33477  Biso   1.000  O 
  O28      1.0000 0.97092  0.82988  0.83535  Biso   1.000  O 
  O29      1.0000 0.77950  0.62668  0.90050  Biso   1.000  O 
  O30      1.0000 0.78890  0.62746  0.40501  Biso   1.000  O 
  O31      1.0000 0.72947  0.87122  0.91213  Biso   1.000  O 
  O32      1.0000 0.73790  0.87222  0.41461  Biso   1.000  O 
  As1      1.0000 0.52498  0.26469  0.07220  Biso   1.000  As
