data_image0
_cell_length_a       10.3509
_cell_length_b       10.4158
_cell_length_c       5.07809
_cell_angle_alpha    90
_cell_angle_beta     90
_cell_angle_gamma    90

_symmetry_space_group_name_H-M    "P 1"
_symmetry_int_tables_number       1

loop_
  _symmetry_equiv_pos_as_xyz
  'x, y, z'

loop_
  _atom_site_label
  _atom_site_occupancy
  _atom_site_fract_x
  _atom_site_fract_y
  _atom_site_fract_z
  _atom_site_thermal_displace_type
  _atom_site_B_iso_or_equiv
  _atom_site_type_symbol
  Hf1      1.0000 0.14056  0.97206  0.21884  Biso   1.000  Hf
  Hf2      1.0000 0.12482  0.24839  0.61395  Biso   1.000  Hf
  Hf3      1.0000 0.38452  0.27674  0.23527  Biso   1.000  Hf
  Hf4      1.0000 0.37209  0.03435  0.74267  Biso   1.000  Hf
  O1       1.0000 0.88452  0.17878  0.01803  Biso   1.000  O 
  O2       1.0000 0.95708  0.14819  0.56131  Biso   1.000  O 
  O3       1.0000 0.98703  0.40717  0.56640  Biso   1.000  O 
  O4       1.0000 0.93863  0.43079  0.08013  Biso   1.000  O 
  O5       1.0000 0.25182  0.13656  0.38851  Biso   1.000  O 
  O6       1.0000 0.19791  0.08742  0.86369  Biso   1.000  O 
  O7       1.0000 0.24431  0.33951  0.88127  Biso   1.000  O 
  O8       1.0000 0.22983  0.39731  0.39735  Biso   1.000  O 
  Hf5      1.0000 0.08733  0.52665  0.25135  Biso   1.000  Hf
  Hf6      1.0000 0.11427  0.75907  0.72840  Biso   1.000  Hf
  Hf7      1.0000 0.38206  0.76635  0.30935  Biso   1.000  Hf
  Hf8      1.0000 0.32163  0.50225  0.70981  Biso   1.000  Hf
  O9       1.0000 0.95553  0.70497  0.98270  Biso   1.000  O 
  O10      1.0000 0.97880  0.64676  0.48816  Biso   1.000  O 
  O11      1.0000 0.01052  0.88245  0.49342  Biso   1.000  O 
  O12      1.0000 0.97468  0.93297  0.02733  Biso   1.000  O 
  O13      1.0000 0.22928  0.64666  0.46601  Biso   1.000  O 
  O14      1.0000 0.17547  0.58990  0.93020  Biso   1.000  O 
  O15      1.0000 0.22322  0.81035  0.05753  Biso   1.000  O 
  O16      1.0000 0.25374  0.88949  0.53608  Biso   1.000  O 
  Hf9      1.0000 0.60975  0.02326  0.29005  Biso   1.000  Hf
  Hf10     1.0000 0.60386  0.27218  0.77198  Biso   1.000  Hf
  Hf11     1.0000 0.84985  0.29379  0.34475  Biso   1.000  Hf
  Hf12     1.0000 0.82703  0.03831  0.76506  Biso   1.000  Hf
  O17      1.0000 0.44791  0.19865  0.98169  Biso   1.000  O 
  O18      1.0000 0.48399  0.13924  0.49549  Biso   1.000  O 
  O19      1.0000 0.47827  0.38014  0.53827  Biso   1.000  O 
  O20      1.0000 0.45692  0.44192  0.05401  Biso   1.000  O 
  O21      1.0000 0.71778  0.16905  0.50282  Biso   1.000  O 
  O22      1.0000 0.65561  0.09118  0.93426  Biso   1.000  O 
  O23      1.0000 0.68109  0.33453  0.11076  Biso   1.000  O 
  O24      1.0000 0.72910  0.42031  0.57073  Biso   1.000  O 
  Hf13     1.0000 0.60503  0.51369  0.27019  Biso   1.000  Hf
  Hf14     1.0000 0.60602  0.74781  0.76275  Biso   1.000  Hf
  Hf15     1.0000 0.87624  0.79127  0.26176  Biso   1.000  Hf
  Hf16     1.0000 0.85304  0.55206  0.73901  Biso   1.000  Hf
  O25      1.0000 0.51828  0.68178  0.07641  Biso   1.000  O 
  O26      1.0000 0.47337  0.62465  0.55163  Biso   1.000  O 
  O27      1.0000 0.49736  0.88501  0.56046  Biso   1.000  O 
  O28      1.0000 0.44566  0.92246  0.08815  Biso   1.000  O 
  O29      1.0000 0.73209  0.67059  0.47731  Biso   1.000  O 
  O30      1.0000 0.69631  0.60551  0.97206  Biso   1.000  O 
  O31      1.0000 0.72929  0.86447  0.93627  Biso   1.000  O 
  O32      1.0000 0.75019  0.93115  0.43128  Biso   1.000  O 
  As1      1.0000 0.05342  0.21565  0.07540  Biso   1.000  As
