data_image0
_cell_length_a       4.97345
_cell_length_b       10.3726
_cell_length_c       9.99694
_cell_angle_alpha    90
_cell_angle_beta     90
_cell_angle_gamma    90

_symmetry_space_group_name_H-M    "P 1"
_symmetry_int_tables_number       1

loop_
  _symmetry_equiv_pos_as_xyz
  'x, y, z'

loop_
  _atom_site_label
  _atom_site_occupancy
  _atom_site_fract_x
  _atom_site_fract_y
  _atom_site_fract_z
  _atom_site_thermal_displace_type
  _atom_site_B_iso_or_equiv
  _atom_site_type_symbol
  As1      1.0000 0.22067  0.02653  0.10828  Biso   1.000  As
  Hf1      1.0000 0.28954  0.22926  0.37502  Biso   1.000  Hf
  Hf2      1.0000 0.72851  0.26582  0.12621  Biso   1.000  Hf
  Hf3      1.0000 0.74768  0.48111  0.37660  Biso   1.000  Hf
  O1       1.0000 0.09801  0.18245  0.18224  Biso   1.000  O 
  O2       1.0000 0.08648  0.06441  0.44266  Biso   1.000  O 
  O3       1.0000 0.93662  0.42879  0.19487  Biso   1.000  O 
  O4       1.0000 0.94387  0.31258  0.44336  Biso   1.000  O 
  O5       1.0000 0.58022  0.12749  0.25701  Biso   1.000  O 
  O6       1.0000 0.55249  0.12935  0.50339  Biso   1.000  O 
  O7       1.0000 0.47542  0.37917  0.49980  Biso   1.000  O 
  O8       1.0000 0.46255  0.36922  0.25001  Biso   1.000  O 
  Hf4      1.0000 0.27629  0.01355  0.62602  Biso   1.000  Hf
  Hf5      1.0000 0.28935  0.23444  0.87474  Biso   1.000  Hf
  Hf6      1.0000 0.74974  0.26371  0.62511  Biso   1.000  Hf
  Hf7      1.0000 0.75302  0.48147  0.87495  Biso   1.000  Hf
  O9       1.0000 0.08595  0.18141  0.69734  Biso   1.000  O 
  O10      1.0000 0.08449  0.06155  0.94864  Biso   1.000  O 
  O11      1.0000 0.94551  0.43213  0.69311  Biso   1.000  O 
  O12      1.0000 0.94424  0.31113  0.94091  Biso   1.000  O 
  O13      1.0000 0.55271  0.11458  0.75099  Biso   1.000  O 
  O14      1.0000 0.55282  0.12912  0.99990  Biso   1.000  O 
  O15      1.0000 0.45952  0.38250  0.00030  Biso   1.000  O 
  O16      1.0000 0.47690  0.36559  0.74945  Biso   1.000  O 
  Hf8      1.0000 0.27372  0.51635  0.12874  Biso   1.000  Hf
  Hf9      1.0000 0.28945  0.73381  0.37675  Biso   1.000  Hf
  Hf10     1.0000 0.73952  0.76264  0.12450  Biso   1.000  Hf
  Hf11     1.0000 0.74385  0.98403  0.37494  Biso   1.000  Hf
  O17      1.0000 0.08383  0.68583  0.19601  Biso   1.000  O 
  O18      1.0000 0.09060  0.56339  0.44338  Biso   1.000  O 
  O19      1.0000 0.94541  0.93984  0.18160  Biso   1.000  O 
  O20      1.0000 0.95331  0.81732  0.44788  Biso   1.000  O 
  O21      1.0000 0.55400  0.61205  0.24902  Biso   1.000  O 
  O22      1.0000 0.56062  0.63107  0.50010  Biso   1.000  O 
  O23      1.0000 0.47906  0.88163  0.50329  Biso   1.000  O 
  O24      1.0000 0.51015  0.85680  0.25905  Biso   1.000  O 
  Hf12     1.0000 0.28536  0.51531  0.62452  Biso   1.000  Hf
  Hf13     1.0000 0.28469  0.72985  0.87765  Biso   1.000  Hf
  Hf14     1.0000 0.75192  0.76598  0.62621  Biso   1.000  Hf
  Hf15     1.0000 0.73522  0.97861  0.87815  Biso   1.000  Hf
  O25      1.0000 0.09019  0.68160  0.69505  Biso   1.000  O 
  O26      1.0000 0.09078  0.56256  0.94719  Biso   1.000  O 
  O27      1.0000 0.94189  0.93327  0.69754  Biso   1.000  O 
  O28      1.0000 0.93825  0.81262  0.94000  Biso   1.000  O 
  O29      1.0000 0.55841  0.61551  0.75027  Biso   1.000  O 
  O30      1.0000 0.53972  0.63172  0.00009  Biso   1.000  O 
  O31      1.0000 0.44516  0.88042  0.00402  Biso   1.000  O 
  O32      1.0000 0.47295  0.86546  0.75230  Biso   1.000  O 
