data_image0
_cell_length_a       10.1297
_cell_length_b       5.18922
_cell_length_c       10.2387
_cell_angle_alpha    90
_cell_angle_beta     90
_cell_angle_gamma    90

_symmetry_space_group_name_H-M    "P 1"
_symmetry_int_tables_number       1

loop_
  _symmetry_equiv_pos_as_xyz
  'x, y, z'

loop_
  _atom_site_label
  _atom_site_occupancy
  _atom_site_fract_x
  _atom_site_fract_y
  _atom_site_fract_z
  _atom_site_thermal_displace_type
  _atom_site_B_iso_or_equiv
  _atom_site_type_symbol
  Hf1      1.0000 0.12591  0.02812  0.10554  Biso   1.000  Hf
  Hf2      1.0000 0.10240  0.46805  0.35681  Biso   1.000  Hf
  Hf3      1.0000 0.35269  0.53543  0.12146  Biso   1.000  Hf
  Hf4      1.0000 0.32962  0.97010  0.37034  Biso   1.000  Hf
  O1       1.0000 0.01350  0.35881  0.18247  Biso   1.000  O 
  O2       1.0000 0.99698  0.15037  0.42068  Biso   1.000  O 
  O3       1.0000 0.43859  0.87338  0.20010  Biso   1.000  O 
  O4       1.0000 0.41790  0.63459  0.44794  Biso   1.000  O 
  O5       1.0000 0.24618  0.24278  0.24175  Biso   1.000  O 
  O6       1.0000 0.22650  0.26300  0.49038  Biso   1.000  O 
  O7       1.0000 0.18329  0.76606  0.47972  Biso   1.000  O 
  O8       1.0000 0.20375  0.73416  0.23257  Biso   1.000  O 
  Hf5      1.0000 0.08104  0.03975  0.59768  Biso   1.000  Hf
  Hf6      1.0000 0.07108  0.47176  0.83661  Biso   1.000  Hf
  Hf7      1.0000 0.31281  0.54120  0.61803  Biso   1.000  Hf
  Hf8      1.0000 0.28629  0.97712  0.86887  Biso   1.000  Hf
  O9       1.0000 0.97089  0.33899  0.67263  Biso   1.000  O 
  O10      1.0000 0.93299  0.15300  0.92958  Biso   1.000  O 
  O11      1.0000 0.40095  0.87054  0.69730  Biso   1.000  O 
  O12      1.0000 0.36811  0.63392  0.94301  Biso   1.000  O 
  O13      1.0000 0.20878  0.24441  0.73488  Biso   1.000  O 
  O14      1.0000 0.17571  0.27264  0.98529  Biso   1.000  O 
  O15      1.0000 0.14627  0.79592  0.97757  Biso   1.000  O 
  O16      1.0000 0.16452  0.74481  0.72550  Biso   1.000  O 
  Hf9      1.0000 0.61326  0.03938  0.15310  Biso   1.000  Hf
  Hf10     1.0000 0.59173  0.46342  0.40213  Biso   1.000  Hf
  Hf11     1.0000 0.82597  0.54353  0.18254  Biso   1.000  Hf
  Hf12     1.0000 0.82190  0.96079  0.41722  Biso   1.000  Hf
  O17      1.0000 0.51254  0.37335  0.21027  Biso   1.000  O 
  O18      1.0000 0.48991  0.13284  0.45927  Biso   1.000  O 
  O19      1.0000 0.92945  0.90703  0.15072  Biso   1.000  O 
  O20      1.0000 0.91917  0.63302  0.36365  Biso   1.000  O 
  O21      1.0000 0.73457  0.24080  0.29098  Biso   1.000  O 
  O22      1.0000 0.71898  0.26321  0.53697  Biso   1.000  O 
  O23      1.0000 0.67177  0.74760  0.53254  Biso   1.000  O 
  O24      1.0000 0.68630  0.76100  0.28734  Biso   1.000  O 
  Hf13     1.0000 0.57426  0.03959  0.64793  Biso   1.000  Hf
  Hf14     1.0000 0.54202  0.47655  0.89523  Biso   1.000  Hf
  Hf15     1.0000 0.79646  0.54617  0.66614  Biso   1.000  Hf
  Hf16     1.0000 0.75488  0.97920  0.93046  Biso   1.000  Hf
  O25      1.0000 0.47166  0.37317  0.70364  Biso   1.000  O 
  O26      1.0000 0.44086  0.14214  0.95435  Biso   1.000  O 
  O27      1.0000 0.90685  0.84654  0.59357  Biso   1.000  O 
  O28      1.0000 0.89552  0.69348  0.82554  Biso   1.000  O 
  O29      1.0000 0.69512  0.24360  0.78809  Biso   1.000  O 
  O30      1.0000 0.75914  0.26088  0.04316  Biso   1.000  O 
  O31      1.0000 0.71136  0.74793  0.03855  Biso   1.000  O 
  O32      1.0000 0.65222  0.75717  0.78373  Biso   1.000  O 
  As1      1.0000 0.01105  0.56479  0.01622  Biso   1.000  As
