data_image0
_cell_length_a       10.2466
_cell_length_b       10.398
_cell_length_c       5.24737
_cell_angle_alpha    90
_cell_angle_beta     80
_cell_angle_gamma    90

_symmetry_space_group_name_H-M    "P 1"
_symmetry_int_tables_number       1

loop_
  _symmetry_equiv_pos_as_xyz
  'x, y, z'

loop_
  _atom_site_label
  _atom_site_occupancy
  _atom_site_fract_x
  _atom_site_fract_y
  _atom_site_fract_z
  _atom_site_thermal_displace_type
  _atom_site_B_iso_or_equiv
  _atom_site_type_symbol
  Hf1      1.0000 0.13377  0.01965  0.28561  Biso   1.000  Hf
  Hf2      1.0000 0.14657  0.22979  0.77996  Biso   1.000  Hf
  Hf3      1.0000 0.36491  0.27278  0.19873  Biso   1.000  Hf
  Hf4      1.0000 0.36960  0.48833  0.71022  Biso   1.000  Hf
  O1       1.0000 0.03879  0.17028  0.15798  Biso   1.000  O 
  O2       1.0000 0.03359  0.08474  0.65909  Biso   1.000  O 
  O3       1.0000 0.47767  0.42084  0.36212  Biso   1.000  O 
  O4       1.0000 0.49450  0.38506  0.89751  Biso   1.000  O 
  O5       1.0000 0.26630  0.12195  0.46347  Biso   1.000  O 
  O6       1.0000 0.27579  0.11685  0.97031  Biso   1.000  O 
  O7       1.0000 0.22853  0.37736  0.01015  Biso   1.000  O 
  O8       1.0000 0.23067  0.37466  0.50981  Biso   1.000  O 
  Hf5      1.0000 0.14939  0.52163  0.29053  Biso   1.000  Hf
  Hf6      1.0000 0.15004  0.73080  0.79196  Biso   1.000  Hf
  Hf7      1.0000 0.37112  0.77035  0.20350  Biso   1.000  Hf
  Hf8      1.0000 0.36715  0.97007  0.70026  Biso   1.000  Hf
  O9       1.0000 0.04128  0.66701  0.16009  Biso   1.000  O 
  O10      1.0000 0.04935  0.58582  0.65655  Biso   1.000  O 
  O11      1.0000 0.47568  0.91630  0.32574  Biso   1.000  O 
  O12      1.0000 0.47396  0.82899  0.83380  Biso   1.000  O 
  O13      1.0000 0.28648  0.63002  0.47901  Biso   1.000  O 
  O14      1.0000 0.28653  0.62615  0.98158  Biso   1.000  O 
  O15      1.0000 0.22972  0.87335  0.01700  Biso   1.000  O 
  O16      1.0000 0.23350  0.86786  0.51230  Biso   1.000  O 
  Hf9      1.0000 0.63654  0.01649  0.29181  Biso   1.000  Hf
  Hf10     1.0000 0.67456  0.24887  0.82312  Biso   1.000  Hf
  Hf11     1.0000 0.87203  0.27446  0.22943  Biso   1.000  Hf
  Hf12     1.0000 0.87810  0.48760  0.71616  Biso   1.000  Hf
  O17      1.0000 0.53409  0.16328  0.13381  Biso   1.000  O 
  O18      1.0000 0.53018  0.05523  0.65816  Biso   1.000  O 
  O19      1.0000 0.97793  0.42069  0.34611  Biso   1.000  O 
  O20      1.0000 0.97315  0.33439  0.84421  Biso   1.000  O 
  O21      1.0000 0.77640  0.13465  0.50156  Biso   1.000  O 
  O22      1.0000 0.78318  0.11801  0.00667  Biso   1.000  O 
  O23      1.0000 0.73814  0.38369  0.04725  Biso   1.000  O 
  O24      1.0000 0.74380  0.38417  0.53795  Biso   1.000  O 
  Hf13     1.0000 0.64724  0.52951  0.30197  Biso   1.000  Hf
  Hf14     1.0000 0.65127  0.73328  0.78953  Biso   1.000  Hf
  Hf15     1.0000 0.87235  0.77348  0.20935  Biso   1.000  Hf
  Hf16     1.0000 0.87806  0.98307  0.70908  Biso   1.000  Hf
  O25      1.0000 0.54295  0.66709  0.15179  Biso   1.000  O 
  O26      1.0000 0.54287  0.59811  0.64623  Biso   1.000  O 
  O27      1.0000 0.97493  0.91974  0.34274  Biso   1.000  O 
  O28      1.0000 0.97973  0.83544  0.84067  Biso   1.000  O 
  O29      1.0000 0.78771  0.63437  0.48469  Biso   1.000  O 
  O30      1.0000 0.78953  0.62867  0.98230  Biso   1.000  O 
  O31      1.0000 0.73307  0.87880  0.01821  Biso   1.000  O 
  O32      1.0000 0.73765  0.87519  0.51744  Biso   1.000  O 
  As1      1.0000 0.48186  0.23334  0.60793  Biso   1.000  As
