data_image0
_cell_length_a       10.1159
_cell_length_b       10.2932
_cell_length_c       10.1506
_cell_angle_alpha    90
_cell_angle_beta     90
_cell_angle_gamma    90

_symmetry_space_group_name_H-M    "P 1"
_symmetry_int_tables_number       1

loop_
  _symmetry_equiv_pos_as_xyz
  'x, y, z'

loop_
  _atom_site_label
  _atom_site_occupancy
  _atom_site_fract_x
  _atom_site_fract_y
  _atom_site_fract_z
  _atom_site_thermal_displace_type
  _atom_site_B_iso_or_equiv
  _atom_site_type_symbol
  Hf1      1.0000 0.16243  0.97736  0.11967  Biso   1.000  Hf
  Hf2      1.0000 0.10772  0.21242  0.36847  Biso   1.000  Hf
  Hf3      1.0000 0.38891  0.24444  0.09870  Biso   1.000  Hf
  Hf4      1.0000 0.37733  0.01374  0.35797  Biso   1.000  Hf
  O1       1.0000 0.00673  0.15750  0.01264  Biso   1.000  O 
  O2       1.0000 0.98766  0.08558  0.25176  Biso   1.000  O 
  O3       1.0000 0.95138  0.33427  0.32371  Biso   1.000  O 
  O4       1.0000 0.96113  0.43102  0.05918  Biso   1.000  O 
  O5       1.0000 0.24821  0.13313  0.23556  Biso   1.000  O 
  O6       1.0000 0.21179  0.08002  0.98422  Biso   1.000  O 
  O7       1.0000 0.27034  0.31367  0.91187  Biso   1.000  O 
  O8       1.0000 0.27146  0.40926  0.18083  Biso   1.000  O 
  Hf5      1.0000 0.13866  0.98904  0.61707  Biso   1.000  Hf
  Hf6      1.0000 0.10014  0.22169  0.86493  Biso   1.000  Hf
  Hf7      1.0000 0.34955  0.25071  0.60344  Biso   1.000  Hf
  Hf8      1.0000 0.35618  0.01626  0.85789  Biso   1.000  Hf
  O9       1.0000 0.98524  0.14909  0.51599  Biso   1.000  O 
  O10      1.0000 0.97149  0.10035  0.75280  Biso   1.000  O 
  O11      1.0000 0.96165  0.35208  0.80188  Biso   1.000  O 
  O12      1.0000 0.96810  0.41583  0.55324  Biso   1.000  O 
  O13      1.0000 0.22106  0.13969  0.72356  Biso   1.000  O 
  O14      1.0000 0.23376  0.08677  0.48582  Biso   1.000  O 
  O15      1.0000 0.25086  0.33069  0.43617  Biso   1.000  O 
  O16      1.0000 0.23486  0.40083  0.68686  Biso   1.000  O 
  Hf9      1.0000 0.12855  0.54823  0.11372  Biso   1.000  Hf
  Hf10     1.0000 0.13562  0.75256  0.37515  Biso   1.000  Hf
  Hf11     1.0000 0.41112  0.75933  0.15019  Biso   1.000  Hf
  Hf12     1.0000 0.35779  0.48544  0.35020  Biso   1.000  Hf
  O17      1.0000 0.96494  0.67536  0.99567  Biso   1.000  O 
  O18      1.0000 0.00422  0.60041  0.26417  Biso   1.000  O 
  O19      1.0000 0.04853  0.83144  0.20665  Biso   1.000  O 
  O20      1.0000 0.01126  0.92020  0.95665  Biso   1.000  O 
  O21      1.0000 0.26253  0.64589  0.23398  Biso   1.000  O 
  O22      1.0000 0.19443  0.57717  0.95288  Biso   1.000  O 
  O23      1.0000 0.26860  0.81718  0.02725  Biso   1.000  O 
  O24      1.0000 0.28358  0.88983  0.26874  Biso   1.000  O 
  Hf13     1.0000 0.10959  0.53494  0.61618  Biso   1.000  Hf
  Hf14     1.0000 0.11553  0.75823  0.86729  Biso   1.000  Hf
  Hf15     1.0000 0.38683  0.76505  0.64645  Biso   1.000  Hf
  Hf16     1.0000 0.33713  0.48698  0.84479  Biso   1.000  Hf
  O25      1.0000 0.99087  0.66542  0.50078  Biso   1.000  O 
  O26      1.0000 0.98535  0.61230  0.75651  Biso   1.000  O 
  O27      1.0000 0.02329  0.84637  0.70828  Biso   1.000  O 
  O28      1.0000 0.03087  0.91073  0.45772  Biso   1.000  O 
  O29      1.0000 0.24221  0.65027  0.72994  Biso   1.000  O 
  O30      1.0000 0.22741  0.58572  0.46457  Biso   1.000  O 
  O31      1.0000 0.24823  0.83265  0.52502  Biso   1.000  O 
  O32      1.0000 0.26062  0.89466  0.76955  Biso   1.000  O 
  Hf17     1.0000 0.62805  0.00402  0.11714  Biso   1.000  Hf
  Hf18     1.0000 0.62245  0.27247  0.38756  Biso   1.000  Hf
  Hf19     1.0000 0.87085  0.25554  0.15008  Biso   1.000  Hf
  Hf20     1.0000 0.84527  0.01309  0.38190  Biso   1.000  Hf
  O33      1.0000 0.47150  0.14871  0.97587  Biso   1.000  O 
  O34      1.0000 0.48713  0.10234  0.21747  Biso   1.000  O 
  O35      1.0000 0.49675  0.35029  0.24164  Biso   1.000  O 
  O36      1.0000 0.46189  0.41045  0.99221  Biso   1.000  O 
  O37      1.0000 0.73390  0.15635  0.26320  Biso   1.000  O 
  O38      1.0000 0.76353  0.10928  0.01363  Biso   1.000  O 
  O39      1.0000 0.73383  0.34704  0.03887  Biso   1.000  O 
  O40      1.0000 0.73014  0.41706  0.28287  Biso   1.000  O 
  Hf21     1.0000 0.60043  0.01033  0.61677  Biso   1.000  Hf
  Hf22     1.0000 0.59861  0.27513  0.87925  Biso   1.000  Hf
  Hf23     1.0000 0.86706  0.25881  0.64098  Biso   1.000  Hf
  Hf24     1.0000 0.82654  0.02103  0.87750  Biso   1.000  Hf
  O41      1.0000 0.48390  0.15200  0.47550  Biso   1.000  O 
  O42      1.0000 0.46734  0.11391  0.72191  Biso   1.000  O 
  O43      1.0000 0.47708  0.35825  0.73392  Biso   1.000  O 
  O44      1.0000 0.48391  0.40574  0.49121  Biso   1.000  O 
  O45      1.0000 0.72440  0.17105  0.76303  Biso   1.000  O 
  O46      1.0000 0.73335  0.11858  0.51127  Biso   1.000  O 
  O47      1.0000 0.72399  0.35988  0.53548  Biso   1.000  O 
  O48      1.0000 0.71081  0.42542  0.78541  Biso   1.000  O 
  Hf25     1.0000 0.62209  0.49698  0.13084  Biso   1.000  Hf
  Hf26     1.0000 0.62453  0.73978  0.40181  Biso   1.000  Hf
  Hf27     1.0000 0.88032  0.74701  0.14032  Biso   1.000  Hf
  Hf28     1.0000 0.87418  0.50838  0.39225  Biso   1.000  Hf
  O49      1.0000 0.51637  0.64637  0.02687  Biso   1.000  O 
  O50      1.0000 0.50805  0.60804  0.27449  Biso   1.000  O 
  O51      1.0000 0.54245  0.86317  0.26274  Biso   1.000  O 
  O52      1.0000 0.52849  0.89257  0.00895  Biso   1.000  O 
  O53      1.0000 0.76205  0.66225  0.27644  Biso   1.000  O 
  O54      1.0000 0.76266  0.60362  0.02181  Biso   1.000  O 
  O55      1.0000 0.73712  0.86587  0.99072  Biso   1.000  O 
  O56      1.0000 0.80087  0.91069  0.23320  Biso   1.000  O 
  Hf29     1.0000 0.59908  0.50086  0.63029  Biso   1.000  Hf
  Hf30     1.0000 0.59869  0.74358  0.90202  Biso   1.000  Hf
  Hf31     1.0000 0.86172  0.75455  0.63841  Biso   1.000  Hf
  Hf32     1.0000 0.85435  0.52077  0.88244  Biso   1.000  Hf
  O57      1.0000 0.49666  0.65107  0.52677  Biso   1.000  O 
  O58      1.0000 0.48935  0.61219  0.77270  Biso   1.000  O 
  O59      1.0000 0.51874  0.86901  0.76025  Biso   1.000  O 
  O60      1.0000 0.50648  0.89907  0.50917  Biso   1.000  O 
  O61      1.0000 0.74465  0.67379  0.77782  Biso   1.000  O 
  O62      1.0000 0.74279  0.60869  0.52523  Biso   1.000  O 
  O63      1.0000 0.76152  0.86401  0.49010  Biso   1.000  O 
  O64      1.0000 0.77653  0.92185  0.73011  Biso   1.000  O 
  As1      1.0000 0.13021  0.29159  0.11107  Biso   1.000  As
