data_image0
_cell_length_a       5.07877
_cell_length_b       10.4445
_cell_length_c       10.1457
_cell_angle_alpha    90
_cell_angle_beta     90
_cell_angle_gamma    90

_symmetry_space_group_name_H-M    "P 1"
_symmetry_int_tables_number       1

loop_
  _symmetry_equiv_pos_as_xyz
  'x, y, z'

loop_
  _atom_site_label
  _atom_site_occupancy
  _atom_site_fract_x
  _atom_site_fract_y
  _atom_site_fract_z
  _atom_site_thermal_displace_type
  _atom_site_B_iso_or_equiv
  _atom_site_type_symbol
  Hf1      1.0000 0.30421  0.93826  0.12183  Biso   1.000  Hf
  Hf2      1.0000 0.35040  0.26278  0.39569  Biso   1.000  Hf
  Hf3      1.0000 0.78604  0.28530  0.13016  Biso   1.000  Hf
  Hf4      1.0000 0.86269  0.98427  0.36465  Biso   1.000  Hf
  O1       1.0000 0.91562  0.13095  0.97591  Biso   1.000  O 
  O2       1.0000 0.13471  0.04046  0.29847  Biso   1.000  O 
  O3       1.0000 0.05019  0.34787  0.27403  Biso   1.000  O 
  O4       1.0000 0.01410  0.39901  0.00319  Biso   1.000  O 
  O5       1.0000 0.66725  0.15469  0.27329  Biso   1.000  O 
  O6       1.0000 0.41427  0.02656  0.96042  Biso   1.000  O 
  O7       1.0000 0.48590  0.34522  0.00262  Biso   1.000  O 
  O8       1.0000 0.55315  0.40604  0.25583  Biso   1.000  O 
  Hf5      1.0000 0.30690  0.00794  0.60997  Biso   1.000  Hf
  Hf6      1.0000 0.26386  0.20609  0.89059  Biso   1.000  Hf
  Hf7      1.0000 0.81985  0.23057  0.64555  Biso   1.000  Hf
  Hf8      1.0000 0.76472  0.97716  0.86864  Biso   1.000  Hf
  O9       1.0000 0.11772  0.16923  0.52395  Biso   1.000  O 
  O10      1.0000 0.03234  0.07916  0.74751  Biso   1.000  O 
  O11      1.0000 0.12119  0.33591  0.75095  Biso   1.000  O 
  O12      1.0000 0.15299  0.41702  0.49307  Biso   1.000  O 
  O13      1.0000 0.53739  0.13411  0.75116  Biso   1.000  O 
  O14      1.0000 0.60005  0.10105  0.50870  Biso   1.000  O 
  O15      1.0000 0.63881  0.35168  0.50446  Biso   1.000  O 
  O16      1.0000 0.64041  0.38378  0.74842  Biso   1.000  O 
  Hf9      1.0000 0.31172  0.50217  0.11719  Biso   1.000  Hf
  Hf10     1.0000 0.34565  0.75136  0.38380  Biso   1.000  Hf
  Hf11     1.0000 0.79936  0.72828  0.11891  Biso   1.000  Hf
  Hf12     1.0000 0.85395  0.49489  0.38154  Biso   1.000  Hf
  O17      1.0000 0.14948  0.61635  0.98102  Biso   1.000  O 
  O18      1.0000 0.98939  0.57712  0.21678  Biso   1.000  O 
  O19      1.0000 0.08188  0.81888  0.24713  Biso   1.000  O 
  O20      1.0000 0.98871  0.89179  0.00875  Biso   1.000  O 
  O21      1.0000 0.49641  0.64806  0.23649  Biso   1.000  O 
  O22      1.0000 0.60313  0.57975  0.00732  Biso   1.000  O 
  O23      1.0000 0.57342  0.78952  0.99878  Biso   1.000  O 
  O24      1.0000 0.61536  0.88217  0.23903  Biso   1.000  O 
  Hf13     1.0000 0.39484  0.48340  0.63332  Biso   1.000  Hf
  Hf14     1.0000 0.33822  0.73310  0.84990  Biso   1.000  Hf
  Hf15     1.0000 0.83742  0.74623  0.61605  Biso   1.000  Hf
  Hf16     1.0000 0.89647  0.48600  0.86114  Biso   1.000  Hf
  O25      1.0000 0.04260  0.65695  0.46849  Biso   1.000  O 
  O26      1.0000 0.11841  0.59232  0.72686  Biso   1.000  O 
  O27      1.0000 0.04929  0.83095  0.76085  Biso   1.000  O 
  O28      1.0000 0.10734  0.89637  0.51225  Biso   1.000  O 
  O29      1.0000 0.62178  0.62970  0.75133  Biso   1.000  O 
  O30      1.0000 0.56684  0.60653  0.50001  Biso   1.000  O 
  O31      1.0000 0.60898  0.85799  0.49103  Biso   1.000  O 
  O32      1.0000 0.56820  0.87858  0.73971  Biso   1.000  O 
  Au1      1.0000 0.29221  0.18068  0.15035  Biso   1.000  Au
