data_image0
_cell_length_a       9.94608
_cell_length_b       10.3761
_cell_length_c       5.01756
_cell_angle_alpha    90
_cell_angle_beta     90
_cell_angle_gamma    90

_symmetry_space_group_name_H-M    "P 1"
_symmetry_int_tables_number       1

loop_
  _symmetry_equiv_pos_as_xyz
  'x, y, z'

loop_
  _atom_site_label
  _atom_site_occupancy
  _atom_site_fract_x
  _atom_site_fract_y
  _atom_site_fract_z
  _atom_site_thermal_displace_type
  _atom_site_B_iso_or_equiv
  _atom_site_type_symbol
  Au1      1.0000 0.12000  0.02406  0.21687  Biso   1.000  Au
  Hf1      1.0000 0.14641  0.23516  0.74847  Biso   1.000  Hf
  Hf2      1.0000 0.37126  0.26840  0.26197  Biso   1.000  Hf
  Hf3      1.0000 0.37340  0.48416  0.75627  Biso   1.000  Hf
  O1       1.0000 0.04401  0.18501  0.37487  Biso   1.000  O 
  O2       1.0000 0.04579  0.06381  0.81554  Biso   1.000  O 
  O3       1.0000 0.46907  0.43420  0.39458  Biso   1.000  O 
  O4       1.0000 0.46998  0.31340  0.88762  Biso   1.000  O 
  O5       1.0000 0.29821  0.13600  0.53540  Biso   1.000  O 
  O6       1.0000 0.26288  0.12724  0.02691  Biso   1.000  O 
  O7       1.0000 0.23259  0.38149  0.00273  Biso   1.000  O 
  O8       1.0000 0.23192  0.37255  0.50058  Biso   1.000  O 
  Hf4      1.0000 0.13809  0.51672  0.25428  Biso   1.000  Hf
  Hf5      1.0000 0.14171  0.73185  0.75660  Biso   1.000  Hf
  Hf6      1.0000 0.37038  0.76663  0.26304  Biso   1.000  Hf
  Hf7      1.0000 0.37118  0.98245  0.75562  Biso   1.000  Hf
  O9       1.0000 0.04121  0.68334  0.39193  Biso   1.000  O 
  O10      1.0000 0.04334  0.56300  0.89250  Biso   1.000  O 
  O11      1.0000 0.47329  0.93412  0.39644  Biso   1.000  O 
  O12      1.0000 0.47101  0.81583  0.89886  Biso   1.000  O 
  O13      1.0000 0.27587  0.61453  0.50249  Biso   1.000  O 
  O14      1.0000 0.27259  0.63382  0.00415  Biso   1.000  O 
  O15      1.0000 0.22498  0.88242  0.02676  Biso   1.000  O 
  O16      1.0000 0.24789  0.85872  0.53023  Biso   1.000  O 
  Hf8      1.0000 0.63460  0.01600  0.24726  Biso   1.000  Hf
  Hf9      1.0000 0.63951  0.23100  0.74964  Biso   1.000  Hf
  Hf10     1.0000 0.86528  0.26607  0.24552  Biso   1.000  Hf
  Hf11     1.0000 0.87372  0.48099  0.75062  Biso   1.000  Hf
  O17      1.0000 0.54759  0.18807  0.37730  Biso   1.000  O 
  O18      1.0000 0.54184  0.06472  0.88752  Biso   1.000  O 
  O19      1.0000 0.96884  0.42901  0.38795  Biso   1.000  O 
  O20      1.0000 0.97163  0.31338  0.88518  Biso   1.000  O 
  O21      1.0000 0.77506  0.11648  0.49264  Biso   1.000  O 
  O22      1.0000 0.78128  0.12872  0.99158  Biso   1.000  O 
  O23      1.0000 0.73049  0.38056  0.00077  Biso   1.000  O 
  O24      1.0000 0.73423  0.36757  0.50109  Biso   1.000  O 
  Hf12     1.0000 0.63854  0.51662  0.25562  Biso   1.000  Hf
  Hf13     1.0000 0.64046  0.73261  0.75429  Biso   1.000  Hf
  Hf14     1.0000 0.87213  0.76340  0.24354  Biso   1.000  Hf
  Hf15     1.0000 0.87158  0.98024  0.74091  Biso   1.000  Hf
  O25      1.0000 0.54137  0.68323  0.39738  Biso   1.000  O 
  O26      1.0000 0.54424  0.56494  0.89531  Biso   1.000  O 
  O27      1.0000 0.96691  0.93422  0.36989  Biso   1.000  O 
  O28      1.0000 0.97057  0.81473  0.88176  Biso   1.000  O 
  O29      1.0000 0.77691  0.61567  0.49936  Biso   1.000  O 
  O30      1.0000 0.77887  0.62982  0.99837  Biso   1.000  O 
  O31      1.0000 0.73674  0.87884  0.99572  Biso   1.000  O 
  O32      1.0000 0.74011  0.86551  0.49510  Biso   1.000  O 
