data_image0
_cell_length_a       10.1256
_cell_length_b       10.2479
_cell_length_c       5.23987
_cell_angle_alpha    90
_cell_angle_beta     80
_cell_angle_gamma    90

_symmetry_space_group_name_H-M    "P 1"
_symmetry_int_tables_number       1

loop_
  _symmetry_equiv_pos_as_xyz
  'x, y, z'

loop_
  _atom_site_label
  _atom_site_occupancy
  _atom_site_fract_x
  _atom_site_fract_y
  _atom_site_fract_z
  _atom_site_thermal_displace_type
  _atom_site_B_iso_or_equiv
  _atom_site_type_symbol
  Au1      1.0000 0.12054  0.01405  0.33294  Biso   1.000  Au
  Hf1      1.0000 0.13667  0.23051  0.79342  Biso   1.000  Hf
  Hf2      1.0000 0.35998  0.27056  0.19844  Biso   1.000  Hf
  Hf3      1.0000 0.35842  0.48125  0.70707  Biso   1.000  Hf
  O1       1.0000 0.04235  0.16475  0.16462  Biso   1.000  O 
  O2       1.0000 0.01661  0.08860  0.69719  Biso   1.000  O 
  O3       1.0000 0.46449  0.41710  0.34296  Biso   1.000  O 
  O4       1.0000 0.46434  0.34052  0.84768  Biso   1.000  O 
  O5       1.0000 0.26511  0.12251  0.45506  Biso   1.000  O 
  O6       1.0000 0.28728  0.13900  0.93466  Biso   1.000  O 
  O7       1.0000 0.22579  0.38261  0.01649  Biso   1.000  O 
  O8       1.0000 0.22480  0.36954  0.51811  Biso   1.000  O 
  Hf4      1.0000 0.14070  0.52231  0.29402  Biso   1.000  Hf
  Hf5      1.0000 0.13473  0.73109  0.79532  Biso   1.000  Hf
  Hf6      1.0000 0.36488  0.77411  0.19867  Biso   1.000  Hf
  Hf7      1.0000 0.36131  0.98286  0.70499  Biso   1.000  Hf
  O9       1.0000 0.03893  0.66987  0.16084  Biso   1.000  O 
  O10      1.0000 0.03504  0.58126  0.66244  Biso   1.000  O 
  O11      1.0000 0.46678  0.91780  0.34310  Biso   1.000  O 
  O12      1.0000 0.46496  0.83528  0.84039  Biso   1.000  O 
  O13      1.0000 0.27627  0.63280  0.48049  Biso   1.000  O 
  O14      1.0000 0.27146  0.62353  0.98228  Biso   1.000  O 
  O15      1.0000 0.22592  0.88239  0.00066  Biso   1.000  O 
  O16      1.0000 0.21801  0.87046  0.50839  Biso   1.000  O 
  Hf8      1.0000 0.63518  0.02169  0.29487  Biso   1.000  Hf
  Hf9      1.0000 0.63293  0.23101  0.79727  Biso   1.000  Hf
  Hf10     1.0000 0.86388  0.26936  0.21787  Biso   1.000  Hf
  Hf11     1.0000 0.86029  0.47813  0.71505  Biso   1.000  Hf
  O17      1.0000 0.53423  0.16792  0.15756  Biso   1.000  O 
  O18      1.0000 0.53222  0.08326  0.65796  Biso   1.000  O 
  O19      1.0000 0.96715  0.41584  0.35317  Biso   1.000  O 
  O20      1.0000 0.96200  0.33538  0.86366  Biso   1.000  O 
  O21      1.0000 0.77238  0.12919  0.48747  Biso   1.000  O 
  O22      1.0000 0.76644  0.12224  0.99162  Biso   1.000  O 
  O23      1.0000 0.72853  0.37721  0.02452  Biso   1.000  O 
  O24      1.0000 0.72418  0.37107  0.52445  Biso   1.000  O 
  Hf12     1.0000 0.63831  0.51967  0.29201  Biso   1.000  Hf
  Hf13     1.0000 0.63556  0.72820  0.79105  Biso   1.000  Hf
  Hf14     1.0000 0.86215  0.76773  0.20694  Biso   1.000  Hf
  Hf15     1.0000 0.85346  0.97925  0.72223  Biso   1.000  Hf
  O25      1.0000 0.53822  0.66662  0.15205  Biso   1.000  O 
  O26      1.0000 0.53289  0.58430  0.65360  Biso   1.000  O 
  O27      1.0000 0.95633  0.92205  0.34169  Biso   1.000  O 
  O28      1.0000 0.95902  0.83095  0.84254  Biso   1.000  O 
  O29      1.0000 0.77646  0.62757  0.48169  Biso   1.000  O 
  O30      1.0000 0.77195  0.62146  0.98376  Biso   1.000  O 
  O31      1.0000 0.72613  0.87797  0.02058  Biso   1.000  O 
  O32      1.0000 0.72491  0.86994  0.51967  Biso   1.000  O 
