data_image0
_cell_length_a       9.97595
_cell_length_b       5.27851
_cell_length_c       10.193
_cell_angle_alpha    90
_cell_angle_beta     90
_cell_angle_gamma    90

_symmetry_space_group_name_H-M    "P 1"
_symmetry_int_tables_number       1

loop_
  _symmetry_equiv_pos_as_xyz
  'x, y, z'

loop_
  _atom_site_label
  _atom_site_occupancy
  _atom_site_fract_x
  _atom_site_fract_y
  _atom_site_fract_z
  _atom_site_thermal_displace_type
  _atom_site_B_iso_or_equiv
  _atom_site_type_symbol
  Hf1      1.0000 0.13855  0.08978  0.13549  Biso   1.000  Hf
  Hf2      1.0000 0.13022  0.49579  0.38425  Biso   1.000  Hf
  Hf3      1.0000 0.36763  0.56790  0.12864  Biso   1.000  Hf
  Hf4      1.0000 0.36272  0.99134  0.37889  Biso   1.000  Hf
  O1       1.0000 0.02252  0.38881  0.21393  Biso   1.000  O 
  O2       1.0000 0.04347  0.14647  0.43272  Biso   1.000  O 
  O3       1.0000 0.46772  0.88933  0.20970  Biso   1.000  O 
  O4       1.0000 0.45828  0.65935  0.45321  Biso   1.000  O 
  O5       1.0000 0.27308  0.27327  0.25578  Biso   1.000  O 
  O6       1.0000 0.26990  0.28862  0.50311  Biso   1.000  O 
  O7       1.0000 0.22607  0.78671  0.50207  Biso   1.000  O 
  O8       1.0000 0.22600  0.76541  0.25621  Biso   1.000  O 
  Hf5      1.0000 0.12907  0.05219  0.61492  Biso   1.000  Hf
  Hf6      1.0000 0.11065  0.47549  0.83666  Biso   1.000  Hf
  Hf7      1.0000 0.35958  0.56107  0.62901  Biso   1.000  Hf
  Hf8      1.0000 0.37623  0.01934  0.86518  Biso   1.000  Hf
  O9       1.0000 0.03991  0.40144  0.65174  Biso   1.000  O 
  O10      1.0000 0.01444  0.18992  0.94155  Biso   1.000  O 
  O11      1.0000 0.45568  0.89274  0.68851  Biso   1.000  O 
  O12      1.0000 0.46270  0.69886  0.94860  Biso   1.000  O 
  O13      1.0000 0.25716  0.25397  0.74973  Biso   1.000  O 
  O14      1.0000 0.24940  0.34885  0.00763  Biso   1.000  O 
  O15      1.0000 0.27180  0.87011  0.01885  Biso   1.000  O 
  O16      1.0000 0.22224  0.76393  0.75390  Biso   1.000  O 
  Hf9      1.0000 0.63507  0.05208  0.13635  Biso   1.000  Hf
  Hf10     1.0000 0.62503  0.49207  0.38670  Biso   1.000  Hf
  Hf11     1.0000 0.84144  0.54330  0.15367  Biso   1.000  Hf
  Hf12     1.0000 0.86669  0.98993  0.38695  Biso   1.000  Hf
  O17      1.0000 0.53637  0.39039  0.20046  Biso   1.000  O 
  O18      1.0000 0.52895  0.16374  0.45185  Biso   1.000  O 
  O19      1.0000 0.95726  0.90189  0.20546  Biso   1.000  O 
  O20      1.0000 0.95611  0.65366  0.44459  Biso   1.000  O 
  O21      1.0000 0.76146  0.25287  0.26884  Biso   1.000  O 
  O22      1.0000 0.76314  0.30107  0.51197  Biso   1.000  O 
  O23      1.0000 0.72261  0.79428  0.50719  Biso   1.000  O 
  O24      1.0000 0.72020  0.76380  0.26442  Biso   1.000  O 
  Hf13     1.0000 0.62882  0.07058  0.62796  Biso   1.000  Hf
  Hf14     1.0000 0.62869  0.52126  0.88174  Biso   1.000  Hf
  Hf15     1.0000 0.85737  0.57772  0.63297  Biso   1.000  Hf
  Hf16     1.0000 0.85548  0.99462  0.86535  Biso   1.000  Hf
  O25      1.0000 0.51865  0.38496  0.71039  Biso   1.000  O 
  O26      1.0000 0.52337  0.20263  0.95695  Biso   1.000  O 
  O27      1.0000 0.94390  0.94172  0.66436  Biso   1.000  O 
  O28      1.0000 0.92064  0.62890  0.83321  Biso   1.000  O 
  O29      1.0000 0.75644  0.27165  0.76036  Biso   1.000  O 
  O30      1.0000 0.76776  0.28557  0.02054  Biso   1.000  O 
  O31      1.0000 0.74323  0.77167  0.00823  Biso   1.000  O 
  O32      1.0000 0.70467  0.78603  0.75085  Biso   1.000  O 
  Au1      1.0000 0.06114  0.66361  0.03423  Biso   1.000  Au
