data_image0
_cell_length_a       10.1029
_cell_length_b       10.2723
_cell_length_c       10.4501
_cell_angle_alpha    90
_cell_angle_beta     80
_cell_angle_gamma    90

_symmetry_space_group_name_H-M    "P 1"
_symmetry_int_tables_number       1

loop_
  _symmetry_equiv_pos_as_xyz
  'x, y, z'

loop_
  _atom_site_label
  _atom_site_occupancy
  _atom_site_fract_x
  _atom_site_fract_y
  _atom_site_fract_z
  _atom_site_thermal_displace_type
  _atom_site_B_iso_or_equiv
  _atom_site_type_symbol
  Au1      1.0000 0.12225  0.01504  0.16857  Biso   1.000  Au
  Hf1      1.0000 0.13340  0.23414  0.39793  Biso   1.000  Hf
  Hf2      1.0000 0.35920  0.26971  0.09981  Biso   1.000  Hf
  Hf3      1.0000 0.35770  0.48030  0.35338  Biso   1.000  Hf
  O1       1.0000 0.04255  0.16478  0.08434  Biso   1.000  O 
  O2       1.0000 0.01909  0.08489  0.35459  Biso   1.000  O 
  O3       1.0000 0.46226  0.41955  0.16945  Biso   1.000  O 
  O4       1.0000 0.45811  0.33170  0.42006  Biso   1.000  O 
  O5       1.0000 0.26702  0.12448  0.23463  Biso   1.000  O 
  O6       1.0000 0.27051  0.12338  0.48638  Biso   1.000  O 
  O7       1.0000 0.22480  0.38163  0.00840  Biso   1.000  O 
  O8       1.0000 0.22235  0.37022  0.25893  Biso   1.000  O 
  Hf4      1.0000 0.12897  0.02237  0.64397  Biso   1.000  Hf
  Hf5      1.0000 0.13156  0.22596  0.89673  Biso   1.000  Hf
  Hf6      1.0000 0.35318  0.27304  0.60488  Biso   1.000  Hf
  Hf7      1.0000 0.35100  0.48104  0.85591  Biso   1.000  Hf
  O9       1.0000 0.03032  0.17609  0.58505  Biso   1.000  O 
  O10      1.0000 0.02635  0.07994  0.83139  Biso   1.000  O 
  O11      1.0000 0.45603  0.42076  0.67105  Biso   1.000  O 
  O12      1.0000 0.45728  0.33799  0.92288  Biso   1.000  O 
  O13      1.0000 0.26577  0.12891  0.73536  Biso   1.000  O 
  O14      1.0000 0.27993  0.13581  0.97553  Biso   1.000  O 
  O15      1.0000 0.21672  0.38162  0.51012  Biso   1.000  O 
  O16      1.0000 0.21549  0.37101  0.76111  Biso   1.000  O 
  Hf8      1.0000 0.13906  0.52227  0.14524  Biso   1.000  Hf
  Hf9      1.0000 0.13254  0.72772  0.39755  Biso   1.000  Hf
  Hf10     1.0000 0.36258  0.77346  0.09986  Biso   1.000  Hf
  Hf11     1.0000 0.35941  0.97940  0.35312  Biso   1.000  Hf
  O17      1.0000 0.03876  0.67259  0.08154  Biso   1.000  O 
  O18      1.0000 0.03354  0.57955  0.33102  Biso   1.000  O 
  O19      1.0000 0.46349  0.91912  0.17089  Biso   1.000  O 
  O20      1.0000 0.45964  0.83048  0.41890  Biso   1.000  O 
  O21      1.0000 0.27499  0.63245  0.24087  Biso   1.000  O 
  O22      1.0000 0.27102  0.62181  0.49152  Biso   1.000  O 
  O23      1.0000 0.23186  0.87977  0.00187  Biso   1.000  O 
  O24      1.0000 0.21568  0.87025  0.25622  Biso   1.000  O 
  Hf12     1.0000 0.13199  0.52269  0.64873  Biso   1.000  Hf
  Hf13     1.0000 0.13031  0.73375  0.89694  Biso   1.000  Hf
  Hf14     1.0000 0.35489  0.77320  0.60457  Biso   1.000  Hf
  Hf15     1.0000 0.35198  0.98346  0.85482  Biso   1.000  Hf
  O25      1.0000 0.02957  0.67052  0.58230  Biso   1.000  O 
  O26      1.0000 0.02853  0.58073  0.83429  Biso   1.000  O 
  O27      1.0000 0.45766  0.92128  0.66957  Biso   1.000  O 
  O28      1.0000 0.45644  0.83433  0.92017  Biso   1.000  O 
  O29      1.0000 0.26868  0.63148  0.74158  Biso   1.000  O 
  O30      1.0000 0.26533  0.62362  0.99209  Biso   1.000  O 
  O31      1.0000 0.21882  0.88072  0.50686  Biso   1.000  O 
  O32      1.0000 0.21503  0.87260  0.75719  Biso   1.000  O 
  Hf16     1.0000 0.63678  0.02097  0.14561  Biso   1.000  Hf
  Hf17     1.0000 0.63255  0.23025  0.39745  Biso   1.000  Hf
  Hf18     1.0000 0.86338  0.26863  0.10719  Biso   1.000  Hf
  Hf19     1.0000 0.85663  0.47979  0.35510  Biso   1.000  Hf
  O33      1.0000 0.53620  0.16966  0.08056  Biso   1.000  O 
  O34      1.0000 0.53019  0.08123  0.33091  Biso   1.000  O 
  O35      1.0000 0.96385  0.41928  0.17107  Biso   1.000  O 
  O36      1.0000 0.95842  0.33455  0.42392  Biso   1.000  O 
  O37      1.0000 0.77181  0.12861  0.24358  Biso   1.000  O 
  O38      1.0000 0.76746  0.12225  0.49460  Biso   1.000  O 
  O39      1.0000 0.72773  0.37759  0.01130  Biso   1.000  O 
  O40      1.0000 0.72200  0.37008  0.26038  Biso   1.000  O 
  Hf20     1.0000 0.62889  0.02323  0.64904  Biso   1.000  Hf
  Hf21     1.0000 0.62824  0.23092  0.89894  Biso   1.000  Hf
  Hf22     1.0000 0.85308  0.27364  0.60762  Biso   1.000  Hf
  Hf23     1.0000 0.85409  0.47844  0.85837  Biso   1.000  Hf
  O41      1.0000 0.52739  0.17113  0.58143  Biso   1.000  O 
  O42      1.0000 0.52763  0.08256  0.83152  Biso   1.000  O 
  O43      1.0000 0.95668  0.42069  0.67426  Biso   1.000  O 
  O44      1.0000 0.95470  0.32915  0.92726  Biso   1.000  O 
  O45      1.0000 0.76821  0.13144  0.74320  Biso   1.000  O 
  O46      1.0000 0.76435  0.12210  0.99437  Biso   1.000  O 
  O47      1.0000 0.71634  0.38032  0.51120  Biso   1.000  O 
  O48      1.0000 0.71534  0.37296  0.76254  Biso   1.000  O 
  Hf24     1.0000 0.63725  0.51972  0.14511  Biso   1.000  Hf
  Hf25     1.0000 0.63441  0.72793  0.39602  Biso   1.000  Hf
  Hf26     1.0000 0.86122  0.76834  0.10232  Biso   1.000  Hf
  Hf27     1.0000 0.85122  0.97851  0.36090  Biso   1.000  Hf
  O49      1.0000 0.53767  0.66916  0.07857  Biso   1.000  O 
  O50      1.0000 0.53363  0.57990  0.33017  Biso   1.000  O 
  O51      1.0000 0.95418  0.92383  0.17038  Biso   1.000  O 
  O52      1.0000 0.95765  0.82939  0.41989  Biso   1.000  O 
  O53      1.0000 0.77459  0.62860  0.24050  Biso   1.000  O 
  O54      1.0000 0.77134  0.62171  0.49182  Biso   1.000  O 
  O55      1.0000 0.72566  0.87896  0.00909  Biso   1.000  O 
  O56      1.0000 0.72208  0.86982  0.25956  Biso   1.000  O 
  Hf28     1.0000 0.63119  0.52271  0.64800  Biso   1.000  Hf
  Hf29     1.0000 0.62920  0.73044  0.89685  Biso   1.000  Hf
  Hf30     1.0000 0.85405  0.77192  0.60656  Biso   1.000  Hf
  Hf31     1.0000 0.85329  0.98102  0.85626  Biso   1.000  Hf
  O57      1.0000 0.52975  0.67039  0.58032  Biso   1.000  O 
  O58      1.0000 0.52598  0.58412  0.83029  Biso   1.000  O 
  O59      1.0000 0.95610  0.92197  0.66928  Biso   1.000  O 
  O60      1.0000 0.95245  0.83019  0.92055  Biso   1.000  O 
  O61      1.0000 0.76929  0.62995  0.74277  Biso   1.000  O 
  O62      1.0000 0.76567  0.62180  0.99287  Biso   1.000  O 
  O63      1.0000 0.71618  0.87968  0.51139  Biso   1.000  O 
  O64      1.0000 0.71638  0.87230  0.76087  Biso   1.000  O 
