data_image0
_cell_length_a       10.0309
_cell_length_b       10.382
_cell_length_c       10.0676
_cell_angle_alpha    90
_cell_angle_beta     90
_cell_angle_gamma    90

_symmetry_space_group_name_H-M    "P 1"
_symmetry_int_tables_number       1

loop_
  _symmetry_equiv_pos_as_xyz
  'x, y, z'

loop_
  _atom_site_label
  _atom_site_occupancy
  _atom_site_fract_x
  _atom_site_fract_y
  _atom_site_fract_z
  _atom_site_thermal_displace_type
  _atom_site_B_iso_or_equiv
  _atom_site_type_symbol
  Hf1      1.0000 0.13921  0.99841  0.11162  Biso   1.000  Hf
  Hf2      1.0000 0.12975  0.23625  0.39434  Biso   1.000  Hf
  Hf3      1.0000 0.36392  0.26777  0.12255  Biso   1.000  Hf
  Hf4      1.0000 0.36531  0.48830  0.37507  Biso   1.000  Hf
  O1       1.0000 0.95159  0.19140  0.28737  Biso   1.000  O 
  O2       1.0000 0.04203  0.06513  0.46132  Biso   1.000  O 
  O3       1.0000 0.45816  0.43687  0.19228  Biso   1.000  O 
  O4       1.0000 0.46295  0.32149  0.44539  Biso   1.000  O 
  O5       1.0000 0.25723  0.11295  0.25088  Biso   1.000  O 
  O6       1.0000 0.27441  0.13593  0.50202  Biso   1.000  O 
  O7       1.0000 0.23429  0.38791  0.50165  Biso   1.000  O 
  O8       1.0000 0.22764  0.36900  0.25524  Biso   1.000  O 
  Hf5      1.0000 0.13899  0.01709  0.63100  Biso   1.000  Hf
  Hf6      1.0000 0.13627  0.23583  0.86818  Biso   1.000  Hf
  Hf7      1.0000 0.36856  0.27140  0.62647  Biso   1.000  Hf
  Hf8      1.0000 0.36549  0.49102  0.87185  Biso   1.000  Hf
  O9       1.0000 0.03810  0.18695  0.69305  Biso   1.000  O 
  O10      1.0000 0.04774  0.05952  0.92875  Biso   1.000  O 
  O11      1.0000 0.46557  0.43799  0.69501  Biso   1.000  O 
  O12      1.0000 0.46171  0.32059  0.94097  Biso   1.000  O 
  O13      1.0000 0.27507  0.12176  0.74867  Biso   1.000  O 
  O14      1.0000 0.28442  0.12906  0.99473  Biso   1.000  O 
  O15      1.0000 0.23258  0.39611  0.99638  Biso   1.000  O 
  O16      1.0000 0.23024  0.37075  0.74727  Biso   1.000  O 
  Hf9      1.0000 0.12930  0.52174  0.12486  Biso   1.000  Hf
  Hf10     1.0000 0.12815  0.73828  0.37588  Biso   1.000  Hf
  Hf11     1.0000 0.36346  0.76151  0.12399  Biso   1.000  Hf
  Hf12     1.0000 0.35760  0.98665  0.37502  Biso   1.000  Hf
  O17      1.0000 0.03243  0.68779  0.19327  Biso   1.000  O 
  O18      1.0000 0.03032  0.57487  0.44203  Biso   1.000  O 
  O19      1.0000 0.45282  0.93390  0.19455  Biso   1.000  O 
  O20      1.0000 0.46082  0.81959  0.44286  Biso   1.000  O 
  O21      1.0000 0.26610  0.61801  0.24731  Biso   1.000  O 
  O22      1.0000 0.26583  0.63622  0.49625  Biso   1.000  O 
  O23      1.0000 0.22593  0.88579  0.49816  Biso   1.000  O 
  O24      1.0000 0.22651  0.86321  0.24562  Biso   1.000  O 
  Hf13     1.0000 0.12633  0.51630  0.62109  Biso   1.000  Hf
  Hf14     1.0000 0.12737  0.73504  0.86940  Biso   1.000  Hf
  Hf15     1.0000 0.36384  0.76726  0.62127  Biso   1.000  Hf
  Hf16     1.0000 0.36534  0.98488  0.86958  Biso   1.000  Hf
  O25      1.0000 0.03231  0.68851  0.68901  Biso   1.000  O 
  O26      1.0000 0.03063  0.57186  0.94667  Biso   1.000  O 
  O27      1.0000 0.46258  0.93577  0.69164  Biso   1.000  O 
  O28      1.0000 0.46703  0.82318  0.94871  Biso   1.000  O 
  O29      1.0000 0.26355  0.61778  0.74523  Biso   1.000  O 
  O30      1.0000 0.26491  0.63917  0.99617  Biso   1.000  O 
  O31      1.0000 0.23131  0.87970  0.99193  Biso   1.000  O 
  O32      1.0000 0.22989  0.86748  0.74661  Biso   1.000  O 
  Hf17     1.0000 0.62656  0.00861  0.11857  Biso   1.000  Hf
  Hf18     1.0000 0.62676  0.23332  0.37960  Biso   1.000  Hf
  Hf19     1.0000 0.82770  0.26557  0.13083  Biso   1.000  Hf
  Hf20     1.0000 0.86305  0.48680  0.37677  Biso   1.000  Hf
  O33      1.0000 0.52544  0.18365  0.19293  Biso   1.000  O 
  O34      1.0000 0.53291  0.06882  0.44769  Biso   1.000  O 
  O35      1.0000 0.95312  0.43701  0.19176  Biso   1.000  O 
  O36      1.0000 0.97905  0.34084  0.47420  Biso   1.000  O 
  O37      1.0000 0.74034  0.11170  0.24723  Biso   1.000  O 
  O38      1.0000 0.77240  0.14231  0.49781  Biso   1.000  O 
  O39      1.0000 0.73120  0.38649  0.50145  Biso   1.000  O 
  O40      1.0000 0.71413  0.37423  0.25603  Biso   1.000  O 
  Hf21     1.0000 0.63981  0.01942  0.62277  Biso   1.000  Hf
  Hf22     1.0000 0.63028  0.23830  0.87126  Biso   1.000  Hf
  Hf23     1.0000 0.86651  0.27439  0.63191  Biso   1.000  Hf
  Hf24     1.0000 0.86161  0.48836  0.87898  Biso   1.000  Hf
  O41      1.0000 0.53925  0.18825  0.69092  Biso   1.000  O 
  O42      1.0000 0.54019  0.06941  0.93686  Biso   1.000  O 
  O43      1.0000 0.96137  0.44289  0.70449  Biso   1.000  O 
  O44      1.0000 0.95306  0.31647  0.92958  Biso   1.000  O 
  O45      1.0000 0.77241  0.12131  0.74883  Biso   1.000  O 
  O46      1.0000 0.76717  0.13652  0.99825  Biso   1.000  O 
  O47      1.0000 0.71830  0.38324  0.00221  Biso   1.000  O 
  O48      1.0000 0.72657  0.37417  0.75100  Biso   1.000  O 
  Hf25     1.0000 0.62721  0.52217  0.12819  Biso   1.000  Hf
  Hf26     1.0000 0.63352  0.74085  0.37594  Biso   1.000  Hf
  Hf27     1.0000 0.86182  0.76830  0.12505  Biso   1.000  Hf
  Hf28     1.0000 0.87651  0.00313  0.36459  Biso   1.000  Hf
  O49      1.0000 0.53230  0.68690  0.19791  Biso   1.000  O 
  O50      1.0000 0.53385  0.57128  0.44541  Biso   1.000  O 
  O51      1.0000 0.96136  0.94480  0.18637  Biso   1.000  O 
  O52      1.0000 0.95955  0.82535  0.43798  Biso   1.000  O 
  O53      1.0000 0.76695  0.62080  0.25072  Biso   1.000  O 
  O54      1.0000 0.76747  0.63767  0.49859  Biso   1.000  O 
  O55      1.0000 0.72795  0.89167  0.49486  Biso   1.000  O 
  O56      1.0000 0.72729  0.86878  0.24506  Biso   1.000  O 
  Hf29     1.0000 0.63339  0.52146  0.62489  Biso   1.000  Hf
  Hf30     1.0000 0.63291  0.73861  0.87362  Biso   1.000  Hf
  Hf31     1.0000 0.86397  0.77392  0.61960  Biso   1.000  Hf
  Hf32     1.0000 0.86217  0.98795  0.87271  Biso   1.000  Hf
  O57      1.0000 0.53119  0.68665  0.69631  Biso   1.000  O 
  O58      1.0000 0.53082  0.57488  0.94766  Biso   1.000  O 
  O59      1.0000 0.96126  0.93483  0.69670  Biso   1.000  O 
  O60      1.0000 0.96205  0.82004  0.94554  Biso   1.000  O 
  O61      1.0000 0.76741  0.62270  0.74943  Biso   1.000  O 
  O62      1.0000 0.76552  0.63337  0.00143  Biso   1.000  O 
  O63      1.0000 0.72757  0.88737  0.99626  Biso   1.000  O 
  O64      1.0000 0.72723  0.87158  0.74603  Biso   1.000  O 
  Au1      1.0000 0.07596  0.24032  0.12374  Biso   1.000  Au
