data_image0
_cell_length_a       9.94655
_cell_length_b       10.3729
_cell_length_c       10.0116
_cell_angle_alpha    90
_cell_angle_beta     90
_cell_angle_gamma    90

_symmetry_space_group_name_H-M    "P 1"
_symmetry_int_tables_number       1

loop_
  _symmetry_equiv_pos_as_xyz
  'x, y, z'

loop_
  _atom_site_label
  _atom_site_occupancy
  _atom_site_fract_x
  _atom_site_fract_y
  _atom_site_fract_z
  _atom_site_thermal_displace_type
  _atom_site_B_iso_or_equiv
  _atom_site_type_symbol
  Au1      1.0000 0.12078  0.02608  0.10470  Biso   1.000  Au
  Hf1      1.0000 0.14300  0.22946  0.37847  Biso   1.000  Hf
  Hf2      1.0000 0.36837  0.26767  0.13019  Biso   1.000  Hf
  Hf3      1.0000 0.36980  0.48324  0.37783  Biso   1.000  Hf
  O1       1.0000 0.04000  0.18116  0.19163  Biso   1.000  O 
  O2       1.0000 0.04280  0.06435  0.44660  Biso   1.000  O 
  O3       1.0000 0.46643  0.43365  0.19589  Biso   1.000  O 
  O4       1.0000 0.46842  0.31530  0.44496  Biso   1.000  O 
  O5       1.0000 0.28820  0.12913  0.25999  Biso   1.000  O 
  O6       1.0000 0.27533  0.12941  0.50653  Biso   1.000  O 
  O7       1.0000 0.23442  0.38022  0.50113  Biso   1.000  O 
  O8       1.0000 0.22982  0.36950  0.25126  Biso   1.000  O 
  Hf4      1.0000 0.13930  0.01697  0.63313  Biso   1.000  Hf
  Hf5      1.0000 0.14185  0.23855  0.87279  Biso   1.000  Hf
  Hf6      1.0000 0.37284  0.26580  0.62720  Biso   1.000  Hf
  Hf7      1.0000 0.37410  0.48340  0.87674  Biso   1.000  Hf
  O9       1.0000 0.04606  0.19023  0.68769  Biso   1.000  O 
  O10      1.0000 0.04590  0.06319  0.90064  Biso   1.000  O 
  O11      1.0000 0.47011  0.43388  0.69515  Biso   1.000  O 
  O12      1.0000 0.46841  0.31108  0.94183  Biso   1.000  O 
  O13      1.0000 0.28151  0.12067  0.75487  Biso   1.000  O 
  O14      1.0000 0.26256  0.13020  0.00587  Biso   1.000  O 
  O15      1.0000 0.23071  0.38275  0.00088  Biso   1.000  O 
  O16      1.0000 0.23601  0.36971  0.74971  Biso   1.000  O 
  Hf8      1.0000 0.13634  0.51582  0.12783  Biso   1.000  Hf
  Hf9      1.0000 0.14014  0.73342  0.37763  Biso   1.000  Hf
  Hf10     1.0000 0.36809  0.76530  0.13026  Biso   1.000  Hf
  Hf11     1.0000 0.36739  0.98206  0.37645  Biso   1.000  Hf
  O17      1.0000 0.03992  0.68355  0.19460  Biso   1.000  O 
  O18      1.0000 0.04136  0.56350  0.44531  Biso   1.000  O 
  O19      1.0000 0.47117  0.93298  0.19609  Biso   1.000  O 
  O20      1.0000 0.47191  0.81668  0.45066  Biso   1.000  O 
  O21      1.0000 0.27410  0.61372  0.25066  Biso   1.000  O 
  O22      1.0000 0.27675  0.63169  0.50157  Biso   1.000  O 
  O23      1.0000 0.23306  0.88148  0.50699  Biso   1.000  O 
  O24      1.0000 0.24595  0.85753  0.26162  Biso   1.000  O 
  Hf12     1.0000 0.13974  0.51652  0.62615  Biso   1.000  Hf
  Hf13     1.0000 0.14032  0.73103  0.87809  Biso   1.000  Hf
  Hf14     1.0000 0.37152  0.76684  0.62862  Biso   1.000  Hf
  Hf15     1.0000 0.37378  0.98206  0.87957  Biso   1.000  Hf
  O25      1.0000 0.04272  0.68419  0.69516  Biso   1.000  O 
  O26      1.0000 0.04331  0.56348  0.94490  Biso   1.000  O 
  O27      1.0000 0.46961  0.93430  0.69751  Biso   1.000  O 
  O28      1.0000 0.46655  0.81338  0.94380  Biso   1.000  O 
  O29      1.0000 0.27651  0.61719  0.75150  Biso   1.000  O 
  O30      1.0000 0.27006  0.63358  0.00140  Biso   1.000  O 
  O31      1.0000 0.22414  0.88391  0.00936  Biso   1.000  O 
  O32      1.0000 0.23589  0.86795  0.75641  Biso   1.000  O 
  Hf16     1.0000 0.63678  0.01592  0.12711  Biso   1.000  Hf
  Hf17     1.0000 0.63741  0.23233  0.37545  Biso   1.000  Hf
  Hf18     1.0000 0.86425  0.26625  0.12538  Biso   1.000  Hf
  Hf19     1.0000 0.87132  0.48235  0.37572  Biso   1.000  Hf
  O33      1.0000 0.54405  0.18688  0.19022  Biso   1.000  O 
  O34      1.0000 0.54038  0.06514  0.44262  Biso   1.000  O 
  O35      1.0000 0.96607  0.43020  0.19335  Biso   1.000  O 
  O36      1.0000 0.96791  0.31359  0.44032  Biso   1.000  O 
  O37      1.0000 0.77495  0.11752  0.24949  Biso   1.000  O 
  O38      1.0000 0.77538  0.13170  0.49808  Biso   1.000  O 
  O39      1.0000 0.73477  0.38169  0.49988  Biso   1.000  O 
  O40      1.0000 0.73166  0.36829  0.25040  Biso   1.000  O 
  Hf20     1.0000 0.63680  0.01500  0.62266  Biso   1.000  Hf
  Hf21     1.0000 0.64117  0.23093  0.87551  Biso   1.000  Hf
  Hf22     1.0000 0.87074  0.26572  0.62301  Biso   1.000  Hf
  Hf23     1.0000 0.87261  0.48176  0.87530  Biso   1.000  Hf
  O41      1.0000 0.54392  0.18416  0.69307  Biso   1.000  O 
  O42      1.0000 0.54343  0.06391  0.94545  Biso   1.000  O 
  O43      1.0000 0.96921  0.43383  0.69378  Biso   1.000  O 
  O44      1.0000 0.97106  0.31355  0.94441  Biso   1.000  O 
  O45      1.0000 0.77550  0.11610  0.74657  Biso   1.000  O 
  O46      1.0000 0.78248  0.12789  0.99735  Biso   1.000  O 
  O47      1.0000 0.72830  0.38007  0.00056  Biso   1.000  O 
  O48      1.0000 0.73571  0.36629  0.75012  Biso   1.000  O 
  Hf24     1.0000 0.63677  0.51665  0.12838  Biso   1.000  Hf
  Hf25     1.0000 0.63934  0.73448  0.37627  Biso   1.000  Hf
  Hf26     1.0000 0.87046  0.76479  0.12375  Biso   1.000  Hf
  Hf27     1.0000 0.87522  0.98472  0.37633  Biso   1.000  Hf
  O49      1.0000 0.54027  0.68426  0.19655  Biso   1.000  O 
  O50      1.0000 0.54141  0.56568  0.44448  Biso   1.000  O 
  O51      1.0000 0.96923  0.93496  0.18961  Biso   1.000  O 
  O52      1.0000 0.96803  0.81376  0.44124  Biso   1.000  O 
  O53      1.0000 0.77541  0.61666  0.24949  Biso   1.000  O 
  O54      1.0000 0.77497  0.63163  0.49926  Biso   1.000  O 
  O55      1.0000 0.73638  0.88245  0.49819  Biso   1.000  O 
  O56      1.0000 0.73991  0.86741  0.24898  Biso   1.000  O 
  Hf28     1.0000 0.63962  0.51598  0.62576  Biso   1.000  Hf
  Hf29     1.0000 0.63976  0.73098  0.87698  Biso   1.000  Hf
  Hf30     1.0000 0.87228  0.76450  0.62336  Biso   1.000  Hf
  Hf31     1.0000 0.86736  0.97847  0.86956  Biso   1.000  Hf
  O57      1.0000 0.54141  0.68242  0.69675  Biso   1.000  O 
  O58      1.0000 0.54426  0.56336  0.94722  Biso   1.000  O 
  O59      1.0000 0.96552  0.93344  0.68561  Biso   1.000  O 
  O60      1.0000 0.96957  0.81513  0.94121  Biso   1.000  O 
  O61      1.0000 0.77639  0.61627  0.75015  Biso   1.000  O 
  O62      1.0000 0.77922  0.62952  0.99975  Biso   1.000  O 
  O63      1.0000 0.73414  0.87770  0.99915  Biso   1.000  O 
  O64      1.0000 0.73401  0.86500  0.74813  Biso   1.000  O 
