data_image0
_cell_length_a       10.0262
_cell_length_b       10.2248
_cell_length_c       10.0262
_cell_angle_alpha    90
_cell_angle_beta     90
_cell_angle_gamma    90

_symmetry_space_group_name_H-M    "P 1"
_symmetry_int_tables_number       1

loop_
  _symmetry_equiv_pos_as_xyz
  'x, y, z'

loop_
  _atom_site_label
  _atom_site_occupancy
  _atom_site_fract_x
  _atom_site_fract_y
  _atom_site_fract_z
  _atom_site_thermal_displace_type
  _atom_site_B_iso_or_equiv
  _atom_site_type_symbol
  Au1      1.0000 0.12320  0.02341  0.12490  Biso   1.000  Au
  Hf1      1.0000 0.11341  0.25031  0.37979  Biso   1.000  Hf
  Hf2      1.0000 0.37828  0.25023  0.11854  Biso   1.000  Hf
  Hf3      1.0000 0.36448  0.99493  0.36919  Biso   1.000  Hf
  O1       1.0000 0.01550  0.15113  0.01567  Biso   1.000  O 
  O2       1.0000 0.97789  0.11002  0.26869  Biso   1.000  O 
  O3       1.0000 0.00071  0.35392  0.24581  Biso   1.000  O 
  O4       1.0000 0.98315  0.39542  0.99662  Biso   1.000  O 
  O5       1.0000 0.23133  0.15081  0.23448  Biso   1.000  O 
  O6       1.0000 0.25527  0.11025  0.98146  Biso   1.000  O 
  O7       1.0000 0.24589  0.35384  0.00397  Biso   1.000  O 
  O8       1.0000 0.24971  0.39510  0.25304  Biso   1.000  O 
  Hf4      1.0000 0.11630  0.00836  0.62463  Biso   1.000  Hf
  Hf5      1.0000 0.11962  0.25026  0.86992  Biso   1.000  Hf
  Hf6      1.0000 0.37076  0.25148  0.62182  Biso   1.000  Hf
  Hf7      1.0000 0.36991  0.99263  0.86768  Biso   1.000  Hf
  O9       1.0000 0.99356  0.15154  0.51356  Biso   1.000  O 
  O10      1.0000 0.99772  0.10052  0.76409  Biso   1.000  O 
  O11      1.0000 0.99156  0.35219  0.74605  Biso   1.000  O 
  O12      1.0000 0.99422  0.39860  0.49510  Biso   1.000  O 
  O13      1.0000 0.23993  0.15109  0.73660  Biso   1.000  O 
  O14      1.0000 0.23565  0.10065  0.48592  Biso   1.000  O 
  O15      1.0000 0.24158  0.35215  0.50366  Biso   1.000  O 
  O16      1.0000 0.23886  0.39842  0.75449  Biso   1.000  O 
  Hf8      1.0000 0.12327  0.49160  0.12481  Biso   1.000  Hf
  Hf9      1.0000 0.11644  0.74673  0.37094  Biso   1.000  Hf
  Hf10     1.0000 0.36956  0.74665  0.12128  Biso   1.000  Hf
  Hf11     1.0000 0.36983  0.50149  0.37477  Biso   1.000  Hf
  O17      1.0000 0.98566  0.64756  0.99908  Biso   1.000  O 
  O18      1.0000 0.99829  0.59969  0.24827  Biso   1.000  O 
  O19      1.0000 0.97137  0.84371  0.27489  Biso   1.000  O 
  O20      1.0000 0.01600  0.89771  0.01592  Biso   1.000  O 
  O21      1.0000 0.24741  0.64722  0.25062  Biso   1.000  O 
  O22      1.0000 0.24847  0.59961  0.00150  Biso   1.000  O 
  O23      1.0000 0.26181  0.84394  0.97478  Biso   1.000  O 
  O24      1.0000 0.23094  0.89754  0.23383  Biso   1.000  O 
  Hf12     1.0000 0.11643  0.49922  0.62491  Biso   1.000  Hf
  Hf13     1.0000 0.11662  0.74708  0.87870  Biso   1.000  Hf
  Hf14     1.0000 0.36351  0.75060  0.62117  Biso   1.000  Hf
  Hf15     1.0000 0.36327  0.50378  0.87455  Biso   1.000  Hf
  O25      1.0000 0.99359  0.64858  0.50104  Biso   1.000  O 
  O26      1.0000 0.98893  0.60081  0.74882  Biso   1.000  O 
  O27      1.0000 0.98765  0.85038  0.76423  Biso   1.000  O 
  O28      1.0000 0.98611  0.90008  0.51604  Biso   1.000  O 
  O29      1.0000 0.23920  0.64847  0.74860  Biso   1.000  O 
  O30      1.0000 0.24390  0.60072  0.50078  Biso   1.000  O 
  O31      1.0000 0.24496  0.85046  0.48559  Biso   1.000  O 
  O32      1.0000 0.24656  0.89973  0.73379  Biso   1.000  O 
  Hf16     1.0000 0.62298  0.00820  0.12487  Biso   1.000  Hf
  Hf17     1.0000 0.61675  0.25139  0.37918  Biso   1.000  Hf
  Hf18     1.0000 0.86828  0.25002  0.13148  Biso   1.000  Hf
  Hf19     1.0000 0.86285  0.99247  0.38146  Biso   1.000  Hf
  O33      1.0000 0.51365  0.15137  0.00058  Biso   1.000  O 
  O34      1.0000 0.48267  0.10057  0.24227  Biso   1.000  O 
  O35      1.0000 0.50040  0.35207  0.24837  Biso   1.000  O 
  O36      1.0000 0.49527  0.39844  0.00089  Biso   1.000  O 
  O37      1.0000 0.73328  0.15093  0.24998  Biso   1.000  O 
  O38      1.0000 0.76408  0.10027  0.00819  Biso   1.000  O 
  O39      1.0000 0.74621  0.35195  0.00169  Biso   1.000  O 
  O40      1.0000 0.75127  0.39826  0.24908  Biso   1.000  O 
  Hf20     1.0000 0.61629  0.99530  0.62448  Biso   1.000  Hf
  Hf21     1.0000 0.61624  0.25152  0.87071  Biso   1.000  Hf
  Hf22     1.0000 0.86224  0.25144  0.62805  Biso   1.000  Hf
  Hf23     1.0000 0.86835  0.99517  0.88003  Biso   1.000  Hf
  O41      1.0000 0.48665  0.14622  0.49334  Biso   1.000  O 
  O42      1.0000 0.49399  0.10373  0.74622  Biso   1.000  O 
  O43      1.0000 0.49027  0.35391  0.74946  Biso   1.000  O 
  O44      1.0000 0.49337  0.39796  0.50006  Biso   1.000  O 
  O45      1.0000 0.74697  0.14649  0.75726  Biso   1.000  O 
  O46      1.0000 0.73939  0.10365  0.50416  Biso   1.000  O 
  O47      1.0000 0.74276  0.35383  0.50040  Biso   1.000  O 
  O48      1.0000 0.73962  0.39811  0.74972  Biso   1.000  O 
  Hf24     1.0000 0.62342  0.49907  0.12484  Biso   1.000  Hf
  Hf25     1.0000 0.61637  0.75052  0.37177  Biso   1.000  Hf
  Hf26     1.0000 0.87726  0.74683  0.12844  Biso   1.000  Hf
  Hf27     1.0000 0.86964  0.50362  0.37508  Biso   1.000  Hf
  O49      1.0000 0.50130  0.64842  0.00026  Biso   1.000  O 
  O50      1.0000 0.49759  0.60064  0.25056  Biso   1.000  O 
  O51      1.0000 0.48247  0.85038  0.25133  Biso   1.000  O 
  O52      1.0000 0.50275  0.90024  0.99280  Biso   1.000  O 
  O53      1.0000 0.74546  0.64831  0.24925  Biso   1.000  O 
  O54      1.0000 0.73536  0.60089  0.99893  Biso   1.000  O 
  O55      1.0000 0.75087  0.85045  0.99778  Biso   1.000  O 
  O56      1.0000 0.73064  0.89957  0.25632  Biso   1.000  O 
  Hf28     1.0000 0.61649  0.50495  0.62485  Biso   1.000  Hf
  Hf29     1.0000 0.61664  0.75091  0.87764  Biso   1.000  Hf
  Hf30     1.0000 0.86933  0.75083  0.62839  Biso   1.000  Hf
  Hf31     1.0000 0.86312  0.50173  0.87490  Biso   1.000  Hf
  O57      1.0000 0.49365  0.64845  0.50026  Biso   1.000  O 
  O58      1.0000 0.48916  0.60252  0.75013  Biso   1.000  O 
  O59      1.0000 0.49468  0.84945  0.74467  Biso   1.000  O 
  O60      1.0000 0.49061  0.89896  0.49708  Biso   1.000  O 
  O61      1.0000 0.73910  0.64860  0.74911  Biso   1.000  O 
  O62      1.0000 0.74354  0.60244  0.49922  Biso   1.000  O 
  O63      1.0000 0.73809  0.84937  0.50458  Biso   1.000  O 
  O64      1.0000 0.74219  0.89923  0.75216  Biso   1.000  O 
