data_image0
_cell_length_a       5.10869
_cell_length_b       10.3265
_cell_length_c       10.5542
_cell_angle_alpha    90
_cell_angle_beta     80
_cell_angle_gamma    90

_symmetry_space_group_name_H-M    "P 1"
_symmetry_int_tables_number       1

loop_
  _symmetry_equiv_pos_as_xyz
  'x, y, z'

loop_
  _atom_site_label
  _atom_site_occupancy
  _atom_site_fract_x
  _atom_site_fract_y
  _atom_site_fract_z
  _atom_site_thermal_displace_type
  _atom_site_B_iso_or_equiv
  _atom_site_type_symbol
  Hf1      1.0000 0.26735  0.01811  0.14580  Biso   1.000  Hf
  Hf2      1.0000 0.31884  0.23402  0.40434  Biso   1.000  Hf
  Hf3      1.0000 0.70985  0.27670  0.09766  Biso   1.000  Hf
  Hf4      1.0000 0.73611  0.47786  0.34898  Biso   1.000  Hf
  O1       1.0000 0.05557  0.16122  0.07166  Biso   1.000  O 
  O2       1.0000 0.10146  0.04675  0.34635  Biso   1.000  O 
  O3       1.0000 0.92302  0.43111  0.15805  Biso   1.000  O 
  O4       1.0000 0.98674  0.36917  0.44950  Biso   1.000  O 
  O5       1.0000 0.51773  0.13221  0.23489  Biso   1.000  O 
  O6       1.0000 0.55878  0.10728  0.49572  Biso   1.000  O 
  O7       1.0000 0.43877  0.38232  0.00762  Biso   1.000  O 
  O8       1.0000 0.43503  0.37944  0.25794  Biso   1.000  O 
  Hf5      1.0000 0.28042  0.01572  0.64556  Biso   1.000  Hf
  Hf6      1.0000 0.28381  0.22260  0.89321  Biso   1.000  Hf
  Hf7      1.0000 0.74475  0.27165  0.61059  Biso   1.000  Hf
  Hf8      1.0000 0.73270  0.47534  0.85636  Biso   1.000  Hf
  O9       1.0000 0.08293  0.16494  0.57662  Biso   1.000  O 
  O10      1.0000 0.07191  0.08050  0.82334  Biso   1.000  O 
  O11      1.0000 0.95065  0.40812  0.68483  Biso   1.000  O 
  O12      1.0000 0.93999  0.32912  0.92085  Biso   1.000  O 
  O13      1.0000 0.55689  0.12495  0.73961  Biso   1.000  O 
  O14      1.0000 0.55596  0.11814  0.98647  Biso   1.000  O 
  O15      1.0000 0.47867  0.37198  0.51358  Biso   1.000  O 
  O16      1.0000 0.46366  0.36787  0.76086  Biso   1.000  O 
  Hf9      1.0000 0.27710  0.52525  0.14394  Biso   1.000  Hf
  Hf10     1.0000 0.28544  0.72146  0.39617  Biso   1.000  Hf
  Hf11     1.0000 0.72162  0.77163  0.10406  Biso   1.000  Hf
  Hf12     1.0000 0.72812  0.96154  0.35970  Biso   1.000  Hf
  O17      1.0000 0.07250  0.67485  0.07729  Biso   1.000  O 
  O18      1.0000 0.06948  0.58827  0.32054  Biso   1.000  O 
  O19      1.0000 0.92510  0.91818  0.17422  Biso   1.000  O 
  O20      1.0000 0.92853  0.81847  0.42363  Biso   1.000  O 
  O21      1.0000 0.55739  0.62873  0.24050  Biso   1.000  O 
  O22      1.0000 0.55324  0.61331  0.49000  Biso   1.000  O 
  O23      1.0000 0.44940  0.88181  0.01116  Biso   1.000  O 
  O24      1.0000 0.45347  0.86514  0.26060  Biso   1.000  O 
  Hf13     1.0000 0.28670  0.51707  0.64739  Biso   1.000  Hf
  Hf14     1.0000 0.28575  0.72583  0.89576  Biso   1.000  Hf
  Hf15     1.0000 0.73145  0.76404  0.60610  Biso   1.000  Hf
  Hf16     1.0000 0.73427  0.97510  0.85273  Biso   1.000  Hf
  O25      1.0000 0.07301  0.65730  0.57799  Biso   1.000  O 
  O26      1.0000 0.07841  0.58222  0.82801  Biso   1.000  O 
  O27      1.0000 0.94020  0.91097  0.67016  Biso   1.000  O 
  O28      1.0000 0.94379  0.83191  0.92131  Biso   1.000  O 
  O29      1.0000 0.56033  0.62303  0.74005  Biso   1.000  O 
  O30      1.0000 0.56393  0.61909  0.98964  Biso   1.000  O 
  O31      1.0000 0.45231  0.86817  0.51254  Biso   1.000  O 
  O32      1.0000 0.45964  0.86749  0.76065  Biso   1.000  O 
  Au1      1.0000 0.88281  0.21609  0.31176  Biso   1.000  Au
