data_image0
_cell_length_a       10.0264
_cell_length_b       5.12383
_cell_length_c       10.4413
_cell_angle_alpha    90
_cell_angle_beta     90
_cell_angle_gamma    90

_symmetry_space_group_name_H-M    "P 1"
_symmetry_int_tables_number       1

loop_
  _symmetry_equiv_pos_as_xyz
  'x, y, z'

loop_
  _atom_site_label
  _atom_site_occupancy
  _atom_site_fract_x
  _atom_site_fract_y
  _atom_site_fract_z
  _atom_site_thermal_displace_type
  _atom_site_B_iso_or_equiv
  _atom_site_type_symbol
  Au1      1.0000 0.12196  0.03420  0.18966  Biso   1.000  Au
  Hf1      1.0000 0.13025  0.46925  0.42173  Biso   1.000  Hf
  Hf2      1.0000 0.35851  0.54605  0.16162  Biso   1.000  Hf
  Hf3      1.0000 0.35701  0.96420  0.41883  Biso   1.000  Hf
  Hf4      1.0000 0.63940  0.04166  0.07763  Biso   1.000  Hf
  Hf5      1.0000 0.63073  0.46175  0.32768  Biso   1.000  Hf
  Hf6      1.0000 0.86492  0.53255  0.08059  Biso   1.000  Hf
  Hf7      1.0000 0.84935  0.96183  0.33491  Biso   1.000  Hf
  O1       1.0000 0.04446  0.33481  0.09200  Biso   1.000  O 
  O2       1.0000 0.01765  0.17188  0.35839  Biso   1.000  O 
  O3       1.0000 0.47159  0.83521  0.08331  Biso   1.000  O 
  O4       1.0000 0.45520  0.66123  0.33493  Biso   1.000  O 
  O5       1.0000 0.26739  0.24815  0.28562  Biso   1.000  O 
  O6       1.0000 0.29832  0.28148  0.02665  Biso   1.000  O 
  O7       1.0000 0.21469  0.74924  0.28991  Biso   1.000  O 
  O8       1.0000 0.22962  0.75992  0.03801  Biso   1.000  O 
  O9       1.0000 0.53427  0.33874  0.16207  Biso   1.000  O 
  O10      1.0000 0.52643  0.16567  0.41199  Biso   1.000  O 
  O11      1.0000 0.95499  0.84861  0.16433  Biso   1.000  O 
  O12      1.0000 0.95664  0.67071  0.41628  Biso   1.000  O 
  O13      1.0000 0.76562  0.25438  0.45854  Biso   1.000  O 
  O14      1.0000 0.77375  0.25400  0.20814  Biso   1.000  O 
  O15      1.0000 0.71366  0.75322  0.45705  Biso   1.000  O 
  O16      1.0000 0.72346  0.75027  0.20664  Biso   1.000  O 
  Hf8      1.0000 0.12783  0.04944  0.66900  Biso   1.000  Hf
  Hf9      1.0000 0.13320  0.46595  0.91965  Biso   1.000  Hf
  Hf10     1.0000 0.35238  0.55061  0.66938  Biso   1.000  Hf
  Hf11     1.0000 0.35061  0.97240  0.91938  Biso   1.000  Hf
  Hf12     1.0000 0.62814  0.04945  0.58146  Biso   1.000  Hf
  Hf13     1.0000 0.62863  0.46876  0.82939  Biso   1.000  Hf
  Hf14     1.0000 0.85178  0.54887  0.58182  Biso   1.000  Hf
  Hf15     1.0000 0.85571  0.96527  0.83229  Biso   1.000  Hf
  O17      1.0000 0.02733  0.35327  0.59002  Biso   1.000  O 
  O18      1.0000 0.02564  0.16937  0.83690  Biso   1.000  O 
  O19      1.0000 0.45764  0.84530  0.58394  Biso   1.000  O 
  O20      1.0000 0.45699  0.67566  0.83214  Biso   1.000  O 
  O21      1.0000 0.26573  0.25311  0.78606  Biso   1.000  O 
  O22      1.0000 0.26830  0.26143  0.53838  Biso   1.000  O 
  O23      1.0000 0.21441  0.75358  0.79108  Biso   1.000  O 
  O24      1.0000 0.21599  0.76214  0.54134  Biso   1.000  O 
  O25      1.0000 0.52579  0.34656  0.66226  Biso   1.000  O 
  O26      1.0000 0.52661  0.16989  0.91046  Biso   1.000  O 
  O27      1.0000 0.95692  0.84462  0.66588  Biso   1.000  O 
  O28      1.0000 0.95658  0.66744  0.91991  Biso   1.000  O 
  O29      1.0000 0.76714  0.25620  0.95770  Biso   1.000  O 
  O30      1.0000 0.76760  0.26050  0.70782  Biso   1.000  O 
  O31      1.0000 0.71429  0.75494  0.95711  Biso   1.000  O 
  O32      1.0000 0.71592  0.76172  0.70690  Biso   1.000  O 
