data_image0
_cell_length_a       10.0465
_cell_length_b       10.2444
_cell_length_c       5.03381
_cell_angle_alpha    90
_cell_angle_beta     90
_cell_angle_gamma    90

_symmetry_space_group_name_H-M    "P 1"
_symmetry_int_tables_number       1

loop_
  _symmetry_equiv_pos_as_xyz
  'x, y, z'

loop_
  _atom_site_label
  _atom_site_occupancy
  _atom_site_fract_x
  _atom_site_fract_y
  _atom_site_fract_z
  _atom_site_thermal_displace_type
  _atom_site_B_iso_or_equiv
  _atom_site_type_symbol
  Au1      1.0000 0.12252  0.02533  0.24782  Biso   1.000  Au
  Hf1      1.0000 0.12710  0.26220  0.75162  Biso   1.000  Hf
  Hf2      1.0000 0.38853  0.24889  0.22898  Biso   1.000  Hf
  Hf3      1.0000 0.37213  0.99132  0.70273  Biso   1.000  Hf
  O1       1.0000 0.02885  0.16702  0.06213  Biso   1.000  O 
  O2       1.0000 0.99627  0.11114  0.57756  Biso   1.000  O 
  O3       1.0000 0.00009  0.35512  0.47053  Biso   1.000  O 
  O4       1.0000 0.01396  0.41013  0.95279  Biso   1.000  O 
  O5       1.0000 0.24223  0.14649  0.45043  Biso   1.000  O 
  O6       1.0000 0.27653  0.12862  0.93876  Biso   1.000  O 
  O7       1.0000 0.26105  0.36266  0.02287  Biso   1.000  O 
  O8       1.0000 0.24456  0.39785  0.52623  Biso   1.000  O 
  Hf4      1.0000 0.12136  0.49377  0.25481  Biso   1.000  Hf
  Hf5      1.0000 0.12061  0.74899  0.76801  Biso   1.000  Hf
  Hf6      1.0000 0.36549  0.74555  0.25042  Biso   1.000  Hf
  Hf7      1.0000 0.36532  0.51055  0.75756  Biso   1.000  Hf
  O9       1.0000 0.99470  0.64584  0.00817  Biso   1.000  O 
  O10      1.0000 0.00110  0.60458  0.50607  Biso   1.000  O 
  O11      1.0000 0.98342  0.84903  0.56557  Biso   1.000  O 
  O12      1.0000 0.02442  0.89779  0.04649  Biso   1.000  O 
  O13      1.0000 0.24838  0.64719  0.51332  Biso   1.000  O 
  O14      1.0000 0.24773  0.60446  0.01402  Biso   1.000  O 
  O15      1.0000 0.27450  0.85069  0.93725  Biso   1.000  O 
  O16      1.0000 0.23881  0.89265  0.45087  Biso   1.000  O 
  Hf8      1.0000 0.62966  0.99903  0.24713  Biso   1.000  Hf
  Hf9      1.0000 0.61644  0.26792  0.73482  Biso   1.000  Hf
  Hf10     1.0000 0.86471  0.23830  0.28103  Biso   1.000  Hf
  Hf11     1.0000 0.87189  0.99139  0.76517  Biso   1.000  Hf
  O17      1.0000 0.54348  0.16324  0.04069  Biso   1.000  O 
  O18      1.0000 0.49473  0.11259  0.51166  Biso   1.000  O 
  O19      1.0000 0.49612  0.36757  0.47978  Biso   1.000  O 
  O20      1.0000 0.50239  0.40797  0.97819  Biso   1.000  O 
  O21      1.0000 0.74810  0.14422  0.55953  Biso   1.000  O 
  O22      1.0000 0.78707  0.07509  0.08610  Biso   1.000  O 
  O23      1.0000 0.76684  0.33972  0.97135  Biso   1.000  O 
  O24      1.0000 0.74635  0.39518  0.47585  Biso   1.000  O 
  Hf12     1.0000 0.61851  0.51265  0.25156  Biso   1.000  Hf
  Hf13     1.0000 0.62451  0.75372  0.74319  Biso   1.000  Hf
  Hf14     1.0000 0.88826  0.75435  0.27623  Biso   1.000  Hf
  Hf15     1.0000 0.86867  0.49855  0.74201  Biso   1.000  Hf
  O25      1.0000 0.49885  0.65557  0.00469  Biso   1.000  O 
  O26      1.0000 0.49655  0.61164  0.50735  Biso   1.000  O 
  O27      1.0000 0.49671  0.85852  0.45727  Biso   1.000  O 
  O28      1.0000 0.52302  0.91964  0.94039  Biso   1.000  O 
  O29      1.0000 0.74608  0.64764  0.46651  Biso   1.000  O 
  O30      1.0000 0.72536  0.59112  0.95045  Biso   1.000  O 
  O31      1.0000 0.75902  0.84125  0.99796  Biso   1.000  O 
  O32      1.0000 0.74442  0.89531  0.51281  Biso   1.000  O 
