data_image0
_cell_length_a       5.05687
_cell_length_b       10.2563
_cell_length_c       10.4718
_cell_angle_alpha    90
_cell_angle_beta     80
_cell_angle_gamma    90

_symmetry_space_group_name_H-M    "P 1"
_symmetry_int_tables_number       1

loop_
  _symmetry_equiv_pos_as_xyz
  'x, y, z'

loop_
  _atom_site_label
  _atom_site_occupancy
  _atom_site_fract_x
  _atom_site_fract_y
  _atom_site_fract_z
  _atom_site_thermal_displace_type
  _atom_site_B_iso_or_equiv
  _atom_site_type_symbol
  Au1      1.0000 0.24134  0.01427  0.16815  Biso   1.000  Au
  Hf1      1.0000 0.25878  0.23632  0.39901  Biso   1.000  Hf
  Hf2      1.0000 0.72501  0.26688  0.10278  Biso   1.000  Hf
  Hf3      1.0000 0.71154  0.48196  0.35406  Biso   1.000  Hf
  O1       1.0000 0.08659  0.16404  0.08325  Biso   1.000  O 
  O2       1.0000 0.02464  0.09111  0.34934  Biso   1.000  O 
  O3       1.0000 0.92807  0.41805  0.17217  Biso   1.000  O 
  O4       1.0000 0.91278  0.33861  0.42605  Biso   1.000  O 
  O5       1.0000 0.52686  0.12452  0.23674  Biso   1.000  O 
  O6       1.0000 0.52759  0.12510  0.48948  Biso   1.000  O 
  O7       1.0000 0.45982  0.37976  0.01084  Biso   1.000  O 
  O8       1.0000 0.44630  0.36998  0.26033  Biso   1.000  O 
  Hf4      1.0000 0.24766  0.02480  0.64667  Biso   1.000  Hf
  Hf5      1.0000 0.25514  0.22877  0.89906  Biso   1.000  Hf
  Hf6      1.0000 0.69910  0.27603  0.60781  Biso   1.000  Hf
  Hf7      1.0000 0.70077  0.48140  0.85926  Biso   1.000  Hf
  O9       1.0000 0.04931  0.17599  0.58386  Biso   1.000  O 
  O10      1.0000 0.04740  0.08385  0.83054  Biso   1.000  O 
  O11      1.0000 0.90882  0.42085  0.67642  Biso   1.000  O 
  O12      1.0000 0.91101  0.33840  0.93043  Biso   1.000  O 
  O13      1.0000 0.52525  0.13154  0.73682  Biso   1.000  O 
  O14      1.0000 0.55139  0.13797  0.97779  Biso   1.000  O 
  O15      1.0000 0.42695  0.38309  0.51185  Biso   1.000  O 
  O16      1.0000 0.42649  0.37390  0.76382  Biso   1.000  O 
  Hf8      1.0000 0.27690  0.52054  0.14461  Biso   1.000  Hf
  Hf9      1.0000 0.26173  0.72749  0.39742  Biso   1.000  Hf
  Hf10     1.0000 0.72700  0.77033  0.09800  Biso   1.000  Hf
  Hf11     1.0000 0.70302  0.97985  0.35890  Biso   1.000  Hf
  O17      1.0000 0.08137  0.67095  0.07873  Biso   1.000  O 
  O18      1.0000 0.06535  0.58106  0.32931  Biso   1.000  O 
  O19      1.0000 0.91039  0.92235  0.17140  Biso   1.000  O 
  O20      1.0000 0.91507  0.83244  0.41967  Biso   1.000  O 
  O21      1.0000 0.54861  0.63198  0.24046  Biso   1.000  O 
  O22      1.0000 0.53825  0.62351  0.49201  Biso   1.000  O 
  O23      1.0000 0.46971  0.87944  0.00169  Biso   1.000  O 
  O24      1.0000 0.43326  0.86979  0.25641  Biso   1.000  O 
  Hf12     1.0000 0.25793  0.52453  0.65031  Biso   1.000  Hf
  Hf13     1.0000 0.25436  0.73615  0.89690  Biso   1.000  Hf
  Hf14     1.0000 0.70462  0.77439  0.60623  Biso   1.000  Hf
  Hf15     1.0000 0.70165  0.98644  0.85584  Biso   1.000  Hf
  O25      1.0000 0.05348  0.67040  0.58041  Biso   1.000  O 
  O26      1.0000 0.04821  0.58608  0.83233  Biso   1.000  O 
  O27      1.0000 0.91111  0.92272  0.66960  Biso   1.000  O 
  O28      1.0000 0.90448  0.83582  0.92094  Biso   1.000  O 
  O29      1.0000 0.53332  0.63257  0.74266  Biso   1.000  O 
  O30      1.0000 0.52303  0.62545  0.99292  Biso   1.000  O 
  O31      1.0000 0.43106  0.88156  0.50854  Biso   1.000  O 
  O32      1.0000 0.42807  0.87460  0.75799  Biso   1.000  O 
