data_image0
_cell_length_a       10.1064
_cell_length_b       5.14402
_cell_length_c       10.5663
_cell_angle_alpha    90
_cell_angle_beta     90
_cell_angle_gamma    90

_symmetry_space_group_name_H-M    "P 1"
_symmetry_int_tables_number       1

loop_
  _symmetry_equiv_pos_as_xyz
  'x, y, z'

loop_
  _atom_site_label
  _atom_site_occupancy
  _atom_site_fract_x
  _atom_site_fract_y
  _atom_site_fract_z
  _atom_site_thermal_displace_type
  _atom_site_B_iso_or_equiv
  _atom_site_type_symbol
  Hf1      1.0000 0.13377  0.04219  0.17156  Biso   1.000  Hf
  Hf2      1.0000 0.13066  0.45921  0.42524  Biso   1.000  Hf
  Hf3      1.0000 0.34624  0.53986  0.18523  Biso   1.000  Hf
  Hf4      1.0000 0.35911  0.96167  0.42547  Biso   1.000  Hf
  Hf5      1.0000 0.64139  0.05985  0.07622  Biso   1.000  Hf
  Hf6      1.0000 0.63613  0.46114  0.33298  Biso   1.000  Hf
  Hf7      1.0000 0.86324  0.54483  0.07696  Biso   1.000  Hf
  Hf8      1.0000 0.85888  0.96294  0.32956  Biso   1.000  Hf
  O1       1.0000 0.03229  0.32652  0.08150  Biso   1.000  O 
  O2       1.0000 0.02662  0.17872  0.33105  Biso   1.000  O 
  O3       1.0000 0.44749  0.88472  0.09965  Biso   1.000  O 
  O4       1.0000 0.46399  0.67917  0.33367  Biso   1.000  O 
  O5       1.0000 0.26586  0.25239  0.29967  Biso   1.000  O 
  O6       1.0000 0.27385  0.25100  0.04649  Biso   1.000  O 
  O7       1.0000 0.21748  0.75335  0.30075  Biso   1.000  O 
  O8       1.0000 0.22166  0.74742  0.04866  Biso   1.000  O 
  O9       1.0000 0.51583  0.28587  0.19868  Biso   1.000  O 
  O10      1.0000 0.52492  0.18598  0.42871  Biso   1.000  O 
  O11      1.0000 0.96663  0.82858  0.17000  Biso   1.000  O 
  O12      1.0000 0.96265  0.67717  0.41978  Biso   1.000  O 
  O13      1.0000 0.77013  0.25242  0.45395  Biso   1.000  O 
  O14      1.0000 0.77321  0.26286  0.20484  Biso   1.000  O 
  O15      1.0000 0.72044  0.75380  0.45831  Biso   1.000  O 
  O16      1.0000 0.72526  0.76433  0.21158  Biso   1.000  O 
  Hf9      1.0000 0.13264  0.04619  0.67255  Biso   1.000  Hf
  Hf10     1.0000 0.12833  0.46956  0.92270  Biso   1.000  Hf
  Hf11     1.0000 0.35407  0.54643  0.67248  Biso   1.000  Hf
  Hf12     1.0000 0.34790  0.97192  0.92213  Biso   1.000  Hf
  Hf13     1.0000 0.63283  0.04429  0.57836  Biso   1.000  Hf
  Hf14     1.0000 0.63375  0.46019  0.81778  Biso   1.000  Hf
  Hf15     1.0000 0.85715  0.54881  0.57885  Biso   1.000  Hf
  Hf16     1.0000 0.85908  0.97105  0.82712  Biso   1.000  Hf
  O17      1.0000 0.02547  0.32953  0.58214  Biso   1.000  O 
  O18      1.0000 0.02784  0.18088  0.83071  Biso   1.000  O 
  O19      1.0000 0.46423  0.82485  0.58120  Biso   1.000  O 
  O20      1.0000 0.45865  0.68108  0.82630  Biso   1.000  O 
  O21      1.0000 0.26878  0.25548  0.79623  Biso   1.000  O 
  O22      1.0000 0.26833  0.25330  0.54716  Biso   1.000  O 
  O23      1.0000 0.21665  0.75441  0.79660  Biso   1.000  O 
  O24      1.0000 0.22014  0.75500  0.54729  Biso   1.000  O 
  O25      1.0000 0.52411  0.32656  0.66907  Biso   1.000  O 
  O26      1.0000 0.52551  0.14842  0.90801  Biso   1.000  O 
  O27      1.0000 0.96424  0.83138  0.66697  Biso   1.000  O 
  O28      1.0000 0.96271  0.68443  0.91784  Biso   1.000  O 
  O29      1.0000 0.77399  0.26648  0.94613  Biso   1.000  O 
  O30      1.0000 0.77053  0.25234  0.69918  Biso   1.000  O 
  O31      1.0000 0.73224  0.78830  0.95541  Biso   1.000  O 
  O32      1.0000 0.72082  0.75326  0.70588  Biso   1.000  O 
  Au1      1.0000 0.56181  0.55830  0.04383  Biso   1.000  Au
