data_image0
_cell_length_a       10.1082
_cell_length_b       5.12882
_cell_length_c       10.4765
_cell_angle_alpha    90
_cell_angle_beta     80
_cell_angle_gamma    90

_symmetry_space_group_name_H-M    "P 1"
_symmetry_int_tables_number       1

loop_
  _symmetry_equiv_pos_as_xyz
  'x, y, z'

loop_
  _atom_site_label
  _atom_site_occupancy
  _atom_site_fract_x
  _atom_site_fract_y
  _atom_site_fract_z
  _atom_site_thermal_displace_type
  _atom_site_B_iso_or_equiv
  _atom_site_type_symbol
  Au1      1.0000 0.12197  0.02974  0.16748  Biso   1.000  Au
  Hf1      1.0000 0.12823  0.46584  0.39901  Biso   1.000  Hf
  Hf2      1.0000 0.36001  0.54360  0.09583  Biso   1.000  Hf
  Hf3      1.0000 0.35665  0.96181  0.35188  Biso   1.000  Hf
  O1       1.0000 0.04340  0.33204  0.08342  Biso   1.000  O 
  O2       1.0000 0.01556  0.17520  0.35029  Biso   1.000  O 
  O3       1.0000 0.46213  0.83472  0.17187  Biso   1.000  O 
  O4       1.0000 0.45559  0.66546  0.41985  Biso   1.000  O 
  O5       1.0000 0.26659  0.25280  0.23365  Biso   1.000  O 
  O6       1.0000 0.26664  0.24917  0.48618  Biso   1.000  O 
  O7       1.0000 0.23185  0.76792  0.00230  Biso   1.000  O 
  O8       1.0000 0.21485  0.73845  0.25638  Biso   1.000  O 
  Hf4      1.0000 0.12526  0.04752  0.64618  Biso   1.000  Hf
  Hf5      1.0000 0.12757  0.46258  0.89632  Biso   1.000  Hf
  Hf6      1.0000 0.34997  0.55016  0.60460  Biso   1.000  Hf
  Hf7      1.0000 0.34696  0.97246  0.85551  Biso   1.000  Hf
  O9       1.0000 0.02572  0.35085  0.58477  Biso   1.000  O 
  O10      1.0000 0.02246  0.16531  0.83281  Biso   1.000  O 
  O11      1.0000 0.45384  0.84269  0.67132  Biso   1.000  O 
  O12      1.0000 0.45498  0.68628  0.92355  Biso   1.000  O 
  O13      1.0000 0.26160  0.26240  0.73494  Biso   1.000  O 
  O14      1.0000 0.27477  0.27968  0.97463  Biso   1.000  O 
  O15      1.0000 0.21446  0.76634  0.50773  Biso   1.000  O 
  O16      1.0000 0.21163  0.74652  0.75874  Biso   1.000  O 
  Hf8      1.0000 0.63444  0.03831  0.14484  Biso   1.000  Hf
  Hf9      1.0000 0.62912  0.45898  0.39710  Biso   1.000  Hf
  Hf10     1.0000 0.86274  0.53030  0.10515  Biso   1.000  Hf
  Hf11     1.0000 0.84724  0.95945  0.36164  Biso   1.000  Hf
  O17      1.0000 0.53667  0.33608  0.07760  Biso   1.000  O 
  O18      1.0000 0.52785  0.16358  0.32937  Biso   1.000  O 
  O19      1.0000 0.95385  0.84406  0.17317  Biso   1.000  O 
  O20      1.0000 0.95465  0.67202  0.42539  Biso   1.000  O 
  O21      1.0000 0.76920  0.25565  0.24284  Biso   1.000  O 
  O22      1.0000 0.76415  0.24708  0.49504  Biso   1.000  O 
  O23      1.0000 0.72879  0.75423  0.01129  Biso   1.000  O 
  O24      1.0000 0.72116  0.73831  0.26073  Biso   1.000  O 
  Hf12     1.0000 0.62453  0.04967  0.65033  Biso   1.000  Hf
  Hf13     1.0000 0.62335  0.46641  0.89896  Biso   1.000  Hf
  Hf14     1.0000 0.84904  0.54894  0.60932  Biso   1.000  Hf
  Hf15     1.0000 0.85079  0.96237  0.85953  Biso   1.000  Hf
  O25      1.0000 0.52319  0.34149  0.57953  Biso   1.000  O 
  O26      1.0000 0.52169  0.17575  0.82926  Biso   1.000  O 
  O27      1.0000 0.95297  0.84317  0.67495  Biso   1.000  O 
  O28      1.0000 0.94927  0.66265  0.92894  Biso   1.000  O 
  O29      1.0000 0.76456  0.26475  0.74434  Biso   1.000  O 
  O30      1.0000 0.75889  0.24701  0.99512  Biso   1.000  O 
  O31      1.0000 0.71145  0.76159  0.51288  Biso   1.000  O 
  O32      1.0000 0.71252  0.74989  0.76341  Biso   1.000  O 
