data_image0
_cell_length_a       10.0467
_cell_length_b       5.05525
_cell_length_c       10.24
_cell_angle_alpha    90
_cell_angle_beta     90
_cell_angle_gamma    90

_symmetry_space_group_name_H-M    "P 1"
_symmetry_int_tables_number       1

loop_
  _symmetry_equiv_pos_as_xyz
  'x, y, z'

loop_
  _atom_site_label
  _atom_site_occupancy
  _atom_site_fract_x
  _atom_site_fract_y
  _atom_site_fract_z
  _atom_site_thermal_displace_type
  _atom_site_B_iso_or_equiv
  _atom_site_type_symbol
  Au1      1.0000 0.13260  0.99476  0.15442  Biso   1.000  Au
  Hf1      1.0000 0.12115  0.50429  0.38524  Biso   1.000  Hf
  Hf2      1.0000 0.38305  0.52298  0.11696  Biso   1.000  Hf
  Hf3      1.0000 0.38083  0.04572  0.36083  Biso   1.000  Hf
  O1       1.0000 0.00687  0.17924  0.02280  Biso   1.000  O 
  O2       1.0000 0.00018  0.20625  0.27557  Biso   1.000  O 
  O3       1.0000 0.97976  0.68754  0.23946  Biso   1.000  O 
  O4       1.0000 0.95236  0.65337  0.96654  Biso   1.000  O 
  O5       1.0000 0.24958  0.32153  0.23732  Biso   1.000  O 
  O6       1.0000 0.23680  0.30087  0.97783  Biso   1.000  O 
  O7       1.0000 0.24437  0.80112  0.02418  Biso   1.000  O 
  O8       1.0000 0.23753  0.80634  0.28905  Biso   1.000  O 
  Hf4      1.0000 0.11027  0.98896  0.61610  Biso   1.000  Hf
  Hf5      1.0000 0.10946  0.50601  0.86662  Biso   1.000  Hf
  Hf6      1.0000 0.35867  0.45985  0.62905  Biso   1.000  Hf
  Hf7      1.0000 0.33595  0.01319  0.88566  Biso   1.000  Hf
  O9       1.0000 0.00860  0.30888  0.53069  Biso   1.000  O 
  O10      1.0000 0.97867  0.23807  0.77500  Biso   1.000  O 
  O11      1.0000 0.99490  0.74357  0.72273  Biso   1.000  O 
  O12      1.0000 0.01134  0.80918  0.47238  Biso   1.000  O 
  O13      1.0000 0.22648  0.24430  0.73456  Biso   1.000  O 
  O14      1.0000 0.24548  0.21395  0.48496  Biso   1.000  O 
  O15      1.0000 0.24240  0.70338  0.52777  Biso   1.000  O 
  O16      1.0000 0.24709  0.74435  0.77250  Biso   1.000  O 
  Hf8      1.0000 0.64214  0.98437  0.11480  Biso   1.000  Hf
  Hf9      1.0000 0.63212  0.48983  0.38777  Biso   1.000  Hf
  Hf10     1.0000 0.88349  0.44848  0.11305  Biso   1.000  Hf
  Hf11     1.0000 0.86660  0.97143  0.36617  Biso   1.000  Hf
  O17      1.0000 0.50812  0.26019  0.01914  Biso   1.000  O 
  O18      1.0000 0.49352  0.32953  0.26940  Biso   1.000  O 
  O19      1.0000 0.47432  0.84273  0.20092  Biso   1.000  O 
  O20      1.0000 0.46969  0.72566  0.96084  Biso   1.000  O 
  O21      1.0000 0.74709  0.24074  0.22887  Biso   1.000  O 
  O22      1.0000 0.72422  0.17801  0.97460  Biso   1.000  O 
  O23      1.0000 0.73683  0.67921  0.03013  Biso   1.000  O 
  O24      1.0000 0.72390  0.76160  0.27448  Biso   1.000  O 
  Hf12     1.0000 0.61625  0.96107  0.62613  Biso   1.000  Hf
  Hf13     1.0000 0.60330  0.46392  0.87150  Biso   1.000  Hf
  Hf14     1.0000 0.85921  0.46730  0.63789  Biso   1.000  Hf
  Hf15     1.0000 0.87413  0.96853  0.86690  Biso   1.000  Hf
  O25      1.0000 0.49928  0.25654  0.51788  Biso   1.000  O 
  O26      1.0000 0.47833  0.18233  0.76867  Biso   1.000  O 
  O27      1.0000 0.50899  0.66923  0.70988  Biso   1.000  O 
  O28      1.0000 0.50777  0.77508  0.46263  Biso   1.000  O 
  O29      1.0000 0.72931  0.21670  0.72833  Biso   1.000  O 
  O30      1.0000 0.75495  0.23775  0.48370  Biso   1.000  O 
  O31      1.0000 0.75609  0.73428  0.52252  Biso   1.000  O 
  O32      1.0000 0.74242  0.71413  0.77668  Biso   1.000  O 
