data_image0
_cell_length_a       5.03506
_cell_length_b       10.3883
_cell_length_c       10.1571
_cell_angle_alpha    90
_cell_angle_beta     90
_cell_angle_gamma    90

_symmetry_space_group_name_H-M    "P 1"
_symmetry_int_tables_number       1

loop_
  _symmetry_equiv_pos_as_xyz
  'x, y, z'

loop_
  _atom_site_label
  _atom_site_occupancy
  _atom_site_fract_x
  _atom_site_fract_y
  _atom_site_fract_z
  _atom_site_thermal_displace_type
  _atom_site_B_iso_or_equiv
  _atom_site_type_symbol
  Hf1      1.0000 0.23036  0.99384  0.10374  Biso   1.000  Hf
  Hf2      1.0000 0.21332  0.23773  0.40430  Biso   1.000  Hf
  Hf3      1.0000 0.59939  0.26133  0.15384  Biso   1.000  Hf
  Hf4      1.0000 0.69506  0.49417  0.38066  Biso   1.000  Hf
  O1       1.0000 0.88666  0.18673  0.27412  Biso   1.000  O 
  O2       1.0000 0.04946  0.06702  0.46334  Biso   1.000  O 
  O3       1.0000 0.86900  0.43900  0.19812  Biso   1.000  O 
  O4       1.0000 0.90802  0.34205  0.46622  Biso   1.000  O 
  O5       1.0000 0.41424  0.11023  0.25771  Biso   1.000  O 
  O6       1.0000 0.52985  0.14742  0.50208  Biso   1.000  O 
  O7       1.0000 0.43340  0.39439  0.50761  Biso   1.000  O 
  O8       1.0000 0.38151  0.37800  0.27015  Biso   1.000  O 
  Hf5      1.0000 0.26487  0.02251  0.62668  Biso   1.000  Hf
  Hf6      1.0000 0.25370  0.24285  0.85778  Biso   1.000  Hf
  Hf7      1.0000 0.71489  0.28496  0.63472  Biso   1.000  Hf
  Hf8      1.0000 0.67953  0.50010  0.87212  Biso   1.000  Hf
  O9       1.0000 0.07474  0.19848  0.67547  Biso   1.000  O 
  O10      1.0000 0.06955  0.06698  0.91664  Biso   1.000  O 
  O11      1.0000 0.87819  0.46121  0.68876  Biso   1.000  O 
  O12      1.0000 0.88583  0.32499  0.88427  Biso   1.000  O 
  O13      1.0000 0.53318  0.12937  0.75028  Biso   1.000  O 
  O14      1.0000 0.57281  0.12034  0.00505  Biso   1.000  O 
  O15      1.0000 0.47744  0.38496  0.00306  Biso   1.000  O 
  O16      1.0000 0.41692  0.38654  0.74861  Biso   1.000  O 
  Hf9      1.0000 0.22681  0.52138  0.13073  Biso   1.000  Hf
  Hf10     1.0000 0.22656  0.74687  0.37534  Biso   1.000  Hf
  Hf11     1.0000 0.70072  0.76321  0.12663  Biso   1.000  Hf
  Hf12     1.0000 0.68761  0.00493  0.36371  Biso   1.000  Hf
  O17      1.0000 0.03982  0.68693  0.19605  Biso   1.000  O 
  O18      1.0000 0.02858  0.58296  0.44418  Biso   1.000  O 
  O19      1.0000 0.88354  0.94409  0.18651  Biso   1.000  O 
  O20      1.0000 0.88075  0.82938  0.43649  Biso   1.000  O 
  O21      1.0000 0.50122  0.62235  0.25091  Biso   1.000  O 
  O22      1.0000 0.49427  0.64579  0.49797  Biso   1.000  O 
  O23      1.0000 0.41603  0.89738  0.49391  Biso   1.000  O 
  O24      1.0000 0.42724  0.86751  0.24153  Biso   1.000  O 
  Hf13     1.0000 0.22399  0.52942  0.62176  Biso   1.000  Hf
  Hf14     1.0000 0.20937  0.74459  0.87105  Biso   1.000  Hf
  Hf15     1.0000 0.68992  0.78037  0.61810  Biso   1.000  Hf
  Hf16     1.0000 0.67511  0.99165  0.87095  Biso   1.000  Hf
  O25      1.0000 0.02283  0.69891  0.69316  Biso   1.000  O 
  O26      1.0000 0.00955  0.57959  0.94872  Biso   1.000  O 
  O27      1.0000 0.88039  0.94231  0.69601  Biso   1.000  O 
  O28      1.0000 0.88317  0.83072  0.95428  Biso   1.000  O 
  O29      1.0000 0.48796  0.63180  0.74869  Biso   1.000  O 
  O30      1.0000 0.51898  0.63094  0.00100  Biso   1.000  O 
  O31      1.0000 0.40448  0.88911  0.99136  Biso   1.000  O 
  O32      1.0000 0.41564  0.87664  0.74606  Biso   1.000  O 
  Au1      1.0000 0.07609  0.24388  0.08566  Biso   1.000  Au
