data_image0
_cell_length_a       10.0379
_cell_length_b       10.2417
_cell_length_c       5.22463
_cell_angle_alpha    90
_cell_angle_beta     90
_cell_angle_gamma    90

_symmetry_space_group_name_H-M    "P 1"
_symmetry_int_tables_number       1

loop_
  _symmetry_equiv_pos_as_xyz
  'x, y, z'

loop_
  _atom_site_label
  _atom_site_occupancy
  _atom_site_fract_x
  _atom_site_fract_y
  _atom_site_fract_z
  _atom_site_thermal_displace_type
  _atom_site_B_iso_or_equiv
  _atom_site_type_symbol
  Au1      1.0000 0.12122  0.01636  0.37870  Biso   1.000  Au
  Hf1      1.0000 0.13959  0.23320  0.84352  Biso   1.000  Hf
  Hf2      1.0000 0.36007  0.27204  0.33129  Biso   1.000  Hf
  Hf3      1.0000 0.35803  0.48176  0.84005  Biso   1.000  Hf
  Hf4      1.0000 0.63735  0.02237  0.15960  Biso   1.000  Hf
  Hf5      1.0000 0.63460  0.23182  0.65912  Biso   1.000  Hf
  Hf6      1.0000 0.86442  0.26907  0.16712  Biso   1.000  Hf
  Hf7      1.0000 0.86114  0.47911  0.66319  Biso   1.000  Hf
  O1       1.0000 0.04335  0.16607  0.18318  Biso   1.000  O 
  O2       1.0000 0.01879  0.08874  0.71308  Biso   1.000  O 
  O3       1.0000 0.46865  0.41755  0.16610  Biso   1.000  O 
  O4       1.0000 0.46315  0.33443  0.66659  Biso   1.000  O 
  O5       1.0000 0.26720  0.12010  0.55989  Biso   1.000  O 
  O6       1.0000 0.29945  0.14425  0.04404  Biso   1.000  O 
  O7       1.0000 0.22315  0.37461  0.58869  Biso   1.000  O 
  O8       1.0000 0.22284  0.38137  0.08944  Biso   1.000  O 
  O9       1.0000 0.53444  0.16966  0.32682  Biso   1.000  O 
  O10      1.0000 0.53284  0.08167  0.82136  Biso   1.000  O 
  O11      1.0000 0.96734  0.41604  0.34060  Biso   1.000  O 
  O12      1.0000 0.96453  0.33646  0.84944  Biso   1.000  O 
  O13      1.0000 0.77060  0.12646  0.91924  Biso   1.000  O 
  O14      1.0000 0.77472  0.12744  0.41790  Biso   1.000  O 
  O15      1.0000 0.72098  0.37552  0.91486  Biso   1.000  O 
  O16      1.0000 0.72492  0.37630  0.41324  Biso   1.000  O 
  Hf8      1.0000 0.13947  0.52231  0.34469  Biso   1.000  Hf
  Hf9      1.0000 0.13570  0.73141  0.84280  Biso   1.000  Hf
  Hf10     1.0000 0.36317  0.77328  0.33148  Biso   1.000  Hf
  Hf11     1.0000 0.36199  0.98308  0.83922  Biso   1.000  Hf
  Hf12     1.0000 0.64154  0.52017  0.15705  Biso   1.000  Hf
  Hf13     1.0000 0.63630  0.72995  0.65388  Biso   1.000  Hf
  Hf14     1.0000 0.86329  0.76868  0.15635  Biso   1.000  Hf
  Hf15     1.0000 0.85552  0.98069  0.66940  Biso   1.000  Hf
  O17      1.0000 0.03741  0.66991  0.17348  Biso   1.000  O 
  O18      1.0000 0.03329  0.58264  0.67400  Biso   1.000  O 
  O19      1.0000 0.47324  0.91782  0.16538  Biso   1.000  O 
  O20      1.0000 0.46400  0.83483  0.66158  Biso   1.000  O 
  O21      1.0000 0.27536  0.62788  0.58776  Biso   1.000  O 
  O22      1.0000 0.27930  0.62497  0.08876  Biso   1.000  O 
  O23      1.0000 0.21883  0.87382  0.57584  Biso   1.000  O 
  O24      1.0000 0.23630  0.87344  0.06852  Biso   1.000  O 
  O25      1.0000 0.53546  0.66752  0.32490  Biso   1.000  O 
  O26      1.0000 0.53136  0.58468  0.82671  Biso   1.000  O 
  O27      1.0000 0.95830  0.92399  0.32451  Biso   1.000  O 
  O28      1.0000 0.96212  0.83257  0.82691  Biso   1.000  O 
  O29      1.0000 0.77349  0.62562  0.91190  Biso   1.000  O 
  O30      1.0000 0.77726  0.62616  0.41203  Biso   1.000  O 
  O31      1.0000 0.71960  0.87517  0.91150  Biso   1.000  O 
  O32      1.0000 0.72654  0.87612  0.41141  Biso   1.000  O 
