data_image0
_cell_length_a       10.0625
_cell_length_b       10.2589
_cell_length_c       10.5001
_cell_angle_alpha    90
_cell_angle_beta     90
_cell_angle_gamma    90

_symmetry_space_group_name_H-M    "P 1"
_symmetry_int_tables_number       1

loop_
  _symmetry_equiv_pos_as_xyz
  'x, y, z'

loop_
  _atom_site_label
  _atom_site_occupancy
  _atom_site_fract_x
  _atom_site_fract_y
  _atom_site_fract_z
  _atom_site_thermal_displace_type
  _atom_site_B_iso_or_equiv
  _atom_site_type_symbol
  Hf1      1.0000 0.13551  0.01958  0.17208  Biso   1.000  Hf
  Hf2      1.0000 0.13265  0.22866  0.42618  Biso   1.000  Hf
  Hf3      1.0000 0.34518  0.26648  0.18440  Biso   1.000  Hf
  Hf4      1.0000 0.36100  0.47995  0.42118  Biso   1.000  Hf
  Hf5      1.0000 0.63862  0.02049  0.07362  Biso   1.000  Hf
  Hf6      1.0000 0.63631  0.22566  0.33097  Biso   1.000  Hf
  Hf7      1.0000 0.86353  0.27146  0.07700  Biso   1.000  Hf
  Hf8      1.0000 0.86111  0.48039  0.32972  Biso   1.000  Hf
  O1       1.0000 0.03431  0.16536  0.08374  Biso   1.000  O 
  O2       1.0000 0.02771  0.08670  0.33319  Biso   1.000  O 
  O3       1.0000 0.44791  0.44741  0.10646  Biso   1.000  O 
  O4       1.0000 0.46414  0.33279  0.33344  Biso   1.000  O 
  O5       1.0000 0.26632  0.12481  0.30087  Biso   1.000  O 
  O6       1.0000 0.27629  0.12268  0.04744  Biso   1.000  O 
  O7       1.0000 0.21760  0.37534  0.29965  Biso   1.000  O 
  O8       1.0000 0.22382  0.37396  0.04706  Biso   1.000  O 
  O9       1.0000 0.51207  0.12943  0.19684  Biso   1.000  O 
  O10      1.0000 0.52797  0.08973  0.42851  Biso   1.000  O 
  O11      1.0000 0.96774  0.41490  0.16818  Biso   1.000  O 
  O12      1.0000 0.96455  0.33704  0.41922  Biso   1.000  O 
  O13      1.0000 0.77277  0.12457  0.45420  Biso   1.000  O 
  O14      1.0000 0.77243  0.12885  0.20418  Biso   1.000  O 
  O15      1.0000 0.72134  0.37423  0.45609  Biso   1.000  O 
  O16      1.0000 0.72575  0.38180  0.20995  Biso   1.000  O 
  Hf9      1.0000 0.13565  0.02179  0.67287  Biso   1.000  Hf
  Hf10     1.0000 0.13484  0.23002  0.92199  Biso   1.000  Hf
  Hf11     1.0000 0.35795  0.27333  0.67227  Biso   1.000  Hf
  Hf12     1.0000 0.35489  0.48460  0.92356  Biso   1.000  Hf
  Hf13     1.0000 0.63601  0.02091  0.58010  Biso   1.000  Hf
  Hf14     1.0000 0.63839  0.22805  0.82015  Biso   1.000  Hf
  Hf15     1.0000 0.85810  0.27303  0.57848  Biso   1.000  Hf
  Hf16     1.0000 0.86175  0.48320  0.82699  Biso   1.000  Hf
  O17      1.0000 0.02819  0.16496  0.58451  Biso   1.000  O 
  O18      1.0000 0.03099  0.08480  0.83326  Biso   1.000  O 
  O19      1.0000 0.46573  0.41525  0.58053  Biso   1.000  O 
  O20      1.0000 0.46601  0.34302  0.82769  Biso   1.000  O 
  O21      1.0000 0.27350  0.12602  0.79569  Biso   1.000  O 
  O22      1.0000 0.27191  0.12646  0.54751  Biso   1.000  O 
  O23      1.0000 0.22118  0.37550  0.79660  Biso   1.000  O 
  O24      1.0000 0.22216  0.37682  0.54663  Biso   1.000  O 
  O25      1.0000 0.52942  0.16628  0.66689  Biso   1.000  O 
  O26      1.0000 0.53168  0.07185  0.90252  Biso   1.000  O 
  O27      1.0000 0.96585  0.41604  0.66659  Biso   1.000  O 
  O28      1.0000 0.96711  0.33709  0.91575  Biso   1.000  O 
  O29      1.0000 0.77970  0.12377  0.94877  Biso   1.000  O 
  O30      1.0000 0.77485  0.12512  0.70108  Biso   1.000  O 
  O31      1.0000 0.73460  0.38713  0.95322  Biso   1.000  O 
  O32      1.0000 0.72289  0.37678  0.70407  Biso   1.000  O 
  Hf17     1.0000 0.13813  0.52246  0.17115  Biso   1.000  Hf
  Hf18     1.0000 0.13769  0.72990  0.42124  Biso   1.000  Hf
  Hf19     1.0000 0.36173  0.77353  0.17207  Biso   1.000  Hf
  Hf20     1.0000 0.36124  0.97967  0.42480  Biso   1.000  Hf
  Hf21     1.0000 0.64132  0.53102  0.08176  Biso   1.000  Hf
  Hf22     1.0000 0.63875  0.73289  0.32943  Biso   1.000  Hf
  Hf23     1.0000 0.86260  0.77253  0.07869  Biso   1.000  Hf
  Hf24     1.0000 0.86027  0.98007  0.32840  Biso   1.000  Hf
  O33      1.0000 0.03308  0.66472  0.08249  Biso   1.000  O 
  O34      1.0000 0.03277  0.58675  0.33214  Biso   1.000  O 
  O35      1.0000 0.46921  0.91101  0.07796  Biso   1.000  O 
  O36      1.0000 0.46716  0.83849  0.33384  Biso   1.000  O 
  O37      1.0000 0.27587  0.62520  0.29435  Biso   1.000  O 
  O38      1.0000 0.27524  0.62865  0.04379  Biso   1.000  O 
  O39      1.0000 0.22419  0.87539  0.29617  Biso   1.000  O 
  O40      1.0000 0.22380  0.87577  0.04651  Biso   1.000  O 
  O41      1.0000 0.53798  0.67584  0.16611  Biso   1.000  O 
  O42      1.0000 0.53178  0.58657  0.41509  Biso   1.000  O 
  O43      1.0000 0.96713  0.91598  0.16739  Biso   1.000  O 
  O44      1.0000 0.96573  0.83555  0.41653  Biso   1.000  O 
  O45      1.0000 0.77467  0.62506  0.45505  Biso   1.000  O 
  O46      1.0000 0.77811  0.62976  0.20595  Biso   1.000  O 
  O47      1.0000 0.72315  0.87578  0.45612  Biso   1.000  O 
  O48      1.0000 0.72513  0.87846  0.20532  Biso   1.000  O 
  Hf25     1.0000 0.13709  0.52175  0.67125  Biso   1.000  Hf
  Hf26     1.0000 0.13404  0.73238  0.92187  Biso   1.000  Hf
  Hf27     1.0000 0.35929  0.77042  0.67173  Biso   1.000  Hf
  Hf28     1.0000 0.35729  0.97852  0.92043  Biso   1.000  Hf
  Hf29     1.0000 0.63661  0.52192  0.57723  Biso   1.000  Hf
  Hf30     1.0000 0.63522  0.73040  0.82782  Biso   1.000  Hf
  Hf31     1.0000 0.86073  0.77185  0.57865  Biso   1.000  Hf
  Hf32     1.0000 0.85992  0.97963  0.82835  Biso   1.000  Hf
  O49      1.0000 0.03169  0.66546  0.58231  Biso   1.000  O 
  O50      1.0000 0.03131  0.58836  0.83215  Biso   1.000  O 
  O51      1.0000 0.46621  0.91374  0.58482  Biso   1.000  O 
  O52      1.0000 0.46137  0.83059  0.83338  Biso   1.000  O 
  O53      1.0000 0.27337  0.62442  0.79549  Biso   1.000  O 
  O54      1.0000 0.27440  0.62593  0.54455  Biso   1.000  O 
  O55      1.0000 0.22085  0.87459  0.79511  Biso   1.000  O 
  O56      1.0000 0.22310  0.87650  0.54549  Biso   1.000  O 
  O57      1.0000 0.53031  0.66427  0.66672  Biso   1.000  O 
  O58      1.0000 0.52954  0.58494  0.91830  Biso   1.000  O 
  O59      1.0000 0.96648  0.91500  0.66636  Biso   1.000  O 
  O60      1.0000 0.96369  0.83793  0.91836  Biso   1.000  O 
  O61      1.0000 0.77153  0.63104  0.95471  Biso   1.000  O 
  O62      1.0000 0.77367  0.62685  0.70412  Biso   1.000  O 
  O63      1.0000 0.72001  0.87627  0.95520  Biso   1.000  O 
  O64      1.0000 0.72263  0.87544  0.70597  Biso   1.000  O 
  Au1      1.0000 0.56075  0.27887  0.04942  Biso   1.000  Au
