data_image0
_cell_length_a       10.1926
_cell_length_b       5.08874
_cell_length_c       10.4826
_cell_angle_alpha    90
_cell_angle_beta     80
_cell_angle_gamma    90

_symmetry_space_group_name_H-M    "P 1"
_symmetry_int_tables_number       1

loop_
  _symmetry_equiv_pos_as_xyz
  'x, y, z'

loop_
  _atom_site_label
  _atom_site_occupancy
  _atom_site_fract_x
  _atom_site_fract_y
  _atom_site_fract_z
  _atom_site_thermal_displace_type
  _atom_site_B_iso_or_equiv
  _atom_site_type_symbol
  B1       1.0000 0.02075  0.12093  0.17393  Biso   1.000  B 
  Hf1      1.0000 0.14362  0.45174  0.38964  Biso   1.000  Hf
  Hf2      1.0000 0.35470  0.53814  0.10484  Biso   1.000  Hf
  Hf3      1.0000 0.35633  0.95448  0.34896  Biso   1.000  Hf
  O1       1.0000 0.03097  0.31529  0.08308  Biso   1.000  O 
  O2       1.0000 0.02750  0.18402  0.30150  Biso   1.000  O 
  O3       1.0000 0.47084  0.82284  0.17302  Biso   1.000  O 
  O4       1.0000 0.46672  0.66857  0.42457  Biso   1.000  O 
  O5       1.0000 0.28660  0.26138  0.24828  Biso   1.000  O 
  O6       1.0000 0.27415  0.23748  0.49185  Biso   1.000  O 
  O7       1.0000 0.22964  0.73898  0.99991  Biso   1.000  O 
  O8       1.0000 0.23056  0.72691  0.26161  Biso   1.000  O 
  Hf4      1.0000 0.13891  0.03673  0.64467  Biso   1.000  Hf
  Hf5      1.0000 0.14256  0.45289  0.89701  Biso   1.000  Hf
  Hf6      1.0000 0.35949  0.53860  0.60350  Biso   1.000  Hf
  Hf7      1.0000 0.35580  0.95300  0.85843  Biso   1.000  Hf
  O9       1.0000 0.02804  0.30226  0.56377  Biso   1.000  O 
  O10      1.0000 0.03193  0.17266  0.82295  Biso   1.000  O 
  O11      1.0000 0.46504  0.82281  0.67567  Biso   1.000  O 
  O12      1.0000 0.47223  0.67991  0.92568  Biso   1.000  O 
  O13      1.0000 0.27455  0.25007  0.73833  Biso   1.000  O 
  O14      1.0000 0.28339  0.25316  0.98119  Biso   1.000  O 
  O15      1.0000 0.22128  0.74844  0.50829  Biso   1.000  O 
  O16      1.0000 0.22168  0.73574  0.75708  Biso   1.000  O 
  Hf8      1.0000 0.63790  0.04723  0.14680  Biso   1.000  Hf
  Hf9      1.0000 0.63509  0.45355  0.39789  Biso   1.000  Hf
  Hf10     1.0000 0.85900  0.55267  0.10282  Biso   1.000  Hf
  Hf11     1.0000 0.85237  0.95099  0.36263  Biso   1.000  Hf
  O17      1.0000 0.53593  0.33210  0.07796  Biso   1.000  O 
  O18      1.0000 0.53618  0.16158  0.32900  Biso   1.000  O 
  O19      1.0000 0.96125  0.87929  0.16512  Biso   1.000  O 
  O20      1.0000 0.96681  0.67217  0.41957  Biso   1.000  O 
  O21      1.0000 0.77599  0.26298  0.24123  Biso   1.000  O 
  O22      1.0000 0.77329  0.23631  0.49180  Biso   1.000  O 
  O23      1.0000 0.72739  0.76246  0.01150  Biso   1.000  O 
  O24      1.0000 0.72795  0.74423  0.26244  Biso   1.000  O 
  Hf12     1.0000 0.63660  0.03662  0.65047  Biso   1.000  Hf
  Hf13     1.0000 0.63652  0.45649  0.89766  Biso   1.000  Hf
  Hf14     1.0000 0.86282  0.53396  0.60415  Biso   1.000  Hf
  Hf15     1.0000 0.86240  0.95491  0.85476  Biso   1.000  Hf
  O25      1.0000 0.53255  0.32459  0.57880  Biso   1.000  O 
  O26      1.0000 0.53403  0.16791  0.82873  Biso   1.000  O 
  O27      1.0000 0.96803  0.81221  0.67632  Biso   1.000  O 
  O28      1.0000 0.96685  0.66630  0.92872  Biso   1.000  O 
  O29      1.0000 0.77698  0.25146  0.74073  Biso   1.000  O 
  O30      1.0000 0.77706  0.24864  0.99225  Biso   1.000  O 
  O31      1.0000 0.72307  0.74794  0.51396  Biso   1.000  O 
  O32      1.0000 0.72542  0.73937  0.76158  Biso   1.000  O 
