data_image0
_cell_length_a       10.1204
_cell_length_b       10.2729
_cell_length_c       5.21703
_cell_angle_alpha    90
_cell_angle_beta     90
_cell_angle_gamma    90

_symmetry_space_group_name_H-M    "P 1"
_symmetry_int_tables_number       1

loop_
  _symmetry_equiv_pos_as_xyz
  'x, y, z'

loop_
  _atom_site_label
  _atom_site_occupancy
  _atom_site_fract_x
  _atom_site_fract_y
  _atom_site_fract_z
  _atom_site_thermal_displace_type
  _atom_site_B_iso_or_equiv
  _atom_site_type_symbol
  Hf1      1.0000 0.13760  0.01949  0.34593  Biso   1.000  Hf
  Hf2      1.0000 0.12797  0.22534  0.84563  Biso   1.000  Hf
  Hf3      1.0000 0.34343  0.27600  0.35588  Biso   1.000  Hf
  Hf4      1.0000 0.34124  0.48270  0.84756  Biso   1.000  Hf
  Hf5      1.0000 0.64881  0.02197  0.15123  Biso   1.000  Hf
  Hf6      1.0000 0.62018  0.23783  0.73100  Biso   1.000  Hf
  Hf7      1.0000 0.85712  0.26135  0.14526  Biso   1.000  Hf
  Hf8      1.0000 0.86148  0.48272  0.65431  Biso   1.000  Hf
  O1       1.0000 0.03476  0.16540  0.17281  Biso   1.000  O 
  O2       1.0000 0.03404  0.07611  0.67167  Biso   1.000  O 
  O3       1.0000 0.44763  0.42569  0.18775  Biso   1.000  O 
  O4       1.0000 0.44640  0.33408  0.69036  Biso   1.000  O 
  O5       1.0000 0.27312  0.12460  0.59587  Biso   1.000  O 
  O6       1.0000 0.27741  0.12804  0.09584  Biso   1.000  O 
  O7       1.0000 0.20810  0.37410  0.59211  Biso   1.000  O 
  O8       1.0000 0.21247  0.37793  0.09485  Biso   1.000  O 
  O9       1.0000 0.52965  0.17784  0.35039  Biso   1.000  O 
  O10      1.0000 0.52946  0.07389  0.83075  Biso   1.000  O 
  O11      1.0000 0.94965  0.41689  0.32862  Biso   1.000  O 
  O12      1.0000 0.96082  0.32966  0.82542  Biso   1.000  O 
  O13      1.0000 0.78414  0.11597  0.88806  Biso   1.000  O 
  O14      1.0000 0.78417  0.11642  0.39748  Biso   1.000  O 
  O15      1.0000 0.72928  0.38830  0.88928  Biso   1.000  O 
  O16      1.0000 0.68509  0.35144  0.36713  Biso   1.000  O 
  Hf9      1.0000 0.12737  0.52136  0.33883  Biso   1.000  Hf
  Hf10     1.0000 0.12489  0.73283  0.84549  Biso   1.000  Hf
  Hf11     1.0000 0.35294  0.77302  0.34842  Biso   1.000  Hf
  Hf12     1.0000 0.34525  0.97796  0.85351  Biso   1.000  Hf
  Hf13     1.0000 0.62724  0.52268  0.14331  Biso   1.000  Hf
  Hf14     1.0000 0.62526  0.72810  0.65246  Biso   1.000  Hf
  Hf15     1.0000 0.85228  0.76872  0.15249  Biso   1.000  Hf
  Hf16     1.0000 0.84669  0.97576  0.64865  Biso   1.000  Hf
  O17      1.0000 0.02378  0.66503  0.17026  Biso   1.000  O 
  O18      1.0000 0.02626  0.58153  0.67690  Biso   1.000  O 
  O19      1.0000 0.45699  0.92204  0.18438  Biso   1.000  O 
  O20      1.0000 0.45218  0.82925  0.68094  Biso   1.000  O 
  O21      1.0000 0.26106  0.62506  0.58841  Biso   1.000  O 
  O22      1.0000 0.26541  0.62882  0.09199  Biso   1.000  O 
  O23      1.0000 0.21255  0.87419  0.59599  Biso   1.000  O 
  O24      1.0000 0.21593  0.87647  0.09616  Biso   1.000  O 
  O25      1.0000 0.52326  0.66855  0.32437  Biso   1.000  O 
  O26      1.0000 0.51672  0.58070  0.82530  Biso   1.000  O 
  O27      1.0000 0.95830  0.91236  0.32549  Biso   1.000  O 
  O28      1.0000 0.95097  0.82855  0.82911  Biso   1.000  O 
  O29      1.0000 0.75956  0.62846  0.90101  Biso   1.000  O 
  O30      1.0000 0.76215  0.61438  0.40312  Biso   1.000  O 
  O31      1.0000 0.70823  0.87390  0.90911  Biso   1.000  O 
  O32      1.0000 0.71499  0.86757  0.40575  Biso   1.000  O 
  B1       1.0000 0.61013  0.26070  0.20072  Biso   1.000  B 
