data_image0
_cell_length_a       10.1703
_cell_length_b       10.2242
_cell_length_c       5.21587
_cell_angle_alpha    90
_cell_angle_beta     80
_cell_angle_gamma    90

_symmetry_space_group_name_H-M    "P 1"
_symmetry_int_tables_number       1

loop_
  _symmetry_equiv_pos_as_xyz
  'x, y, z'

loop_
  _atom_site_label
  _atom_site_occupancy
  _atom_site_fract_x
  _atom_site_fract_y
  _atom_site_fract_z
  _atom_site_thermal_displace_type
  _atom_site_B_iso_or_equiv
  _atom_site_type_symbol
  B1       1.0000 0.02142  0.05598  0.33631  Biso   1.000  B 
  Hf1      1.0000 0.14325  0.22271  0.78544  Biso   1.000  Hf
  Hf2      1.0000 0.35732  0.26425  0.20990  Biso   1.000  Hf
  Hf3      1.0000 0.35757  0.47543  0.70758  Biso   1.000  Hf
  O1       1.0000 0.02849  0.14573  0.14019  Biso   1.000  O 
  O2       1.0000 0.02989  0.09297  0.58967  Biso   1.000  O 
  O3       1.0000 0.46442  0.41374  0.34362  Biso   1.000  O 
  O4       1.0000 0.46533  0.33343  0.84533  Biso   1.000  O 
  O5       1.0000 0.28849  0.13328  0.50112  Biso   1.000  O 
  O6       1.0000 0.28310  0.12718  0.96694  Biso   1.000  O 
  O7       1.0000 0.22082  0.37468  0.01538  Biso   1.000  O 
  O8       1.0000 0.21979  0.36838  0.51681  Biso   1.000  O 
  Hf4      1.0000 0.13942  0.52014  0.29043  Biso   1.000  Hf
  Hf5      1.0000 0.14105  0.73045  0.78913  Biso   1.000  Hf
  Hf6      1.0000 0.35592  0.77506  0.20889  Biso   1.000  Hf
  Hf7      1.0000 0.35378  0.97545  0.70841  Biso   1.000  Hf
  O9       1.0000 0.03533  0.67102  0.16529  Biso   1.000  O 
  O10      1.0000 0.03375  0.58017  0.65965  Biso   1.000  O 
  O11      1.0000 0.46918  0.91246  0.34813  Biso   1.000  O 
  O12      1.0000 0.47133  0.83717  0.84973  Biso   1.000  O 
  O13      1.0000 0.27546  0.62305  0.47769  Biso   1.000  O 
  O14      1.0000 0.27323  0.61602  0.98110  Biso   1.000  O 
  O15      1.0000 0.23214  0.87059  0.00127  Biso   1.000  O 
  O16      1.0000 0.23043  0.86232  0.52138  Biso   1.000  O 
  Hf8      1.0000 0.63804  0.02100  0.29726  Biso   1.000  Hf
  Hf9      1.0000 0.63555  0.22801  0.79277  Biso   1.000  Hf
  Hf10     1.0000 0.85676  0.27409  0.20742  Biso   1.000  Hf
  Hf11     1.0000 0.86337  0.47668  0.70977  Biso   1.000  Hf
  O17      1.0000 0.53722  0.16731  0.16043  Biso   1.000  O 
  O18      1.0000 0.53817  0.07928  0.66213  Biso   1.000  O 
  O19      1.0000 0.96672  0.41169  0.34522  Biso   1.000  O 
  O20      1.0000 0.96516  0.32785  0.84941  Biso   1.000  O 
  O21      1.0000 0.77715  0.12952  0.48132  Biso   1.000  O 
  O22      1.0000 0.77439  0.11978  0.98185  Biso   1.000  O 
  O23      1.0000 0.72539  0.37967  0.02039  Biso   1.000  O 
  O24      1.0000 0.72316  0.37110  0.52022  Biso   1.000  O 
  Hf12     1.0000 0.63545  0.52114  0.29554  Biso   1.000  Hf
  Hf13     1.0000 0.63564  0.72587  0.79815  Biso   1.000  Hf
  Hf14     1.0000 0.86298  0.76911  0.20808  Biso   1.000  Hf
  Hf15     1.0000 0.85159  0.97587  0.72335  Biso   1.000  Hf
  O25      1.0000 0.53341  0.66485  0.15757  Biso   1.000  O 
  O26      1.0000 0.53140  0.58196  0.65944  Biso   1.000  O 
  O27      1.0000 0.96006  0.93572  0.32879  Biso   1.000  O 
  O28      1.0000 0.96407  0.83474  0.83835  Biso   1.000  O 
  O29      1.0000 0.77533  0.62730  0.48360  Biso   1.000  O 
  O30      1.0000 0.77679  0.62122  0.98651  Biso   1.000  O 
  O31      1.0000 0.72416  0.87730  0.02716  Biso   1.000  O 
  O32      1.0000 0.72875  0.86946  0.52544  Biso   1.000  O 
