data_image0
_cell_length_a       4.99379
_cell_length_b       10.3514
_cell_length_c       9.9759
_cell_angle_alpha    90
_cell_angle_beta     90
_cell_angle_gamma    90

_symmetry_space_group_name_H-M    "P 1"
_symmetry_int_tables_number       1

loop_
  _symmetry_equiv_pos_as_xyz
  'x, y, z'

loop_
  _atom_site_label
  _atom_site_occupancy
  _atom_site_fract_x
  _atom_site_fract_y
  _atom_site_fract_z
  _atom_site_thermal_displace_type
  _atom_site_B_iso_or_equiv
  _atom_site_type_symbol
  B1       1.0000 0.04723  0.05602  0.11259  Biso   1.000  B 
  Hf1      1.0000 0.27726  0.22836  0.37345  Biso   1.000  Hf
  Hf2      1.0000 0.71053  0.27045  0.12611  Biso   1.000  Hf
  Hf3      1.0000 0.73151  0.48244  0.37701  Biso   1.000  Hf
  O1       1.0000 0.07796  0.17327  0.18021  Biso   1.000  O 
  O2       1.0000 0.07364  0.06729  0.44611  Biso   1.000  O 
  O3       1.0000 0.92342  0.42993  0.19651  Biso   1.000  O 
  O4       1.0000 0.93455  0.31429  0.44543  Biso   1.000  O 
  O5       1.0000 0.57517  0.13374  0.25856  Biso   1.000  O 
  O6       1.0000 0.54125  0.13172  0.50248  Biso   1.000  O 
  O7       1.0000 0.46223  0.37990  0.49995  Biso   1.000  O 
  O8       1.0000 0.44119  0.37124  0.24969  Biso   1.000  O 
  Hf4      1.0000 0.27089  0.01330  0.62504  Biso   1.000  Hf
  Hf5      1.0000 0.27798  0.23150  0.88072  Biso   1.000  Hf
  Hf6      1.0000 0.73852  0.26432  0.62722  Biso   1.000  Hf
  Hf7      1.0000 0.73643  0.48382  0.87471  Biso   1.000  Hf
  O9       1.0000 0.06585  0.17811  0.70682  Biso   1.000  O 
  O10      1.0000 0.07242  0.06451  0.97316  Biso   1.000  O 
  O11      1.0000 0.93102  0.43299  0.69302  Biso   1.000  O 
  O12      1.0000 0.93822  0.31880  0.94484  Biso   1.000  O 
  O13      1.0000 0.53652  0.11429  0.74952  Biso   1.000  O 
  O14      1.0000 0.57006  0.13871  0.99194  Biso   1.000  O 
  O15      1.0000 0.45093  0.38244  0.00049  Biso   1.000  O 
  O16      1.0000 0.46329  0.36463  0.75118  Biso   1.000  O 
  Hf8      1.0000 0.25994  0.51802  0.12790  Biso   1.000  Hf
  Hf9      1.0000 0.27446  0.73600  0.37399  Biso   1.000  Hf
  Hf10     1.0000 0.72727  0.76556  0.12131  Biso   1.000  Hf
  Hf11     1.0000 0.71366  0.98689  0.37054  Biso   1.000  Hf
  O17      1.0000 0.07187  0.68839  0.19421  Biso   1.000  O 
  O18      1.0000 0.07295  0.56565  0.44338  Biso   1.000  O 
  O19      1.0000 0.93045  0.95177  0.17928  Biso   1.000  O 
  O20      1.0000 0.93615  0.82085  0.44544  Biso   1.000  O 
  O21      1.0000 0.53965  0.61275  0.24841  Biso   1.000  O 
  O22      1.0000 0.54348  0.63273  0.49870  Biso   1.000  O 
  O23      1.0000 0.45722  0.88400  0.50043  Biso   1.000  O 
  O24      1.0000 0.49938  0.85605  0.25735  Biso   1.000  O 
  Hf12     1.0000 0.26957  0.51622  0.62440  Biso   1.000  Hf
  Hf13     1.0000 0.27399  0.73361  0.87700  Biso   1.000  Hf
  Hf14     1.0000 0.73530  0.76766  0.62450  Biso   1.000  Hf
  Hf15     1.0000 0.71084  0.98240  0.87962  Biso   1.000  Hf
  O25      1.0000 0.07269  0.68300  0.69268  Biso   1.000  O 
  O26      1.0000 0.07431  0.56647  0.94586  Biso   1.000  O 
  O27      1.0000 0.92023  0.93371  0.69990  Biso   1.000  O 
  O28      1.0000 0.93448  0.81773  0.94053  Biso   1.000  O 
  O29      1.0000 0.54270  0.61684  0.74874  Biso   1.000  O 
  O30      1.0000 0.54872  0.62912  0.99995  Biso   1.000  O 
  O31      1.0000 0.47155  0.87222  0.99513  Biso   1.000  O 
  O32      1.0000 0.45213  0.86699  0.74716  Biso   1.000  O 
