data_image0
_cell_length_a       4.99351
_cell_length_b       10.4037
_cell_length_c       10.0464
_cell_angle_alpha    90
_cell_angle_beta     90
_cell_angle_gamma    90

_symmetry_space_group_name_H-M    "P 1"
_symmetry_int_tables_number       1

loop_
  _symmetry_equiv_pos_as_xyz
  'x, y, z'

loop_
  _atom_site_label
  _atom_site_occupancy
  _atom_site_fract_x
  _atom_site_fract_y
  _atom_site_fract_z
  _atom_site_thermal_displace_type
  _atom_site_B_iso_or_equiv
  _atom_site_type_symbol
  Hf1      1.0000 0.28599  0.01713  0.12033  Biso   1.000  Hf
  Hf2      1.0000 0.27357  0.22460  0.39672  Biso   1.000  Hf
  Hf3      1.0000 0.71733  0.26789  0.10622  Biso   1.000  Hf
  Hf4      1.0000 0.74246  0.48523  0.37902  Biso   1.000  Hf
  O1       1.0000 0.04249  0.18026  0.22002  Biso   1.000  O 
  O2       1.0000 0.08463  0.06083  0.45446  Biso   1.000  O 
  O3       1.0000 0.87961  0.43692  0.19505  Biso   1.000  O 
  O4       1.0000 0.93425  0.31631  0.45005  Biso   1.000  O 
  O5       1.0000 0.53204  0.11507  0.25699  Biso   1.000  O 
  O6       1.0000 0.56287  0.12926  0.50744  Biso   1.000  O 
  O7       1.0000 0.46274  0.38146  0.49242  Biso   1.000  O 
  O8       1.0000 0.37008  0.34527  0.22665  Biso   1.000  O 
  Hf5      1.0000 0.29603  0.01453  0.63292  Biso   1.000  Hf
  Hf6      1.0000 0.28444  0.23231  0.88737  Biso   1.000  Hf
  Hf7      1.0000 0.74944  0.26425  0.63432  Biso   1.000  Hf
  Hf8      1.0000 0.73863  0.48693  0.86611  Biso   1.000  Hf
  O9       1.0000 0.09133  0.18127  0.69355  Biso   1.000  O 
  O10      1.0000 0.11607  0.05755  0.94153  Biso   1.000  O 
  O11      1.0000 0.92416  0.43832  0.68527  Biso   1.000  O 
  O12      1.0000 0.91408  0.31037  0.91447  Biso   1.000  O 
  O13      1.0000 0.55972  0.11652  0.75581  Biso   1.000  O 
  O14      1.0000 0.61010  0.11299  0.99625  Biso   1.000  O 
  O15      1.0000 0.48804  0.38969  0.99306  Biso   1.000  O 
  O16      1.0000 0.45513  0.36804  0.74659  Biso   1.000  O 
  Hf9      1.0000 0.23654  0.51791  0.12138  Biso   1.000  Hf
  Hf10     1.0000 0.26178  0.73321  0.37565  Biso   1.000  Hf
  Hf11     1.0000 0.71392  0.76438  0.12578  Biso   1.000  Hf
  Hf12     1.0000 0.71917  0.98265  0.37400  Biso   1.000  Hf
  O17      1.0000 0.04846  0.68128  0.19792  Biso   1.000  O 
  O18      1.0000 0.06783  0.56638  0.44662  Biso   1.000  O 
  O19      1.0000 0.91550  0.93357  0.19388  Biso   1.000  O 
  O20      1.0000 0.91784  0.81342  0.44194  Biso   1.000  O 
  O21      1.0000 0.51252  0.60789  0.25110  Biso   1.000  O 
  O22      1.0000 0.53603  0.63175  0.49868  Biso   1.000  O 
  O23      1.0000 0.45112  0.88186  0.49987  Biso   1.000  O 
  O24      1.0000 0.44925  0.86344  0.24919  Biso   1.000  O 
  Hf13     1.0000 0.27314  0.51379  0.62439  Biso   1.000  Hf
  Hf14     1.0000 0.27045  0.73150  0.87531  Biso   1.000  Hf
  Hf15     1.0000 0.73267  0.76475  0.62320  Biso   1.000  Hf
  Hf16     1.0000 0.73657  0.97584  0.87435  Biso   1.000  Hf
  O25      1.0000 0.06860  0.68067  0.69548  Biso   1.000  O 
  O26      1.0000 0.07405  0.56217  0.94469  Biso   1.000  O 
  O27      1.0000 0.92723  0.92855  0.69460  Biso   1.000  O 
  O28      1.0000 0.93087  0.81006  0.94674  Biso   1.000  O 
  O29      1.0000 0.53767  0.61841  0.74729  Biso   1.000  O 
  O30      1.0000 0.53792  0.63124  0.99955  Biso   1.000  O 
  O31      1.0000 0.43840  0.87952  0.00034  Biso   1.000  O 
  O32      1.0000 0.46007  0.86451  0.74999  Biso   1.000  O 
  B1       1.0000 0.20927  0.25866  0.14017  Biso   1.000  B 
