data_image0
_cell_length_a       10.1121
_cell_length_b       10.2195
_cell_length_c       5.07514
_cell_angle_alpha    90
_cell_angle_beta     90
_cell_angle_gamma    90

_symmetry_space_group_name_H-M    "P 1"
_symmetry_int_tables_number       1

loop_
  _symmetry_equiv_pos_as_xyz
  'x, y, z'

loop_
  _atom_site_label
  _atom_site_occupancy
  _atom_site_fract_x
  _atom_site_fract_y
  _atom_site_fract_z
  _atom_site_thermal_displace_type
  _atom_site_B_iso_or_equiv
  _atom_site_type_symbol
  Hf1      1.0000 0.13422  0.99335  0.22596  Biso   1.000  Hf
  Hf2      1.0000 0.10694  0.23496  0.71294  Biso   1.000  Hf
  Hf3      1.0000 0.34312  0.25618  0.20013  Biso   1.000  Hf
  Hf4      1.0000 0.36652  0.00794  0.76024  Biso   1.000  Hf
  O1       1.0000 0.96735  0.14347  0.97698  Biso   1.000  O 
  O2       1.0000 0.99121  0.07980  0.48741  Biso   1.000  O 
  O3       1.0000 0.93944  0.34253  0.61032  Biso   1.000  O 
  O4       1.0000 0.01117  0.40025  0.09308  Biso   1.000  O 
  O5       1.0000 0.25200  0.13637  0.47877  Biso   1.000  O 
  O6       1.0000 0.22520  0.10289  0.96756  Biso   1.000  O 
  O7       1.0000 0.25724  0.35346  0.85749  Biso   1.000  O 
  O8       1.0000 0.19383  0.39060  0.37978  Biso   1.000  O 
  Hf5      1.0000 0.11747  0.56289  0.23376  Biso   1.000  Hf
  Hf6      1.0000 0.12308  0.76404  0.72928  Biso   1.000  Hf
  Hf7      1.0000 0.40113  0.76908  0.27869  Biso   1.000  Hf
  Hf8      1.0000 0.36669  0.51223  0.73252  Biso   1.000  Hf
  O9       1.0000 0.96394  0.66414  0.98822  Biso   1.000  O 
  O10      1.0000 0.98962  0.60114  0.52319  Biso   1.000  O 
  O11      1.0000 0.03991  0.82534  0.37751  Biso   1.000  O 
  O12      1.0000 0.02058  0.91221  0.89344  Biso   1.000  O 
  O13      1.0000 0.26168  0.64634  0.45467  Biso   1.000  O 
  O14      1.0000 0.21021  0.60460  0.91855  Biso   1.000  O 
  O15      1.0000 0.27741  0.84450  0.00327  Biso   1.000  O 
  O16      1.0000 0.26475  0.89460  0.50622  Biso   1.000  O 
  Hf9      1.0000 0.61523  0.02243  0.29812  Biso   1.000  Hf
  Hf10     1.0000 0.61480  0.25582  0.79553  Biso   1.000  Hf
  Hf11     1.0000 0.88871  0.23469  0.27188  Biso   1.000  Hf
  Hf12     1.0000 0.84801  0.01113  0.76527  Biso   1.000  Hf
  O17      1.0000 0.49571  0.14342  0.05230  Biso   1.000  O 
  O18      1.0000 0.50425  0.12051  0.56776  Biso   1.000  O 
  O19      1.0000 0.44663  0.38328  0.44432  Biso   1.000  O 
  O20      1.0000 0.49319  0.40122  0.96070  Biso   1.000  O 
  O21      1.0000 0.74385  0.15714  0.52472  Biso   1.000  O 
  O22      1.0000 0.74408  0.10458  0.02016  Biso   1.000  O 
  O23      1.0000 0.75703  0.35573  0.07580  Biso   1.000  O 
  O24      1.0000 0.69430  0.41445  0.58903  Biso   1.000  O 
  Hf13     1.0000 0.60736  0.48712  0.26427  Biso   1.000  Hf
  Hf14     1.0000 0.61325  0.74558  0.79425  Biso   1.000  Hf
  Hf15     1.0000 0.86225  0.74487  0.27445  Biso   1.000  Hf
  Hf16     1.0000 0.85154  0.50542  0.78032  Biso   1.000  Hf
  O25      1.0000 0.48721  0.63668  0.00578  Biso   1.000  O 
  O26      1.0000 0.50987  0.62558  0.51159  Biso   1.000  O 
  O27      1.0000 0.51630  0.87542  0.53382  Biso   1.000  O 
  O28      1.0000 0.52941  0.88995  0.03596  Biso   1.000  O 
  O29      1.0000 0.75585  0.65757  0.56565  Biso   1.000  O 
  O30      1.0000 0.74004  0.60513  0.05753  Biso   1.000  O 
  O31      1.0000 0.76229  0.85710  0.95188  Biso   1.000  O 
  O32      1.0000 0.77817  0.90954  0.44464  Biso   1.000  O 
  B1       1.0000 0.10484  0.31555  0.22644  Biso   1.000  B 
