data_image0
_cell_length_a       10.027
_cell_length_b       5.11396
_cell_length_c       10.5424
_cell_angle_alpha    90
_cell_angle_beta     90
_cell_angle_gamma    90

_symmetry_space_group_name_H-M    "P 1"
_symmetry_int_tables_number       1

loop_
  _symmetry_equiv_pos_as_xyz
  'x, y, z'

loop_
  _atom_site_label
  _atom_site_occupancy
  _atom_site_fract_x
  _atom_site_fract_y
  _atom_site_fract_z
  _atom_site_thermal_displace_type
  _atom_site_B_iso_or_equiv
  _atom_site_type_symbol
  Hf1      1.0000 0.13260  0.04040  0.17312  Biso   1.000  Hf
  Hf2      1.0000 0.13239  0.45300  0.42727  Biso   1.000  Hf
  Hf3      1.0000 0.34250  0.55063  0.18316  Biso   1.000  Hf
  Hf4      1.0000 0.35409  0.95439  0.42468  Biso   1.000  Hf
  Hf5      1.0000 0.65108  0.08143  0.06224  Biso   1.000  Hf
  Hf6      1.0000 0.63422  0.45263  0.34075  Biso   1.000  Hf
  Hf7      1.0000 0.85606  0.54160  0.07073  Biso   1.000  Hf
  Hf8      1.0000 0.86166  0.95900  0.33137  Biso   1.000  Hf
  O1       1.0000 0.03360  0.33457  0.08684  Biso   1.000  O 
  O2       1.0000 0.02586  0.16423  0.33801  Biso   1.000  O 
  O3       1.0000 0.49259  0.76551  0.07160  Biso   1.000  O 
  O4       1.0000 0.45936  0.66699  0.33545  Biso   1.000  O 
  O5       1.0000 0.26880  0.24731  0.29646  Biso   1.000  O 
  O6       1.0000 0.28030  0.24856  0.05162  Biso   1.000  O 
  O7       1.0000 0.20678  0.74568  0.30297  Biso   1.000  O 
  O8       1.0000 0.22481  0.75678  0.04780  Biso   1.000  O 
  O9       1.0000 0.52790  0.35046  0.16905  Biso   1.000  O 
  O10      1.0000 0.52451  0.17028  0.41910  Biso   1.000  O 
  O11      1.0000 0.95305  0.83552  0.16798  Biso   1.000  O 
  O12      1.0000 0.95952  0.65996  0.41764  Biso   1.000  O 
  O13      1.0000 0.77040  0.24373  0.45885  Biso   1.000  O 
  O14      1.0000 0.77001  0.24350  0.20951  Biso   1.000  O 
  O15      1.0000 0.71680  0.74852  0.45093  Biso   1.000  O 
  O16      1.0000 0.69252  0.72018  0.18383  Biso   1.000  O 
  Hf9      1.0000 0.13495  0.04018  0.67281  Biso   1.000  Hf
  Hf10     1.0000 0.12973  0.45174  0.92538  Biso   1.000  Hf
  Hf11     1.0000 0.35616  0.54020  0.67418  Biso   1.000  Hf
  Hf12     1.0000 0.34967  0.95433  0.92186  Biso   1.000  Hf
  Hf13     1.0000 0.63075  0.04134  0.58225  Biso   1.000  Hf
  Hf14     1.0000 0.63177  0.46839  0.83457  Biso   1.000  Hf
  Hf15     1.0000 0.85520  0.53916  0.57979  Biso   1.000  Hf
  Hf16     1.0000 0.86076  0.95814  0.82134  Biso   1.000  Hf
  O17      1.0000 0.02713  0.32778  0.58705  Biso   1.000  O 
  O18      1.0000 0.03033  0.16593  0.83309  Biso   1.000  O 
  O19      1.0000 0.46238  0.82442  0.58285  Biso   1.000  O 
  O20      1.0000 0.46084  0.67873  0.83126  Biso   1.000  O 
  O21      1.0000 0.27280  0.24244  0.79856  Biso   1.000  O 
  O22      1.0000 0.27255  0.25042  0.54916  Biso   1.000  O 
  O23      1.0000 0.21675  0.74226  0.79925  Biso   1.000  O 
  O24      1.0000 0.21805  0.74906  0.54883  Biso   1.000  O 
  O25      1.0000 0.52678  0.32725  0.67134  Biso   1.000  O 
  O26      1.0000 0.51814  0.16961  0.91537  Biso   1.000  O 
  O27      1.0000 0.96509  0.82745  0.66312  Biso   1.000  O 
  O28      1.0000 0.96108  0.66757  0.91709  Biso   1.000  O 
  O29      1.0000 0.78273  0.24662  0.94442  Biso   1.000  O 
  O30      1.0000 0.76944  0.25333  0.70493  Biso   1.000  O 
  O31      1.0000 0.72382  0.78137  0.94402  Biso   1.000  O 
  O32      1.0000 0.71794  0.74941  0.70172  Biso   1.000  O 
  B1       1.0000 0.59428  0.56280  0.09786  Biso   1.000  B 
