data_image0
_cell_length_a       10.0089
_cell_length_b       10.3764
_cell_length_c       4.95053
_cell_angle_alpha    90
_cell_angle_beta     90
_cell_angle_gamma    90

_symmetry_space_group_name_H-M    "P 1"
_symmetry_int_tables_number       1

loop_
  _symmetry_equiv_pos_as_xyz
  'x, y, z'

loop_
  _atom_site_label
  _atom_site_occupancy
  _atom_site_fract_x
  _atom_site_fract_y
  _atom_site_fract_z
  _atom_site_thermal_displace_type
  _atom_site_B_iso_or_equiv
  _atom_site_type_symbol
  B1       1.0000 0.02117  0.05355  0.23842  Biso   1.000  B 
  Hf1      1.0000 0.14162  0.22921  0.76247  Biso   1.000  Hf
  Hf2      1.0000 0.36506  0.26393  0.25795  Biso   1.000  Hf
  Hf3      1.0000 0.36661  0.48252  0.75501  Biso   1.000  Hf
  O1       1.0000 0.03070  0.16592  0.39277  Biso   1.000  O 
  O2       1.0000 0.03007  0.06650  0.95978  Biso   1.000  O 
  O3       1.0000 0.46070  0.43533  0.38484  Biso   1.000  O 
  O4       1.0000 0.46561  0.31659  0.88552  Biso   1.000  O 
  O5       1.0000 0.28345  0.12873  0.52214  Biso   1.000  O 
  O6       1.0000 0.27942  0.13302  0.99950  Biso   1.000  O 
  O7       1.0000 0.22742  0.37748  0.00411  Biso   1.000  O 
  O8       1.0000 0.22474  0.36671  0.50523  Biso   1.000  O 
  Hf4      1.0000 0.13504  0.51531  0.25463  Biso   1.000  Hf
  Hf5      1.0000 0.13516  0.73309  0.75796  Biso   1.000  Hf
  Hf6      1.0000 0.36237  0.76690  0.25467  Biso   1.000  Hf
  Hf7      1.0000 0.35772  0.98143  0.75714  Biso   1.000  Hf
  O9       1.0000 0.03691  0.68633  0.38112  Biso   1.000  O 
  O10      1.0000 0.03582  0.56446  0.89018  Biso   1.000  O 
  O11      1.0000 0.46408  0.93326  0.39661  Biso   1.000  O 
  O12      1.0000 0.46952  0.81779  0.89832  Biso   1.000  O 
  O13      1.0000 0.26867  0.61448  0.50314  Biso   1.000  O 
  O14      1.0000 0.27128  0.62571  0.00359  Biso   1.000  O 
  O15      1.0000 0.23037  0.87037  0.00417  Biso   1.000  O 
  O16      1.0000 0.23715  0.85968  0.51938  Biso   1.000  O 
  Hf8      1.0000 0.63255  0.01552  0.24603  Biso   1.000  Hf
  Hf9      1.0000 0.63193  0.23263  0.74816  Biso   1.000  Hf
  Hf10     1.0000 0.85883  0.27173  0.24658  Biso   1.000  Hf
  Hf11     1.0000 0.86745  0.48406  0.74844  Biso   1.000  Hf
  O17      1.0000 0.54218  0.18687  0.37656  Biso   1.000  O 
  O18      1.0000 0.54041  0.06487  0.88220  Biso   1.000  O 
  O19      1.0000 0.96457  0.42921  0.38617  Biso   1.000  O 
  O20      1.0000 0.96571  0.31322  0.88324  Biso   1.000  O 
  O21      1.0000 0.77170  0.11787  0.49299  Biso   1.000  O 
  O22      1.0000 0.77292  0.13382  0.99231  Biso   1.000  O 
  O23      1.0000 0.73187  0.38360  0.99833  Biso   1.000  O 
  O24      1.0000 0.72748  0.36982  0.49836  Biso   1.000  O 
  Hf12     1.0000 0.63074  0.51819  0.25109  Biso   1.000  Hf
  Hf13     1.0000 0.63308  0.73518  0.74646  Biso   1.000  Hf
  Hf14     1.0000 0.86850  0.76480  0.23930  Biso   1.000  Hf
  Hf15     1.0000 0.85946  0.98576  0.74927  Biso   1.000  Hf
  O25      1.0000 0.53747  0.68472  0.38687  Biso   1.000  O 
  O26      1.0000 0.53886  0.56551  0.88230  Biso   1.000  O 
  O27      1.0000 0.96483  0.94741  0.36453  Biso   1.000  O 
  O28      1.0000 0.96074  0.81812  0.86691  Biso   1.000  O 
  O29      1.0000 0.77306  0.61676  0.49279  Biso   1.000  O 
  O30      1.0000 0.77100  0.63488  0.99506  Biso   1.000  O 
  O31      1.0000 0.73060  0.88528  0.99376  Biso   1.000  O 
  O32      1.0000 0.73605  0.86747  0.49233  Biso   1.000  O 
