data_image0
_cell_length_a       10.18
_cell_length_b       5.08329
_cell_length_c       10.1804
_cell_angle_alpha    90
_cell_angle_beta     80
_cell_angle_gamma    90

_symmetry_space_group_name_H-M    "P 1"
_symmetry_int_tables_number       1

loop_
  _symmetry_equiv_pos_as_xyz
  'x, y, z'

loop_
  _atom_site_label
  _atom_site_occupancy
  _atom_site_fract_x
  _atom_site_fract_y
  _atom_site_fract_z
  _atom_site_thermal_displace_type
  _atom_site_B_iso_or_equiv
  _atom_site_type_symbol
  Hf1      1.0000 0.11602  0.97352  0.11613  Biso   1.000  Hf
  Hf2      1.0000 0.10355  0.47629  0.36851  Biso   1.000  Hf
  Hf3      1.0000 0.34073  0.51689  0.11513  Biso   1.000  Hf
  Hf4      1.0000 0.35007  0.98242  0.36838  Biso   1.000  Hf
  O1       1.0000 0.03059  0.34176  0.04338  Biso   1.000  O 
  O2       1.0000 0.01582  0.13236  0.29369  Biso   1.000  O 
  O3       1.0000 0.98403  0.63636  0.23089  Biso   1.000  O 
  O4       1.0000 0.93058  0.78199  0.99755  Biso   1.000  O 
  O5       1.0000 0.28551  0.31935  0.29398  Biso   1.000  O 
  O6       1.0000 0.27920  0.18096  0.02489  Biso   1.000  O 
  O7       1.0000 0.19428  0.68041  0.97774  Biso   1.000  O 
  O8       1.0000 0.23438  0.81536  0.24423  Biso   1.000  O 
  Hf5      1.0000 0.07235  0.96517  0.61335  Biso   1.000  Hf
  Hf6      1.0000 0.06561  0.50547  0.86013  Biso   1.000  Hf
  Hf7      1.0000 0.32574  0.49469  0.61362  Biso   1.000  Hf
  Hf8      1.0000 0.31299  0.96693  0.86285  Biso   1.000  Hf
  O9       1.0000 0.99372  0.29448  0.53737  Biso   1.000  O 
  O10      1.0000 0.98594  0.16503  0.79254  Biso   1.000  O 
  O11      1.0000 0.94427  0.68204  0.74145  Biso   1.000  O 
  O12      1.0000 0.95767  0.77643  0.48885  Biso   1.000  O 
  O13      1.0000 0.23514  0.30108  0.78155  Biso   1.000  O 
  O14      1.0000 0.24123  0.16829  0.53317  Biso   1.000  O 
  O15      1.0000 0.20998  0.68557  0.49389  Biso   1.000  O 
  O16      1.0000 0.19310  0.78481  0.73957  Biso   1.000  O 
  Hf9      1.0000 0.59951  0.98538  0.10604  Biso   1.000  Hf
  Hf10     1.0000 0.59040  0.50014  0.36060  Biso   1.000  Hf
  Hf11     1.0000 0.83902  0.52133  0.10592  Biso   1.000  Hf
  Hf12     1.0000 0.83672  0.97906  0.36609  Biso   1.000  Hf
  O17      1.0000 0.52359  0.31806  0.02707  Biso   1.000  O 
  O18      1.0000 0.52490  0.16440  0.27952  Biso   1.000  O 
  O19      1.0000 0.48020  0.68946  0.23508  Biso   1.000  O 
  O20      1.0000 0.43176  0.77511  0.99201  Biso   1.000  O 
  O21      1.0000 0.76736  0.31649  0.27764  Biso   1.000  O 
  O22      1.0000 0.77618  0.18963  0.02444  Biso   1.000  O 
  O23      1.0000 0.68010  0.67925  0.98841  Biso   1.000  O 
  O24      1.0000 0.72962  0.79885  0.23292  Biso   1.000  O 
  Hf13     1.0000 0.57522  0.96688  0.61399  Biso   1.000  Hf
  Hf14     1.0000 0.55793  0.49020  0.86694  Biso   1.000  Hf
  Hf15     1.0000 0.82398  0.49990  0.61265  Biso   1.000  Hf
  Hf16     1.0000 0.81173  0.96583  0.86349  Biso   1.000  Hf
  O25      1.0000 0.49281  0.29305  0.52536  Biso   1.000  O 
  O26      1.0000 0.48571  0.16380  0.77896  Biso   1.000  O 
  O27      1.0000 0.44566  0.67713  0.74029  Biso   1.000  O 
  O28      1.0000 0.46103  0.78088  0.49222  Biso   1.000  O 
  O29      1.0000 0.73477  0.29840  0.78178  Biso   1.000  O 
  O30      1.0000 0.74393  0.17187  0.52813  Biso   1.000  O 
  O31      1.0000 0.70849  0.68388  0.48827  Biso   1.000  O 
  O32      1.0000 0.69562  0.78403  0.73902  Biso   1.000  O 
  B1       1.0000 0.08542  0.48709  0.14147  Biso   1.000  B 
