data_image0
_cell_length_a       9.97756
_cell_length_b       10.3757
_cell_length_c       10.0215
_cell_angle_alpha    90
_cell_angle_beta     90
_cell_angle_gamma    90

_symmetry_space_group_name_H-M    "P 1"
_symmetry_int_tables_number       1

loop_
  _symmetry_equiv_pos_as_xyz
  'x, y, z'

loop_
  _atom_site_label
  _atom_site_occupancy
  _atom_site_fract_x
  _atom_site_fract_y
  _atom_site_fract_z
  _atom_site_thermal_displace_type
  _atom_site_B_iso_or_equiv
  _atom_site_type_symbol
  Hf1      1.0000 0.14213  0.01738  0.12159  Biso   1.000  Hf
  Hf2      1.0000 0.13608  0.22559  0.39817  Biso   1.000  Hf
  Hf3      1.0000 0.36422  0.26121  0.11790  Biso   1.000  Hf
  Hf4      1.0000 0.37302  0.48545  0.37796  Biso   1.000  Hf
  O1       1.0000 0.02385  0.18263  0.22200  Biso   1.000  O 
  O2       1.0000 0.03806  0.06255  0.45527  Biso   1.000  O 
  O3       1.0000 0.45365  0.43052  0.19652  Biso   1.000  O 
  O4       1.0000 0.46337  0.31379  0.44371  Biso   1.000  O 
  O5       1.0000 0.26841  0.11523  0.25820  Biso   1.000  O 
  O6       1.0000 0.27786  0.12677  0.50820  Biso   1.000  O 
  O7       1.0000 0.23217  0.38135  0.49471  Biso   1.000  O 
  O8       1.0000 0.19145  0.34516  0.22915  Biso   1.000  O 
  Hf5      1.0000 0.14095  0.01458  0.63438  Biso   1.000  Hf
  Hf6      1.0000 0.13914  0.23470  0.89082  Biso   1.000  Hf
  Hf7      1.0000 0.36895  0.26486  0.63086  Biso   1.000  Hf
  Hf8      1.0000 0.37177  0.48639  0.87005  Biso   1.000  Hf
  O9       1.0000 0.04100  0.18301  0.69478  Biso   1.000  O 
  O10      1.0000 0.04302  0.06377  0.94803  Biso   1.000  O 
  O11      1.0000 0.46507  0.43347  0.69031  Biso   1.000  O 
  O12      1.0000 0.46864  0.31240  0.93884  Biso   1.000  O 
  O13      1.0000 0.27429  0.11778  0.75596  Biso   1.000  O 
  O14      1.0000 0.29692  0.11606  0.99589  Biso   1.000  O 
  O15      1.0000 0.24540  0.38949  0.99413  Biso   1.000  O 
  O16      1.0000 0.22882  0.36710  0.74867  Biso   1.000  O 
  Hf9      1.0000 0.12454  0.51789  0.11793  Biso   1.000  Hf
  Hf10     1.0000 0.13063  0.73115  0.37529  Biso   1.000  Hf
  Hf11     1.0000 0.36090  0.76307  0.12583  Biso   1.000  Hf
  Hf12     1.0000 0.36252  0.97971  0.37682  Biso   1.000  Hf
  O17      1.0000 0.03277  0.68509  0.19200  Biso   1.000  O 
  O18      1.0000 0.03380  0.56482  0.44322  Biso   1.000  O 
  O19      1.0000 0.45933  0.93176  0.19445  Biso   1.000  O 
  O20      1.0000 0.46202  0.81297  0.44440  Biso   1.000  O 
  O21      1.0000 0.26253  0.60624  0.24861  Biso   1.000  O 
  O22      1.0000 0.26971  0.63085  0.49792  Biso   1.000  O 
  O23      1.0000 0.22573  0.88016  0.50103  Biso   1.000  O 
  O24      1.0000 0.22831  0.86276  0.25009  Biso   1.000  O 
  Hf13     1.0000 0.13316  0.51428  0.62449  Biso   1.000  Hf
  Hf14     1.0000 0.13309  0.73247  0.87437  Biso   1.000  Hf
  Hf15     1.0000 0.36535  0.76372  0.62456  Biso   1.000  Hf
  Hf16     1.0000 0.36944  0.97723  0.87403  Biso   1.000  Hf
  O25      1.0000 0.03673  0.68352  0.69140  Biso   1.000  O 
  O26      1.0000 0.03610  0.56276  0.93966  Biso   1.000  O 
  O27      1.0000 0.46310  0.93154  0.69039  Biso   1.000  O 
  O28      1.0000 0.46591  0.81174  0.94713  Biso   1.000  O 
  O29      1.0000 0.26927  0.61655  0.74756  Biso   1.000  O 
  O30      1.0000 0.26914  0.63295  0.99714  Biso   1.000  O 
  O31      1.0000 0.22923  0.87748  0.99991  Biso   1.000  O 
  O32      1.0000 0.23084  0.86489  0.75055  Biso   1.000  O 
  Hf17     1.0000 0.63447  0.01684  0.12487  Biso   1.000  Hf
  Hf18     1.0000 0.63429  0.23175  0.37507  Biso   1.000  Hf
  Hf19     1.0000 0.86046  0.27207  0.11683  Biso   1.000  Hf
  Hf20     1.0000 0.86363  0.48269  0.37585  Biso   1.000  Hf
  O33      1.0000 0.53409  0.18223  0.19204  Biso   1.000  O 
  O34      1.0000 0.54019  0.06320  0.44286  Biso   1.000  O 
  O35      1.0000 0.94960  0.44220  0.19001  Biso   1.000  O 
  O36      1.0000 0.96646  0.31767  0.44918  Biso   1.000  O 
  O37      1.0000 0.77017  0.11827  0.24769  Biso   1.000  O 
  O38      1.0000 0.77393  0.13322  0.49845  Biso   1.000  O 
  O39      1.0000 0.72870  0.38106  0.49847  Biso   1.000  O 
  O40      1.0000 0.72381  0.36829  0.24836  Biso   1.000  O 
  Hf21     1.0000 0.63984  0.01585  0.62444  Biso   1.000  Hf
  Hf22     1.0000 0.63853  0.22994  0.87422  Biso   1.000  Hf
  Hf23     1.0000 0.87084  0.26555  0.62871  Biso   1.000  Hf
  Hf24     1.0000 0.86355  0.48312  0.87278  Biso   1.000  Hf
  O41      1.0000 0.54018  0.18229  0.69285  Biso   1.000  O 
  O42      1.0000 0.54925  0.05930  0.93922  Biso   1.000  O 
  O43      1.0000 0.96058  0.43781  0.68979  Biso   1.000  O 
  O44      1.0000 0.95285  0.31249  0.92398  Biso   1.000  O 
  O45      1.0000 0.77580  0.11557  0.74847  Biso   1.000  O 
  O46      1.0000 0.77697  0.12944  0.99809  Biso   1.000  O 
  O47      1.0000 0.72789  0.38036  0.99951  Biso   1.000  O 
  O48      1.0000 0.72805  0.36788  0.74815  Biso   1.000  O 
  Hf25     1.0000 0.62836  0.51617  0.12845  Biso   1.000  Hf
  Hf26     1.0000 0.63404  0.73517  0.37603  Biso   1.000  Hf
  Hf27     1.0000 0.86271  0.76793  0.12614  Biso   1.000  Hf
  Hf28     1.0000 0.86302  0.98542  0.37347  Biso   1.000  Hf
  O49      1.0000 0.52848  0.68031  0.19985  Biso   1.000  O 
  O50      1.0000 0.53583  0.56587  0.44689  Biso   1.000  O 
  O51      1.0000 0.96269  0.93582  0.19430  Biso   1.000  O 
  O52      1.0000 0.96032  0.81508  0.44177  Biso   1.000  O 
  O53      1.0000 0.76496  0.61896  0.25128  Biso   1.000  O 
  O54      1.0000 0.76843  0.63209  0.50004  Biso   1.000  O 
  O55      1.0000 0.72898  0.88289  0.49889  Biso   1.000  O 
  O56      1.0000 0.72603  0.86840  0.24921  Biso   1.000  O 
  Hf29     1.0000 0.63706  0.51519  0.62615  Biso   1.000  Hf
  Hf30     1.0000 0.63602  0.73225  0.87683  Biso   1.000  Hf
  Hf31     1.0000 0.86658  0.76646  0.62468  Biso   1.000  Hf
  Hf32     1.0000 0.86467  0.98202  0.87617  Biso   1.000  Hf
  O57      1.0000 0.53405  0.68069  0.69777  Biso   1.000  O 
  O58      1.0000 0.53793  0.56443  0.94826  Biso   1.000  O 
  O59      1.0000 0.96394  0.93053  0.69875  Biso   1.000  O 
  O60      1.0000 0.96313  0.81340  0.94421  Biso   1.000  O 
  O61      1.0000 0.77040  0.61873  0.74944  Biso   1.000  O 
  O62      1.0000 0.76504  0.63246  0.00190  Biso   1.000  O 
  O63      1.0000 0.72560  0.88223  0.00023  Biso   1.000  O 
  O64      1.0000 0.72850  0.86667  0.74920  Biso   1.000  O 
  B1       1.0000 0.10930  0.25965  0.14187  Biso   1.000  B 
