data_image0
_cell_length_a       10.2115
_cell_length_b       10.3014
_cell_length_c       5.2257
_cell_angle_alpha    90
_cell_angle_beta     80
_cell_angle_gamma    90

_symmetry_space_group_name_H-M    "P 1"
_symmetry_int_tables_number       1

loop_
  _symmetry_equiv_pos_as_xyz
  'x, y, z'

loop_
  _atom_site_label
  _atom_site_occupancy
  _atom_site_fract_x
  _atom_site_fract_y
  _atom_site_fract_z
  _atom_site_thermal_displace_type
  _atom_site_B_iso_or_equiv
  _atom_site_type_symbol
  Hf1      1.0000 0.12252  0.01524  0.30080  Biso   1.000  Hf
  Hf2      1.0000 0.13983  0.23654  0.77678  Biso   1.000  Hf
  Hf3      1.0000 0.36723  0.26662  0.26526  Biso   1.000  Hf
  Hf4      1.0000 0.34806  0.47831  0.70333  Biso   1.000  Hf
  O1       1.0000 0.04430  0.16830  0.14759  Biso   1.000  O 
  O2       1.0000 0.02888  0.08060  0.66445  Biso   1.000  O 
  O3       1.0000 0.45707  0.43033  0.33734  Biso   1.000  O 
  O4       1.0000 0.46705  0.32714  0.86016  Biso   1.000  O 
  O5       1.0000 0.26116  0.11628  0.46035  Biso   1.000  O 
  O6       1.0000 0.31445  0.15152  0.91583  Biso   1.000  O 
  O7       1.0000 0.21524  0.38517  0.00977  Biso   1.000  O 
  O8       1.0000 0.20084  0.37922  0.50171  Biso   1.000  O 
  Hf5      1.0000 0.13538  0.52362  0.28179  Biso   1.000  Hf
  Hf6      1.0000 0.13073  0.72933  0.78938  Biso   1.000  Hf
  Hf7      1.0000 0.35550  0.77206  0.20521  Biso   1.000  Hf
  Hf8      1.0000 0.35983  0.97685  0.69496  Biso   1.000  Hf
  O9       1.0000 0.02823  0.67215  0.15787  Biso   1.000  O 
  O10      1.0000 0.02787  0.58589  0.65689  Biso   1.000  O 
  O11      1.0000 0.46036  0.92048  0.33716  Biso   1.000  O 
  O12      1.0000 0.45663  0.82817  0.83609  Biso   1.000  O 
  O13      1.0000 0.27071  0.62909  0.48005  Biso   1.000  O 
  O14      1.0000 0.26891  0.62849  0.97858  Biso   1.000  O 
  O15      1.0000 0.22145  0.89486  0.01226  Biso   1.000  O 
  O16      1.0000 0.21828  0.86745  0.51439  Biso   1.000  O 
  Hf9      1.0000 0.64326  0.01814  0.29744  Biso   1.000  Hf
  Hf10     1.0000 0.64930  0.22413  0.79992  Biso   1.000  Hf
  Hf11     1.0000 0.86478  0.27189  0.20937  Biso   1.000  Hf
  Hf12     1.0000 0.85796  0.47904  0.70911  Biso   1.000  Hf
  O17      1.0000 0.54244  0.16795  0.17344  Biso   1.000  O 
  O18      1.0000 0.54839  0.06997  0.67465  Biso   1.000  O 
  O19      1.0000 0.95772  0.42299  0.33663  Biso   1.000  O 
  O20      1.0000 0.96063  0.33184  0.83843  Biso   1.000  O 
  O21      1.0000 0.78166  0.12817  0.48375  Biso   1.000  O 
  O22      1.0000 0.77998  0.11906  0.98779  Biso   1.000  O 
  O23      1.0000 0.72290  0.37641  0.02733  Biso   1.000  O 
  O24      1.0000 0.72082  0.36817  0.52488  Biso   1.000  O 
  Hf13     1.0000 0.63330  0.52060  0.29915  Biso   1.000  Hf
  Hf14     1.0000 0.62965  0.72527  0.79540  Biso   1.000  Hf
  Hf15     1.0000 0.85178  0.76623  0.20918  Biso   1.000  Hf
  Hf16     1.0000 0.85261  0.97526  0.71616  Biso   1.000  Hf
  O25      1.0000 0.53063  0.67243  0.16980  Biso   1.000  O 
  O26      1.0000 0.52953  0.57606  0.67111  Biso   1.000  O 
  O27      1.0000 0.95149  0.91308  0.35071  Biso   1.000  O 
  O28      1.0000 0.95819  0.83272  0.84662  Biso   1.000  O 
  O29      1.0000 0.76896  0.62648  0.48530  Biso   1.000  O 
  O30      1.0000 0.76846  0.61918  0.98401  Biso   1.000  O 
  O31      1.0000 0.71737  0.87662  0.02221  Biso   1.000  O 
  O32      1.0000 0.71648  0.86638  0.52279  Biso   1.000  O 
  B1       1.0000 0.38966  0.24405  0.72810  Biso   1.000  B 
