data_image0
_cell_length_a       10.097
_cell_length_b       10.485
_cell_length_c       5.15731
_cell_angle_alpha    90
_cell_angle_beta     90
_cell_angle_gamma    90

_symmetry_space_group_name_H-M    "P 1"
_symmetry_int_tables_number       1

loop_
  _symmetry_equiv_pos_as_xyz
  'x, y, z'

loop_
  _atom_site_label
  _atom_site_occupancy
  _atom_site_fract_x
  _atom_site_fract_y
  _atom_site_fract_z
  _atom_site_thermal_displace_type
  _atom_site_B_iso_or_equiv
  _atom_site_type_symbol
  Hf1      1.0000 0.09934  0.96578  0.23646  Biso   1.000  Hf
  Hf2      1.0000 0.11022  0.21059  0.60867  Biso   1.000  Hf
  Hf3      1.0000 0.37506  0.27023  0.20749  Biso   1.000  Hf
  Hf4      1.0000 0.35157  0.48857  0.72253  Biso   1.000  Hf
  O1       1.0000 0.97621  0.10780  0.38936  Biso   1.000  O 
  O2       1.0000 0.00869  0.06847  0.88140  Biso   1.000  O 
  O3       1.0000 0.45588  0.43548  0.38587  Biso   1.000  O 
  O4       1.0000 0.44655  0.32968  0.88950  Biso   1.000  O 
  O5       1.0000 0.24717  0.10121  0.40505  Biso   1.000  O 
  O6       1.0000 0.25754  0.16351  0.89299  Biso   1.000  O 
  O7       1.0000 0.22352  0.42239  0.98496  Biso   1.000  O 
  O8       1.0000 0.21746  0.36608  0.46006  Biso   1.000  O 
  Hf5      1.0000 0.13857  0.53989  0.22189  Biso   1.000  Hf
  Hf6      1.0000 0.10140  0.74874  0.72892  Biso   1.000  Hf
  Hf7      1.0000 0.36885  0.77789  0.24462  Biso   1.000  Hf
  Hf8      1.0000 0.34294  0.99986  0.73154  Biso   1.000  Hf
  O9       1.0000 0.01847  0.66639  0.39611  Biso   1.000  O 
  O10      1.0000 0.00178  0.59143  0.86847  Biso   1.000  O 
  O11      1.0000 0.46424  0.93656  0.41248  Biso   1.000  O 
  O12      1.0000 0.44301  0.83306  0.90786  Biso   1.000  O 
  O13      1.0000 0.25661  0.62534  0.50773  Biso   1.000  O 
  O14      1.0000 0.26038  0.65999  0.01317  Biso   1.000  O 
  O15      1.0000 0.20948  0.90708  0.97707  Biso   1.000  O 
  O16      1.0000 0.22556  0.86128  0.48289  Biso   1.000  O 
  Hf9      1.0000 0.62612  0.01951  0.27055  Biso   1.000  Hf
  Hf10     1.0000 0.60957  0.23579  0.78551  Biso   1.000  Hf
  Hf11     1.0000 0.83502  0.27497  0.34261  Biso   1.000  Hf
  Hf12     1.0000 0.83204  0.48806  0.82602  Biso   1.000  Hf
  O17      1.0000 0.51950  0.18509  0.40998  Biso   1.000  O 
  O18      1.0000 0.50299  0.07758  0.91693  Biso   1.000  O 
  O19      1.0000 0.94016  0.44269  0.20680  Biso   1.000  O 
  O20      1.0000 0.93609  0.32982  0.68202  Biso   1.000  O 
  O21      1.0000 0.73858  0.11797  0.55401  Biso   1.000  O 
  O22      1.0000 0.77494  0.13571  0.04976  Biso   1.000  O 
  O23      1.0000 0.72292  0.37681  0.04939  Biso   1.000  O 
  O24      1.0000 0.69938  0.38162  0.55394  Biso   1.000  O 
  Hf13     1.0000 0.62556  0.52097  0.27732  Biso   1.000  Hf
  Hf14     1.0000 0.60342  0.74331  0.77017  Biso   1.000  Hf
  Hf15     1.0000 0.84979  0.76033  0.29874  Biso   1.000  Hf
  Hf16     1.0000 0.84090  0.98545  0.78192  Biso   1.000  Hf
  O25      1.0000 0.52433  0.68503  0.41225  Biso   1.000  O 
  O26      1.0000 0.49849  0.58187  0.90976  Biso   1.000  O 
  O27      1.0000 0.96956  0.88163  0.53171  Biso   1.000  O 
  O28      1.0000 0.98841  0.83399  0.01990  Biso   1.000  O 
  O29      1.0000 0.75561  0.62005  0.54147  Biso   1.000  O 
  O30      1.0000 0.76275  0.63643  0.03573  Biso   1.000  O 
  O31      1.0000 0.74046  0.88399  0.03004  Biso   1.000  O 
  O32      1.0000 0.71829  0.87092  0.52577  Biso   1.000  O 
  Ba1      1.0000 0.07735  0.26233  0.08790  Biso   1.000  Ba
