data_image0
_cell_length_a       10.1126
_cell_length_b       10.3479
_cell_length_c       5.32995
_cell_angle_alpha    90
_cell_angle_beta     90
_cell_angle_gamma    90

_symmetry_space_group_name_H-M    "P 1"
_symmetry_int_tables_number       1

loop_
  _symmetry_equiv_pos_as_xyz
  'x, y, z'

loop_
  _atom_site_label
  _atom_site_occupancy
  _atom_site_fract_x
  _atom_site_fract_y
  _atom_site_fract_z
  _atom_site_thermal_displace_type
  _atom_site_B_iso_or_equiv
  _atom_site_type_symbol
  Hf1      1.0000 0.13788  0.02165  0.34960  Biso   1.000  Hf
  Hf2      1.0000 0.13120  0.22989  0.85340  Biso   1.000  Hf
  Hf3      1.0000 0.33803  0.27802  0.38013  Biso   1.000  Hf
  Hf4      1.0000 0.34469  0.49089  0.85635  Biso   1.000  Hf
  Hf5      1.0000 0.64070  0.00112  0.15364  Biso   1.000  Hf
  Hf6      1.0000 0.63267  0.21610  0.59923  Biso   1.000  Hf
  Hf7      1.0000 0.87160  0.27392  0.14769  Biso   1.000  Hf
  Hf8      1.0000 0.85315  0.48182  0.65755  Biso   1.000  Hf
  O1       1.0000 0.03425  0.16041  0.16064  Biso   1.000  O 
  O2       1.0000 0.02600  0.09114  0.66044  Biso   1.000  O 
  O3       1.0000 0.43796  0.44712  0.20783  Biso   1.000  O 
  O4       1.0000 0.45647  0.33695  0.67100  Biso   1.000  O 
  O5       1.0000 0.26522  0.12709  0.60613  Biso   1.000  O 
  O6       1.0000 0.28082  0.12814  0.10053  Biso   1.000  O 
  O7       1.0000 0.20962  0.38018  0.61305  Biso   1.000  O 
  O8       1.0000 0.21411  0.37750  0.10547  Biso   1.000  O 
  O9       1.0000 0.51483  0.10854  0.38648  Biso   1.000  O 
  O10      1.0000 0.52487  0.07218  0.83896  Biso   1.000  O 
  O11      1.0000 0.96388  0.41298  0.34744  Biso   1.000  O 
  O12      1.0000 0.96413  0.33919  0.83816  Biso   1.000  O 
  O13      1.0000 0.76459  0.12966  0.88892  Biso   1.000  O 
  O14      1.0000 0.77917  0.12238  0.38197  Biso   1.000  O 
  O15      1.0000 0.73333  0.39455  0.92113  Biso   1.000  O 
  O16      1.0000 0.71512  0.37833  0.40689  Biso   1.000  O 
  Hf9      1.0000 0.13149  0.52447  0.34808  Biso   1.000  Hf
  Hf10     1.0000 0.12203  0.73415  0.84425  Biso   1.000  Hf
  Hf11     1.0000 0.35156  0.77158  0.34909  Biso   1.000  Hf
  Hf12     1.0000 0.34612  0.97575  0.84830  Biso   1.000  Hf
  Hf13     1.0000 0.63726  0.53844  0.16115  Biso   1.000  Hf
  Hf14     1.0000 0.62807  0.73319  0.65801  Biso   1.000  Hf
  Hf15     1.0000 0.86065  0.77251  0.15915  Biso   1.000  Hf
  Hf16     1.0000 0.85079  0.98452  0.65672  Biso   1.000  Hf
  O17      1.0000 0.02607  0.66244  0.16170  Biso   1.000  O 
  O18      1.0000 0.02093  0.59213  0.66265  Biso   1.000  O 
  O19      1.0000 0.46361  0.89371  0.14361  Biso   1.000  O 
  O20      1.0000 0.45522  0.83730  0.65849  Biso   1.000  O 
  O21      1.0000 0.26260  0.62884  0.59240  Biso   1.000  O 
  O22      1.0000 0.26607  0.63103  0.08797  Biso   1.000  O 
  O23      1.0000 0.21265  0.87614  0.59543  Biso   1.000  O 
  O24      1.0000 0.21617  0.87867  0.09885  Biso   1.000  O 
  O25      1.0000 0.52679  0.67017  0.34459  Biso   1.000  O 
  O26      1.0000 0.51936  0.59053  0.84197  Biso   1.000  O 
  O27      1.0000 0.96204  0.91395  0.34402  Biso   1.000  O 
  O28      1.0000 0.95556  0.84416  0.84497  Biso   1.000  O 
  O29      1.0000 0.76275  0.63524  0.90801  Biso   1.000  O 
  O30      1.0000 0.77144  0.62869  0.41261  Biso   1.000  O 
  O31      1.0000 0.71355  0.87587  0.90871  Biso   1.000  O 
  O32      1.0000 0.72086  0.87178  0.41497  Biso   1.000  O 
  Ba1      1.0000 0.55866  0.26600  0.06616  Biso   1.000  Ba
