data_image0
_cell_length_a       10.1115
_cell_length_b       10.3082
_cell_length_c       5.05147
_cell_angle_alpha    90
_cell_angle_beta     90
_cell_angle_gamma    90

_symmetry_space_group_name_H-M    "P 1"
_symmetry_int_tables_number       1

loop_
  _symmetry_equiv_pos_as_xyz
  'x, y, z'

loop_
  _atom_site_label
  _atom_site_occupancy
  _atom_site_fract_x
  _atom_site_fract_y
  _atom_site_fract_z
  _atom_site_thermal_displace_type
  _atom_site_B_iso_or_equiv
  _atom_site_type_symbol
  Ba1      1.0000 0.12557  0.00022  0.25416  Biso   1.000  Ba
  Hf1      1.0000 0.12555  0.50021  0.25414  Biso   1.000  Hf
  Hf2      1.0000 0.62557  0.00021  0.25409  Biso   1.000  Hf
  Hf3      1.0000 0.62555  0.50022  0.25415  Biso   1.000  Hf
  Hf4      1.0000 0.12556  0.25880  0.75415  Biso   1.000  Hf
  Hf5      1.0000 0.12557  0.74166  0.75414  Biso   1.000  Hf
  Hf6      1.0000 0.62559  0.24669  0.75410  Biso   1.000  Hf
  Hf7      1.0000 0.62555  0.75377  0.75411  Biso   1.000  Hf
  Hf8      1.0000 0.37809  0.25492  0.25200  Biso   1.000  Hf
  Hf9      1.0000 0.37804  0.74550  0.25625  Biso   1.000  Hf
  Hf10     1.0000 0.87307  0.25493  0.25627  Biso   1.000  Hf
  Hf11     1.0000 0.87304  0.74550  0.25200  Biso   1.000  Hf
  Hf12     1.0000 0.37873  0.00026  0.75414  Biso   1.000  Hf
  Hf13     1.0000 0.37845  0.50021  0.75418  Biso   1.000  Hf
  Hf14     1.0000 0.87240  0.00020  0.75414  Biso   1.000  Hf
  Hf15     1.0000 0.87267  0.50023  0.75415  Biso   1.000  Hf
  O1       1.0000 0.99532  0.15628  0.00002  Biso   1.000  O 
  O2       1.0000 0.00775  0.64336  0.02989  Biso   1.000  O 
  O3       1.0000 0.51160  0.15146  0.02746  Biso   1.000  O 
  O4       1.0000 0.50574  0.64765  0.00267  Biso   1.000  O 
  O5       1.0000 0.98274  0.12252  0.53502  Biso   1.000  O 
  O6       1.0000 0.99949  0.60069  0.52322  Biso   1.000  O 
  O7       1.0000 0.50113  0.10003  0.51765  Biso   1.000  O 
  O8       1.0000 0.49550  0.60119  0.49898  Biso   1.000  O 
  O9       1.0000 0.00775  0.35707  0.47834  Biso   1.000  O 
  O10      1.0000 0.99531  0.84415  0.50829  Biso   1.000  O 
  O11      1.0000 0.50573  0.35277  0.50564  Biso   1.000  O 
  O12      1.0000 0.51164  0.84895  0.48057  Biso   1.000  O 
  O13      1.0000 0.99951  0.39976  0.98502  Biso   1.000  O 
  O14      1.0000 0.98276  0.87793  0.97329  Biso   1.000  O 
  O15      1.0000 0.49551  0.39923  0.00936  Biso   1.000  O 
  O16      1.0000 0.50118  0.90041  0.99036  Biso   1.000  O 
  O17      1.0000 0.25579  0.15630  0.50830  Biso   1.000  O 
  O18      1.0000 0.24331  0.64339  0.47826  Biso   1.000  O 
  O19      1.0000 0.73947  0.15146  0.48060  Biso   1.000  O 
  O20      1.0000 0.74534  0.64765  0.50554  Biso   1.000  O 
  O21      1.0000 0.26836  0.12253  0.97329  Biso   1.000  O 
  O22      1.0000 0.25158  0.60069  0.98496  Biso   1.000  O 
  O23      1.0000 0.74994  0.10004  0.99039  Biso   1.000  O 
  O24      1.0000 0.75557  0.60120  0.00927  Biso   1.000  O 
  O25      1.0000 0.24333  0.35706  0.03000  Biso   1.000  O 
  O26      1.0000 0.25580  0.84416  0.99997  Biso   1.000  O 
  O27      1.0000 0.74534  0.35277  0.00273  Biso   1.000  O 
  O28      1.0000 0.73951  0.84896  0.02751  Biso   1.000  O 
  O29      1.0000 0.25157  0.39977  0.52332  Biso   1.000  O 
  O30      1.0000 0.26838  0.87793  0.53498  Biso   1.000  O 
  O31      1.0000 0.75557  0.39922  0.49903  Biso   1.000  O 
  O32      1.0000 0.74996  0.90040  0.51772  Biso   1.000  O 
