data_image0
_cell_length_a       10.1933
_cell_length_b       5.18185
_cell_length_c       10.4724
_cell_angle_alpha    90
_cell_angle_beta     80
_cell_angle_gamma    90

_symmetry_space_group_name_H-M    "P 1"
_symmetry_int_tables_number       1

loop_
  _symmetry_equiv_pos_as_xyz
  'x, y, z'

loop_
  _atom_site_label
  _atom_site_occupancy
  _atom_site_fract_x
  _atom_site_fract_y
  _atom_site_fract_z
  _atom_site_thermal_displace_type
  _atom_site_B_iso_or_equiv
  _atom_site_type_symbol
  Ba1      1.0000 0.10717  0.99455  0.12744  Biso   1.000  Ba
  Hf1      1.0000 0.12830  0.03938  0.64651  Biso   1.000  Hf
  Hf2      1.0000 0.63762  0.03539  0.14813  Biso   1.000  Hf
  Hf3      1.0000 0.62661  0.03897  0.64994  Biso   1.000  Hf
  Hf4      1.0000 0.13084  0.44528  0.39430  Biso   1.000  Hf
  Hf5      1.0000 0.12309  0.45971  0.89436  Biso   1.000  Hf
  Hf6      1.0000 0.62152  0.45106  0.40203  Biso   1.000  Hf
  Hf7      1.0000 0.62388  0.45434  0.89709  Biso   1.000  Hf
  Hf8      1.0000 0.36302  0.52026  0.10715  Biso   1.000  Hf
  Hf9      1.0000 0.34574  0.53969  0.60432  Biso   1.000  Hf
  Hf10     1.0000 0.85011  0.52760  0.10275  Biso   1.000  Hf
  Hf11     1.0000 0.85110  0.54022  0.60609  Biso   1.000  Hf
  Hf12     1.0000 0.34727  0.95246  0.35165  Biso   1.000  Hf
  Hf13     1.0000 0.34858  0.95339  0.85280  Biso   1.000  Hf
  Hf14     1.0000 0.83932  0.95940  0.36924  Biso   1.000  Hf
  Hf15     1.0000 0.84232  0.95362  0.85595  Biso   1.000  Hf
  O1       1.0000 0.03929  0.43401  0.08767  Biso   1.000  O 
  O2       1.0000 0.02531  0.34221  0.58586  Biso   1.000  O 
  O3       1.0000 0.54005  0.33101  0.07823  Biso   1.000  O 
  O4       1.0000 0.52006  0.33098  0.58397  Biso   1.000  O 
  O5       1.0000 0.01773  0.15322  0.34586  Biso   1.000  O 
  O6       1.0000 0.02295  0.15233  0.83896  Biso   1.000  O 
  O7       1.0000 0.52721  0.15599  0.33114  Biso   1.000  O 
  O8       1.0000 0.52536  0.15490  0.83172  Biso   1.000  O 
  O9       1.0000 0.46247  0.82812  0.16969  Biso   1.000  O 
  O10      1.0000 0.44939  0.83336  0.67044  Biso   1.000  O 
  O11      1.0000 0.89127  0.88359  0.17123  Biso   1.000  O 
  O12      1.0000 0.94765  0.84351  0.67005  Biso   1.000  O 
  O13      1.0000 0.45203  0.65776  0.42305  Biso   1.000  O 
  O14      1.0000 0.45665  0.66041  0.91875  Biso   1.000  O 
  O15      1.0000 0.95083  0.65596  0.41676  Biso   1.000  O 
  O16      1.0000 0.94435  0.66147  0.91907  Biso   1.000  O 
  O17      1.0000 0.27610  0.24681  0.24617  Biso   1.000  O 
  O18      1.0000 0.26207  0.25582  0.73921  Biso   1.000  O 
  O19      1.0000 0.76314  0.27445  0.24886  Biso   1.000  O 
  O20      1.0000 0.76456  0.25755  0.74328  Biso   1.000  O 
  O21      1.0000 0.26369  0.23664  0.49262  Biso   1.000  O 
  O22      1.0000 0.26436  0.24186  0.98089  Biso   1.000  O 
  O23      1.0000 0.76038  0.24107  0.49805  Biso   1.000  O 
  O24      1.0000 0.75996  0.23193  0.99418  Biso   1.000  O 
  O25      1.0000 0.23196  0.72527  0.99573  Biso   1.000  O 
  O26      1.0000 0.20974  0.75573  0.51077  Biso   1.000  O 
  O27      1.0000 0.72091  0.75474  0.00794  Biso   1.000  O 
  O28      1.0000 0.70953  0.75336  0.51648  Biso   1.000  O 
  O29      1.0000 0.22915  0.70743  0.26244  Biso   1.000  O 
  O30      1.0000 0.20673  0.74045  0.75880  Biso   1.000  O 
  O31      1.0000 0.70138  0.74760  0.27055  Biso   1.000  O 
  O32      1.0000 0.70987  0.73810  0.76094  Biso   1.000  O 
