data_image0
_cell_length_a       10.4253
_cell_length_b       5.44664
_cell_length_c       10.4304
_cell_angle_alpha    90
_cell_angle_beta     90
_cell_angle_gamma    80

_symmetry_space_group_name_H-M    "P 1"
_symmetry_int_tables_number       1

loop_
  _symmetry_equiv_pos_as_xyz
  'x, y, z'

loop_
  _atom_site_label
  _atom_site_occupancy
  _atom_site_fract_x
  _atom_site_fract_y
  _atom_site_fract_z
  _atom_site_thermal_displace_type
  _atom_site_B_iso_or_equiv
  _atom_site_type_symbol
  Hf1      1.0000 0.14726  0.98766  0.07352  Biso   1.000  Hf
  Hf2      1.0000 0.09351  0.32194  0.41653  Biso   1.000  Hf
  Hf3      1.0000 0.37521  0.42880  0.14587  Biso   1.000  Hf
  Hf4      1.0000 0.37704  0.91363  0.34457  Biso   1.000  Hf
  O1       1.0000 0.92576  0.94921  0.96699  Biso   1.000  O 
  O2       1.0000 0.98882  0.02200  0.21930  Biso   1.000  O 
  O3       1.0000 0.93392  0.47329  0.30787  Biso   1.000  O 
  O4       1.0000 0.96125  0.47955  0.95058  Biso   1.000  O 
  O5       1.0000 0.25627  0.24857  0.27525  Biso   1.000  O 
  O6       1.0000 0.19257  0.84476  0.97512  Biso   1.000  O 
  O7       1.0000 0.19606  0.30220  0.97054  Biso   1.000  O 
  O8       1.0000 0.27663  0.78138  0.22168  Biso   1.000  O 
  Hf5      1.0000 0.11138  0.80760  0.59118  Biso   1.000  Hf
  Hf6      1.0000 0.05134  0.15539  0.85588  Biso   1.000  Hf
  Hf7      1.0000 0.32645  0.24656  0.63732  Biso   1.000  Hf
  Hf8      1.0000 0.34154  0.71973  0.83356  Biso   1.000  Hf
  O9       1.0000 0.96791  0.11363  0.49409  Biso   1.000  O 
  O10      1.0000 0.95800  0.92256  0.72504  Biso   1.000  O 
  O11      1.0000 0.95781  0.39568  0.72222  Biso   1.000  O 
  O12      1.0000 0.00143  0.65281  0.49363  Biso   1.000  O 
  O13      1.0000 0.20668  0.04366  0.73519  Biso   1.000  O 
  O14      1.0000 0.23106  0.00376  0.49096  Biso   1.000  O 
  O15      1.0000 0.23489  0.48300  0.50388  Biso   1.000  O 
  O16      1.0000 0.22739  0.56563  0.73550  Biso   1.000  O 
  Hf9      1.0000 0.64078  0.97669  0.09647  Biso   1.000  Hf
  Hf10     1.0000 0.58801  0.33342  0.38979  Biso   1.000  Hf
  Hf11     1.0000 0.83614  0.39673  0.14239  Biso   1.000  Hf
  Hf12     1.0000 0.88964  0.86174  0.34961  Biso   1.000  Hf
  O17      1.0000 0.43718  0.95176  0.97734  Biso   1.000  O 
  O18      1.0000 0.49690  0.10313  0.23864  Biso   1.000  O 
  O19      1.0000 0.50379  0.57742  0.25289  Biso   1.000  O 
  O20      1.0000 0.45519  0.47074  0.97139  Biso   1.000  O 
  O21      1.0000 0.73064  0.19735  0.25161  Biso   1.000  O 
  O22      1.0000 0.68694  0.81499  0.96800  Biso   1.000  O 
  O23      1.0000 0.75864  0.64713  0.00181  Biso   1.000  O 
  O24      1.0000 0.75218  0.73403  0.23151  Biso   1.000  O 
  Hf13     1.0000 0.60331  0.80209  0.58790  Biso   1.000  Hf
  Hf14     1.0000 0.55401  0.15183  0.87426  Biso   1.000  Hf
  Hf15     1.0000 0.81911  0.23973  0.62799  Biso   1.000  Hf
  Hf16     1.0000 0.83543  0.72386  0.82275  Biso   1.000  Hf
  O25      1.0000 0.47151  0.13641  0.49460  Biso   1.000  O 
  O26      1.0000 0.45861  0.91926  0.72922  Biso   1.000  O 
  O27      1.0000 0.46355  0.39346  0.73771  Biso   1.000  O 
  O28      1.0000 0.49260  0.65585  0.48418  Biso   1.000  O 
  O29      1.0000 0.70141  0.04277  0.73444  Biso   1.000  O 
  O30      1.0000 0.72363  0.99845  0.48613  Biso   1.000  O 
  O31      1.0000 0.72609  0.47358  0.49187  Biso   1.000  O 
  O32      1.0000 0.72260  0.55944  0.72468  Biso   1.000  O 
  Ba1      1.0000 0.09757  0.53247  0.15571  Biso   1.000  Ba
