data_image0
_cell_length_a       10.0191
_cell_length_b       10.4214
_cell_length_c       10.119
_cell_angle_alpha    90
_cell_angle_beta     90
_cell_angle_gamma    90

_symmetry_space_group_name_H-M    "P 1"
_symmetry_int_tables_number       1

loop_
  _symmetry_equiv_pos_as_xyz
  'x, y, z'

loop_
  _atom_site_label
  _atom_site_occupancy
  _atom_site_fract_x
  _atom_site_fract_y
  _atom_site_fract_z
  _atom_site_thermal_displace_type
  _atom_site_B_iso_or_equiv
  _atom_site_type_symbol
  Hf1      1.0000 0.12376  0.98534  0.10911  Biso   1.000  Hf
  Hf2      1.0000 0.11586  0.23300  0.39733  Biso   1.000  Hf
  Hf3      1.0000 0.36279  0.26866  0.11952  Biso   1.000  Hf
  Hf4      1.0000 0.35058  0.48656  0.37101  Biso   1.000  Hf
  O1       1.0000 0.94753  0.17875  0.28024  Biso   1.000  O 
  O2       1.0000 0.03699  0.05674  0.45488  Biso   1.000  O 
  O3       1.0000 0.44751  0.43936  0.18907  Biso   1.000  O 
  O4       1.0000 0.45068  0.32260  0.44633  Biso   1.000  O 
  O5       1.0000 0.23006  0.11469  0.24227  Biso   1.000  O 
  O6       1.0000 0.26639  0.13516  0.49586  Biso   1.000  O 
  O7       1.0000 0.21970  0.38778  0.49739  Biso   1.000  O 
  O8       1.0000 0.21210  0.36582  0.24928  Biso   1.000  O 
  Hf5      1.0000 0.12833  0.00778  0.62432  Biso   1.000  Hf
  Hf6      1.0000 0.13059  0.22936  0.83957  Biso   1.000  Hf
  Hf7      1.0000 0.36097  0.27111  0.62121  Biso   1.000  Hf
  Hf8      1.0000 0.34636  0.48888  0.87204  Biso   1.000  Hf
  O9       1.0000 0.03814  0.18349  0.66745  Biso   1.000  O 
  O10      1.0000 0.02598  0.06659  0.92728  Biso   1.000  O 
  O11      1.0000 0.44940  0.43801  0.69507  Biso   1.000  O 
  O12      1.0000 0.44874  0.32017  0.94422  Biso   1.000  O 
  O13      1.0000 0.26731  0.11539  0.74040  Biso   1.000  O 
  O14      1.0000 0.25738  0.12734  0.99272  Biso   1.000  O 
  O15      1.0000 0.21257  0.39262  0.99031  Biso   1.000  O 
  O16      1.0000 0.21762  0.37231  0.73861  Biso   1.000  O 
  Hf9      1.0000 0.12314  0.52515  0.12275  Biso   1.000  Hf
  Hf10     1.0000 0.11626  0.73691  0.37498  Biso   1.000  Hf
  Hf11     1.0000 0.35760  0.76097  0.12497  Biso   1.000  Hf
  Hf12     1.0000 0.34198  0.98944  0.36966  Biso   1.000  Hf
  O17      1.0000 0.02187  0.68512  0.19654  Biso   1.000  O 
  O18      1.0000 0.02004  0.57445  0.44048  Biso   1.000  O 
  O19      1.0000 0.44269  0.93595  0.19408  Biso   1.000  O 
  O20      1.0000 0.44780  0.82180  0.44177  Biso   1.000  O 
  O21      1.0000 0.25961  0.62014  0.24862  Biso   1.000  O 
  O22      1.0000 0.25241  0.63649  0.49696  Biso   1.000  O 
  O23      1.0000 0.21552  0.88487  0.49479  Biso   1.000  O 
  O24      1.0000 0.21798  0.86062  0.24486  Biso   1.000  O 
  Hf13     1.0000 0.11450  0.52040  0.61722  Biso   1.000  Hf
  Hf14     1.0000 0.10957  0.73459  0.86854  Biso   1.000  Hf
  Hf15     1.0000 0.35142  0.76795  0.62031  Biso   1.000  Hf
  Hf16     1.0000 0.34620  0.98303  0.87234  Biso   1.000  Hf
  O25      1.0000 0.01895  0.69262  0.68914  Biso   1.000  O 
  O26      1.0000 0.00863  0.57046  0.94444  Biso   1.000  O 
  O27      1.0000 0.44977  0.93293  0.69784  Biso   1.000  O 
  O28      1.0000 0.44744  0.82281  0.95270  Biso   1.000  O 
  O29      1.0000 0.24854  0.61816  0.74640  Biso   1.000  O 
  O30      1.0000 0.24420  0.63682  0.99615  Biso   1.000  O 
  O31      1.0000 0.21082  0.87710  0.98916  Biso   1.000  O 
  O32      1.0000 0.21507  0.86509  0.74548  Biso   1.000  O 
  Hf17     1.0000 0.62386  0.00664  0.12224  Biso   1.000  Hf
  Hf18     1.0000 0.61528  0.22981  0.39555  Biso   1.000  Hf
  Hf19     1.0000 0.80181  0.26329  0.16380  Biso   1.000  Hf
  Hf20     1.0000 0.85116  0.48507  0.38373  Biso   1.000  Hf
  O33      1.0000 0.51825  0.18205  0.20007  Biso   1.000  O 
  O34      1.0000 0.51912  0.06788  0.45620  Biso   1.000  O 
  O35      1.0000 0.93656  0.42881  0.20217  Biso   1.000  O 
  O36      1.0000 0.96056  0.33407  0.47066  Biso   1.000  O 
  O37      1.0000 0.72523  0.10537  0.26544  Biso   1.000  O 
  O38      1.0000 0.76484  0.14013  0.50964  Biso   1.000  O 
  O39      1.0000 0.71779  0.38305  0.51062  Biso   1.000  O 
  O40      1.0000 0.68915  0.37970  0.27200  Biso   1.000  O 
  Hf21     1.0000 0.63007  0.01867  0.62827  Biso   1.000  Hf
  Hf22     1.0000 0.61958  0.23822  0.87792  Biso   1.000  Hf
  Hf23     1.0000 0.85878  0.27873  0.64333  Biso   1.000  Hf
  Hf24     1.0000 0.84285  0.48769  0.87175  Biso   1.000  Hf
  O41      1.0000 0.52837  0.18855  0.69333  Biso   1.000  O 
  O42      1.0000 0.52305  0.07096  0.94135  Biso   1.000  O 
  O43      1.0000 0.93634  0.46098  0.68229  Biso   1.000  O 
  O44      1.0000 0.94016  0.31129  0.86241  Biso   1.000  O 
  O45      1.0000 0.75936  0.12154  0.75870  Biso   1.000  O 
  O46      1.0000 0.77321  0.13338  0.01312  Biso   1.000  O 
  O47      1.0000 0.73244  0.38203  0.00918  Biso   1.000  O 
  O48      1.0000 0.70461  0.37712  0.75575  Biso   1.000  O 
  Hf25     1.0000 0.62219  0.52258  0.12776  Biso   1.000  Hf
  Hf26     1.0000 0.61997  0.73914  0.37786  Biso   1.000  Hf
  Hf27     1.0000 0.85234  0.76591  0.12928  Biso   1.000  Hf
  Hf28     1.0000 0.85603  0.99904  0.36965  Biso   1.000  Hf
  O49      1.0000 0.52571  0.68589  0.19717  Biso   1.000  O 
  O50      1.0000 0.51777  0.57127  0.44631  Biso   1.000  O 
  O51      1.0000 0.94856  0.93943  0.19088  Biso   1.000  O 
  O52      1.0000 0.94747  0.82222  0.44294  Biso   1.000  O 
  O53      1.0000 0.75754  0.62009  0.25284  Biso   1.000  O 
  O54      1.0000 0.75228  0.63725  0.50116  Biso   1.000  O 
  O55      1.0000 0.71363  0.89055  0.49858  Biso   1.000  O 
  O56      1.0000 0.71565  0.86603  0.24772  Biso   1.000  O 
  Hf29     1.0000 0.61757  0.52074  0.62571  Biso   1.000  Hf
  Hf30     1.0000 0.61207  0.73832  0.87466  Biso   1.000  Hf
  Hf31     1.0000 0.84810  0.77316  0.62181  Biso   1.000  Hf
  Hf32     1.0000 0.84084  0.98538  0.87708  Biso   1.000  Hf
  O57      1.0000 0.51583  0.68613  0.69680  Biso   1.000  O 
  O58      1.0000 0.51099  0.57354  0.94679  Biso   1.000  O 
  O59      1.0000 0.94532  0.93562  0.70060  Biso   1.000  O 
  O60      1.0000 0.94784  0.82285  0.95479  Biso   1.000  O 
  O61      1.0000 0.75045  0.62432  0.75156  Biso   1.000  O 
  O62      1.0000 0.76340  0.63389  0.00180  Biso   1.000  O 
  O63      1.0000 0.70481  0.88657  0.99900  Biso   1.000  O 
  O64      1.0000 0.71187  0.87043  0.74954  Biso   1.000  O 
  Ba1      1.0000 0.05850  0.25265  0.08836  Biso   1.000  Ba
