data_image0
_cell_length_a       10.0708
_cell_length_b       5.31223
_cell_length_c       10.1734
_cell_angle_alpha    90
_cell_angle_beta     90
_cell_angle_gamma    90

_symmetry_space_group_name_H-M    "P 1"
_symmetry_int_tables_number       1

loop_
  _symmetry_equiv_pos_as_xyz
  'x, y, z'

loop_
  _atom_site_label
  _atom_site_occupancy
  _atom_site_fract_x
  _atom_site_fract_y
  _atom_site_fract_z
  _atom_site_thermal_displace_type
  _atom_site_B_iso_or_equiv
  _atom_site_type_symbol
  Hf1      1.0000 0.13700  0.13358  0.15917  Biso   1.000  Hf
  Hf2      1.0000 0.13323  0.52524  0.39333  Biso   1.000  Hf
  Hf3      1.0000 0.37354  0.58844  0.13681  Biso   1.000  Hf
  Hf4      1.0000 0.36596  0.01416  0.38163  Biso   1.000  Hf
  O1       1.0000 0.02920  0.43886  0.20761  Biso   1.000  O 
  O2       1.0000 0.06058  0.16310  0.41350  Biso   1.000  O 
  O3       1.0000 0.47351  0.90840  0.21498  Biso   1.000  O 
  O4       1.0000 0.45937  0.68087  0.45569  Biso   1.000  O 
  O5       1.0000 0.28000  0.30994  0.26649  Biso   1.000  O 
  O6       1.0000 0.27819  0.30452  0.50845  Biso   1.000  O 
  O7       1.0000 0.23076  0.80949  0.50732  Biso   1.000  O 
  O8       1.0000 0.22657  0.79177  0.25791  Biso   1.000  O 
  Hf5      1.0000 0.12995  0.08347  0.61678  Biso   1.000  Hf
  Hf6      1.0000 0.11408  0.45768  0.82655  Biso   1.000  Hf
  Hf7      1.0000 0.35971  0.58784  0.63273  Biso   1.000  Hf
  Hf8      1.0000 0.40249  0.07055  0.85670  Biso   1.000  Hf
  O9       1.0000 0.06025  0.45672  0.62169  Biso   1.000  O 
  O10      1.0000 0.01685  0.29952  0.97428  Biso   1.000  O 
  O11      1.0000 0.47893  0.88646  0.69511  Biso   1.000  O 
  O12      1.0000 0.48204  0.75641  0.95436  Biso   1.000  O 
  O13      1.0000 0.27476  0.28437  0.74951  Biso   1.000  O 
  O14      1.0000 0.23863  0.37200  0.02281  Biso   1.000  O 
  O15      1.0000 0.28480  0.89971  0.02176  Biso   1.000  O 
  O16      1.0000 0.23390  0.78751  0.76004  Biso   1.000  O 
  Hf9      1.0000 0.64596  0.07676  0.13664  Biso   1.000  Hf
  Hf10     1.0000 0.62386  0.51522  0.38731  Biso   1.000  Hf
  Hf11     1.0000 0.84243  0.58234  0.16194  Biso   1.000  Hf
  Hf12     1.0000 0.87264  0.01777  0.39100  Biso   1.000  Hf
  O17      1.0000 0.53753  0.40480  0.20830  Biso   1.000  O 
  O18      1.0000 0.53412  0.18506  0.45746  Biso   1.000  O 
  O19      1.0000 0.96185  0.91682  0.20814  Biso   1.000  O 
  O20      1.0000 0.94829  0.66442  0.42783  Biso   1.000  O 
  O21      1.0000 0.76994  0.27857  0.26919  Biso   1.000  O 
  O22      1.0000 0.76593  0.33183  0.50911  Biso   1.000  O 
  O23      1.0000 0.71934  0.81244  0.50765  Biso   1.000  O 
  O24      1.0000 0.72015  0.79094  0.26737  Biso   1.000  O 
  Hf13     1.0000 0.64269  0.09715  0.62412  Biso   1.000  Hf
  Hf14     1.0000 0.62767  0.56778  0.86780  Biso   1.000  Hf
  Hf15     1.0000 0.86902  0.61490  0.62155  Biso   1.000  Hf
  Hf16     1.0000 0.87542  0.06576  0.83792  Biso   1.000  Hf
  O25      1.0000 0.51900  0.38052  0.71749  Biso   1.000  O 
  O26      1.0000 0.54992  0.24796  0.95762  Biso   1.000  O 
  O27      1.0000 0.93158  0.98961  0.61574  Biso   1.000  O 
  O28      1.0000 0.95429  0.70130  0.81138  Biso   1.000  O 
  O29      1.0000 0.76936  0.33101  0.75334  Biso   1.000  O 
  O30      1.0000 0.74476  0.36555  0.02435  Biso   1.000  O 
  O31      1.0000 0.78036  0.84661  0.01897  Biso   1.000  O 
  O32      1.0000 0.72502  0.83471  0.75605  Biso   1.000  O 
  Ba1      1.0000 0.08043  0.70303  0.00378  Biso   1.000  Ba
