data_image0
_cell_length_a       10.259
_cell_length_b       10.6535
_cell_length_c       5.25641
_cell_angle_alpha    90
_cell_angle_beta     80
_cell_angle_gamma    90

_symmetry_space_group_name_H-M    "P 1"
_symmetry_int_tables_number       1

loop_
  _symmetry_equiv_pos_as_xyz
  'x, y, z'

loop_
  _atom_site_label
  _atom_site_occupancy
  _atom_site_fract_x
  _atom_site_fract_y
  _atom_site_fract_z
  _atom_site_thermal_displace_type
  _atom_site_B_iso_or_equiv
  _atom_site_type_symbol
  Hf1      1.0000 0.14402  0.02250  0.28359  Biso   1.000  Hf
  Hf2      1.0000 0.12442  0.23313  0.78364  Biso   1.000  Hf
  Hf3      1.0000 0.31720  0.29143  0.19144  Biso   1.000  Hf
  Hf4      1.0000 0.33301  0.50175  0.70757  Biso   1.000  Hf
  O1       1.0000 0.05082  0.17751  0.17413  Biso   1.000  O 
  O2       1.0000 0.04257  0.08201  0.65488  Biso   1.000  O 
  O3       1.0000 0.43678  0.43304  0.35297  Biso   1.000  O 
  O4       1.0000 0.43460  0.38434  0.89174  Biso   1.000  O 
  O5       1.0000 0.27985  0.13780  0.46202  Biso   1.000  O 
  O6       1.0000 0.28558  0.14202  0.94759  Biso   1.000  O 
  O7       1.0000 0.18453  0.39017  0.01856  Biso   1.000  O 
  O8       1.0000 0.20069  0.37863  0.52011  Biso   1.000  O 
  Hf5      1.0000 0.11499  0.53355  0.29756  Biso   1.000  Hf
  Hf6      1.0000 0.12063  0.74115  0.78737  Biso   1.000  Hf
  Hf7      1.0000 0.33568  0.77396  0.19168  Biso   1.000  Hf
  Hf8      1.0000 0.33927  0.97809  0.68761  Biso   1.000  Hf
  O9       1.0000 0.01373  0.67618  0.16740  Biso   1.000  O 
  O10      1.0000 0.02206  0.59061  0.67442  Biso   1.000  O 
  O11      1.0000 0.43485  0.92109  0.29887  Biso   1.000  O 
  O12      1.0000 0.43635  0.82502  0.81270  Biso   1.000  O 
  O13      1.0000 0.25301  0.64140  0.47508  Biso   1.000  O 
  O14      1.0000 0.25425  0.63853  0.97759  Biso   1.000  O 
  O15      1.0000 0.19995  0.88331  0.00922  Biso   1.000  O 
  O16      1.0000 0.20164  0.87590  0.50680  Biso   1.000  O 
  Hf9      1.0000 0.61747  0.00055  0.27484  Biso   1.000  Hf
  Hf10     1.0000 0.72488  0.24205  0.89344  Biso   1.000  Hf
  Hf11     1.0000 0.87127  0.26738  0.27173  Biso   1.000  Hf
  Hf12     1.0000 0.84565  0.49658  0.72846  Biso   1.000  Hf
  O17      1.0000 0.55904  0.15592  0.10788  Biso   1.000  O 
  O18      1.0000 0.54544  0.03545  0.63801  Biso   1.000  O 
  O19      1.0000 0.95094  0.43429  0.35933  Biso   1.000  O 
  O20      1.0000 0.93740  0.32363  0.85659  Biso   1.000  O 
  O21      1.0000 0.78691  0.13349  0.53495  Biso   1.000  O 
  O22      1.0000 0.81401  0.08006  0.03200  Biso   1.000  O 
  O23      1.0000 0.70828  0.40534  0.06280  Biso   1.000  O 
  O24      1.0000 0.73043  0.37261  0.56727  Biso   1.000  O 
  Hf13     1.0000 0.61432  0.54126  0.29288  Biso   1.000  Hf
  Hf14     1.0000 0.61795  0.73677  0.78112  Biso   1.000  Hf
  Hf15     1.0000 0.84305  0.77368  0.20283  Biso   1.000  Hf
  Hf16     1.0000 0.84387  0.97830  0.70104  Biso   1.000  Hf
  O25      1.0000 0.50900  0.67355  0.15087  Biso   1.000  O 
  O26      1.0000 0.51288  0.59489  0.65183  Biso   1.000  O 
  O27      1.0000 0.95017  0.92068  0.33423  Biso   1.000  O 
  O28      1.0000 0.94983  0.83817  0.83679  Biso   1.000  O 
  O29      1.0000 0.75643  0.63323  0.48412  Biso   1.000  O 
  O30      1.0000 0.76053  0.64443  0.97944  Biso   1.000  O 
  O31      1.0000 0.69502  0.86670  0.00193  Biso   1.000  O 
  O32      1.0000 0.71125  0.86909  0.50006  Biso   1.000  O 
  Ba1      1.0000 0.52830  0.25077  0.55566  Biso   1.000  Ba
