data_image0
_cell_length_a       5.13452
_cell_length_b       10.584
_cell_length_c       10.1657
_cell_angle_alpha    90
_cell_angle_beta     90
_cell_angle_gamma    90

_symmetry_space_group_name_H-M    "P 1"
_symmetry_int_tables_number       1

loop_
  _symmetry_equiv_pos_as_xyz
  'x, y, z'

loop_
  _atom_site_label
  _atom_site_occupancy
  _atom_site_fract_x
  _atom_site_fract_y
  _atom_site_fract_z
  _atom_site_thermal_displace_type
  _atom_site_B_iso_or_equiv
  _atom_site_type_symbol
  Hf1      1.0000 0.33424  0.94738  0.11851  Biso   1.000  Hf
  Hf2      1.0000 0.31856  0.22724  0.40234  Biso   1.000  Hf
  Hf3      1.0000 0.80118  0.31107  0.12235  Biso   1.000  Hf
  Hf4      1.0000 0.80547  0.01478  0.35051  Biso   1.000  Hf
  O1       1.0000 0.96929  0.17394  0.97546  Biso   1.000  O 
  O2       1.0000 0.14784  0.07168  0.26972  Biso   1.000  O 
  O3       1.0000 0.04208  0.35237  0.28517  Biso   1.000  O 
  O4       1.0000 0.03733  0.43513  0.02156  Biso   1.000  O 
  O5       1.0000 0.66029  0.17456  0.26673  Biso   1.000  O 
  O6       1.0000 0.46272  0.07108  0.96871  Biso   1.000  O 
  O7       1.0000 0.59755  0.35548  0.95781  Biso   1.000  O 
  O8       1.0000 0.56790  0.43096  0.23461  Biso   1.000  O 
  Hf5      1.0000 0.32373  0.97955  0.60266  Biso   1.000  Hf
  Hf6      1.0000 0.31264  0.23508  0.85228  Biso   1.000  Hf
  Hf7      1.0000 0.84760  0.26146  0.63386  Biso   1.000  Hf
  Hf8      1.0000 0.79030  0.02355  0.86668  Biso   1.000  Hf
  O9       1.0000 0.01626  0.13244  0.50172  Biso   1.000  O 
  O10      1.0000 0.08299  0.10897  0.74175  Biso   1.000  O 
  O11      1.0000 0.07428  0.36940  0.76743  Biso   1.000  O 
  O12      1.0000 0.10102  0.38405  0.52235  Biso   1.000  O 
  O13      1.0000 0.59739  0.15766  0.74147  Biso   1.000  O 
  O14      1.0000 0.50164  0.06403  0.48220  Biso   1.000  O 
  O15      1.0000 0.62188  0.32290  0.48224  Biso   1.000  O 
  O16      1.0000 0.59468  0.41073  0.71610  Biso   1.000  O 
  Hf9      1.0000 0.30544  0.54526  0.13252  Biso   1.000  Hf
  Hf10     1.0000 0.25784  0.72591  0.39487  Biso   1.000  Hf
  Hf11     1.0000 0.80596  0.74946  0.13128  Biso   1.000  Hf
  Hf12     1.0000 0.81632  0.47757  0.39452  Biso   1.000  Hf
  O17      1.0000 0.11506  0.67695  0.02048  Biso   1.000  O 
  O18      1.0000 0.01547  0.60411  0.26421  Biso   1.000  O 
  O19      1.0000 0.10451  0.84182  0.24663  Biso   1.000  O 
  O20      1.0000 0.08407  0.90704  0.99031  Biso   1.000  O 
  O21      1.0000 0.50386  0.68105  0.24436  Biso   1.000  O 
  O22      1.0000 0.61607  0.59637  0.01829  Biso   1.000  O 
  O23      1.0000 0.58888  0.82918  0.99862  Biso   1.000  O 
  O24      1.0000 0.65531  0.91345  0.22610  Biso   1.000  O 
  Hf13     1.0000 0.29631  0.51138  0.63979  Biso   1.000  Hf
  Hf14     1.0000 0.31944  0.76775  0.86460  Biso   1.000  Hf
  Hf15     1.0000 0.80910  0.76274  0.64094  Biso   1.000  Hf
  Hf16     1.0000 0.80731  0.49812  0.86798  Biso   1.000  Hf
  O25      1.0000 0.99495  0.62910  0.51741  Biso   1.000  O 
  O26      1.0000 0.07016  0.62368  0.76579  Biso   1.000  O 
  O27      1.0000 0.07411  0.86907  0.74398  Biso   1.000  O 
  O28      1.0000 0.03457  0.88096  0.49576  Biso   1.000  O 
  O29      1.0000 0.56571  0.64864  0.75472  Biso   1.000  O 
  O30      1.0000 0.48369  0.57003  0.47770  Biso   1.000  O 
  O31      1.0000 0.50744  0.81413  0.52161  Biso   1.000  O 
  O32      1.0000 0.58231  0.90447  0.74912  Biso   1.000  O 
  Ba1      1.0000 0.30021  0.23719  0.12499  Biso   1.000  Ba
