data_image0
_cell_length_a       5.1796
_cell_length_b       10.369
_cell_length_c       10.2479
_cell_angle_alpha    90
_cell_angle_beta     90
_cell_angle_gamma    90

_symmetry_space_group_name_H-M    "P 1"
_symmetry_int_tables_number       1

loop_
  _symmetry_equiv_pos_as_xyz
  'x, y, z'

loop_
  _atom_site_label
  _atom_site_occupancy
  _atom_site_fract_x
  _atom_site_fract_y
  _atom_site_fract_z
  _atom_site_thermal_displace_type
  _atom_site_B_iso_or_equiv
  _atom_site_type_symbol
  Hf1      1.0000 0.21922  0.97276  0.09121  Biso   1.000  Hf
  Hf2      1.0000 0.14610  0.22512  0.38993  Biso   1.000  Hf
  Hf3      1.0000 0.49956  0.24780  0.19212  Biso   1.000  Hf
  Hf4      1.0000 0.66597  0.50454  0.39889  Biso   1.000  Hf
  O1       1.0000 0.77031  0.15886  0.29036  Biso   1.000  O 
  O2       1.0000 0.02990  0.05064  0.45921  Biso   1.000  O 
  O3       1.0000 0.65811  0.42637  0.22136  Biso   1.000  O 
  O4       1.0000 0.89146  0.34927  0.47218  Biso   1.000  O 
  O5       1.0000 0.21171  0.11928  0.21332  Biso   1.000  O 
  O6       1.0000 0.47949  0.13440  0.50636  Biso   1.000  O 
  O7       1.0000 0.39369  0.37981  0.48746  Biso   1.000  O 
  O8       1.0000 0.17639  0.37500  0.23813  Biso   1.000  O 
  Hf5      1.0000 0.19777  0.01481  0.62797  Biso   1.000  Hf
  Hf6      1.0000 0.17554  0.24205  0.84374  Biso   1.000  Hf
  Hf7      1.0000 0.66300  0.28111  0.62824  Biso   1.000  Hf
  Hf8      1.0000 0.64018  0.52459  0.82439  Biso   1.000  Hf
  O9       1.0000 0.01232  0.18754  0.66454  Biso   1.000  O 
  O10      1.0000 0.94606  0.08864  0.92764  Biso   1.000  O 
  O11      1.0000 0.77595  0.49083  0.63718  Biso   1.000  O 
  O12      1.0000 0.81780  0.34045  0.81940  Biso   1.000  O 
  O13      1.0000 0.45849  0.12611  0.75584  Biso   1.000  O 
  O14      1.0000 0.57149  0.09881  0.02035  Biso   1.000  O 
  O15      1.0000 0.42150  0.34849  0.00849  Biso   1.000  O 
  O16      1.0000 0.36038  0.38344  0.73593  Biso   1.000  O 
  Hf9      1.0000 0.32381  0.51898  0.12836  Biso   1.000  Hf
  Hf10     1.0000 0.16338  0.75978  0.35795  Biso   1.000  Hf
  Hf11     1.0000 0.72577  0.76152  0.13474  Biso   1.000  Hf
  Hf12     1.0000 0.64627  0.98813  0.38648  Biso   1.000  Hf
  O17      1.0000 0.05161  0.66206  0.18569  Biso   1.000  O 
  O18      1.0000 0.00257  0.59167  0.42806  Biso   1.000  O 
  O19      1.0000 0.93984  0.89320  0.24003  Biso   1.000  O 
  O20      1.0000 0.83319  0.81801  0.47150  Biso   1.000  O 
  O21      1.0000 0.50981  0.64584  0.25974  Biso   1.000  O 
  O22      1.0000 0.43262  0.63808  0.49873  Biso   1.000  O 
  O23      1.0000 0.35322  0.88862  0.49551  Biso   1.000  O 
  O24      1.0000 0.44598  0.88489  0.23937  Biso   1.000  O 
  Hf13     1.0000 0.16682  0.50427  0.58722  Biso   1.000  Hf
  Hf14     1.0000 0.12220  0.72273  0.88004  Biso   1.000  Hf
  Hf15     1.0000 0.58830  0.77776  0.62403  Biso   1.000  Hf
  Hf16     1.0000 0.57160  0.98384  0.87321  Biso   1.000  Hf
  O25      1.0000 0.80753  0.69553  0.76365  Biso   1.000  O 
  O26      1.0000 0.93800  0.55946  0.95397  Biso   1.000  O 
  O27      1.0000 0.78824  0.94119  0.70414  Biso   1.000  O 
  O28      1.0000 0.82275  0.84808  0.98057  Biso   1.000  O 
  O29      1.0000 0.31905  0.62569  0.73418  Biso   1.000  O 
  O30      1.0000 0.42079  0.62086  0.99001  Biso   1.000  O 
  O31      1.0000 0.32748  0.86037  0.99077  Biso   1.000  O 
  O32      1.0000 0.31332  0.87058  0.74974  Biso   1.000  O 
  Ba1      1.0000 0.92912  0.27827  0.05116  Biso   1.000  Ba
