data_image0
_cell_length_a       10.0595
_cell_length_b       10.3037
_cell_length_c       10.4981
_cell_angle_alpha    90
_cell_angle_beta     90
_cell_angle_gamma    90

_symmetry_space_group_name_H-M    "P 1"
_symmetry_int_tables_number       1

loop_
  _symmetry_equiv_pos_as_xyz
  'x, y, z'

loop_
  _atom_site_label
  _atom_site_occupancy
  _atom_site_fract_x
  _atom_site_fract_y
  _atom_site_fract_z
  _atom_site_thermal_displace_type
  _atom_site_B_iso_or_equiv
  _atom_site_type_symbol
  Ba1      1.0000 0.09365  0.98775  0.14919  Biso   1.000  Ba
  Hf1      1.0000 0.13599  0.02535  0.67119  Biso   1.000  Hf
  Hf2      1.0000 0.14108  0.51960  0.17170  Biso   1.000  Hf
  Hf3      1.0000 0.13491  0.52552  0.67018  Biso   1.000  Hf
  Hf4      1.0000 0.13664  0.22842  0.42101  Biso   1.000  Hf
  Hf5      1.0000 0.13267  0.23544  0.92060  Biso   1.000  Hf
  Hf6      1.0000 0.13477  0.73083  0.42082  Biso   1.000  Hf
  Hf7      1.0000 0.14346  0.73160  0.91712  Biso   1.000  Hf
  Hf8      1.0000 0.35102  0.26199  0.17056  Biso   1.000  Hf
  Hf9      1.0000 0.35557  0.27411  0.67091  Biso   1.000  Hf
  Hf10     1.0000 0.36652  0.77020  0.17085  Biso   1.000  Hf
  Hf11     1.0000 0.35332  0.77581  0.66758  Biso   1.000  Hf
  Hf12     1.0000 0.35563  0.47829  0.41976  Biso   1.000  Hf
  Hf13     1.0000 0.35472  0.47963  0.92148  Biso   1.000  Hf
  Hf14     1.0000 0.35376  0.98246  0.41651  Biso   1.000  Hf
  Hf15     1.0000 0.35685  0.98573  0.91903  Biso   1.000  Hf
  Hf16     1.0000 0.63961  0.03018  0.07648  Biso   1.000  Hf
  Hf17     1.0000 0.63008  0.02440  0.58449  Biso   1.000  Hf
  Hf18     1.0000 0.63008  0.51460  0.07916  Biso   1.000  Hf
  Hf19     1.0000 0.63317  0.52316  0.57816  Biso   1.000  Hf
  Hf20     1.0000 0.63228  0.23515  0.33001  Biso   1.000  Hf
  Hf21     1.0000 0.63562  0.23520  0.82786  Biso   1.000  Hf
  Hf22     1.0000 0.63427  0.72458  0.33288  Biso   1.000  Hf
  Hf23     1.0000 0.62643  0.73326  0.82495  Biso   1.000  Hf
  Hf24     1.0000 0.86149  0.27726  0.07829  Biso   1.000  Hf
  Hf25     1.0000 0.86017  0.27730  0.57991  Biso   1.000  Hf
  Hf26     1.0000 0.86262  0.74126  0.05640  Biso   1.000  Hf
  Hf27     1.0000 0.85698  0.77347  0.58081  Biso   1.000  Hf
  Hf28     1.0000 0.86025  0.48260  0.32838  Biso   1.000  Hf
  Hf29     1.0000 0.85639  0.48076  0.82366  Biso   1.000  Hf
  Hf30     1.0000 0.84771  0.99526  0.35670  Biso   1.000  Hf
  Hf31     1.0000 0.85261  0.98363  0.83031  Biso   1.000  Hf
  O1       1.0000 0.03556  0.19767  0.08612  Biso   1.000  O 
  O2       1.0000 0.03245  0.17723  0.59430  Biso   1.000  O 
  O3       1.0000 0.04482  0.68211  0.09201  Biso   1.000  O 
  O4       1.0000 0.03011  0.67282  0.58700  Biso   1.000  O 
  O5       1.0000 0.02044  0.08429  0.36039  Biso   1.000  O 
  O6       1.0000 0.03207  0.08287  0.84123  Biso   1.000  O 
  O7       1.0000 0.03309  0.58420  0.33557  Biso   1.000  O 
  O8       1.0000 0.02668  0.58883  0.83677  Biso   1.000  O 
  O9       1.0000 0.46417  0.40924  0.08196  Biso   1.000  O 
  O10      1.0000 0.46312  0.41662  0.58165  Biso   1.000  O 
  O11      1.0000 0.47468  0.91524  0.08032  Biso   1.000  O 
  O12      1.0000 0.45867  0.91702  0.57986  Biso   1.000  O 
  O13      1.0000 0.46204  0.33807  0.33088  Biso   1.000  O 
  O14      1.0000 0.46282  0.33908  0.83074  Biso   1.000  O 
  O15      1.0000 0.47716  0.84457  0.32671  Biso   1.000  O 
  O16      1.0000 0.46159  0.84230  0.82609  Biso   1.000  O 
  O17      1.0000 0.27573  0.12779  0.30108  Biso   1.000  O 
  O18      1.0000 0.27179  0.12744  0.79069  Biso   1.000  O 
  O19      1.0000 0.27726  0.61963  0.29301  Biso   1.000  O 
  O20      1.0000 0.27220  0.62704  0.79256  Biso   1.000  O 
  O21      1.0000 0.28452  0.13012  0.03300  Biso   1.000  O 
  O22      1.0000 0.27300  0.12818  0.54479  Biso   1.000  O 
  O23      1.0000 0.27553  0.61750  0.04412  Biso   1.000  O 
  O24      1.0000 0.27087  0.62890  0.54309  Biso   1.000  O 
  O25      1.0000 0.21722  0.37310  0.29332  Biso   1.000  O 
  O26      1.0000 0.21825  0.37852  0.79347  Biso   1.000  O 
  O27      1.0000 0.23420  0.86007  0.29997  Biso   1.000  O 
  O28      1.0000 0.21704  0.87695  0.78990  Biso   1.000  O 
  O29      1.0000 0.22180  0.37663  0.04403  Biso   1.000  O 
  O30      1.0000 0.21903  0.37992  0.54407  Biso   1.000  O 
  O31      1.0000 0.25069  0.85640  0.02910  Biso   1.000  O 
  O32      1.0000 0.21569  0.88116  0.54365  Biso   1.000  O 
  O33      1.0000 0.53232  0.16767  0.16625  Biso   1.000  O 
  O34      1.0000 0.52779  0.16907  0.66791  Biso   1.000  O 
  O35      1.0000 0.53250  0.66000  0.17119  Biso   1.000  O 
  O36      1.0000 0.52509  0.66762  0.66482  Biso   1.000  O 
  O37      1.0000 0.53191  0.08759  0.41762  Biso   1.000  O 
  O38      1.0000 0.53425  0.09010  0.91420  Biso   1.000  O 
  O39      1.0000 0.52737  0.58724  0.41853  Biso   1.000  O 
  O40      1.0000 0.52248  0.59104  0.91917  Biso   1.000  O 
  O41      1.0000 0.95795  0.43449  0.15783  Biso   1.000  O 
  O42      1.0000 0.96093  0.42719  0.66069  Biso   1.000  O 
  O43      1.0000 0.85050  0.89884  0.17793  Biso   1.000  O 
  O44      1.0000 0.95735  0.92168  0.66719  Biso   1.000  O 
  O45      1.0000 0.96172  0.33559  0.41394  Biso   1.000  O 
  O46      1.0000 0.95638  0.33662  0.90579  Biso   1.000  O 
  O47      1.0000 0.96012  0.83628  0.41323  Biso   1.000  O 
  O48      1.0000 0.97044  0.84516  0.92513  Biso   1.000  O 
  O49      1.0000 0.77586  0.12879  0.95822  Biso   1.000  O 
  O50      1.0000 0.76548  0.13282  0.46696  Biso   1.000  O 
  O51      1.0000 0.76466  0.61823  0.94860  Biso   1.000  O 
  O52      1.0000 0.77306  0.62603  0.45555  Biso   1.000  O 
  O53      1.0000 0.77692  0.13255  0.21371  Biso   1.000  O 
  O54      1.0000 0.77298  0.13036  0.70994  Biso   1.000  O 
  O55      1.0000 0.77287  0.63257  0.20421  Biso   1.000  O 
  O56      1.0000 0.76848  0.63102  0.70373  Biso   1.000  O 
  O57      1.0000 0.71520  0.37844  0.95317  Biso   1.000  O 
  O58      1.0000 0.72013  0.37942  0.45450  Biso   1.000  O 
  O59      1.0000 0.71978  0.87194  0.95540  Biso   1.000  O 
  O60      1.0000 0.71739  0.87604  0.46382  Biso   1.000  O 
  O61      1.0000 0.72073  0.38044  0.20623  Biso   1.000  O 
  O62      1.0000 0.71990  0.37924  0.70274  Biso   1.000  O 
  O63      1.0000 0.70997  0.89043  0.21444  Biso   1.000  O 
  O64      1.0000 0.71678  0.87995  0.70775  Biso   1.000  O 
