data_image0
_cell_length_a       10.0919
_cell_length_b       10.3871
_cell_length_c       5.26527
_cell_angle_alpha    90
_cell_angle_beta     90
_cell_angle_gamma    90

_symmetry_space_group_name_H-M    "P 1"
_symmetry_int_tables_number       1

loop_
  _symmetry_equiv_pos_as_xyz
  'x, y, z'

loop_
  _atom_site_label
  _atom_site_occupancy
  _atom_site_fract_x
  _atom_site_fract_y
  _atom_site_fract_z
  _atom_site_thermal_displace_type
  _atom_site_B_iso_or_equiv
  _atom_site_type_symbol
  Ba1      1.0000 0.08854  0.99385  0.29814  Biso   1.000  Ba
  Hf1      1.0000 0.13978  0.52169  0.33985  Biso   1.000  Hf
  Hf2      1.0000 0.13431  0.23409  0.84192  Biso   1.000  Hf
  Hf3      1.0000 0.14469  0.73073  0.83021  Biso   1.000  Hf
  Hf4      1.0000 0.34776  0.26334  0.34077  Biso   1.000  Hf
  Hf5      1.0000 0.36042  0.77295  0.33164  Biso   1.000  Hf
  Hf6      1.0000 0.35304  0.47759  0.83917  Biso   1.000  Hf
  Hf7      1.0000 0.35161  0.98740  0.82578  Biso   1.000  Hf
  Hf8      1.0000 0.63137  0.03276  0.16587  Biso   1.000  Hf
  Hf9      1.0000 0.62771  0.51485  0.15768  Biso   1.000  Hf
  Hf10     1.0000 0.63294  0.23987  0.65949  Biso   1.000  Hf
  Hf11     1.0000 0.62462  0.72622  0.65657  Biso   1.000  Hf
  Hf12     1.0000 0.86364  0.28197  0.15748  Biso   1.000  Hf
  Hf13     1.0000 0.86335  0.74085  0.11403  Biso   1.000  Hf
  Hf14     1.0000 0.85854  0.48312  0.64575  Biso   1.000  Hf
  Hf15     1.0000 0.84121  0.99720  0.71852  Biso   1.000  Hf
  O1       1.0000 0.03778  0.20826  0.19067  Biso   1.000  O 
  O2       1.0000 0.04575  0.68604  0.18867  Biso   1.000  O 
  O3       1.0000 0.02113  0.08088  0.75132  Biso   1.000  O 
  O4       1.0000 0.02956  0.58614  0.67565  Biso   1.000  O 
  O5       1.0000 0.46318  0.40950  0.16173  Biso   1.000  O 
  O6       1.0000 0.46785  0.91568  0.15613  Biso   1.000  O 
  O7       1.0000 0.46137  0.34035  0.65862  Biso   1.000  O 
  O8       1.0000 0.47363  0.84870  0.64313  Biso   1.000  O 
  O9       1.0000 0.27159  0.12955  0.59294  Biso   1.000  O 
  O10      1.0000 0.27514  0.62131  0.58292  Biso   1.000  O 
  O11      1.0000 0.28546  0.13136  0.06727  Biso   1.000  O 
  O12      1.0000 0.27404  0.61849  0.08479  Biso   1.000  O 
  O13      1.0000 0.21567  0.37659  0.58384  Biso   1.000  O 
  O14      1.0000 0.23066  0.86235  0.58246  Biso   1.000  O 
  O15      1.0000 0.22045  0.37871  0.08485  Biso   1.000  O 
  O16      1.0000 0.24402  0.86009  0.05362  Biso   1.000  O 
  O17      1.0000 0.52942  0.17044  0.33716  Biso   1.000  O 
  O18      1.0000 0.52640  0.66033  0.33925  Biso   1.000  O 
  O19      1.0000 0.53541  0.09145  0.83022  Biso   1.000  O 
  O20      1.0000 0.52081  0.59166  0.84166  Biso   1.000  O 
  O21      1.0000 0.95483  0.44419  0.30393  Biso   1.000  O 
  O22      1.0000 0.84848  0.89370  0.36914  Biso   1.000  O 
  O23      1.0000 0.95511  0.33633  0.80739  Biso   1.000  O 
  O24      1.0000 0.96609  0.84052  0.83799  Biso   1.000  O 
  O25      1.0000 0.76794  0.13702  0.94048  Biso   1.000  O 
  O26      1.0000 0.76535  0.61988  0.89585  Biso   1.000  O 
  O27      1.0000 0.77636  0.13207  0.43729  Biso   1.000  O 
  O28      1.0000 0.76623  0.63345  0.40364  Biso   1.000  O 
  O29      1.0000 0.71507  0.38311  0.90458  Biso   1.000  O 
  O30      1.0000 0.71788  0.87332  0.92917  Biso   1.000  O 
  O31      1.0000 0.72069  0.38004  0.40697  Biso   1.000  O 
  O32      1.0000 0.70687  0.89159  0.43121  Biso   1.000  O 
