data_image0
_cell_length_a       10.0679
_cell_length_b       10.2512
_cell_length_c       10.0679
_cell_angle_alpha    90
_cell_angle_beta     90
_cell_angle_gamma    90

_symmetry_space_group_name_H-M    "P 1"
_symmetry_int_tables_number       1

loop_
  _symmetry_equiv_pos_as_xyz
  'x, y, z'

loop_
  _atom_site_label
  _atom_site_occupancy
  _atom_site_fract_x
  _atom_site_fract_y
  _atom_site_fract_z
  _atom_site_thermal_displace_type
  _atom_site_B_iso_or_equiv
  _atom_site_type_symbol
  Ba1      1.0000 0.12568  0.00035  0.12570  Biso   1.000  Ba
  Hf1      1.0000 0.12570  0.00035  0.62570  Biso   1.000  Hf
  Hf2      1.0000 0.12568  0.50035  0.12570  Biso   1.000  Hf
  Hf3      1.0000 0.12569  0.50034  0.62571  Biso   1.000  Hf
  Hf4      1.0000 0.62567  0.00035  0.12572  Biso   1.000  Hf
  Hf5      1.0000 0.62570  0.00036  0.62572  Biso   1.000  Hf
  Hf6      1.0000 0.62569  0.50034  0.12571  Biso   1.000  Hf
  Hf7      1.0000 0.62569  0.50033  0.62570  Biso   1.000  Hf
  Hf8      1.0000 0.12355  0.25418  0.37838  Biso   1.000  Hf
  Hf9      1.0000 0.12784  0.25417  0.87302  Biso   1.000  Hf
  Hf10     1.0000 0.12781  0.74654  0.37840  Biso   1.000  Hf
  Hf11     1.0000 0.12353  0.74652  0.87302  Biso   1.000  Hf
  Hf12     1.0000 0.62571  0.24987  0.37565  Biso   1.000  Hf
  Hf13     1.0000 0.62566  0.24986  0.87577  Biso   1.000  Hf
  Hf14     1.0000 0.62568  0.75084  0.37565  Biso   1.000  Hf
  Hf15     1.0000 0.62573  0.75083  0.87576  Biso   1.000  Hf
  Hf16     1.0000 0.37836  0.25418  0.12357  Biso   1.000  Hf
  Hf17     1.0000 0.37563  0.24987  0.62573  Biso   1.000  Hf
  Hf18     1.0000 0.37837  0.74654  0.12783  Biso   1.000  Hf
  Hf19     1.0000 0.37564  0.75084  0.62570  Biso   1.000  Hf
  Hf20     1.0000 0.87300  0.25417  0.12786  Biso   1.000  Hf
  Hf21     1.0000 0.87575  0.24987  0.62568  Biso   1.000  Hf
  Hf22     1.0000 0.87300  0.74652  0.12355  Biso   1.000  Hf
  Hf23     1.0000 0.87575  0.75084  0.62575  Biso   1.000  Hf
  Hf24     1.0000 0.37822  0.00388  0.37823  Biso   1.000  Hf
  Hf25     1.0000 0.37820  0.99681  0.87319  Biso   1.000  Hf
  Hf26     1.0000 0.37695  0.49938  0.37697  Biso   1.000  Hf
  Hf27     1.0000 0.37696  0.50136  0.87444  Biso   1.000  Hf
  Hf28     1.0000 0.87317  0.99680  0.37822  Biso   1.000  Hf
  Hf29     1.0000 0.87318  0.00391  0.87319  Biso   1.000  Hf
  Hf30     1.0000 0.87442  0.50137  0.37697  Biso   1.000  Hf
  Hf31     1.0000 0.87443  0.49933  0.87444  Biso   1.000  Hf
  O1       1.0000 0.99258  0.15877  0.99258  Biso   1.000  O 
  O2       1.0000 0.01004  0.15110  0.51264  Biso   1.000  O 
  O3       1.0000 0.00588  0.64401  0.00591  Biso   1.000  O 
  O4       1.0000 0.00111  0.64718  0.50540  Biso   1.000  O 
  O5       1.0000 0.51260  0.15110  0.01005  Biso   1.000  O 
  O6       1.0000 0.50569  0.14901  0.50570  Biso   1.000  O 
  O7       1.0000 0.50538  0.64718  0.00113  Biso   1.000  O 
  O8       1.0000 0.50025  0.64882  0.50027  Biso   1.000  O 
  O9       1.0000 0.98177  0.12322  0.26965  Biso   1.000  O 
  O10      1.0000 0.99697  0.10078  0.75206  Biso   1.000  O 
  O11      1.0000 0.99812  0.59974  0.25327  Biso   1.000  O 
  O12      1.0000 0.00160  0.60154  0.75474  Biso   1.000  O 
  O13      1.0000 0.49936  0.10079  0.25451  Biso   1.000  O 
  O14      1.0000 0.49867  0.10247  0.75280  Biso   1.000  O 
  O15      1.0000 0.49663  0.60154  0.24975  Biso   1.000  O 
  O16      1.0000 0.50096  0.60226  0.75039  Biso   1.000  O 
  O17      1.0000 0.00589  0.35667  0.24550  Biso   1.000  O 
  O18      1.0000 0.00115  0.35353  0.74600  Biso   1.000  O 
  O19      1.0000 0.99252  0.84192  0.25883  Biso   1.000  O 
  O20      1.0000 0.01001  0.84963  0.73878  Biso   1.000  O 
  O21      1.0000 0.50540  0.35353  0.25024  Biso   1.000  O 
  O22      1.0000 0.50030  0.35190  0.75109  Biso   1.000  O 
  O23      1.0000 0.51255  0.84962  0.24144  Biso   1.000  O 
  O24      1.0000 0.50565  0.85170  0.74577  Biso   1.000  O 
  O25      1.0000 0.99815  0.40095  0.99814  Biso   1.000  O 
  O26      1.0000 0.00160  0.39917  0.49667  Biso   1.000  O 
  O27      1.0000 0.98176  0.87745  0.98177  Biso   1.000  O 
  O28      1.0000 0.99696  0.89993  0.49934  Biso   1.000  O 
  O29      1.0000 0.49665  0.39917  0.00161  Biso   1.000  O 
  O30      1.0000 0.50097  0.39846  0.50098  Biso   1.000  O 
  O31      1.0000 0.49932  0.89992  0.99700  Biso   1.000  O 
  O32      1.0000 0.49866  0.89825  0.49868  Biso   1.000  O 
  O33      1.0000 0.25883  0.15879  0.25885  Biso   1.000  O 
  O34      1.0000 0.24141  0.15107  0.73882  Biso   1.000  O 
  O35      1.0000 0.24548  0.64406  0.24551  Biso   1.000  O 
  O36      1.0000 0.25023  0.64717  0.74600  Biso   1.000  O 
  O37      1.0000 0.73879  0.15107  0.24142  Biso   1.000  O 
  O38      1.0000 0.74577  0.14900  0.74578  Biso   1.000  O 
  O39      1.0000 0.74597  0.64717  0.25024  Biso   1.000  O 
  O40      1.0000 0.75108  0.64880  0.75110  Biso   1.000  O 
  O41      1.0000 0.26963  0.12321  0.98180  Biso   1.000  O 
  O42      1.0000 0.25449  0.10078  0.49939  Biso   1.000  O 
  O43      1.0000 0.25327  0.59973  0.99814  Biso   1.000  O 
  O44      1.0000 0.24974  0.60153  0.49666  Biso   1.000  O 
  O45      1.0000 0.75205  0.10076  0.99697  Biso   1.000  O 
  O46      1.0000 0.75278  0.10247  0.49868  Biso   1.000  O 
  O47      1.0000 0.75472  0.60153  0.00161  Biso   1.000  O 
  O48      1.0000 0.75037  0.60226  0.50098  Biso   1.000  O 
  O49      1.0000 0.24549  0.35667  0.00590  Biso   1.000  O 
  O50      1.0000 0.25023  0.35353  0.50542  Biso   1.000  O 
  O51      1.0000 0.25882  0.84190  0.99255  Biso   1.000  O 
  O52      1.0000 0.24141  0.84962  0.51258  Biso   1.000  O 
  O53      1.0000 0.74599  0.35352  0.00115  Biso   1.000  O 
  O54      1.0000 0.75108  0.35190  0.50031  Biso   1.000  O 
  O55      1.0000 0.73874  0.84961  0.01005  Biso   1.000  O 
  O56      1.0000 0.74575  0.85170  0.50568  Biso   1.000  O 
  O57      1.0000 0.25325  0.40098  0.25327  Biso   1.000  O 
  O58      1.0000 0.24978  0.39916  0.75474  Biso   1.000  O 
  O59      1.0000 0.26958  0.87750  0.26961  Biso   1.000  O 
  O60      1.0000 0.25447  0.89992  0.75202  Biso   1.000  O 
  O61      1.0000 0.75473  0.39916  0.24978  Biso   1.000  O 
  O62      1.0000 0.75041  0.39845  0.75041  Biso   1.000  O 
  O63      1.0000 0.75199  0.89991  0.25449  Biso   1.000  O 
  O64      1.0000 0.75275  0.89822  0.75278  Biso   1.000  O 
