data_image0
_cell_length_a       10.1559
_cell_length_b       10.2376
_cell_length_c       10.4622
_cell_angle_alpha    90
_cell_angle_beta     80
_cell_angle_gamma    90

_symmetry_space_group_name_H-M    "P 1"
_symmetry_int_tables_number       1

loop_
  _symmetry_equiv_pos_as_xyz
  'x, y, z'

loop_
  _atom_site_label
  _atom_site_occupancy
  _atom_site_fract_x
  _atom_site_fract_y
  _atom_site_fract_z
  _atom_site_thermal_displace_type
  _atom_site_B_iso_or_equiv
  _atom_site_type_symbol
  Be1      1.0000 0.04711  0.04918  0.16900  Biso   1.000  Be
  Hf1      1.0000 0.13825  0.01971  0.64483  Biso   1.000  Hf
  Hf2      1.0000 0.14012  0.52058  0.14463  Biso   1.000  Hf
  Hf3      1.0000 0.13876  0.52026  0.64650  Biso   1.000  Hf
  Hf4      1.0000 0.64041  0.02140  0.14646  Biso   1.000  Hf
  Hf5      1.0000 0.63738  0.01988  0.64778  Biso   1.000  Hf
  Hf6      1.0000 0.63714  0.52125  0.14588  Biso   1.000  Hf
  Hf7      1.0000 0.63797  0.51971  0.64684  Biso   1.000  Hf
  Hf8      1.0000 0.14059  0.22475  0.39129  Biso   1.000  Hf
  Hf9      1.0000 0.13987  0.22366  0.89869  Biso   1.000  Hf
  Hf10     1.0000 0.14061  0.72819  0.39395  Biso   1.000  Hf
  Hf11     1.0000 0.14038  0.73163  0.89680  Biso   1.000  Hf
  Hf12     1.0000 0.63789  0.22789  0.39596  Biso   1.000  Hf
  Hf13     1.0000 0.63780  0.22816  0.89645  Biso   1.000  Hf
  Hf14     1.0000 0.63687  0.72789  0.39670  Biso   1.000  Hf
  Hf15     1.0000 0.63767  0.72787  0.89826  Biso   1.000  Hf
  Hf16     1.0000 0.35595  0.26363  0.10556  Biso   1.000  Hf
  Hf17     1.0000 0.35866  0.26958  0.60414  Biso   1.000  Hf
  Hf18     1.0000 0.35528  0.77614  0.10453  Biso   1.000  Hf
  Hf19     1.0000 0.35940  0.77150  0.60343  Biso   1.000  Hf
  Hf20     1.0000 0.86101  0.27175  0.10362  Biso   1.000  Hf
  Hf21     1.0000 0.86086  0.27007  0.60296  Biso   1.000  Hf
  Hf22     1.0000 0.86324  0.77285  0.10490  Biso   1.000  Hf
  Hf23     1.0000 0.86001  0.76914  0.60487  Biso   1.000  Hf
  Hf24     1.0000 0.35863  0.47668  0.35265  Biso   1.000  Hf
  Hf25     1.0000 0.35823  0.47679  0.85545  Biso   1.000  Hf
  Hf26     1.0000 0.35564  0.97889  0.34982  Biso   1.000  Hf
  Hf27     1.0000 0.35584  0.97828  0.85775  Biso   1.000  Hf
  Hf28     1.0000 0.86014  0.47845  0.35375  Biso   1.000  Hf
  Hf29     1.0000 0.86097  0.47773  0.85501  Biso   1.000  Hf
  Hf30     1.0000 0.85723  0.97682  0.35725  Biso   1.000  Hf
  Hf31     1.0000 0.85906  0.97779  0.85448  Biso   1.000  Hf
  O1       1.0000 0.03398  0.16336  0.07764  Biso   1.000  O 
  O2       1.0000 0.03109  0.16122  0.57255  Biso   1.000  O 
  O3       1.0000 0.03540  0.66895  0.07989  Biso   1.000  O 
  O4       1.0000 0.03321  0.66515  0.57966  Biso   1.000  O 
  O5       1.0000 0.53659  0.16726  0.07925  Biso   1.000  O 
  O6       1.0000 0.53309  0.16581  0.57983  Biso   1.000  O 
  O7       1.0000 0.53246  0.66606  0.07884  Biso   1.000  O 
  O8       1.0000 0.53281  0.66508  0.57951  Biso   1.000  O 
  O9       1.0000 0.03009  0.08781  0.31671  Biso   1.000  O 
  O10      1.0000 0.03189  0.08324  0.82667  Biso   1.000  O 
  O11      1.0000 0.03243  0.58374  0.32790  Biso   1.000  O 
  O12      1.0000 0.03399  0.58100  0.82967  Biso   1.000  O 
  O13      1.0000 0.53620  0.08066  0.32996  Biso   1.000  O 
  O14      1.0000 0.53495  0.08207  0.82958  Biso   1.000  O 
  O15      1.0000 0.53245  0.58213  0.32895  Biso   1.000  O 
  O16      1.0000 0.53206  0.58331  0.82930  Biso   1.000  O 
  O17      1.0000 0.46513  0.41366  0.17141  Biso   1.000  O 
  O18      1.0000 0.46467  0.41532  0.67174  Biso   1.000  O 
  O19      1.0000 0.46940  0.91564  0.17084  Biso   1.000  O 
  O20      1.0000 0.46455  0.91456  0.67356  Biso   1.000  O 
  O21      1.0000 0.96471  0.41728  0.17075  Biso   1.000  O 
  O22      1.0000 0.96600  0.41408  0.67173  Biso   1.000  O 
  O23      1.0000 0.96006  0.92589  0.16821  Biso   1.000  O 
  O24      1.0000 0.96345  0.91525  0.67113  Biso   1.000  O 
  O25      1.0000 0.46516  0.33250  0.42184  Biso   1.000  O 
  O26      1.0000 0.46678  0.33515  0.92211  Biso   1.000  O 
  O27      1.0000 0.46574  0.83361  0.42252  Biso   1.000  O 
  O28      1.0000 0.47079  0.83814  0.92385  Biso   1.000  O 
  O29      1.0000 0.96522  0.33302  0.42015  Biso   1.000  O 
  O30      1.0000 0.96527  0.33228  0.92303  Biso   1.000  O 
  O31      1.0000 0.96525  0.83320  0.42084  Biso   1.000  O 
  O32      1.0000 0.96350  0.83108  0.92023  Biso   1.000  O 
  O33      1.0000 0.28829  0.13543  0.25033  Biso   1.000  O 
  O34      1.0000 0.27399  0.12633  0.73886  Biso   1.000  O 
  O35      1.0000 0.27592  0.62378  0.23878  Biso   1.000  O 
  O36      1.0000 0.27556  0.62824  0.74054  Biso   1.000  O 
  O37      1.0000 0.77631  0.12967  0.24093  Biso   1.000  O 
  O38      1.0000 0.77592  0.12787  0.74017  Biso   1.000  O 
  O39      1.0000 0.77469  0.62904  0.24053  Biso   1.000  O 
  O40      1.0000 0.77505  0.62704  0.74116  Biso   1.000  O 
  O41      1.0000 0.27398  0.11982  0.49295  Biso   1.000  O 
  O42      1.0000 0.28743  0.13052  0.97916  Biso   1.000  O 
  O43      1.0000 0.27558  0.62006  0.48996  Biso   1.000  O 
  O44      1.0000 0.27461  0.61829  0.99082  Biso   1.000  O 
  O45      1.0000 0.77429  0.11987  0.49105  Biso   1.000  O 
  O46      1.0000 0.77504  0.12066  0.99031  Biso   1.000  O 
  O47      1.0000 0.77473  0.62008  0.49103  Biso   1.000  O 
  O48      1.0000 0.77477  0.62046  0.99168  Biso   1.000  O 
  O49      1.0000 0.22315  0.37833  0.00944  Biso   1.000  O 
  O50      1.0000 0.22255  0.37698  0.50877  Biso   1.000  O 
  O51      1.0000 0.22945  0.87120  0.99969  Biso   1.000  O 
  O52      1.0000 0.22188  0.87758  0.50977  Biso   1.000  O 
  O53      1.0000 0.72497  0.37919  0.00959  Biso   1.000  O 
  O54      1.0000 0.72321  0.37751  0.51013  Biso   1.000  O 
  O55      1.0000 0.72573  0.87865  0.01069  Biso   1.000  O 
  O56      1.0000 0.72216  0.87652  0.51174  Biso   1.000  O 
  O57      1.0000 0.21958  0.37177  0.25875  Biso   1.000  O 
  O58      1.0000 0.22307  0.36898  0.75987  Biso   1.000  O 
  O59      1.0000 0.23184  0.86178  0.26373  Biso   1.000  O 
  O60      1.0000 0.22126  0.87116  0.75630  Biso   1.000  O 
  O61      1.0000 0.72285  0.37129  0.25991  Biso   1.000  O 
  O62      1.0000 0.72360  0.37055  0.75974  Biso   1.000  O 
  O63      1.0000 0.72358  0.87085  0.26208  Biso   1.000  O 
  O64      1.0000 0.72310  0.86977  0.76050  Biso   1.000  O 
