data_image0
_cell_length_a       10.1881
_cell_length_b       10.5309
_cell_length_c       10.2129
_cell_angle_alpha    90
_cell_angle_beta     90
_cell_angle_gamma    90

_symmetry_space_group_name_H-M    "P 1"
_symmetry_int_tables_number       1

loop_
  _symmetry_equiv_pos_as_xyz
  'x, y, z'

loop_
  _atom_site_label
  _atom_site_occupancy
  _atom_site_fract_x
  _atom_site_fract_y
  _atom_site_fract_z
  _atom_site_thermal_displace_type
  _atom_site_B_iso_or_equiv
  _atom_site_type_symbol
  Hf1      1.0000 0.96456  0.96433  0.14298  Biso   1.000  Hf
  Hf2      1.0000 0.10795  0.22215  0.34983  Biso   1.000  Hf
  Hf3      1.0000 0.29962  0.26087  0.10575  Biso   1.000  Hf
  Hf4      1.0000 0.36085  0.01539  0.39899  Biso   1.000  Hf
  O1       1.0000 0.94777  0.18628  0.99243  Biso   1.000  O 
  O2       1.0000 0.00772  0.06378  0.26281  Biso   1.000  O 
  O3       1.0000 0.96457  0.29681  0.21365  Biso   1.000  O 
  O4       1.0000 0.88056  0.44080  0.03371  Biso   1.000  O 
  O5       1.0000 0.27098  0.12289  0.25378  Biso   1.000  O 
  O6       1.0000 0.21235  0.10578  0.98928  Biso   1.000  O 
  O7       1.0000 0.15160  0.35831  0.99449  Biso   1.000  O 
  O8       1.0000 0.20152  0.37983  0.25284  Biso   1.000  O 
  Hf5      1.0000 0.95450  0.96292  0.64630  Biso   1.000  Hf
  Hf6      1.0000 0.10222  0.22369  0.85063  Biso   1.000  Hf
  Hf7      1.0000 0.31209  0.26665  0.60176  Biso   1.000  Hf
  Hf8      1.0000 0.36552  0.01748  0.89562  Biso   1.000  Hf
  O9       1.0000 0.93589  0.19673  0.46119  Biso   1.000  O 
  O10      1.0000 0.02122  0.05317  0.78490  Biso   1.000  O 
  O11      1.0000 0.97505  0.29635  0.71894  Biso   1.000  O 
  O12      1.0000 0.88558  0.44189  0.53622  Biso   1.000  O 
  O13      1.0000 0.25215  0.13273  0.74268  Biso   1.000  O 
  O14      1.0000 0.20336  0.11177  0.50101  Biso   1.000  O 
  O15      1.0000 0.15832  0.35875  0.49669  Biso   1.000  O 
  O16      1.0000 0.20568  0.37771  0.75239  Biso   1.000  O 
  Hf9      1.0000 0.04699  0.47230  0.14456  Biso   1.000  Hf
  Hf10     1.0000 0.00210  0.71671  0.35308  Biso   1.000  Hf
  Hf11     1.0000 0.21805  0.75605  0.10401  Biso   1.000  Hf
  Hf12     1.0000 0.26244  0.51252  0.39785  Biso   1.000  Hf
  O17      1.0000 0.83948  0.68657  0.96508  Biso   1.000  O 
  O18      1.0000 0.92613  0.54230  0.28381  Biso   1.000  O 
  O19      1.0000 0.88047  0.79389  0.21856  Biso   1.000  O 
  O20      1.0000 0.79531  0.93130  0.03220  Biso   1.000  O 
  O21      1.0000 0.15536  0.62257  0.24647  Biso   1.000  O 
  O22      1.0000 0.10809  0.60376  0.00290  Biso   1.000  O 
  O23      1.0000 0.06690  0.84674  0.99740  Biso   1.000  O 
  O24      1.0000 0.11408  0.86530  0.25405  Biso   1.000  O 
  Hf13     1.0000 0.04942  0.47065  0.64713  Biso   1.000  Hf
  Hf14     1.0000 0.00252  0.71677  0.85292  Biso   1.000  Hf
  Hf15     1.0000 0.21850  0.75765  0.60459  Biso   1.000  Hf
  Hf16     1.0000 0.26510  0.51084  0.89662  Biso   1.000  Hf
  O25      1.0000 0.83796  0.68647  0.46421  Biso   1.000  O 
  O26      1.0000 0.92857  0.54281  0.78555  Biso   1.000  O 
  O27      1.0000 0.88063  0.78925  0.71412  Biso   1.000  O 
  O28      1.0000 0.79301  0.93349  0.52984  Biso   1.000  O 
  O29      1.0000 0.15735  0.62388  0.74732  Biso   1.000  O 
  O30      1.0000 0.10879  0.60414  0.50369  Biso   1.000  O 
  O31      1.0000 0.06241  0.84877  0.49829  Biso   1.000  O 
  O32      1.0000 0.10925  0.86998  0.75241  Biso   1.000  O 
  Hf17     1.0000 0.45441  0.96395  0.14769  Biso   1.000  Hf
  Hf18     1.0000 0.59149  0.22601  0.35312  Biso   1.000  Hf
  Hf19     1.0000 0.79278  0.27576  0.10416  Biso   1.000  Hf
  Hf20     1.0000 0.85764  0.02460  0.39552  Biso   1.000  Hf
  O33      1.0000 0.43082  0.19720  0.96040  Biso   1.000  O 
  O34      1.0000 0.52963  0.04397  0.29462  Biso   1.000  O 
  O35      1.0000 0.47356  0.29374  0.21171  Biso   1.000  O 
  O36      1.0000 0.37511  0.44252  0.04154  Biso   1.000  O 
  O37      1.0000 0.74685  0.13746  0.24628  Biso   1.000  O 
  O38      1.0000 0.70432  0.11677  0.00192  Biso   1.000  O 
  O39      1.0000 0.64939  0.36284  0.99353  Biso   1.000  O 
  O40      1.0000 0.69748  0.38305  0.25130  Biso   1.000  O 
  Hf21     1.0000 0.45846  0.96235  0.64700  Biso   1.000  Hf
  Hf22     1.0000 0.59463  0.22592  0.85121  Biso   1.000  Hf
  Hf23     1.0000 0.81426  0.26610  0.60128  Biso   1.000  Hf
  Hf24     1.0000 0.86005  0.01935  0.89876  Biso   1.000  Hf
  O41      1.0000 0.43103  0.19496  0.46386  Biso   1.000  O 
  O42      1.0000 0.52887  0.04888  0.78721  Biso   1.000  O 
  O43      1.0000 0.47799  0.29432  0.70919  Biso   1.000  O 
  O44      1.0000 0.38453  0.44402  0.53790  Biso   1.000  O 
  O45      1.0000 0.75561  0.13436  0.74868  Biso   1.000  O 
  O46      1.0000 0.70634  0.11344  0.50400  Biso   1.000  O 
  O47      1.0000 0.65793  0.35854  0.49564  Biso   1.000  O 
  O48      1.0000 0.70492  0.37944  0.75177  Biso   1.000  O 
  Hf25     1.0000 0.54067  0.47303  0.14622  Biso   1.000  Hf
  Hf26     1.0000 0.50209  0.71828  0.35345  Biso   1.000  Hf
  Hf27     1.0000 0.71871  0.76068  0.10491  Biso   1.000  Hf
  Hf28     1.0000 0.76311  0.51311  0.39664  Biso   1.000  Hf
  O49      1.0000 0.33742  0.68794  0.96038  Biso   1.000  O 
  O50      1.0000 0.42782  0.54154  0.29000  Biso   1.000  O 
  O51      1.0000 0.38518  0.78465  0.20955  Biso   1.000  O 
  O52      1.0000 0.29040  0.93402  0.03974  Biso   1.000  O 
  O53      1.0000 0.65531  0.62694  0.24771  Biso   1.000  O 
  O54      1.0000 0.60781  0.60699  0.00393  Biso   1.000  O 
  O55      1.0000 0.56526  0.85177  0.99734  Biso   1.000  O 
  O56      1.0000 0.60930  0.87343  0.25307  Biso   1.000  O 
  Hf29     1.0000 0.55015  0.47105  0.64618  Biso   1.000  Hf
  Hf30     1.0000 0.50388  0.71637  0.85412  Biso   1.000  Hf
  Hf31     1.0000 0.71773  0.75889  0.60191  Biso   1.000  Hf
  Hf32     1.0000 0.76280  0.51421  0.89498  Biso   1.000  Hf
  O57      1.0000 0.33519  0.69014  0.46080  Biso   1.000  O 
  O58      1.0000 0.43271  0.53826  0.79024  Biso   1.000  O 
  O59      1.0000 0.38538  0.78453  0.71210  Biso   1.000  O 
  O60      1.0000 0.29135  0.93375  0.54320  Biso   1.000  O 
  O61      1.0000 0.65779  0.62563  0.74613  Biso   1.000  O 
  O62      1.0000 0.60934  0.60518  0.50314  Biso   1.000  O 
  O63      1.0000 0.56334  0.85114  0.49709  Biso   1.000  O 
  O64      1.0000 0.61215  0.87068  0.75418  Biso   1.000  O 
  Be1      1.0000 0.01247  0.17642  0.13567  Biso   1.000  Be
