data_image0
_cell_length_a       10.1765
_cell_length_b       10.2379
_cell_length_c       5.21599
_cell_angle_alpha    90
_cell_angle_beta     80
_cell_angle_gamma    90

_symmetry_space_group_name_H-M    "P 1"
_symmetry_int_tables_number       1

loop_
  _symmetry_equiv_pos_as_xyz
  'x, y, z'

loop_
  _atom_site_label
  _atom_site_occupancy
  _atom_site_fract_x
  _atom_site_fract_y
  _atom_site_fract_z
  _atom_site_thermal_displace_type
  _atom_site_B_iso_or_equiv
  _atom_site_type_symbol
  Be1      1.0000 0.04716  0.04813  0.33262  Biso   1.000  Be
  Hf1      1.0000 0.14045  0.51970  0.29011  Biso   1.000  Hf
  Hf2      1.0000 0.64044  0.02072  0.29494  Biso   1.000  Hf
  Hf3      1.0000 0.63775  0.52040  0.29324  Biso   1.000  Hf
  Hf4      1.0000 0.14020  0.22147  0.78801  Biso   1.000  Hf
  Hf5      1.0000 0.14119  0.73046  0.79007  Biso   1.000  Hf
  Hf6      1.0000 0.63848  0.22799  0.79227  Biso   1.000  Hf
  Hf7      1.0000 0.63766  0.72719  0.79676  Biso   1.000  Hf
  Hf8      1.0000 0.35712  0.26544  0.20922  Biso   1.000  Hf
  Hf9      1.0000 0.35572  0.77502  0.20876  Biso   1.000  Hf
  Hf10     1.0000 0.86170  0.27105  0.20566  Biso   1.000  Hf
  Hf11     1.0000 0.86292  0.77149  0.21084  Biso   1.000  Hf
  Hf12     1.0000 0.35805  0.47607  0.70742  Biso   1.000  Hf
  Hf13     1.0000 0.35469  0.97690  0.70606  Biso   1.000  Hf
  Hf14     1.0000 0.86117  0.47834  0.70867  Biso   1.000  Hf
  Hf15     1.0000 0.85743  0.97684  0.71420  Biso   1.000  Hf
  O1       1.0000 0.03294  0.15977  0.14466  Biso   1.000  O 
  O2       1.0000 0.03503  0.66799  0.16190  Biso   1.000  O 
  O3       1.0000 0.53641  0.16661  0.15957  Biso   1.000  O 
  O4       1.0000 0.53249  0.66489  0.15894  Biso   1.000  O 
  O5       1.0000 0.03060  0.08831  0.62737  Biso   1.000  O 
  O6       1.0000 0.03363  0.58149  0.65863  Biso   1.000  O 
  O7       1.0000 0.53742  0.08055  0.66046  Biso   1.000  O 
  O8       1.0000 0.53223  0.58252  0.65898  Biso   1.000  O 
  O9       1.0000 0.46570  0.41373  0.34257  Biso   1.000  O 
  O10      1.0000 0.46945  0.91373  0.34399  Biso   1.000  O 
  O11      1.0000 0.96611  0.41542  0.34165  Biso   1.000  O 
  O12      1.0000 0.95926  0.92484  0.33448  Biso   1.000  O 
  O13      1.0000 0.46739  0.33415  0.84353  Biso   1.000  O 
  O14      1.0000 0.47050  0.83680  0.84680  Biso   1.000  O 
  O15      1.0000 0.96641  0.33249  0.84254  Biso   1.000  O 
  O16      1.0000 0.96449  0.83177  0.83875  Biso   1.000  O 
  O17      1.0000 0.28860  0.13291  0.49756  Biso   1.000  O 
  O18      1.0000 0.27595  0.62402  0.47844  Biso   1.000  O 
  O19      1.0000 0.77714  0.12931  0.48115  Biso   1.000  O 
  O20      1.0000 0.77520  0.62809  0.48274  Biso   1.000  O 
  O21      1.0000 0.28580  0.12785  0.96472  Biso   1.000  O 
  O22      1.0000 0.27517  0.61826  0.98056  Biso   1.000  O 
  O23      1.0000 0.77556  0.12011  0.98106  Biso   1.000  O 
  O24      1.0000 0.77528  0.62015  0.98414  Biso   1.000  O 
  O25      1.0000 0.22332  0.37731  0.01624  Biso   1.000  O 
  O26      1.0000 0.23036  0.87263  0.00350  Biso   1.000  O 
  O27      1.0000 0.72549  0.37842  0.01935  Biso   1.000  O 
  O28      1.0000 0.72451  0.87708  0.02446  Biso   1.000  O 
  O29      1.0000 0.22125  0.36941  0.51700  Biso   1.000  O 
  O30      1.0000 0.23055  0.86317  0.52099  Biso   1.000  O 
  O31      1.0000 0.72409  0.37114  0.51918  Biso   1.000  O 
  O32      1.0000 0.72410  0.87027  0.52517  Biso   1.000  O 
