data_image0
_cell_length_a       9.99963
_cell_length_b       10.1698
_cell_length_c       5.02057
_cell_angle_alpha    90
_cell_angle_beta     90
_cell_angle_gamma    90

_symmetry_space_group_name_H-M    "P 1"
_symmetry_int_tables_number       1

loop_
  _symmetry_equiv_pos_as_xyz
  'x, y, z'

loop_
  _atom_site_label
  _atom_site_occupancy
  _atom_site_fract_x
  _atom_site_fract_y
  _atom_site_fract_z
  _atom_site_thermal_displace_type
  _atom_site_B_iso_or_equiv
  _atom_site_type_symbol
  Be1      1.0000 0.17059  0.02635  0.31041  Biso   1.000  Be
  Hf1      1.0000 0.16003  0.51016  0.22634  Biso   1.000  Hf
  Hf2      1.0000 0.65347  0.97866  0.26333  Biso   1.000  Hf
  Hf3      1.0000 0.65014  0.49969  0.23945  Biso   1.000  Hf
  Hf4      1.0000 0.14142  0.24749  0.78284  Biso   1.000  Hf
  Hf5      1.0000 0.16718  0.72720  0.72507  Biso   1.000  Hf
  Hf6      1.0000 0.63572  0.23988  0.74610  Biso   1.000  Hf
  Hf7      1.0000 0.64499  0.73796  0.74795  Biso   1.000  Hf
  Hf8      1.0000 0.36662  0.23062  0.25672  Biso   1.000  Hf
  Hf9      1.0000 0.38640  0.76684  0.21297  Biso   1.000  Hf
  Hf10     1.0000 0.87436  0.22991  0.24221  Biso   1.000  Hf
  Hf11     1.0000 0.89855  0.74554  0.28640  Biso   1.000  Hf
  Hf12     1.0000 0.37048  0.99078  0.73835  Biso   1.000  Hf
  Hf13     1.0000 0.40202  0.47265  0.71333  Biso   1.000  Hf
  Hf14     1.0000 0.89645  0.98134  0.77154  Biso   1.000  Hf
  Hf15     1.0000 0.89397  0.46816  0.73040  Biso   1.000  Hf
  O1       1.0000 0.98239  0.14009  0.89891  Biso   1.000  O 
  O2       1.0000 0.06265  0.68700  0.08286  Biso   1.000  O 
  O3       1.0000 0.47558  0.15055  0.91938  Biso   1.000  O 
  O4       1.0000 0.55163  0.66489  0.07638  Biso   1.000  O 
  O5       1.0000 0.00328  0.04283  0.35450  Biso   1.000  O 
  O6       1.0000 0.04631  0.57122  0.54714  Biso   1.000  O 
  O7       1.0000 0.49106  0.08860  0.43917  Biso   1.000  O 
  O8       1.0000 0.55001  0.58193  0.56061  Biso   1.000  O 
  O9       1.0000 0.00352  0.30896  0.50304  Biso   1.000  O 
  O10      1.0000 0.00324  0.82500  0.62823  Biso   1.000  O 
  O11      1.0000 0.50918  0.33717  0.46440  Biso   1.000  O 
  O12      1.0000 0.51225  0.84074  0.50872  Biso   1.000  O 
  O13      1.0000 0.02238  0.41109  0.00171  Biso   1.000  O 
  O14      1.0000 0.96280  0.94987  0.17393  Biso   1.000  O 
  O15      1.0000 0.54441  0.39650  0.96178  Biso   1.000  O 
  O16      1.0000 0.53233  0.89173  0.99330  Biso   1.000  O 
  O17      1.0000 0.24253  0.12927  0.52603  Biso   1.000  O 
  O18      1.0000 0.29620  0.63100  0.46821  Biso   1.000  O 
  O19      1.0000 0.76344  0.11982  0.50528  Biso   1.000  O 
  O20      1.0000 0.79142  0.62859  0.54637  Biso   1.000  O 
  O21      1.0000 0.22563  0.10344  0.04229  Biso   1.000  O 
  O22      1.0000 0.30232  0.59404  0.97080  Biso   1.000  O 
  O23      1.0000 0.71665  0.10438  0.00140  Biso   1.000  O 
  O24      1.0000 0.80834  0.58915  0.05360  Biso   1.000  O 
  O25      1.0000 0.28638  0.34647  0.99742  Biso   1.000  O 
  O26      1.0000 0.29277  0.84078  0.92748  Biso   1.000  O 
  O27      1.0000 0.78134  0.32947  0.97924  Biso   1.000  O 
  O28      1.0000 0.77510  0.84379  0.00958  Biso   1.000  O 
  O29      1.0000 0.25461  0.37886  0.49760  Biso   1.000  O 
  O30      1.0000 0.25991  0.89353  0.43848  Biso   1.000  O 
  O31      1.0000 0.76051  0.37373  0.48468  Biso   1.000  O 
  O32      1.0000 0.76261  0.87458  0.52252  Biso   1.000  O 
