data_image0
_cell_length_a       9.95917
_cell_length_b       5.19558
_cell_length_c       10.0752
_cell_angle_alpha    90
_cell_angle_beta     90
_cell_angle_gamma    90

_symmetry_space_group_name_H-M    "P 1"
_symmetry_int_tables_number       1

loop_
  _symmetry_equiv_pos_as_xyz
  'x, y, z'

loop_
  _atom_site_label
  _atom_site_occupancy
  _atom_site_fract_x
  _atom_site_fract_y
  _atom_site_fract_z
  _atom_site_thermal_displace_type
  _atom_site_B_iso_or_equiv
  _atom_site_type_symbol
  Hf1      1.0000 0.13843  0.09784  0.11134  Biso   1.000  Hf
  Hf2      1.0000 0.13982  0.44230  0.39815  Biso   1.000  Hf
  Hf3      1.0000 0.36064  0.53051  0.12219  Biso   1.000  Hf
  Hf4      1.0000 0.36896  0.95054  0.37715  Biso   1.000  Hf
  O1       1.0000 0.01926  0.36316  0.22738  Biso   1.000  O 
  O2       1.0000 0.04141  0.11095  0.45389  Biso   1.000  O 
  O3       1.0000 0.46143  0.86001  0.19645  Biso   1.000  O 
  O4       1.0000 0.46788  0.61620  0.44316  Biso   1.000  O 
  O5       1.0000 0.27207  0.23016  0.25491  Biso   1.000  O 
  O6       1.0000 0.28114  0.23881  0.50634  Biso   1.000  O 
  O7       1.0000 0.23571  0.74589  0.50565  Biso   1.000  O 
  O8       1.0000 0.21990  0.70961  0.25438  Biso   1.000  O 
  Hf5      1.0000 0.14141  0.01817  0.63447  Biso   1.000  Hf
  Hf6      1.0000 0.14558  0.46107  0.88535  Biso   1.000  Hf
  Hf7      1.0000 0.37271  0.51806  0.62924  Biso   1.000  Hf
  Hf8      1.0000 0.37915  0.94975  0.87149  Biso   1.000  Hf
  O9       1.0000 0.04551  0.35901  0.69056  Biso   1.000  O 
  O10      1.0000 0.04314  0.12271  0.93799  Biso   1.000  O 
  O11      1.0000 0.47285  0.85194  0.68850  Biso   1.000  O 
  O12      1.0000 0.47426  0.61348  0.94148  Biso   1.000  O 
  O13      1.0000 0.27810  0.22651  0.75188  Biso   1.000  O 
  O14      1.0000 0.30083  0.23728  0.98974  Biso   1.000  O 
  O15      1.0000 0.23478  0.78706  0.00210  Biso   1.000  O 
  O16      1.0000 0.23844  0.72507  0.75369  Biso   1.000  O 
  Hf9      1.0000 0.62830  0.02718  0.12274  Biso   1.000  Hf
  Hf10     1.0000 0.63625  0.45338  0.37165  Biso   1.000  Hf
  Hf11     1.0000 0.85416  0.52392  0.11646  Biso   1.000  Hf
  Hf12     1.0000 0.87312  0.95838  0.37285  Biso   1.000  Hf
  O17      1.0000 0.53646  0.36325  0.19097  Biso   1.000  O 
  O18      1.0000 0.54039  0.11744  0.44021  Biso   1.000  O 
  O19      1.0000 0.98485  0.83597  0.17843  Biso   1.000  O 
  O20      1.0000 0.97016  0.62896  0.44787  Biso   1.000  O 
  O21      1.0000 0.77037  0.21504  0.24298  Biso   1.000  O 
  O22      1.0000 0.77703  0.25351  0.49324  Biso   1.000  O 
  O23      1.0000 0.73632  0.75503  0.49431  Biso   1.000  O 
  O24      1.0000 0.73597  0.72485  0.24659  Biso   1.000  O 
  Hf13     1.0000 0.64251  0.01828  0.62093  Biso   1.000  Hf
  Hf14     1.0000 0.64111  0.44671  0.87091  Biso   1.000  Hf
  Hf15     1.0000 0.87449  0.51934  0.62444  Biso   1.000  Hf
  Hf16     1.0000 0.87166  0.94631  0.87208  Biso   1.000  Hf
  O25      1.0000 0.54385  0.35039  0.69153  Biso   1.000  O 
  O26      1.0000 0.55192  0.10736  0.93933  Biso   1.000  O 
  O27      1.0000 0.97010  0.85290  0.69578  Biso   1.000  O 
  O28      1.0000 0.96396  0.61344  0.93580  Biso   1.000  O 
  O29      1.0000 0.77902  0.21911  0.74435  Biso   1.000  O 
  O30      1.0000 0.77803  0.23916  0.99488  Biso   1.000  O 
  O31      1.0000 0.73454  0.73918  0.99834  Biso   1.000  O 
  O32      1.0000 0.73498  0.72095  0.74612  Biso   1.000  O 
  Be1      1.0000 0.09892  0.60532  0.16418  Biso   1.000  Be
