data_image0
_cell_length_a       4.97769
_cell_length_b       10.342
_cell_length_c       10.0271
_cell_angle_alpha    90
_cell_angle_beta     90
_cell_angle_gamma    90

_symmetry_space_group_name_H-M    "P 1"
_symmetry_int_tables_number       1

loop_
  _symmetry_equiv_pos_as_xyz
  'x, y, z'

loop_
  _atom_site_label
  _atom_site_occupancy
  _atom_site_fract_x
  _atom_site_fract_y
  _atom_site_fract_z
  _atom_site_thermal_displace_type
  _atom_site_B_iso_or_equiv
  _atom_site_type_symbol
  Be1      1.0000 0.14177  0.94916  0.04627  Biso   1.000  Be
  Hf1      1.0000 0.28538  0.01629  0.62530  Biso   1.000  Hf
  Hf2      1.0000 0.27301  0.51791  0.12794  Biso   1.000  Hf
  Hf3      1.0000 0.28820  0.51739  0.62685  Biso   1.000  Hf
  Hf4      1.0000 0.28676  0.23123  0.37618  Biso   1.000  Hf
  Hf5      1.0000 0.29192  0.23134  0.87884  Biso   1.000  Hf
  Hf6      1.0000 0.28792  0.73787  0.37859  Biso   1.000  Hf
  Hf7      1.0000 0.29506  0.73304  0.87602  Biso   1.000  Hf
  Hf8      1.0000 0.71938  0.26487  0.12435  Biso   1.000  Hf
  Hf9      1.0000 0.75260  0.26691  0.62608  Biso   1.000  Hf
  Hf10     1.0000 0.72891  0.76742  0.12722  Biso   1.000  Hf
  Hf11     1.0000 0.75372  0.77152  0.62518  Biso   1.000  Hf
  Hf12     1.0000 0.74534  0.48505  0.37830  Biso   1.000  Hf
  Hf13     1.0000 0.75848  0.48499  0.87545  Biso   1.000  Hf
  Hf14     1.0000 0.74822  0.98830  0.36263  Biso   1.000  Hf
  Hf15     1.0000 0.73179  0.98922  0.87966  Biso   1.000  Hf
  O1       1.0000 0.05487  0.19424  0.21009  Biso   1.000  O 
  O2       1.0000 0.09160  0.18550  0.69728  Biso   1.000  O 
  O3       1.0000 0.07239  0.68607  0.20028  Biso   1.000  O 
  O4       1.0000 0.08917  0.68510  0.69815  Biso   1.000  O 
  O5       1.0000 0.08624  0.06841  0.44974  Biso   1.000  O 
  O6       1.0000 0.09918  0.06298  0.94295  Biso   1.000  O 
  O7       1.0000 0.08551  0.56806  0.44775  Biso   1.000  O 
  O8       1.0000 0.09322  0.57149  0.94946  Biso   1.000  O 
  O9       1.0000 0.93447  0.43437  0.19675  Biso   1.000  O 
  O10      1.0000 0.94989  0.43557  0.69629  Biso   1.000  O 
  O11      1.0000 0.96554  0.93661  0.18204  Biso   1.000  O 
  O12      1.0000 0.94664  0.93504  0.70054  Biso   1.000  O 
  O13      1.0000 0.94968  0.32083  0.44907  Biso   1.000  O 
  O14      1.0000 0.96132  0.32084  0.94638  Biso   1.000  O 
  O15      1.0000 0.95498  0.82272  0.44910  Biso   1.000  O 
  O16      1.0000 0.96530  0.82934  0.95329  Biso   1.000  O 
  O17      1.0000 0.56219  0.12757  0.25187  Biso   1.000  O 
  O18      1.0000 0.56051  0.11749  0.74627  Biso   1.000  O 
  O19      1.0000 0.54752  0.61361  0.24908  Biso   1.000  O 
  O20      1.0000 0.56127  0.61898  0.75013  Biso   1.000  O 
  O21      1.0000 0.56469  0.13348  0.49866  Biso   1.000  O 
  O22      1.0000 0.58480  0.14116  0.99036  Biso   1.000  O 
  O23      1.0000 0.55875  0.63550  0.50033  Biso   1.000  O 
  O24      1.0000 0.57176  0.63599  0.99897  Biso   1.000  O 
  O25      1.0000 0.47740  0.38403  0.50118  Biso   1.000  O 
  O26      1.0000 0.45410  0.38560  0.00026  Biso   1.000  O 
  O27      1.0000 0.48267  0.88727  0.50144  Biso   1.000  O 
  O28      1.0000 0.42975  0.88203  0.00529  Biso   1.000  O 
  O29      1.0000 0.45973  0.37089  0.25046  Biso   1.000  O 
  O30      1.0000 0.48212  0.36792  0.75154  Biso   1.000  O 
  O31      1.0000 0.50637  0.85703  0.26097  Biso   1.000  O 
  O32      1.0000 0.47932  0.86865  0.75181  Biso   1.000  O 
