data_image0
_cell_length_a       10.0739
_cell_length_b       10.2006
_cell_length_c       5.21306
_cell_angle_alpha    90
_cell_angle_beta     90
_cell_angle_gamma    90

_symmetry_space_group_name_H-M    "P 1"
_symmetry_int_tables_number       1

loop_
  _symmetry_equiv_pos_as_xyz
  'x, y, z'

loop_
  _atom_site_label
  _atom_site_occupancy
  _atom_site_fract_x
  _atom_site_fract_y
  _atom_site_fract_z
  _atom_site_thermal_displace_type
  _atom_site_B_iso_or_equiv
  _atom_site_type_symbol
  Be1      1.0000 0.04754  0.04772  0.35540  Biso   1.000  Be
  Hf1      1.0000 0.13986  0.52002  0.34544  Biso   1.000  Hf
  Hf2      1.0000 0.13863  0.22258  0.84240  Biso   1.000  Hf
  Hf3      1.0000 0.14013  0.73257  0.84336  Biso   1.000  Hf
  Hf4      1.0000 0.35565  0.26562  0.34534  Biso   1.000  Hf
  Hf5      1.0000 0.35550  0.77506  0.34338  Biso   1.000  Hf
  Hf6      1.0000 0.35588  0.47714  0.84688  Biso   1.000  Hf
  Hf7      1.0000 0.35390  0.97797  0.84324  Biso   1.000  Hf
  Hf8      1.0000 0.64011  0.02041  0.15645  Biso   1.000  Hf
  Hf9      1.0000 0.63817  0.52039  0.15799  Biso   1.000  Hf
  Hf10     1.0000 0.63732  0.22935  0.65561  Biso   1.000  Hf
  Hf11     1.0000 0.63698  0.72849  0.65609  Biso   1.000  Hf
  Hf12     1.0000 0.86256  0.27058  0.15578  Biso   1.000  Hf
  Hf13     1.0000 0.86383  0.77159  0.15979  Biso   1.000  Hf
  Hf14     1.0000 0.86035  0.47961  0.65855  Biso   1.000  Hf
  Hf15     1.0000 0.85620  0.97830  0.66217  Biso   1.000  Hf
  O1       1.0000 0.03306  0.15837  0.15883  Biso   1.000  O 
  O2       1.0000 0.03357  0.66660  0.17337  Biso   1.000  O 
  O3       1.0000 0.02660  0.09076  0.64194  Biso   1.000  O 
  O4       1.0000 0.03130  0.58402  0.67059  Biso   1.000  O 
  O5       1.0000 0.46782  0.41172  0.16864  Biso   1.000  O 
  O6       1.0000 0.47244  0.91204  0.16580  Biso   1.000  O 
  O7       1.0000 0.46807  0.33713  0.66693  Biso   1.000  O 
  O8       1.0000 0.47129  0.84030  0.66101  Biso   1.000  O 
  O9       1.0000 0.28270  0.12806  0.60389  Biso   1.000  O 
  O10      1.0000 0.27560  0.62155  0.59187  Biso   1.000  O 
  O11      1.0000 0.29024  0.13451  0.07025  Biso   1.000  O 
  O12      1.0000 0.27570  0.62188  0.09413  Biso   1.000  O 
  O13      1.0000 0.22154  0.37259  0.59419  Biso   1.000  O 
  O14      1.0000 0.22754  0.86821  0.59528  Biso   1.000  O 
  O15      1.0000 0.22151  0.37542  0.09350  Biso   1.000  O 
  O16      1.0000 0.23460  0.86807  0.07824  Biso   1.000  O 
  O17      1.0000 0.53278  0.16435  0.33229  Biso   1.000  O 
  O18      1.0000 0.53075  0.66308  0.33445  Biso   1.000  O 
  O19      1.0000 0.53374  0.08404  0.83115  Biso   1.000  O 
  O20      1.0000 0.52823  0.58581  0.83465  Biso   1.000  O 
  O21      1.0000 0.96751  0.41387  0.33454  Biso   1.000  O 
  O22      1.0000 0.96153  0.92370  0.32479  Biso   1.000  O 
  O23      1.0000 0.96656  0.33532  0.83573  Biso   1.000  O 
  O24      1.0000 0.96469  0.83442  0.82935  Biso   1.000  O 
  O25      1.0000 0.77503  0.12405  0.90896  Biso   1.000  O 
  O26      1.0000 0.77312  0.62368  0.91106  Biso   1.000  O 
  O27      1.0000 0.77534  0.12665  0.40915  Biso   1.000  O 
  O28      1.0000 0.77565  0.62628  0.40994  Biso   1.000  O 
  O29      1.0000 0.72257  0.37392  0.91016  Biso   1.000  O 
  O30      1.0000 0.72187  0.87309  0.91356  Biso   1.000  O 
  O31      1.0000 0.72441  0.37628  0.40910  Biso   1.000  O 
  O32      1.0000 0.72382  0.87540  0.41422  Biso   1.000  O 
