data_image0
_cell_length_a       10.1946
_cell_length_b       10.2557
_cell_length_c       5.26947
_cell_angle_alpha    90
_cell_angle_beta     80
_cell_angle_gamma    90

_symmetry_space_group_name_H-M    "P 1"
_symmetry_int_tables_number       1

loop_
  _symmetry_equiv_pos_as_xyz
  'x, y, z'

loop_
  _atom_site_label
  _atom_site_occupancy
  _atom_site_fract_x
  _atom_site_fract_y
  _atom_site_fract_z
  _atom_site_thermal_displace_type
  _atom_site_B_iso_or_equiv
  _atom_site_type_symbol
  Hf1      1.0000 0.13349  0.02038  0.28610  Biso   1.000  Hf
  Hf2      1.0000 0.15154  0.23208  0.77578  Biso   1.000  Hf
  Hf3      1.0000 0.36031  0.27199  0.24258  Biso   1.000  Hf
  Hf4      1.0000 0.36276  0.46729  0.69733  Biso   1.000  Hf
  O1       1.0000 0.04056  0.16665  0.14415  Biso   1.000  O 
  O2       1.0000 0.03676  0.08413  0.64863  Biso   1.000  O 
  O3       1.0000 0.46870  0.42252  0.33799  Biso   1.000  O 
  O4       1.0000 0.48050  0.33057  0.86167  Biso   1.000  O 
  O5       1.0000 0.27243  0.11382  0.46164  Biso   1.000  O 
  O6       1.0000 0.30238  0.12957  0.94584  Biso   1.000  O 
  O7       1.0000 0.22414  0.37783  0.02037  Biso   1.000  O 
  O8       1.0000 0.20717  0.37943  0.50568  Biso   1.000  O 
  Hf5      1.0000 0.14124  0.52337  0.28166  Biso   1.000  Hf
  Hf6      1.0000 0.14250  0.72322  0.78810  Biso   1.000  Hf
  Hf7      1.0000 0.36124  0.76862  0.20539  Biso   1.000  Hf
  Hf8      1.0000 0.36111  0.96637  0.69836  Biso   1.000  Hf
  O9       1.0000 0.03035  0.66615  0.14965  Biso   1.000  O 
  O10      1.0000 0.03520  0.58745  0.64625  Biso   1.000  O 
  O11      1.0000 0.47073  0.91119  0.35078  Biso   1.000  O 
  O12      1.0000 0.47340  0.83569  0.84593  Biso   1.000  O 
  O13      1.0000 0.27953  0.62565  0.47627  Biso   1.000  O 
  O14      1.0000 0.28186  0.62074  0.97371  Biso   1.000  O 
  O15      1.0000 0.22256  0.88132  0.01541  Biso   1.000  O 
  O16      1.0000 0.22564  0.86518  0.51406  Biso   1.000  O 
  Hf9      1.0000 0.64109  0.02181  0.29609  Biso   1.000  Hf
  Hf10     1.0000 0.65736  0.22902  0.80615  Biso   1.000  Hf
  Hf11     1.0000 0.86732  0.27278  0.21057  Biso   1.000  Hf
  Hf12     1.0000 0.86825  0.47796  0.70743  Biso   1.000  Hf
  O17      1.0000 0.53633  0.16310  0.15757  Biso   1.000  O 
  O18      1.0000 0.52335  0.10456  0.64628  Biso   1.000  O 
  O19      1.0000 0.96588  0.41887  0.34103  Biso   1.000  O 
  O20      1.0000 0.97225  0.33458  0.84396  Biso   1.000  O 
  O21      1.0000 0.77715  0.12705  0.48853  Biso   1.000  O 
  O22      1.0000 0.78734  0.11797  0.98760  Biso   1.000  O 
  O23      1.0000 0.72618  0.37759  0.02998  Biso   1.000  O 
  O24      1.0000 0.72873  0.37071  0.52653  Biso   1.000  O 
  Hf13     1.0000 0.64003  0.52323  0.29883  Biso   1.000  Hf
  Hf14     1.0000 0.64302  0.72484  0.79240  Biso   1.000  Hf
  Hf15     1.0000 0.85943  0.77117  0.20812  Biso   1.000  Hf
  Hf16     1.0000 0.86772  0.97543  0.71016  Biso   1.000  Hf
  O25      1.0000 0.53465  0.66760  0.15862  Biso   1.000  O 
  O26      1.0000 0.53770  0.58061  0.66062  Biso   1.000  O 
  O27      1.0000 0.96568  0.91299  0.34846  Biso   1.000  O 
  O28      1.0000 0.97223  0.83401  0.84615  Biso   1.000  O 
  O29      1.0000 0.77851  0.62993  0.48184  Biso   1.000  O 
  O30      1.0000 0.78170  0.61963  0.97962  Biso   1.000  O 
  O31      1.0000 0.72233  0.87988  0.02414  Biso   1.000  O 
  O32      1.0000 0.72422  0.87291  0.52575  Biso   1.000  O 
  Be1      1.0000 0.41230  0.21606  0.73278  Biso   1.000  Be
