data_image0
_cell_length_a       10.0302
_cell_length_b       5.12522
_cell_length_c       10.508
_cell_angle_alpha    90
_cell_angle_beta     90
_cell_angle_gamma    90

_symmetry_space_group_name_H-M    "P 1"
_symmetry_int_tables_number       1

loop_
  _symmetry_equiv_pos_as_xyz
  'x, y, z'

loop_
  _atom_site_label
  _atom_site_occupancy
  _atom_site_fract_x
  _atom_site_fract_y
  _atom_site_fract_z
  _atom_site_thermal_displace_type
  _atom_site_B_iso_or_equiv
  _atom_site_type_symbol
  Hf1      1.0000 0.12783  0.04006  0.17203  Biso   1.000  Hf
  Hf2      1.0000 0.12665  0.45081  0.42482  Biso   1.000  Hf
  Hf3      1.0000 0.34444  0.54006  0.17991  Biso   1.000  Hf
  Hf4      1.0000 0.35050  0.95081  0.42593  Biso   1.000  Hf
  Hf5      1.0000 0.64855  0.08629  0.06442  Biso   1.000  Hf
  Hf6      1.0000 0.63059  0.44921  0.33896  Biso   1.000  Hf
  Hf7      1.0000 0.85285  0.53996  0.07192  Biso   1.000  Hf
  Hf8      1.0000 0.85161  0.95031  0.32713  Biso   1.000  Hf
  O1       1.0000 0.03291  0.33498  0.08584  Biso   1.000  O 
  O2       1.0000 0.02378  0.15530  0.33765  Biso   1.000  O 
  O3       1.0000 0.47980  0.79793  0.07840  Biso   1.000  O 
  O4       1.0000 0.45675  0.66623  0.33627  Biso   1.000  O 
  O5       1.0000 0.26516  0.24434  0.29705  Biso   1.000  O 
  O6       1.0000 0.27731  0.24725  0.04850  Biso   1.000  O 
  O7       1.0000 0.21151  0.74444  0.29904  Biso   1.000  O 
  O8       1.0000 0.22520  0.75524  0.05026  Biso   1.000  O 
  O9       1.0000 0.52367  0.34007  0.17173  Biso   1.000  O 
  O10      1.0000 0.52182  0.16615  0.41986  Biso   1.000  O 
  O11      1.0000 0.95394  0.83443  0.16600  Biso   1.000  O 
  O12      1.0000 0.95501  0.65621  0.41469  Biso   1.000  O 
  O13      1.0000 0.76659  0.23774  0.45794  Biso   1.000  O 
  O14      1.0000 0.77261  0.25293  0.21108  Biso   1.000  O 
  O15      1.0000 0.71307  0.74246  0.45352  Biso   1.000  O 
  O16      1.0000 0.70230  0.73777  0.19541  Biso   1.000  O 
  Hf9      1.0000 0.13053  0.03561  0.67211  Biso   1.000  Hf
  Hf10     1.0000 0.12223  0.45116  0.92317  Biso   1.000  Hf
  Hf11     1.0000 0.35225  0.53372  0.67471  Biso   1.000  Hf
  Hf12     1.0000 0.34498  0.94981  0.92242  Biso   1.000  Hf
  Hf13     1.0000 0.62830  0.03848  0.58290  Biso   1.000  Hf
  Hf14     1.0000 0.62836  0.46125  0.83544  Biso   1.000  Hf
  Hf15     1.0000 0.85081  0.53550  0.57965  Biso   1.000  Hf
  Hf16     1.0000 0.85311  0.95326  0.82290  Biso   1.000  Hf
  O17      1.0000 0.02341  0.32588  0.58580  Biso   1.000  O 
  O18      1.0000 0.02664  0.16009  0.83315  Biso   1.000  O 
  O19      1.0000 0.45657  0.82399  0.58499  Biso   1.000  O 
  O20      1.0000 0.45436  0.66667  0.83439  Biso   1.000  O 
  O21      1.0000 0.26693  0.24040  0.79663  Biso   1.000  O 
  O22      1.0000 0.26619  0.24431  0.54676  Biso   1.000  O 
  O23      1.0000 0.21145  0.73991  0.79793  Biso   1.000  O 
  O24      1.0000 0.21407  0.74302  0.54729  Biso   1.000  O 
  O25      1.0000 0.52263  0.32486  0.66912  Biso   1.000  O 
  O26      1.0000 0.51528  0.16017  0.91109  Biso   1.000  O 
  O27      1.0000 0.95917  0.82488  0.66184  Biso   1.000  O 
  O28      1.0000 0.95498  0.66399  0.91525  Biso   1.000  O 
  O29      1.0000 0.78062  0.23930  0.94396  Biso   1.000  O 
  O30      1.0000 0.76613  0.25018  0.70400  Biso   1.000  O 
  O31      1.0000 0.71613  0.77441  0.94650  Biso   1.000  O 
  O32      1.0000 0.71319  0.74674  0.70233  Biso   1.000  O 
  Be1      1.0000 0.59228  0.58117  0.09841  Biso   1.000  Be
