data_image0
_cell_length_a       9.97317
_cell_length_b       10.3636
_cell_length_c       5.04691
_cell_angle_alpha    90
_cell_angle_beta     90
_cell_angle_gamma    90

_symmetry_space_group_name_H-M    "P 1"
_symmetry_int_tables_number       1

loop_
  _symmetry_equiv_pos_as_xyz
  'x, y, z'

loop_
  _atom_site_label
  _atom_site_occupancy
  _atom_site_fract_x
  _atom_site_fract_y
  _atom_site_fract_z
  _atom_site_thermal_displace_type
  _atom_site_B_iso_or_equiv
  _atom_site_type_symbol
  Hf1      1.0000 0.13907  0.02726  0.26293  Biso   1.000  Hf
  Hf2      1.0000 0.14204  0.22618  0.81993  Biso   1.000  Hf
  Hf3      1.0000 0.35950  0.26413  0.25073  Biso   1.000  Hf
  Hf4      1.0000 0.37562  0.48384  0.74273  Biso   1.000  Hf
  O1       1.0000 0.01691  0.17584  0.47254  Biso   1.000  O 
  O2       1.0000 0.03534  0.06333  0.92875  Biso   1.000  O 
  O3       1.0000 0.46506  0.43058  0.38670  Biso   1.000  O 
  O4       1.0000 0.46557  0.31211  0.87759  Biso   1.000  O 
  O5       1.0000 0.27213  0.12088  0.52267  Biso   1.000  O 
  O6       1.0000 0.29278  0.11661  0.00590  Biso   1.000  O 
  O7       1.0000 0.24390  0.38890  0.99486  Biso   1.000  O 
  O8       1.0000 0.21702  0.36405  0.49925  Biso   1.000  O 
  Hf5      1.0000 0.13951  0.52897  0.23658  Biso   1.000  Hf
  Hf6      1.0000 0.13867  0.73631  0.74705  Biso   1.000  Hf
  Hf7      1.0000 0.36979  0.76718  0.24608  Biso   1.000  Hf
  Hf8      1.0000 0.37129  0.97641  0.74956  Biso   1.000  Hf
  O9       1.0000 0.03659  0.68149  0.38647  Biso   1.000  O 
  O10      1.0000 0.04029  0.56678  0.88206  Biso   1.000  O 
  O11      1.0000 0.46770  0.93135  0.38170  Biso   1.000  O 
  O12      1.0000 0.47414  0.81227  0.89016  Biso   1.000  O 
  O13      1.0000 0.27554  0.61769  0.49061  Biso   1.000  O 
  O14      1.0000 0.27636  0.63377  0.98822  Biso   1.000  O 
  O15      1.0000 0.22925  0.88080  0.00214  Biso   1.000  O 
  O16      1.0000 0.23604  0.86671  0.49906  Biso   1.000  O 
  Hf9      1.0000 0.63141  0.01338  0.23348  Biso   1.000  Hf
  Hf10     1.0000 0.63028  0.22840  0.73286  Biso   1.000  Hf
  Hf11     1.0000 0.85429  0.25971  0.23420  Biso   1.000  Hf
  Hf12     1.0000 0.87132  0.47812  0.74818  Biso   1.000  Hf
  O17      1.0000 0.53539  0.18173  0.37319  Biso   1.000  O 
  O18      1.0000 0.54498  0.05905  0.86870  Biso   1.000  O 
  O19      1.0000 0.98253  0.41339  0.37127  Biso   1.000  O 
  O20      1.0000 0.96502  0.31803  0.89309  Biso   1.000  O 
  O21      1.0000 0.76656  0.11095  0.47687  Biso   1.000  O 
  O22      1.0000 0.77197  0.13062  0.97527  Biso   1.000  O 
  O23      1.0000 0.73015  0.37831  0.99071  Biso   1.000  O 
  O24      1.0000 0.73514  0.36575  0.48969  Biso   1.000  O 
  Hf13     1.0000 0.63517  0.51561  0.24716  Biso   1.000  Hf
  Hf14     1.0000 0.64295  0.73117  0.74417  Biso   1.000  Hf
  Hf15     1.0000 0.86931  0.76822  0.24147  Biso   1.000  Hf
  Hf16     1.0000 0.87472  0.98501  0.73614  Biso   1.000  Hf
  O25      1.0000 0.53914  0.68095  0.39045  Biso   1.000  O 
  O26      1.0000 0.54099  0.56397  0.88965  Biso   1.000  O 
  O27      1.0000 0.97287  0.92902  0.39360  Biso   1.000  O 
  O28      1.0000 0.96884  0.81538  0.88304  Biso   1.000  O 
  O29      1.0000 0.77706  0.61217  0.48971  Biso   1.000  O 
  O30      1.0000 0.77648  0.62741  0.99247  Biso   1.000  O 
  O31      1.0000 0.73915  0.88003  0.98763  Biso   1.000  O 
  O32      1.0000 0.73401  0.86408  0.48859  Biso   1.000  O 
  Be1      1.0000 0.09652  0.29035  0.34832  Biso   1.000  Be
