data_image0
_cell_length_a       9.96417
_cell_length_b       10.3541
_cell_length_c       10.0067
_cell_angle_alpha    90
_cell_angle_beta     90
_cell_angle_gamma    90

_symmetry_space_group_name_H-M    "P 1"
_symmetry_int_tables_number       1

loop_
  _symmetry_equiv_pos_as_xyz
  'x, y, z'

loop_
  _atom_site_label
  _atom_site_occupancy
  _atom_site_fract_x
  _atom_site_fract_y
  _atom_site_fract_z
  _atom_site_thermal_displace_type
  _atom_site_B_iso_or_equiv
  _atom_site_type_symbol
  Be1      1.0000 0.07084  0.94548  0.04693  Biso   1.000  Be
  Hf1      1.0000 0.13933  0.01774  0.63128  Biso   1.000  Hf
  Hf2      1.0000 0.13692  0.51661  0.12786  Biso   1.000  Hf
  Hf3      1.0000 0.13839  0.51616  0.62749  Biso   1.000  Hf
  Hf4      1.0000 0.63370  0.01708  0.12266  Biso   1.000  Hf
  Hf5      1.0000 0.63520  0.01562  0.62018  Biso   1.000  Hf
  Hf6      1.0000 0.63360  0.51737  0.12705  Biso   1.000  Hf
  Hf7      1.0000 0.63809  0.51730  0.62609  Biso   1.000  Hf
  Hf8      1.0000 0.13942  0.23133  0.37562  Biso   1.000  Hf
  Hf9      1.0000 0.14040  0.23036  0.88371  Biso   1.000  Hf
  Hf10     1.0000 0.13984  0.73471  0.37909  Biso   1.000  Hf
  Hf11     1.0000 0.14295  0.73112  0.87743  Biso   1.000  Hf
  Hf12     1.0000 0.63569  0.23332  0.37445  Biso   1.000  Hf
  Hf13     1.0000 0.63766  0.23424  0.87320  Biso   1.000  Hf
  Hf14     1.0000 0.63662  0.73692  0.37625  Biso   1.000  Hf
  Hf15     1.0000 0.63694  0.73555  0.87545  Biso   1.000  Hf
  Hf16     1.0000 0.36391  0.26505  0.12906  Biso   1.000  Hf
  Hf17     1.0000 0.36941  0.26765  0.62790  Biso   1.000  Hf
  Hf18     1.0000 0.36383  0.76762  0.12908  Biso   1.000  Hf
  Hf19     1.0000 0.37054  0.77012  0.62876  Biso   1.000  Hf
  Hf20     1.0000 0.86333  0.26554  0.12415  Biso   1.000  Hf
  Hf21     1.0000 0.87126  0.26624  0.62473  Biso   1.000  Hf
  Hf22     1.0000 0.86480  0.76643  0.12638  Biso   1.000  Hf
  Hf23     1.0000 0.87083  0.76771  0.62262  Biso   1.000  Hf
  Hf24     1.0000 0.36905  0.48422  0.37787  Biso   1.000  Hf
  Hf25     1.0000 0.37160  0.48341  0.87717  Biso   1.000  Hf
  Hf26     1.0000 0.36225  0.98397  0.37256  Biso   1.000  Hf
  Hf27     1.0000 0.36504  0.98496  0.88521  Biso   1.000  Hf
  Hf28     1.0000 0.86841  0.48441  0.37789  Biso   1.000  Hf
  Hf29     1.0000 0.87118  0.48480  0.87549  Biso   1.000  Hf
  Hf30     1.0000 0.87691  0.98809  0.36698  Biso   1.000  Hf
  Hf31     1.0000 0.86620  0.98783  0.87005  Biso   1.000  Hf
  O1       1.0000 0.02465  0.19432  0.21171  Biso   1.000  O 
  O2       1.0000 0.03853  0.18363  0.70169  Biso   1.000  O 
  O3       1.0000 0.03512  0.68407  0.19802  Biso   1.000  O 
  O4       1.0000 0.03975  0.68535  0.69693  Biso   1.000  O 
  O5       1.0000 0.54143  0.18734  0.18952  Biso   1.000  O 
  O6       1.0000 0.54120  0.18586  0.69154  Biso   1.000  O 
  O7       1.0000 0.53664  0.68567  0.19729  Biso   1.000  O 
  O8       1.0000 0.53951  0.68438  0.69652  Biso   1.000  O 
  O9       1.0000 0.03931  0.06809  0.45272  Biso   1.000  O 
  O10      1.0000 0.04174  0.06121  0.94411  Biso   1.000  O 
  O11      1.0000 0.03820  0.56635  0.44818  Biso   1.000  O 
  O12      1.0000 0.03962  0.56906  0.94764  Biso   1.000  O 
  O13      1.0000 0.53840  0.06648  0.44161  Biso   1.000  O 
  O14      1.0000 0.54351  0.06579  0.94199  Biso   1.000  O 
  O15      1.0000 0.53935  0.56820  0.44543  Biso   1.000  O 
  O16      1.0000 0.54132  0.56821  0.94639  Biso   1.000  O 
  O17      1.0000 0.46558  0.43448  0.19656  Biso   1.000  O 
  O18      1.0000 0.46828  0.43548  0.69557  Biso   1.000  O 
  O19      1.0000 0.46759  0.93462  0.19510  Biso   1.000  O 
  O20      1.0000 0.46797  0.93603  0.69956  Biso   1.000  O 
  O21      1.0000 0.96580  0.43493  0.19604  Biso   1.000  O 
  O22      1.0000 0.96852  0.43484  0.69627  Biso   1.000  O 
  O23      1.0000 0.97755  0.93516  0.18239  Biso   1.000  O 
  O24      1.0000 0.96814  0.93297  0.69519  Biso   1.000  O 
  O25      1.0000 0.46792  0.31725  0.44618  Biso   1.000  O 
  O26      1.0000 0.47098  0.31822  0.94341  Biso   1.000  O 
  O27      1.0000 0.47161  0.82024  0.45239  Biso   1.000  O 
  O28      1.0000 0.46613  0.81820  0.94666  Biso   1.000  O 
  O29      1.0000 0.97042  0.32066  0.44967  Biso   1.000  O 
  O30      1.0000 0.97082  0.31778  0.94697  Biso   1.000  O 
  O31      1.0000 0.96815  0.81838  0.44105  Biso   1.000  O 
  O32      1.0000 0.97941  0.82710  0.95363  Biso   1.000  O 
  O33      1.0000 0.28557  0.13103  0.26000  Biso   1.000  O 
  O34      1.0000 0.27661  0.11915  0.75317  Biso   1.000  O 
  O35      1.0000 0.27132  0.61430  0.25068  Biso   1.000  O 
  O36      1.0000 0.27504  0.61822  0.75126  Biso   1.000  O 
  O37      1.0000 0.76999  0.11524  0.24510  Biso   1.000  O 
  O38      1.0000 0.77247  0.11675  0.74427  Biso   1.000  O 
  O39      1.0000 0.77219  0.61691  0.24932  Biso   1.000  O 
  O40      1.0000 0.77455  0.61832  0.74937  Biso   1.000  O 
  O41      1.0000 0.27466  0.13103  0.50545  Biso   1.000  O 
  O42      1.0000 0.28604  0.13755  0.99764  Biso   1.000  O 
  O43      1.0000 0.27559  0.63340  0.50198  Biso   1.000  O 
  O44      1.0000 0.27093  0.63120  0.00121  Biso   1.000  O 
  O45      1.0000 0.77591  0.13521  0.49434  Biso   1.000  O 
  O46      1.0000 0.77744  0.13474  0.99452  Biso   1.000  O 
  O47      1.0000 0.77287  0.63457  0.49902  Biso   1.000  O 
  O48      1.0000 0.77680  0.63625  0.99855  Biso   1.000  O 
  O49      1.0000 0.23433  0.38284  0.50224  Biso   1.000  O 
  O50      1.0000 0.22886  0.38262  0.00231  Biso   1.000  O 
  O51      1.0000 0.23108  0.88298  0.50625  Biso   1.000  O 
  O52      1.0000 0.21654  0.88109  0.00856  Biso   1.000  O 
  O53      1.0000 0.73267  0.38388  0.49971  Biso   1.000  O 
  O54      1.0000 0.73452  0.38550  0.99875  Biso   1.000  O 
  O55      1.0000 0.73818  0.88689  0.49523  Biso   1.000  O 
  O56      1.0000 0.73665  0.88325  0.99632  Biso   1.000  O 
  O57      1.0000 0.22811  0.37133  0.25168  Biso   1.000  O 
  O58      1.0000 0.23316  0.36748  0.75339  Biso   1.000  O 
  O59      1.0000 0.24556  0.85587  0.26296  Biso   1.000  O 
  O60      1.0000 0.23414  0.86971  0.75545  Biso   1.000  O 
  O61      1.0000 0.73207  0.36815  0.25003  Biso   1.000  O 
  O62      1.0000 0.73523  0.36782  0.74904  Biso   1.000  O 
  O63      1.0000 0.73496  0.86792  0.24712  Biso   1.000  O 
  O64      1.0000 0.73388  0.86672  0.74649  Biso   1.000  O 
