data_image0
_cell_length_a       10.0648
_cell_length_b       5.15627
_cell_length_c       10.0647
_cell_angle_alpha    90
_cell_angle_beta     90
_cell_angle_gamma    90

_symmetry_space_group_name_H-M    "P 1"
_symmetry_int_tables_number       1

loop_
  _symmetry_equiv_pos_as_xyz
  'x, y, z'

loop_
  _atom_site_label
  _atom_site_occupancy
  _atom_site_fract_x
  _atom_site_fract_y
  _atom_site_fract_z
  _atom_site_thermal_displace_type
  _atom_site_B_iso_or_equiv
  _atom_site_type_symbol
  Hf1      1.0000 0.11954  0.01145  0.11885  Biso   1.000  Hf
  Hf2      1.0000 0.15578  0.53104  0.38788  Biso   1.000  Hf
  Hf3      1.0000 0.39136  0.52660  0.15092  Biso   1.000  Hf
  Hf4      1.0000 0.39517  0.95758  0.38818  Biso   1.000  Hf
  O1       1.0000 0.02506  0.35743  0.02317  Biso   1.000  O 
  O2       1.0000 0.97765  0.18432  0.23965  Biso   1.000  O 
  O3       1.0000 0.03330  0.66999  0.22288  Biso   1.000  O 
  O4       1.0000 0.99921  0.85361  0.98963  Biso   1.000  O 
  O5       1.0000 0.21805  0.33889  0.21515  Biso   1.000  O 
  O6       1.0000 0.24606  0.19840  0.97530  Biso   1.000  O 
  O7       1.0000 0.22627  0.66631  0.02874  Biso   1.000  O 
  O8       1.0000 0.26152  0.83670  0.25592  Biso   1.000  O 
  Hf5      1.0000 0.12803  0.02518  0.62528  Biso   1.000  Hf
  Hf6      1.0000 0.13573  0.51940  0.85888  Biso   1.000  Hf
  Hf7      1.0000 0.38976  0.48803  0.60956  Biso   1.000  Hf
  Hf8      1.0000 0.38717  0.01350  0.87355  Biso   1.000  Hf
  O9       1.0000 0.01471  0.31317  0.50618  Biso   1.000  O 
  O10      1.0000 0.00305  0.23262  0.76312  Biso   1.000  O 
  O11      1.0000 0.00562  0.72974  0.73188  Biso   1.000  O 
  O12      1.0000 0.02001  0.81298  0.48023  Biso   1.000  O 
  O13      1.0000 0.25003  0.31564  0.72786  Biso   1.000  O 
  O14      1.0000 0.25848  0.22139  0.48428  Biso   1.000  O 
  O15      1.0000 0.25757  0.74829  0.52870  Biso   1.000  O 
  O16      1.0000 0.24381  0.82316  0.77503  Biso   1.000  O 
  Hf9      1.0000 0.62606  0.01573  0.12437  Biso   1.000  Hf
  Hf10     1.0000 0.61421  0.48374  0.38384  Biso   1.000  Hf
  Hf11     1.0000 0.86217  0.50565  0.12822  Biso   1.000  Hf
  Hf12     1.0000 0.88077  0.00388  0.37722  Biso   1.000  Hf
  O17      1.0000 0.50775  0.30388  0.01026  Biso   1.000  O 
  O18      1.0000 0.48680  0.21707  0.25462  Biso   1.000  O 
  O19      1.0000 0.53382  0.74304  0.25086  Biso   1.000  O 
  O20      1.0000 0.48420  0.80431  0.01334  Biso   1.000  O 
  O21      1.0000 0.73078  0.30653  0.24425  Biso   1.000  O 
  O22      1.0000 0.76990  0.23728  0.99747  Biso   1.000  O 
  O23      1.0000 0.74103  0.73499  0.99781  Biso   1.000  O 
  O24      1.0000 0.78043  0.81294  0.23533  Biso   1.000  O 
  Hf13     1.0000 0.63779  0.00250  0.62919  Biso   1.000  Hf
  Hf14     1.0000 0.62808  0.50860  0.87358  Biso   1.000  Hf
  Hf15     1.0000 0.87974  0.50381  0.62055  Biso   1.000  Hf
  Hf16     1.0000 0.87485  0.00715  0.86494  Biso   1.000  Hf
  O25      1.0000 0.51198  0.24279  0.50785  Biso   1.000  O 
  O26      1.0000 0.50699  0.21361  0.75397  Biso   1.000  O 
  O27      1.0000 0.49993  0.71026  0.75614  Biso   1.000  O 
  O28      1.0000 0.52175  0.76153  0.51501  Biso   1.000  O 
  O29      1.0000 0.75071  0.29544  0.74494  Biso   1.000  O 
  O30      1.0000 0.75792  0.20874  0.50160  Biso   1.000  O 
  O31      1.0000 0.76246  0.70513  0.49211  Biso   1.000  O 
  O32      1.0000 0.75665  0.78365  0.74848  Biso   1.000  O 
  Be1      1.0000 0.12469  0.50953  0.12151  Biso   1.000  Be
