data_image0
_cell_length_a       10.1821
_cell_length_b       5.12877
_cell_length_c       10.5389
_cell_angle_alpha    90
_cell_angle_beta     80
_cell_angle_gamma    90

_symmetry_space_group_name_H-M    "P 1"
_symmetry_int_tables_number       1

loop_
  _symmetry_equiv_pos_as_xyz
  'x, y, z'

loop_
  _atom_site_label
  _atom_site_occupancy
  _atom_site_fract_x
  _atom_site_fract_y
  _atom_site_fract_z
  _atom_site_thermal_displace_type
  _atom_site_B_iso_or_equiv
  _atom_site_type_symbol
  Hf1      1.0000 0.13470  0.04403  0.13834  Biso   1.000  Hf
  Hf2      1.0000 0.14975  0.45747  0.38802  Biso   1.000  Hf
  Hf3      1.0000 0.35704  0.53617  0.11087  Biso   1.000  Hf
  Hf4      1.0000 0.35458  0.91445  0.34036  Biso   1.000  Hf
  O1       1.0000 0.02868  0.33972  0.07508  Biso   1.000  O 
  O2       1.0000 0.03547  0.17506  0.32302  Biso   1.000  O 
  O3       1.0000 0.46855  0.83551  0.16787  Biso   1.000  O 
  O4       1.0000 0.47770  0.65776  0.42629  Biso   1.000  O 
  O5       1.0000 0.27266  0.22568  0.23254  Biso   1.000  O 
  O6       1.0000 0.30059  0.25872  0.47606  Biso   1.000  O 
  O7       1.0000 0.22204  0.75632  0.00690  Biso   1.000  O 
  O8       1.0000 0.20254  0.74675  0.24878  Biso   1.000  O 
  Hf5      1.0000 0.14927  0.04636  0.64394  Biso   1.000  Hf
  Hf6      1.0000 0.14917  0.46085  0.89431  Biso   1.000  Hf
  Hf7      1.0000 0.37134  0.54839  0.61154  Biso   1.000  Hf
  Hf8      1.0000 0.37348  0.95582  0.85549  Biso   1.000  Hf
  O9       1.0000 0.04933  0.33188  0.57305  Biso   1.000  O 
  O10      1.0000 0.04579  0.16975  0.82454  Biso   1.000  O 
  O11      1.0000 0.47854  0.83164  0.67444  Biso   1.000  O 
  O12      1.0000 0.47817  0.67031  0.92340  Biso   1.000  O 
  O13      1.0000 0.28698  0.25785  0.73666  Biso   1.000  O 
  O14      1.0000 0.28672  0.24522  0.98515  Biso   1.000  O 
  O15      1.0000 0.23218  0.75934  0.51136  Biso   1.000  O 
  O16      1.0000 0.23548  0.74714  0.75935  Biso   1.000  O 
  Hf9      1.0000 0.63857  0.04893  0.14722  Biso   1.000  Hf
  Hf10     1.0000 0.65646  0.45783  0.40198  Biso   1.000  Hf
  Hf11     1.0000 0.85766  0.54736  0.10468  Biso   1.000  Hf
  Hf12     1.0000 0.87001  0.95583  0.35364  Biso   1.000  Hf
  O17      1.0000 0.53286  0.33300  0.07863  Biso   1.000  O 
  O18      1.0000 0.52311  0.20098  0.32471  Biso   1.000  O 
  O19      1.0000 0.95884  0.84035  0.16949  Biso   1.000  O 
  O20      1.0000 0.97299  0.67113  0.42295  Biso   1.000  O 
  O21      1.0000 0.77441  0.26020  0.24390  Biso   1.000  O 
  O22      1.0000 0.78771  0.23910  0.49255  Biso   1.000  O 
  O23      1.0000 0.72112  0.76273  0.01238  Biso   1.000  O 
  O24      1.0000 0.72203  0.74865  0.26490  Biso   1.000  O 
  Hf13     1.0000 0.65072  0.04481  0.64860  Biso   1.000  Hf
  Hf14     1.0000 0.64893  0.46080  0.89644  Biso   1.000  Hf
  Hf15     1.0000 0.87594  0.54491  0.60411  Biso   1.000  Hf
  Hf16     1.0000 0.87256  0.96042  0.85374  Biso   1.000  Hf
  O25      1.0000 0.54490  0.33056  0.57933  Biso   1.000  O 
  O26      1.0000 0.54615  0.17028  0.82771  Biso   1.000  O 
  O27      1.0000 0.97870  0.83293  0.67248  Biso   1.000  O 
  O28      1.0000 0.97616  0.67070  0.91998  Biso   1.000  O 
  O29      1.0000 0.78850  0.26031  0.74002  Biso   1.000  O 
  O30      1.0000 0.78756  0.24524  0.99002  Biso   1.000  O 
  O31      1.0000 0.73341  0.75391  0.51282  Biso   1.000  O 
  O32      1.0000 0.73701  0.74552  0.76022  Biso   1.000  O 
  Be1      1.0000 0.41015  0.41666  0.36419  Biso   1.000  Be
