data_image0
_cell_length_a       10.0588
_cell_length_b       10.6231
_cell_length_c       5.1109
_cell_angle_alpha    90
_cell_angle_beta     90
_cell_angle_gamma    90

_symmetry_space_group_name_H-M    "P 1"
_symmetry_int_tables_number       1

loop_
  _symmetry_equiv_pos_as_xyz
  'x, y, z'

loop_
  _atom_site_label
  _atom_site_occupancy
  _atom_site_fract_x
  _atom_site_fract_y
  _atom_site_fract_z
  _atom_site_thermal_displace_type
  _atom_site_B_iso_or_equiv
  _atom_site_type_symbol
  Hf1      1.0000 0.09295  0.97663  0.21963  Biso   1.000  Hf
  Hf2      1.0000 0.12523  0.20455  0.62277  Biso   1.000  Hf
  Hf3      1.0000 0.36579  0.26697  0.21414  Biso   1.000  Hf
  Hf4      1.0000 0.35874  0.48933  0.72028  Biso   1.000  Hf
  O1       1.0000 0.99737  0.13688  0.32927  Biso   1.000  O 
  O2       1.0000 0.02203  0.07442  0.86072  Biso   1.000  O 
  O3       1.0000 0.45797  0.43020  0.39159  Biso   1.000  O 
  O4       1.0000 0.46166  0.33604  0.90750  Biso   1.000  O 
  O5       1.0000 0.25481  0.09644  0.40110  Biso   1.000  O 
  O6       1.0000 0.28474  0.16200  0.87865  Biso   1.000  O 
  O7       1.0000 0.26260  0.43321  0.04261  Biso   1.000  O 
  O8       1.0000 0.22210  0.36662  0.52381  Biso   1.000  O 
  Hf5      1.0000 0.11508  0.54272  0.27534  Biso   1.000  Hf
  Hf6      1.0000 0.10239  0.76051  0.75613  Biso   1.000  Hf
  Hf7      1.0000 0.35750  0.77571  0.25251  Biso   1.000  Hf
  Hf8      1.0000 0.34720  0.00122  0.72407  Biso   1.000  Hf
  O9       1.0000 0.00943  0.68999  0.42785  Biso   1.000  O 
  O10      1.0000 0.00200  0.58685  0.90026  Biso   1.000  O 
  O11      1.0000 0.45636  0.93320  0.40143  Biso   1.000  O 
  O12      1.0000 0.44022  0.83466  0.90538  Biso   1.000  O 
  O13      1.0000 0.24502  0.62501  0.55000  Biso   1.000  O 
  O14      1.0000 0.22710  0.66994  0.05759  Biso   1.000  O 
  O15      1.0000 0.21145  0.91648  0.97286  Biso   1.000  O 
  O16      1.0000 0.21435  0.86418  0.48503  Biso   1.000  O 
  Hf9      1.0000 0.63142  0.02137  0.26380  Biso   1.000  Hf
  Hf10     1.0000 0.61787  0.24250  0.77136  Biso   1.000  Hf
  Hf11     1.0000 0.83814  0.27856  0.31665  Biso   1.000  Hf
  Hf12     1.0000 0.84925  0.49520  0.74164  Biso   1.000  Hf
  O17      1.0000 0.51755  0.18076  0.41277  Biso   1.000  O 
  O18      1.0000 0.52498  0.07792  0.90562  Biso   1.000  O 
  O19      1.0000 0.92074  0.47528  0.36995  Biso   1.000  O 
  O20      1.0000 0.94006  0.30796  0.67164  Biso   1.000  O 
  O21      1.0000 0.75131  0.12206  0.53417  Biso   1.000  O 
  O22      1.0000 0.77065  0.14122  0.03669  Biso   1.000  O 
  O23      1.0000 0.74099  0.38417  0.01467  Biso   1.000  O 
  O24      1.0000 0.69714  0.37837  0.51827  Biso   1.000  O 
  Hf13     1.0000 0.62381  0.52005  0.25660  Biso   1.000  Hf
  Hf14     1.0000 0.60056  0.74528  0.76422  Biso   1.000  Hf
  Hf15     1.0000 0.83964  0.76692  0.28967  Biso   1.000  Hf
  Hf16     1.0000 0.83360  0.99398  0.77258  Biso   1.000  Hf
  O25      1.0000 0.51102  0.67913  0.41431  Biso   1.000  O 
  O26      1.0000 0.50129  0.58631  0.91453  Biso   1.000  O 
  O27      1.0000 0.95103  0.91285  0.48108  Biso   1.000  O 
  O28      1.0000 0.95443  0.84942  0.99283  Biso   1.000  O 
  O29      1.0000 0.74064  0.62732  0.53248  Biso   1.000  O 
  O30      1.0000 0.75232  0.64369  0.02608  Biso   1.000  O 
  O31      1.0000 0.72693  0.88812  0.03205  Biso   1.000  O 
  O32      1.0000 0.70873  0.87392  0.52800  Biso   1.000  O 
  Bi1      1.0000 0.08454  0.29463  0.07453  Biso   1.000  Bi
