data_image0
_cell_length_a       10.1877
_cell_length_b       5.25306
_cell_length_c       10.2714
_cell_angle_alpha    80
_cell_angle_beta     90
_cell_angle_gamma    90

_symmetry_space_group_name_H-M    "P 1"
_symmetry_int_tables_number       1

loop_
  _symmetry_equiv_pos_as_xyz
  'x, y, z'

loop_
  _atom_site_label
  _atom_site_occupancy
  _atom_site_fract_x
  _atom_site_fract_y
  _atom_site_fract_z
  _atom_site_thermal_displace_type
  _atom_site_B_iso_or_equiv
  _atom_site_type_symbol
  Hf1      1.0000 0.11239  0.94350  0.10620  Biso   1.000  Hf
  Hf2      1.0000 0.08485  0.45187  0.40418  Biso   1.000  Hf
  Hf3      1.0000 0.33079  0.47276  0.13082  Biso   1.000  Hf
  Hf4      1.0000 0.34392  0.93840  0.35448  Biso   1.000  Hf
  O1       1.0000 0.93562  0.37546  0.27827  Biso   1.000  O 
  O2       1.0000 0.02739  0.08118  0.45326  Biso   1.000  O 
  O3       1.0000 0.41734  0.82532  0.18070  Biso   1.000  O 
  O4       1.0000 0.43442  0.59049  0.44495  Biso   1.000  O 
  O5       1.0000 0.23012  0.14492  0.23745  Biso   1.000  O 
  O6       1.0000 0.24793  0.22982  0.49453  Biso   1.000  O 
  O7       1.0000 0.20498  0.73072  0.49201  Biso   1.000  O 
  O8       1.0000 0.18757  0.63640  0.24140  Biso   1.000  O 
  Hf5      1.0000 0.12714  0.93861  0.61800  Biso   1.000  Hf
  Hf6      1.0000 0.11788  0.29992  0.84946  Biso   1.000  Hf
  Hf7      1.0000 0.33623  0.44672  0.61393  Biso   1.000  Hf
  Hf8      1.0000 0.31170  0.80779  0.88353  Biso   1.000  Hf
  O9       1.0000 0.03714  0.28681  0.66041  Biso   1.000  O 
  O10      1.0000 0.02733  0.93265  0.91408  Biso   1.000  O 
  O11      1.0000 0.44758  0.69956  0.73369  Biso   1.000  O 
  O12      1.0000 0.40464  0.46955  0.96908  Biso   1.000  O 
  O13      1.0000 0.25751  0.11056  0.74608  Biso   1.000  O 
  O14      1.0000 0.24111  0.07017  0.00139  Biso   1.000  O 
  O15      1.0000 0.16965  0.57513  0.99301  Biso   1.000  O 
  O16      1.0000 0.20547  0.61969  0.74101  Biso   1.000  O 
  Hf9      1.0000 0.61448  0.06644  0.12768  Biso   1.000  Hf
  Hf10     1.0000 0.60287  0.41430  0.41114  Biso   1.000  Hf
  Hf11     1.0000 0.78627  0.59806  0.16827  Biso   1.000  Hf
  Hf12     1.0000 0.85971  0.98131  0.38380  Biso   1.000  Hf
  O17      1.0000 0.47686  0.28327  0.23673  Biso   1.000  O 
  O18      1.0000 0.51501  0.06078  0.47237  Biso   1.000  O 
  O19      1.0000 0.92675  0.89146  0.21455  Biso   1.000  O 
  O20      1.0000 0.92965  0.62260  0.47001  Biso   1.000  O 
  O21      1.0000 0.71270  0.23902  0.27320  Biso   1.000  O 
  O22      1.0000 0.75580  0.20882  0.52060  Biso   1.000  O 
  O23      1.0000 0.69383  0.69614  0.52232  Biso   1.000  O 
  O24      1.0000 0.66047  0.75638  0.27646  Biso   1.000  O 
  Hf13     1.0000 0.63064  0.92833  0.64272  Biso   1.000  Hf
  Hf14     1.0000 0.55251  0.36014  0.86175  Biso   1.000  Hf
  Hf15     1.0000 0.84732  0.45015  0.64984  Biso   1.000  Hf
  Hf16     1.0000 0.82386  0.79697  0.87171  Biso   1.000  Hf
  O25      1.0000 0.50870  0.24955  0.68209  Biso   1.000  O 
  O26      1.0000 0.49647  0.99180  0.94497  Biso   1.000  O 
  O27      1.0000 0.91537  0.80725  0.68225  Biso   1.000  O 
  O28      1.0000 0.92945  0.43538  0.85534  Biso   1.000  O 
  O29      1.0000 0.74663  0.10188  0.77355  Biso   1.000  O 
  O30      1.0000 0.69021  0.42305  0.03136  Biso   1.000  O 
  O31      1.0000 0.73998  0.91515  0.02528  Biso   1.000  O 
  O32      1.0000 0.69489  0.60103  0.77066  Biso   1.000  O 
  Bi1      1.0000 0.99033  0.39927  0.06437  Biso   1.000  Bi
