data_image0
_cell_length_a       10.0035
_cell_length_b       10.4099
_cell_length_c       5.02062
_cell_angle_alpha    90
_cell_angle_beta     90
_cell_angle_gamma    90

_symmetry_space_group_name_H-M    "P 1"
_symmetry_int_tables_number       1

loop_
  _symmetry_equiv_pos_as_xyz
  'x, y, z'

loop_
  _atom_site_label
  _atom_site_occupancy
  _atom_site_fract_x
  _atom_site_fract_y
  _atom_site_fract_z
  _atom_site_thermal_displace_type
  _atom_site_B_iso_or_equiv
  _atom_site_type_symbol
  Bi1      1.0000 0.12788  0.01489  0.24548  Biso   1.000  Bi
  Hf1      1.0000 0.13591  0.23709  0.74932  Biso   1.000  Hf
  Hf2      1.0000 0.36777  0.26755  0.25280  Biso   1.000  Hf
  Hf3      1.0000 0.36659  0.48328  0.75275  Biso   1.000  Hf
  O1       1.0000 0.03527  0.19485  0.38742  Biso   1.000  O 
  O2       1.0000 0.03452  0.06761  0.85364  Biso   1.000  O 
  O3       1.0000 0.46540  0.43364  0.39137  Biso   1.000  O 
  O4       1.0000 0.46476  0.31565  0.88860  Biso   1.000  O 
  O5       1.0000 0.27849  0.12426  0.50764  Biso   1.000  O 
  O6       1.0000 0.27342  0.13448  0.99267  Biso   1.000  O 
  O7       1.0000 0.23061  0.38303  0.99997  Biso   1.000  O 
  O8       1.0000 0.23039  0.36953  0.49846  Biso   1.000  O 
  Hf4      1.0000 0.13408  0.51650  0.25224  Biso   1.000  Hf
  Hf5      1.0000 0.13469  0.73141  0.75324  Biso   1.000  Hf
  Hf6      1.0000 0.36947  0.76366  0.25160  Biso   1.000  Hf
  Hf7      1.0000 0.37007  0.98308  0.74874  Biso   1.000  Hf
  O9       1.0000 0.03729  0.68581  0.38855  Biso   1.000  O 
  O10      1.0000 0.03579  0.56572  0.89052  Biso   1.000  O 
  O11      1.0000 0.46562  0.93406  0.38672  Biso   1.000  O 
  O12      1.0000 0.46802  0.81555  0.89274  Biso   1.000  O 
  O13      1.0000 0.27057  0.61488  0.49972  Biso   1.000  O 
  O14      1.0000 0.27136  0.63120  0.00055  Biso   1.000  O 
  O15      1.0000 0.23656  0.87623  0.99111  Biso   1.000  O 
  O16      1.0000 0.23851  0.85984  0.50788  Biso   1.000  O 
  Hf8      1.0000 0.63403  0.01611  0.25322  Biso   1.000  Hf
  Hf9      1.0000 0.63394  0.23280  0.75182  Biso   1.000  Hf
  Hf10     1.0000 0.86334  0.26840  0.25114  Biso   1.000  Hf
  Hf11     1.0000 0.86686  0.48249  0.75278  Biso   1.000  Hf
  O17      1.0000 0.53819  0.18476  0.38618  Biso   1.000  O 
  O18      1.0000 0.53868  0.06469  0.88715  Biso   1.000  O 
  O19      1.0000 0.96322  0.43626  0.39045  Biso   1.000  O 
  O20      1.0000 0.96455  0.31729  0.89220  Biso   1.000  O 
  O21      1.0000 0.76910  0.11777  0.50233  Biso   1.000  O 
  O22      1.0000 0.77138  0.13197  0.00211  Biso   1.000  O 
  O23      1.0000 0.72922  0.38172  0.99979  Biso   1.000  O 
  O24      1.0000 0.72949  0.36778  0.50130  Biso   1.000  O 
  Hf12     1.0000 0.63428  0.51543  0.25315  Biso   1.000  Hf
  Hf13     1.0000 0.63436  0.73162  0.75420  Biso   1.000  Hf
  Hf14     1.0000 0.86454  0.76274  0.25169  Biso   1.000  Hf
  Hf15     1.0000 0.86157  0.98162  0.75528  Biso   1.000  Hf
  O25      1.0000 0.53740  0.68209  0.39321  Biso   1.000  O 
  O26      1.0000 0.53559  0.56526  0.89354  Biso   1.000  O 
  O27      1.0000 0.94780  0.93297  0.38655  Biso   1.000  O 
  O28      1.0000 0.96635  0.81713  0.89416  Biso   1.000  O 
  O29      1.0000 0.77095  0.61634  0.49972  Biso   1.000  O 
  O30      1.0000 0.77030  0.63015  0.99863  Biso   1.000  O 
  O31      1.0000 0.72937  0.87988  0.00384  Biso   1.000  O 
  O32      1.0000 0.72727  0.86595  0.50337  Biso   1.000  O 
