data_image0
_cell_length_a       10.0753
_cell_length_b       5.13927
_cell_length_c       10.4913
_cell_angle_alpha    90
_cell_angle_beta     90
_cell_angle_gamma    90

_symmetry_space_group_name_H-M    "P 1"
_symmetry_int_tables_number       1

loop_
  _symmetry_equiv_pos_as_xyz
  'x, y, z'

loop_
  _atom_site_label
  _atom_site_occupancy
  _atom_site_fract_x
  _atom_site_fract_y
  _atom_site_fract_z
  _atom_site_thermal_displace_type
  _atom_site_B_iso_or_equiv
  _atom_site_type_symbol
  Bi1      1.0000 0.13283  0.03543  0.17048  Biso   1.000  Bi
  Hf1      1.0000 0.13727  0.45837  0.42404  Biso   1.000  Hf
  Hf2      1.0000 0.36376  0.53918  0.16993  Biso   1.000  Hf
  Hf3      1.0000 0.36199  0.95770  0.42228  Biso   1.000  Hf
  Hf4      1.0000 0.63853  0.04054  0.07889  Biso   1.000  Hf
  Hf5      1.0000 0.63689  0.45873  0.32949  Biso   1.000  Hf
  Hf6      1.0000 0.85595  0.53877  0.07671  Biso   1.000  Hf
  Hf7      1.0000 0.85430  0.95906  0.33266  Biso   1.000  Hf
  O1       1.0000 0.03364  0.35734  0.08126  Biso   1.000  O 
  O2       1.0000 0.02705  0.17000  0.34186  Biso   1.000  O 
  O3       1.0000 0.46846  0.83141  0.08282  Biso   1.000  O 
  O4       1.0000 0.46860  0.67363  0.33245  Biso   1.000  O 
  O5       1.0000 0.27993  0.25258  0.30031  Biso   1.000  O 
  O6       1.0000 0.28217  0.25960  0.03773  Biso   1.000  O 
  O7       1.0000 0.22746  0.73455  0.29759  Biso   1.000  O 
  O8       1.0000 0.23325  0.73818  0.03762  Biso   1.000  O 
  O9       1.0000 0.53369  0.32881  0.16701  Biso   1.000  O 
  O10      1.0000 0.53227  0.17038  0.41800  Biso   1.000  O 
  O11      1.0000 0.94765  0.84047  0.16478  Biso   1.000  O 
  O12      1.0000 0.96466  0.67047  0.41631  Biso   1.000  O 
  O13      1.0000 0.77372  0.24998  0.45707  Biso   1.000  O 
  O14      1.0000 0.77457  0.25471  0.20644  Biso   1.000  O 
  O15      1.0000 0.72148  0.74878  0.45687  Biso   1.000  O 
  O16      1.0000 0.71816  0.75290  0.20701  Biso   1.000  O 
  Hf8      1.0000 0.13695  0.04326  0.67113  Biso   1.000  Hf
  Hf9      1.0000 0.13722  0.46266  0.91724  Biso   1.000  Hf
  Hf10     1.0000 0.35962  0.54285  0.67076  Biso   1.000  Hf
  Hf11     1.0000 0.36149  0.96016  0.91910  Biso   1.000  Hf
  Hf12     1.0000 0.63673  0.04403  0.58004  Biso   1.000  Hf
  Hf13     1.0000 0.63651  0.45974  0.82761  Biso   1.000  Hf
  Hf14     1.0000 0.86033  0.54482  0.57940  Biso   1.000  Hf
  Hf15     1.0000 0.85979  0.96025  0.82846  Biso   1.000  Hf
  O17      1.0000 0.03237  0.33888  0.58765  Biso   1.000  O 
  O18      1.0000 0.03243  0.16546  0.83512  Biso   1.000  O 
  O19      1.0000 0.46615  0.83141  0.58387  Biso   1.000  O 
  O20      1.0000 0.46588  0.67083  0.83160  Biso   1.000  O 
  O21      1.0000 0.27435  0.24944  0.79249  Biso   1.000  O 
  O22      1.0000 0.27428  0.25195  0.54577  Biso   1.000  O 
  O23      1.0000 0.22263  0.75023  0.79217  Biso   1.000  O 
  O24      1.0000 0.22290  0.75382  0.54494  Biso   1.000  O 
  O25      1.0000 0.53127  0.33180  0.66657  Biso   1.000  O 
  O26      1.0000 0.53234  0.17107  0.91583  Biso   1.000  O 
  O27      1.0000 0.96422  0.83713  0.66527  Biso   1.000  O 
  O28      1.0000 0.96350  0.67104  0.91498  Biso   1.000  O 
  O29      1.0000 0.77345  0.24829  0.95480  Biso   1.000  O 
  O30      1.0000 0.77438  0.25500  0.70553  Biso   1.000  O 
  O31      1.0000 0.72018  0.74962  0.95467  Biso   1.000  O 
  O32      1.0000 0.72275  0.75409  0.70542  Biso   1.000  O 
