data_image0
_cell_length_a       10.0755
_cell_length_b       10.3158
_cell_length_c       10.5138
_cell_angle_alpha    90
_cell_angle_beta     90
_cell_angle_gamma    90

_symmetry_space_group_name_H-M    "P 1"
_symmetry_int_tables_number       1

loop_
  _symmetry_equiv_pos_as_xyz
  'x, y, z'

loop_
  _atom_site_label
  _atom_site_occupancy
  _atom_site_fract_x
  _atom_site_fract_y
  _atom_site_fract_z
  _atom_site_thermal_displace_type
  _atom_site_B_iso_or_equiv
  _atom_site_type_symbol
  Hf1      1.0000 0.12906  0.01646  0.17395  Biso   1.000  Hf
  Hf2      1.0000 0.12567  0.22499  0.43038  Biso   1.000  Hf
  Hf3      1.0000 0.32540  0.26152  0.19232  Biso   1.000  Hf
  Hf4      1.0000 0.35447  0.47619  0.42234  Biso   1.000  Hf
  Hf5      1.0000 0.64296  0.00765  0.07922  Biso   1.000  Hf
  Hf6      1.0000 0.62747  0.22211  0.32626  Biso   1.000  Hf
  Hf7      1.0000 0.85785  0.27136  0.07544  Biso   1.000  Hf
  Hf8      1.0000 0.85485  0.47680  0.32772  Biso   1.000  Hf
  O1       1.0000 0.03056  0.16784  0.08728  Biso   1.000  O 
  O2       1.0000 0.02218  0.08300  0.33627  Biso   1.000  O 
  O3       1.0000 0.46468  0.45709  0.09422  Biso   1.000  O 
  O4       1.0000 0.45511  0.33018  0.32760  Biso   1.000  O 
  O5       1.0000 0.25878  0.11934  0.30624  Biso   1.000  O 
  O6       1.0000 0.26525  0.11450  0.05210  Biso   1.000  O 
  O7       1.0000 0.20605  0.37600  0.30680  Biso   1.000  O 
  O8       1.0000 0.22002  0.37775  0.05386  Biso   1.000  O 
  O9       1.0000 0.51038  0.11061  0.19826  Biso   1.000  O 
  O10      1.0000 0.51876  0.09194  0.43187  Biso   1.000  O 
  O11      1.0000 0.96132  0.41591  0.16686  Biso   1.000  O 
  O12      1.0000 0.95855  0.33361  0.41834  Biso   1.000  O 
  O13      1.0000 0.76476  0.12227  0.45200  Biso   1.000  O 
  O14      1.0000 0.77011  0.12579  0.20336  Biso   1.000  O 
  O15      1.0000 0.71505  0.37188  0.45236  Biso   1.000  O 
  O16      1.0000 0.71787  0.38012  0.20444  Biso   1.000  O 
  Hf9      1.0000 0.12777  0.01888  0.67508  Biso   1.000  Hf
  Hf10     1.0000 0.12194  0.22581  0.92588  Biso   1.000  Hf
  Hf11     1.0000 0.35129  0.26992  0.67535  Biso   1.000  Hf
  Hf12     1.0000 0.34411  0.48563  0.92404  Biso   1.000  Hf
  Hf13     1.0000 0.62868  0.01858  0.57877  Biso   1.000  Hf
  Hf14     1.0000 0.63913  0.22872  0.81337  Biso   1.000  Hf
  Hf15     1.0000 0.85161  0.27064  0.57505  Biso   1.000  Hf
  Hf16     1.0000 0.85280  0.47943  0.82638  Biso   1.000  Hf
  O17      1.0000 0.02022  0.16185  0.58626  Biso   1.000  O 
  O18      1.0000 0.02144  0.08025  0.83503  Biso   1.000  O 
  O19      1.0000 0.46129  0.40740  0.57602  Biso   1.000  O 
  O20      1.0000 0.46619  0.34935  0.81978  Biso   1.000  O 
  O21      1.0000 0.26437  0.12334  0.79985  Biso   1.000  O 
  O22      1.0000 0.26441  0.12221  0.55117  Biso   1.000  O 
  O23      1.0000 0.21483  0.37180  0.80095  Biso   1.000  O 
  O24      1.0000 0.21629  0.37244  0.55100  Biso   1.000  O 
  O25      1.0000 0.52138  0.15933  0.67231  Biso   1.000  O 
  O26      1.0000 0.51718  0.06589  0.91132  Biso   1.000  O 
  O27      1.0000 0.95897  0.41267  0.66575  Biso   1.000  O 
  O28      1.0000 0.95202  0.32919  0.91456  Biso   1.000  O 
  O29      1.0000 0.76482  0.11810  0.94736  Biso   1.000  O 
  O30      1.0000 0.76992  0.12150  0.69828  Biso   1.000  O 
  O31      1.0000 0.71994  0.38741  0.94911  Biso   1.000  O 
  O32      1.0000 0.71816  0.37346  0.69982  Biso   1.000  O 
  Hf17     1.0000 0.13310  0.52205  0.17251  Biso   1.000  Hf
  Hf18     1.0000 0.13222  0.72653  0.42142  Biso   1.000  Hf
  Hf19     1.0000 0.36052  0.77089  0.17375  Biso   1.000  Hf
  Hf20     1.0000 0.35682  0.97597  0.42638  Biso   1.000  Hf
  Hf21     1.0000 0.64637  0.53550  0.07741  Biso   1.000  Hf
  Hf22     1.0000 0.63467  0.72925  0.33046  Biso   1.000  Hf
  Hf23     1.0000 0.86527  0.77015  0.07871  Biso   1.000  Hf
  Hf24     1.0000 0.85637  0.97840  0.33087  Biso   1.000  Hf
  O33      1.0000 0.03457  0.66587  0.08278  Biso   1.000  O 
  O34      1.0000 0.02618  0.58466  0.33355  Biso   1.000  O 
  O35      1.0000 0.47174  0.90152  0.07539  Biso   1.000  O 
  O36      1.0000 0.46418  0.83651  0.33520  Biso   1.000  O 
  O37      1.0000 0.27138  0.62244  0.29384  Biso   1.000  O 
  O38      1.0000 0.27515  0.62801  0.04386  Biso   1.000  O 
  O39      1.0000 0.22023  0.87179  0.29715  Biso   1.000  O 
  O40      1.0000 0.22450  0.87299  0.04873  Biso   1.000  O 
  O41      1.0000 0.53872  0.67635  0.16763  Biso   1.000  O 
  O42      1.0000 0.52504  0.58330  0.41419  Biso   1.000  O 
  O43      1.0000 0.96222  0.91670  0.16677  Biso   1.000  O 
  O44      1.0000 0.96064  0.83231  0.41699  Biso   1.000  O 
  O45      1.0000 0.76863  0.62201  0.45431  Biso   1.000  O 
  O46      1.0000 0.77860  0.62924  0.20556  Biso   1.000  O 
  O47      1.0000 0.71860  0.87378  0.45673  Biso   1.000  O 
  O48      1.0000 0.72498  0.87288  0.20760  Biso   1.000  O 
  Hf25     1.0000 0.12925  0.51770  0.67169  Biso   1.000  Hf
  Hf26     1.0000 0.12300  0.72767  0.92136  Biso   1.000  Hf
  Hf27     1.0000 0.35172  0.76756  0.67066  Biso   1.000  Hf
  Hf28     1.0000 0.34431  0.96964  0.92312  Biso   1.000  Hf
  Hf29     1.0000 0.62926  0.51878  0.57429  Biso   1.000  Hf
  Hf30     1.0000 0.62638  0.72714  0.82402  Biso   1.000  Hf
  Hf31     1.0000 0.85501  0.76883  0.57879  Biso   1.000  Hf
  Hf32     1.0000 0.85202  0.97540  0.82858  Biso   1.000  Hf
  O49      1.0000 0.02591  0.66301  0.58396  Biso   1.000  O 
  O50      1.0000 0.02346  0.58128  0.83408  Biso   1.000  O 
  O51      1.0000 0.46162  0.90962  0.58349  Biso   1.000  O 
  O52      1.0000 0.45349  0.83044  0.82857  Biso   1.000  O 
  O53      1.0000 0.26373  0.62328  0.79404  Biso   1.000  O 
  O54      1.0000 0.26713  0.62124  0.54385  Biso   1.000  O 
  O55      1.0000 0.21101  0.87038  0.79623  Biso   1.000  O 
  O56      1.0000 0.21730  0.87321  0.54659  Biso   1.000  O 
  O57      1.0000 0.52196  0.66067  0.66326  Biso   1.000  O 
  O58      1.0000 0.51828  0.58844  0.91365  Biso   1.000  O 
  O59      1.0000 0.96003  0.91198  0.66689  Biso   1.000  O 
  O60      1.0000 0.95323  0.83245  0.91815  Biso   1.000  O 
  O61      1.0000 0.76289  0.62781  0.95107  Biso   1.000  O 
  O62      1.0000 0.76549  0.62317  0.70226  Biso   1.000  O 
  O63      1.0000 0.71096  0.86956  0.95486  Biso   1.000  O 
  O64      1.0000 0.71651  0.87297  0.70544  Biso   1.000  O 
  Bi1      1.0000 0.52316  0.25789  0.03237  Biso   1.000  Bi
