data_image0
_cell_length_a       5.07079
_cell_length_b       10.3325
_cell_length_c       10.4748
_cell_angle_alpha    90
_cell_angle_beta     80
_cell_angle_gamma    90

_symmetry_space_group_name_H-M    "P 1"
_symmetry_int_tables_number       1

loop_
  _symmetry_equiv_pos_as_xyz
  'x, y, z'

loop_
  _atom_site_label
  _atom_site_occupancy
  _atom_site_fract_x
  _atom_site_fract_y
  _atom_site_fract_z
  _atom_site_thermal_displace_type
  _atom_site_B_iso_or_equiv
  _atom_site_type_symbol
  Bi1      1.0000 0.26381  0.01775  0.14693  Biso   1.000  Bi
  Hf1      1.0000 0.26760  0.23004  0.39892  Biso   1.000  Hf
  Hf2      1.0000 0.71545  0.27284  0.10363  Biso   1.000  Hf
  Hf3      1.0000 0.71164  0.47759  0.35437  Biso   1.000  Hf
  O1       1.0000 0.07335  0.18200  0.07799  Biso   1.000  O 
  O2       1.0000 0.05714  0.07838  0.34212  Biso   1.000  O 
  O3       1.0000 0.91799  0.42201  0.16901  Biso   1.000  O 
  O4       1.0000 0.91591  0.32969  0.42046  Biso   1.000  O 
  O5       1.0000 0.55570  0.13424  0.24702  Biso   1.000  O 
  O6       1.0000 0.53856  0.12030  0.49377  Biso   1.000  O 
  O7       1.0000 0.44753  0.38084  0.00798  Biso   1.000  O 
  O8       1.0000 0.43543  0.37102  0.25973  Biso   1.000  O 
  Hf4      1.0000 0.26314  0.02108  0.64767  Biso   1.000  Hf
  Hf5      1.0000 0.25866  0.22983  0.89467  Biso   1.000  Hf
  Hf6      1.0000 0.70946  0.27097  0.60534  Biso   1.000  Hf
  Hf7      1.0000 0.70407  0.47785  0.85474  Biso   1.000  Hf
  O9       1.0000 0.05980  0.17138  0.58435  Biso   1.000  O 
  O10      1.0000 0.05837  0.07840  0.83269  Biso   1.000  O 
  O11      1.0000 0.91227  0.41987  0.66990  Biso   1.000  O 
  O12      1.0000 0.90699  0.33083  0.91938  Biso   1.000  O 
  O13      1.0000 0.53775  0.12890  0.74016  Biso   1.000  O 
  O14      1.0000 0.54249  0.12509  0.98442  Biso   1.000  O 
  O15      1.0000 0.43439  0.37869  0.51024  Biso   1.000  O 
  O16      1.0000 0.43113  0.37085  0.75946  Biso   1.000  O 
  Hf8      1.0000 0.27170  0.51972  0.14545  Biso   1.000  Hf
  Hf9      1.0000 0.26316  0.72468  0.39821  Biso   1.000  Hf
  Hf10     1.0000 0.71988  0.76484  0.10325  Biso   1.000  Hf
  Hf11     1.0000 0.70330  0.97721  0.36043  Biso   1.000  Hf
  O17      1.0000 0.07587  0.67183  0.08092  Biso   1.000  O 
  O18      1.0000 0.06121  0.57874  0.33079  Biso   1.000  O 
  O19      1.0000 0.88778  0.92251  0.17133  Biso   1.000  O 
  O20      1.0000 0.91552  0.82859  0.42086  Biso   1.000  O 
  O21      1.0000 0.54455  0.62484  0.24033  Biso   1.000  O 
  O22      1.0000 0.53949  0.61951  0.49141  Biso   1.000  O 
  O23      1.0000 0.46318  0.87189  0.00173  Biso   1.000  O 
  O24      1.0000 0.44343  0.86063  0.26472  Biso   1.000  O 
  Hf12     1.0000 0.26220  0.52047  0.64700  Biso   1.000  Hf
  Hf13     1.0000 0.25891  0.72750  0.89518  Biso   1.000  Hf
  Hf14     1.0000 0.70755  0.77079  0.60538  Biso   1.000  Hf
  Hf15     1.0000 0.70737  0.97786  0.85434  Biso   1.000  Hf
  O25      1.0000 0.05676  0.66869  0.58293  Biso   1.000  O 
  O26      1.0000 0.05384  0.57865  0.83165  Biso   1.000  O 
  O27      1.0000 0.91253  0.91930  0.67032  Biso   1.000  O 
  O28      1.0000 0.91353  0.82991  0.92149  Biso   1.000  O 
  O29      1.0000 0.53565  0.62867  0.74092  Biso   1.000  O 
  O30      1.0000 0.52996  0.61802  0.99130  Biso   1.000  O 
  O31      1.0000 0.43217  0.87823  0.51231  Biso   1.000  O 
  O32      1.0000 0.43128  0.87008  0.75942  Biso   1.000  O 
