data_image0
_cell_length_a       5.14429
_cell_length_b       10.4123
_cell_length_c       10.4518
_cell_angle_alpha    90
_cell_angle_beta     90
_cell_angle_gamma    90

_symmetry_space_group_name_H-M    "P 1"
_symmetry_int_tables_number       1

loop_
  _symmetry_equiv_pos_as_xyz
  'x, y, z'

loop_
  _atom_site_label
  _atom_site_occupancy
  _atom_site_fract_x
  _atom_site_fract_y
  _atom_site_fract_z
  _atom_site_thermal_displace_type
  _atom_site_B_iso_or_equiv
  _atom_site_type_symbol
  Hf1      1.0000 0.16501  0.97174  0.11744  Biso   1.000  Hf
  Hf2      1.0000 0.02952  0.28730  0.39101  Biso   1.000  Hf
  Hf3      1.0000 0.50570  0.29512  0.13527  Biso   1.000  Hf
  Hf4      1.0000 0.65268  0.03943  0.40928  Biso   1.000  Hf
  O1       1.0000 0.79508  0.19842  0.91622  Biso   1.000  O 
  O2       1.0000 0.98545  0.10295  0.33589  Biso   1.000  O 
  O3       1.0000 0.71707  0.35768  0.29239  Biso   1.000  O 
  O4       1.0000 0.76389  0.41642  0.03458  Biso   1.000  O 
  O5       1.0000 0.47222  0.12699  0.24773  Biso   1.000  O 
  O6       1.0000 0.44895  0.14618  0.00735  Biso   1.000  O 
  O7       1.0000 0.13871  0.42899  0.98176  Biso   1.000  O 
  O8       1.0000 0.24795  0.40462  0.24863  Biso   1.000  O 
  Hf5      1.0000 0.95285  0.99704  0.62401  Biso   1.000  Hf
  Hf6      1.0000 0.12270  0.26238  0.84040  Biso   1.000  Hf
  Hf7      1.0000 0.56085  0.29186  0.62037  Biso   1.000  Hf
  Hf8      1.0000 0.48751  0.01441  0.84549  Biso   1.000  Hf
  O9       1.0000 0.80978  0.19420  0.51773  Biso   1.000  O 
  O10      1.0000 0.96836  0.11474  0.72470  Biso   1.000  O 
  O11      1.0000 0.85608  0.36644  0.73180  Biso   1.000  O 
  O12      1.0000 0.80803  0.44140  0.50299  Biso   1.000  O 
  O13      1.0000 0.43082  0.16189  0.74949  Biso   1.000  O 
  O14      1.0000 0.35331  0.13566  0.50571  Biso   1.000  O 
  O15      1.0000 0.30910  0.38369  0.49881  Biso   1.000  O 
  O16      1.0000 0.32940  0.42033  0.74899  Biso   1.000  O 
  Hf9      1.0000 0.07286  0.51675  0.10599  Biso   1.000  Hf
  Hf10     1.0000 0.04642  0.73932  0.36187  Biso   1.000  Hf
  Hf11     1.0000 0.58512  0.74343  0.14401  Biso   1.000  Hf
  Hf12     1.0000 0.53323  0.51487  0.38047  Biso   1.000  Hf
  O17      1.0000 0.71015  0.69364  0.98197  Biso   1.000  O 
  O18      1.0000 0.80666  0.60020  0.24045  Biso   1.000  O 
  O19      1.0000 0.90947  0.83865  0.20692  Biso   1.000  O 
  O20      1.0000 0.80237  0.95349  0.95492  Biso   1.000  O 
  O21      1.0000 0.31160  0.63944  0.24990  Biso   1.000  O 
  O22      1.0000 0.35517  0.62484  0.00894  Biso   1.000  O 
  O23      1.0000 0.27207  0.90227  0.99334  Biso   1.000  O 
  O24      1.0000 0.39093  0.87780  0.25871  Biso   1.000  O 
  Hf13     1.0000 0.02060  0.52052  0.64651  Biso   1.000  Hf
  Hf14     1.0000 0.99169  0.79834  0.87822  Biso   1.000  Hf
  Hf15     1.0000 0.48370  0.76229  0.61103  Biso   1.000  Hf
  Hf16     1.0000 0.45233  0.55744  0.88191  Biso   1.000  Hf
  O25      1.0000 0.71855  0.68704  0.46404  Biso   1.000  O 
  O26      1.0000 0.69449  0.61083  0.72232  Biso   1.000  O 
  O27      1.0000 0.71449  0.85507  0.74777  Biso   1.000  O 
  O28      1.0000 0.63711  0.92560  0.52818  Biso   1.000  O 
  O29      1.0000 0.20598  0.66677  0.75727  Biso   1.000  O 
  O30      1.0000 0.24806  0.62287  0.50332  Biso   1.000  O 
  O31      1.0000 0.16685  0.87112  0.49204  Biso   1.000  O 
  O32      1.0000 0.21970  0.90590  0.73917  Biso   1.000  O 
  Bi1      1.0000 0.95818  0.13252  0.12784  Biso   1.000  Bi
