data_image0
_cell_length_a       10.0034
_cell_length_b       5.20379
_cell_length_c       10.0473
_cell_angle_alpha    90
_cell_angle_beta     90
_cell_angle_gamma    90

_symmetry_space_group_name_H-M    "P 1"
_symmetry_int_tables_number       1

loop_
  _symmetry_equiv_pos_as_xyz
  'x, y, z'

loop_
  _atom_site_label
  _atom_site_occupancy
  _atom_site_fract_x
  _atom_site_fract_y
  _atom_site_fract_z
  _atom_site_thermal_displace_type
  _atom_site_B_iso_or_equiv
  _atom_site_type_symbol
  Bi1      1.0000 0.12776  0.02938  0.12242  Biso   1.000  Bi
  Hf1      1.0000 0.13436  0.46690  0.37927  Biso   1.000  Hf
  Hf2      1.0000 0.36889  0.53016  0.12609  Biso   1.000  Hf
  Hf3      1.0000 0.36660  0.96521  0.37664  Biso   1.000  Hf
  O1       1.0000 0.03216  0.38602  0.19973  Biso   1.000  O 
  O2       1.0000 0.03542  0.12920  0.44375  Biso   1.000  O 
  O3       1.0000 0.46475  0.86865  0.19454  Biso   1.000  O 
  O4       1.0000 0.46468  0.63094  0.44654  Biso   1.000  O 
  O5       1.0000 0.27593  0.24303  0.25412  Biso   1.000  O 
  O6       1.0000 0.26984  0.26298  0.50112  Biso   1.000  O 
  O7       1.0000 0.22979  0.76513  0.50060  Biso   1.000  O 
  O8       1.0000 0.23729  0.72145  0.25466  Biso   1.000  O 
  Hf4      1.0000 0.13252  0.03181  0.62611  Biso   1.000  Hf
  Hf5      1.0000 0.13349  0.47033  0.87205  Biso   1.000  Hf
  Hf6      1.0000 0.36588  0.53111  0.62551  Biso   1.000  Hf
  Hf7      1.0000 0.36881  0.96692  0.87357  Biso   1.000  Hf
  O9       1.0000 0.03719  0.37175  0.68969  Biso   1.000  O 
  O10      1.0000 0.03250  0.13825  0.92912  Biso   1.000  O 
  O11      1.0000 0.46474  0.86617  0.69418  Biso   1.000  O 
  O12      1.0000 0.46677  0.63297  0.94384  Biso   1.000  O 
  O13      1.0000 0.27012  0.23394  0.74826  Biso   1.000  O 
  O14      1.0000 0.27247  0.26864  0.99475  Biso   1.000  O 
  O15      1.0000 0.23545  0.75247  0.99460  Biso   1.000  O 
  O16      1.0000 0.23023  0.73563  0.74766  Biso   1.000  O 
  Hf8      1.0000 0.63361  0.03074  0.12692  Biso   1.000  Hf
  Hf9      1.0000 0.63289  0.46563  0.37692  Biso   1.000  Hf
  Hf10     1.0000 0.86028  0.53003  0.12647  Biso   1.000  Hf
  Hf11     1.0000 0.86408  0.96746  0.37973  Biso   1.000  Hf
  O17      1.0000 0.53830  0.36731  0.19417  Biso   1.000  O 
  O18      1.0000 0.53560  0.13063  0.44538  Biso   1.000  O 
  O19      1.0000 0.94850  0.86867  0.19715  Biso   1.000  O 
  O20      1.0000 0.96352  0.63326  0.44633  Biso   1.000  O 
  O21      1.0000 0.76806  0.23459  0.25171  Biso   1.000  O 
  O22      1.0000 0.76901  0.26494  0.50068  Biso   1.000  O 
  O23      1.0000 0.72872  0.76354  0.50126  Biso   1.000  O 
  O24      1.0000 0.72611  0.73434  0.25166  Biso   1.000  O 
  Hf12     1.0000 0.63267  0.03222  0.62592  Biso   1.000  Hf
  Hf13     1.0000 0.63333  0.46340  0.87566  Biso   1.000  Hf
  Hf14     1.0000 0.86578  0.53214  0.62524  Biso   1.000  Hf
  Hf15     1.0000 0.86252  0.96079  0.87430  Biso   1.000  Hf
  O25      1.0000 0.53496  0.36550  0.69550  Biso   1.000  O 
  O26      1.0000 0.53615  0.13036  0.94480  Biso   1.000  O 
  O27      1.0000 0.96286  0.86682  0.69420  Biso   1.000  O 
  O28      1.0000 0.96577  0.63670  0.94869  Biso   1.000  O 
  O29      1.0000 0.76964  0.23287  0.74921  Biso   1.000  O 
  O30      1.0000 0.76998  0.25881  0.99968  Biso   1.000  O 
  O31      1.0000 0.72925  0.76098  0.00025  Biso   1.000  O 
  O32      1.0000 0.72919  0.73226  0.75011  Biso   1.000  O 
