data_image0
_cell_length_a       10.0502
_cell_length_b       10.252
_cell_length_c       5.02619
_cell_angle_alpha    90
_cell_angle_beta     90
_cell_angle_gamma    90

_symmetry_space_group_name_H-M    "P 1"
_symmetry_int_tables_number       1

loop_
  _symmetry_equiv_pos_as_xyz
  'x, y, z'

loop_
  _atom_site_label
  _atom_site_occupancy
  _atom_site_fract_x
  _atom_site_fract_y
  _atom_site_fract_z
  _atom_site_thermal_displace_type
  _atom_site_B_iso_or_equiv
  _atom_site_type_symbol
  Bi1      1.0000 0.12491  0.00005  0.24982  Biso   1.000  Bi
  Hf1      1.0000 0.12491  0.25390  0.74982  Biso   1.000  Hf
  Hf2      1.0000 0.37629  0.25233  0.24918  Biso   1.000  Hf
  Hf3      1.0000 0.37742  0.00005  0.74982  Biso   1.000  Hf
  O1       1.0000 0.99804  0.15141  0.99821  Biso   1.000  O 
  O2       1.0000 0.99288  0.11006  0.51288  Biso   1.000  O 
  O3       1.0000 0.00180  0.35425  0.49145  Biso   1.000  O 
  O4       1.0000 0.99975  0.39876  0.99380  Biso   1.000  O 
  O5       1.0000 0.25177  0.15141  0.50142  Biso   1.000  O 
  O6       1.0000 0.25693  0.11006  0.98675  Biso   1.000  O 
  O7       1.0000 0.24801  0.35425  0.00818  Biso   1.000  O 
  O8       1.0000 0.25006  0.39876  0.50584  Biso   1.000  O 
  Hf4      1.0000 0.12491  0.50006  0.24982  Biso   1.000  Hf
  Hf5      1.0000 0.12491  0.74620  0.74982  Biso   1.000  Hf
  Hf6      1.0000 0.37629  0.74778  0.25045  Biso   1.000  Hf
  Hf7      1.0000 0.37544  0.50005  0.74982  Biso   1.000  Hf
  O9       1.0000 0.00180  0.64586  0.00818  Biso   1.000  O 
  O10      1.0000 0.99975  0.60135  0.50584  Biso   1.000  O 
  O11      1.0000 0.99804  0.84869  0.50143  Biso   1.000  O 
  O12      1.0000 0.99288  0.89005  0.98675  Biso   1.000  O 
  O13      1.0000 0.24802  0.64586  0.49146  Biso   1.000  O 
  O14      1.0000 0.25007  0.60135  0.99379  Biso   1.000  O 
  O15      1.0000 0.25177  0.84869  0.99821  Biso   1.000  O 
  O16      1.0000 0.25693  0.89005  0.51288  Biso   1.000  O 
  Hf8      1.0000 0.62491  0.00005  0.24982  Biso   1.000  Hf
  Hf9      1.0000 0.62491  0.24896  0.74982  Biso   1.000  Hf
  Hf10     1.0000 0.87353  0.25233  0.25045  Biso   1.000  Hf
  Hf11     1.0000 0.87240  0.00005  0.74982  Biso   1.000  Hf
  O17      1.0000 0.50433  0.14945  0.00866  Biso   1.000  O 
  O18      1.0000 0.50012  0.10119  0.50454  Biso   1.000  O 
  O19      1.0000 0.50159  0.35219  0.50109  Biso   1.000  O 
  O20      1.0000 0.49823  0.39870  0.00196  Biso   1.000  O 
  O21      1.0000 0.74549  0.14945  0.49098  Biso   1.000  O 
  O22      1.0000 0.74969  0.10119  0.99510  Biso   1.000  O 
  O23      1.0000 0.74823  0.35219  0.99855  Biso   1.000  O 
  O24      1.0000 0.75158  0.39870  0.49768  Biso   1.000  O 
  Hf12     1.0000 0.62491  0.50006  0.24982  Biso   1.000  Hf
  Hf13     1.0000 0.62491  0.75114  0.74982  Biso   1.000  Hf
  Hf14     1.0000 0.87353  0.74778  0.24918  Biso   1.000  Hf
  Hf15     1.0000 0.87438  0.50005  0.74982  Biso   1.000  Hf
  O25      1.0000 0.50158  0.64791  0.99854  Biso   1.000  O 
  O26      1.0000 0.49823  0.60141  0.49768  Biso   1.000  O 
  O27      1.0000 0.50433  0.85066  0.49098  Biso   1.000  O 
  O28      1.0000 0.50012  0.89892  0.99510  Biso   1.000  O 
  O29      1.0000 0.74823  0.64791  0.50109  Biso   1.000  O 
  O30      1.0000 0.75158  0.60141  0.00195  Biso   1.000  O 
  O31      1.0000 0.74549  0.85066  0.00865  Biso   1.000  O 
  O32      1.0000 0.74969  0.89891  0.50454  Biso   1.000  O 
