data_image0
_cell_length_a       10.2064
_cell_length_b       10.5395
_cell_length_c       5.29603
_cell_angle_alpha    90
_cell_angle_beta     90
_cell_angle_gamma    90

_symmetry_space_group_name_H-M    "P 1"
_symmetry_int_tables_number       1

loop_
  _symmetry_equiv_pos_as_xyz
  'x, y, z'

loop_
  _atom_site_label
  _atom_site_occupancy
  _atom_site_fract_x
  _atom_site_fract_y
  _atom_site_fract_z
  _atom_site_thermal_displace_type
  _atom_site_B_iso_or_equiv
  _atom_site_type_symbol
  Hf1      1.0000 0.11794  0.00612  0.36166  Biso   1.000  Hf
  Hf2      1.0000 0.12495  0.20249  0.88360  Biso   1.000  Hf
  Hf3      1.0000 0.33943  0.23453  0.42221  Biso   1.000  Hf
  Hf4      1.0000 0.37894  0.47703  0.80638  Biso   1.000  Hf
  Hf5      1.0000 0.67125  0.99087  0.19952  Biso   1.000  Hf
  Hf6      1.0000 0.65623  0.23476  0.58371  Biso   1.000  Hf
  Hf7      1.0000 0.87072  0.26681  0.12231  Biso   1.000  Hf
  Hf8      1.0000 0.87773  0.46317  0.64422  Biso   1.000  Hf
  O1       1.0000 0.03061  0.15624  0.17118  Biso   1.000  O 
  O2       1.0000 0.01473  0.06523  0.67755  Biso   1.000  O 
  O3       1.0000 0.50677  0.45317  0.12121  Biso   1.000  O 
  O4       1.0000 0.48230  0.34978  0.57076  Biso   1.000  O 
  O5       1.0000 0.25063  0.09325  0.63084  Biso   1.000  O 
  O6       1.0000 0.26476  0.10028  0.13635  Biso   1.000  O 
  O7       1.0000 0.22597  0.35343  0.65479  Biso   1.000  O 
  O8       1.0000 0.23415  0.35110  0.17149  Biso   1.000  O 
  O9       1.0000 0.51336  0.11951  0.43514  Biso   1.000  O 
  O10      1.0000 0.48888  0.01613  0.88470  Biso   1.000  O 
  O11      1.0000 0.98092  0.40406  0.32833  Biso   1.000  O 
  O12      1.0000 0.96506  0.31307  0.83471  Biso   1.000  O 
  O13      1.0000 0.76151  0.11819  0.83443  Biso   1.000  O 
  O14      1.0000 0.76969  0.11585  0.35115  Biso   1.000  O 
  O15      1.0000 0.73090  0.36901  0.86955  Biso   1.000  O 
  O16      1.0000 0.74503  0.37605  0.37506  Biso   1.000  O 
  Hf9      1.0000 0.14976  0.50450  0.33774  Biso   1.000  Hf
  Hf10     1.0000 0.14584  0.70143  0.84136  Biso   1.000  Hf
  Hf11     1.0000 0.38664  0.75036  0.35512  Biso   1.000  Hf
  Hf12     1.0000 0.36916  0.93131  0.87977  Biso   1.000  Hf
  Hf13     1.0000 0.68104  0.53659  0.12613  Biso   1.000  Hf
  Hf14     1.0000 0.66356  0.71754  0.65078  Biso   1.000  Hf
  Hf15     1.0000 0.90433  0.76648  0.16453  Biso   1.000  Hf
  Hf16     1.0000 0.90044  0.96341  0.66812  Biso   1.000  Hf
  O17      1.0000 0.06842  0.65572  0.15873  Biso   1.000  O 
  O18      1.0000 0.04650  0.56385  0.65923  Biso   1.000  O 
  O19      1.0000 0.49924  0.89312  0.20805  Biso   1.000  O 
  O20      1.0000 0.48243  0.80236  0.68391  Biso   1.000  O 
  O21      1.0000 0.28587  0.60683  0.56862  Biso   1.000  O 
  O22      1.0000 0.30805  0.61745  0.07112  Biso   1.000  O 
  O23      1.0000 0.24196  0.84689  0.60684  Biso   1.000  O 
  O24      1.0000 0.26156  0.86061  0.11402  Biso   1.000  O 
  O25      1.0000 0.56775  0.66554  0.32198  Biso   1.000  O 
  O26      1.0000 0.55095  0.57477  0.79784  Biso   1.000  O 
  O27      1.0000 0.00368  0.90406  0.34664  Biso   1.000  O 
  O28      1.0000 0.98177  0.81218  0.84714  Biso   1.000  O 
  O29      1.0000 0.78863  0.60729  0.89187  Biso   1.000  O 
  O30      1.0000 0.80823  0.62101  0.39906  Biso   1.000  O 
  O31      1.0000 0.74211  0.85042  0.93479  Biso   1.000  O 
  O32      1.0000 0.76432  0.86107  0.43729  Biso   1.000  O 
  Bi1      1.0000 0.51628  0.24951  0.00510  Biso   1.000  Bi
