data_image0
_cell_length_a       10.1972
_cell_length_b       5.1651
_cell_length_c       10.6873
_cell_angle_alpha    90
_cell_angle_beta     90
_cell_angle_gamma    90

_symmetry_space_group_name_H-M    "P 1"
_symmetry_int_tables_number       1

loop_
  _symmetry_equiv_pos_as_xyz
  'x, y, z'

loop_
  _atom_site_label
  _atom_site_occupancy
  _atom_site_fract_x
  _atom_site_fract_y
  _atom_site_fract_z
  _atom_site_thermal_displace_type
  _atom_site_B_iso_or_equiv
  _atom_site_type_symbol
  Hf1      1.0000 0.11327  0.05832  0.17966  Biso   1.000  Hf
  Hf2      1.0000 0.09699  0.48643  0.42972  Biso   1.000  Hf
  Hf3      1.0000 0.31846  0.58112  0.20187  Biso   1.000  Hf
  Hf4      1.0000 0.31614  0.99552  0.43344  Biso   1.000  Hf
  Hf5      1.0000 0.64861  0.01002  0.05860  Biso   1.000  Hf
  Hf6      1.0000 0.60150  0.49367  0.33323  Biso   1.000  Hf
  Hf7      1.0000 0.84954  0.53372  0.07616  Biso   1.000  Hf
  Hf8      1.0000 0.81949  0.98458  0.32258  Biso   1.000  Hf
  O1       1.0000 0.01736  0.33731  0.08474  Biso   1.000  O 
  O2       1.0000 0.99767  0.20602  0.33141  Biso   1.000  O 
  O3       1.0000 0.44468  0.92155  0.11268  Biso   1.000  O 
  O4       1.0000 0.42796  0.71287  0.35009  Biso   1.000  O 
  O5       1.0000 0.23718  0.28692  0.30736  Biso   1.000  O 
  O6       1.0000 0.24712  0.24499  0.05927  Biso   1.000  O 
  O7       1.0000 0.18245  0.78743  0.31350  Biso   1.000  O 
  O8       1.0000 0.19890  0.76401  0.06537  Biso   1.000  O 
  O9       1.0000 0.48453  0.37484  0.19904  Biso   1.000  O 
  O10      1.0000 0.49871  0.20567  0.42116  Biso   1.000  O 
  O11      1.0000 0.93501  0.83803  0.16994  Biso   1.000  O 
  O12      1.0000 0.93070  0.70788  0.41921  Biso   1.000  O 
  O13      1.0000 0.74283  0.28540  0.44468  Biso   1.000  O 
  O14      1.0000 0.74816  0.25019  0.19119  Biso   1.000  O 
  O15      1.0000 0.68769  0.78712  0.45132  Biso   1.000  O 
  O16      1.0000 0.69916  0.74450  0.20216  Biso   1.000  O 
  Hf9      1.0000 0.10495  0.08294  0.67995  Biso   1.000  Hf
  Hf10     1.0000 0.07490  0.53375  0.92638  Biso   1.000  Hf
  Hf11     1.0000 0.32291  0.57388  0.66936  Biso   1.000  Hf
  Hf12     1.0000 0.27585  0.05744  0.94393  Biso   1.000  Hf
  Hf13     1.0000 0.60828  0.07201  0.56911  Biso   1.000  Hf
  Hf14     1.0000 0.60596  0.48638  0.80067  Biso   1.000  Hf
  Hf15     1.0000 0.82744  0.58108  0.57283  Biso   1.000  Hf
  Hf16     1.0000 0.81117  0.00916  0.82288  Biso   1.000  Hf
  O17      1.0000 0.99373  0.35962  0.58334  Biso   1.000  O 
  O18      1.0000 0.98943  0.22947  0.83260  Biso   1.000  O 
  O19      1.0000 0.42571  0.86186  0.58140  Biso   1.000  O 
  O20      1.0000 0.43989  0.69267  0.80354  Biso   1.000  O 
  O21      1.0000 0.22528  0.32295  0.80039  Biso   1.000  O 
  O22      1.0000 0.23674  0.28042  0.55123  Biso   1.000  O 
  O23      1.0000 0.17629  0.81726  0.81132  Biso   1.000  O 
  O24      1.0000 0.18159  0.78213  0.55786  Biso   1.000  O 
  O25      1.0000 0.49647  0.35467  0.65246  Biso   1.000  O 
  O26      1.0000 0.47978  0.14593  0.88985  Biso   1.000  O 
  O27      1.0000 0.92677  0.86148  0.67113  Biso   1.000  O 
  O28      1.0000 0.90709  0.73019  0.91779  Biso   1.000  O 
  O29      1.0000 0.72555  0.30348  0.93716  Biso   1.000  O 
  O30      1.0000 0.74197  0.28007  0.68904  Biso   1.000  O 
  O31      1.0000 0.67733  0.82249  0.94327  Biso   1.000  O 
  O32      1.0000 0.68725  0.78058  0.69518  Biso   1.000  O 
  Bi1      1.0000 0.49553  0.49993  0.00256  Biso   1.000  Bi
