data_image0
_cell_length_a       9.99681
_cell_length_b       10.4026
_cell_length_c       10.1468
_cell_angle_alpha    90
_cell_angle_beta     90
_cell_angle_gamma    90

_symmetry_space_group_name_H-M    "P 1"
_symmetry_int_tables_number       1

loop_
  _symmetry_equiv_pos_as_xyz
  'x, y, z'

loop_
  _atom_site_label
  _atom_site_occupancy
  _atom_site_fract_x
  _atom_site_fract_y
  _atom_site_fract_z
  _atom_site_thermal_displace_type
  _atom_site_B_iso_or_equiv
  _atom_site_type_symbol
  Hf1      1.0000 0.14623  0.00820  0.11119  Biso   1.000  Hf
  Hf2      1.0000 0.11678  0.24641  0.38636  Biso   1.000  Hf
  Hf3      1.0000 0.36352  0.26960  0.11048  Biso   1.000  Hf
  Hf4      1.0000 0.36228  0.48880  0.37240  Biso   1.000  Hf
  O1       1.0000 0.92553  0.19128  0.28135  Biso   1.000  O 
  O2       1.0000 0.04042  0.06770  0.44657  Biso   1.000  O 
  O3       1.0000 0.45746  0.43370  0.18703  Biso   1.000  O 
  O4       1.0000 0.45730  0.32398  0.44295  Biso   1.000  O 
  O5       1.0000 0.25935  0.12187  0.24028  Biso   1.000  O 
  O6       1.0000 0.26394  0.14572  0.49301  Biso   1.000  O 
  O7       1.0000 0.22560  0.39492  0.49441  Biso   1.000  O 
  O8       1.0000 0.22825  0.36483  0.24738  Biso   1.000  O 
  Hf5      1.0000 0.12991  0.01897  0.62021  Biso   1.000  Hf
  Hf6      1.0000 0.14399  0.23452  0.85173  Biso   1.000  Hf
  Hf7      1.0000 0.36279  0.27658  0.62021  Biso   1.000  Hf
  Hf8      1.0000 0.35868  0.49917  0.86659  Biso   1.000  Hf
  O9       1.0000 0.04513  0.18757  0.67816  Biso   1.000  O 
  O10      1.0000 0.03806  0.06870  0.92685  Biso   1.000  O 
  O11      1.0000 0.45281  0.44741  0.68513  Biso   1.000  O 
  O12      1.0000 0.44165  0.32400  0.91513  Biso   1.000  O 
  O13      1.0000 0.27535  0.12212  0.73874  Biso   1.000  O 
  O14      1.0000 0.27623  0.13291  0.98777  Biso   1.000  O 
  O15      1.0000 0.22753  0.40074  0.99160  Biso   1.000  O 
  O16      1.0000 0.22101  0.37759  0.73882  Biso   1.000  O 
  Hf9      1.0000 0.13519  0.52141  0.12762  Biso   1.000  Hf
  Hf10     1.0000 0.12450  0.74288  0.37563  Biso   1.000  Hf
  Hf11     1.0000 0.35972  0.76591  0.12928  Biso   1.000  Hf
  Hf12     1.0000 0.35346  0.99346  0.37634  Biso   1.000  Hf
  O17      1.0000 0.03787  0.69175  0.19352  Biso   1.000  O 
  O18      1.0000 0.02106  0.58936  0.45359  Biso   1.000  O 
  O19      1.0000 0.44994  0.94263  0.19941  Biso   1.000  O 
  O20      1.0000 0.45656  0.82348  0.44129  Biso   1.000  O 
  O21      1.0000 0.26816  0.62173  0.25017  Biso   1.000  O 
  O22      1.0000 0.26073  0.64028  0.49576  Biso   1.000  O 
  O23      1.0000 0.22400  0.88922  0.49687  Biso   1.000  O 
  O24      1.0000 0.22303  0.87061  0.24722  Biso   1.000  O 
  Hf13     1.0000 0.11974  0.52497  0.62020  Biso   1.000  Hf
  Hf14     1.0000 0.11966  0.74030  0.87266  Biso   1.000  Hf
  Hf15     1.0000 0.35798  0.77042  0.61982  Biso   1.000  Hf
  Hf16     1.0000 0.35495  0.98476  0.86633  Biso   1.000  Hf
  O25      1.0000 0.02627  0.69804  0.69527  Biso   1.000  O 
  O26      1.0000 0.02081  0.57332  0.95041  Biso   1.000  O 
  O27      1.0000 0.45586  0.93505  0.69118  Biso   1.000  O 
  O28      1.0000 0.46412  0.83492  0.96445  Biso   1.000  O 
  O29      1.0000 0.25498  0.62449  0.74529  Biso   1.000  O 
  O30      1.0000 0.25882  0.64754  0.99773  Biso   1.000  O 
  O31      1.0000 0.21944  0.88820  0.99529  Biso   1.000  O 
  O32      1.0000 0.22289  0.87069  0.74689  Biso   1.000  O 
  Hf17     1.0000 0.61307  0.99282  0.10427  Biso   1.000  Hf
  Hf18     1.0000 0.63125  0.23748  0.42121  Biso   1.000  Hf
  Hf19     1.0000 0.76148  0.24231  0.15863  Biso   1.000  Hf
  Hf20     1.0000 0.86119  0.48956  0.39112  Biso   1.000  Hf
  O33      1.0000 0.55344  0.19333  0.11347  Biso   1.000  O 
  O34      1.0000 0.52124  0.07529  0.46098  Biso   1.000  O 
  O35      1.0000 0.98113  0.44977  0.23856  Biso   1.000  O 
  O36      1.0000 0.97120  0.33922  0.48209  Biso   1.000  O 
  O37      1.0000 0.69659  0.09666  0.27670  Biso   1.000  O 
  O38      1.0000 0.77794  0.13992  0.51746  Biso   1.000  O 
  O39      1.0000 0.72796  0.38680  0.52141  Biso   1.000  O 
  O40      1.0000 0.69872  0.38037  0.28029  Biso   1.000  O 
  Hf21     1.0000 0.63414  0.02141  0.63352  Biso   1.000  Hf
  Hf22     1.0000 0.61854  0.24093  0.87956  Biso   1.000  Hf
  Hf23     1.0000 0.86873  0.28156  0.65345  Biso   1.000  Hf
  Hf24     1.0000 0.84978  0.49350  0.87907  Biso   1.000  Hf
  O41      1.0000 0.54030  0.19982  0.68000  Biso   1.000  O 
  O42      1.0000 0.53723  0.06208  0.91105  Biso   1.000  O 
  O43      1.0000 0.94324  0.46574  0.69161  Biso   1.000  O 
  O44      1.0000 0.95366  0.31413  0.86500  Biso   1.000  O 
  O45      1.0000 0.76521  0.12821  0.76087  Biso   1.000  O 
  O46      1.0000 0.77269  0.11254  0.00763  Biso   1.000  O 
  O47      1.0000 0.72023  0.37878  0.01113  Biso   1.000  O 
  O48      1.0000 0.71191  0.38259  0.76360  Biso   1.000  O 
  Hf25     1.0000 0.62890  0.52457  0.13343  Biso   1.000  Hf
  Hf26     1.0000 0.63004  0.74370  0.37759  Biso   1.000  Hf
  Hf27     1.0000 0.86615  0.76639  0.12798  Biso   1.000  Hf
  Hf28     1.0000 0.86128  0.00336  0.36493  Biso   1.000  Hf
  O49      1.0000 0.53118  0.68794  0.19895  Biso   1.000  O 
  O50      1.0000 0.52913  0.57394  0.44694  Biso   1.000  O 
  O51      1.0000 0.96090  0.94867  0.18540  Biso   1.000  O 
  O52      1.0000 0.95570  0.83141  0.44097  Biso   1.000  O 
  O53      1.0000 0.76887  0.62038  0.25580  Biso   1.000  O 
  O54      1.0000 0.75875  0.64298  0.50564  Biso   1.000  O 
  O55      1.0000 0.72015  0.89576  0.49680  Biso   1.000  O 
  O56      1.0000 0.72873  0.86557  0.24328  Biso   1.000  O 
  Hf29     1.0000 0.62638  0.52747  0.63090  Biso   1.000  Hf
  Hf30     1.0000 0.62500  0.74138  0.87780  Biso   1.000  Hf
  Hf31     1.0000 0.85960  0.77910  0.62138  Biso   1.000  Hf
  Hf32     1.0000 0.85566  0.99013  0.87588  Biso   1.000  Hf
  O57      1.0000 0.52188  0.69063  0.70362  Biso   1.000  O 
  O58      1.0000 0.52255  0.57952  0.94912  Biso   1.000  O 
  O59      1.0000 0.95430  0.94362  0.69484  Biso   1.000  O 
  O60      1.0000 0.95499  0.82426  0.94770  Biso   1.000  O 
  O61      1.0000 0.75954  0.62956  0.75699  Biso   1.000  O 
  O62      1.0000 0.76991  0.62856  0.00676  Biso   1.000  O 
  O63      1.0000 0.72092  0.88444  0.99524  Biso   1.000  O 
  O64      1.0000 0.72230  0.87443  0.74887  Biso   1.000  O 
  Bi1      1.0000 0.01025  0.26971  0.08279  Biso   1.000  Bi
