data_image0
_cell_length_a       10.0519
_cell_length_b       5.12495
_cell_length_c       10.0519
_cell_angle_alpha    90
_cell_angle_beta     90
_cell_angle_gamma    90

_symmetry_space_group_name_H-M    "P 1"
_symmetry_int_tables_number       1

loop_
  _symmetry_equiv_pos_as_xyz
  'x, y, z'

loop_
  _atom_site_label
  _atom_site_occupancy
  _atom_site_fract_x
  _atom_site_fract_y
  _atom_site_fract_z
  _atom_site_thermal_displace_type
  _atom_site_B_iso_or_equiv
  _atom_site_type_symbol
  Bi1      1.0000 0.12491  0.00011  0.12491  Biso   1.000  Bi
  Hf1      1.0000 0.12491  0.50011  0.37740  Biso   1.000  Hf
  Hf2      1.0000 0.37740  0.50011  0.12491  Biso   1.000  Hf
  Hf3      1.0000 0.37686  0.00295  0.37686  Biso   1.000  Hf
  O1       1.0000 0.99803  0.29866  0.99803  Biso   1.000  O 
  O2       1.0000 0.99264  0.21980  0.25717  Biso   1.000  O 
  O3       1.0000 0.99803  0.70155  0.25179  Biso   1.000  O 
  O4       1.0000 0.99264  0.78041  0.99264  Biso   1.000  O 
  O5       1.0000 0.25179  0.29866  0.25179  Biso   1.000  O 
  O6       1.0000 0.25718  0.21980  0.99264  Biso   1.000  O 
  O7       1.0000 0.25179  0.70155  0.99803  Biso   1.000  O 
  O8       1.0000 0.25718  0.78041  0.25717  Biso   1.000  O 
  Hf4      1.0000 0.12491  0.00011  0.62491  Biso   1.000  Hf
  Hf5      1.0000 0.12491  0.50011  0.87242  Biso   1.000  Hf
  Hf6      1.0000 0.37450  0.50011  0.62491  Biso   1.000  Hf
  Hf7      1.0000 0.37686  0.99726  0.87296  Biso   1.000  Hf
  O9       1.0000 0.00265  0.29633  0.50537  Biso   1.000  O 
  O10      1.0000 0.99910  0.20291  0.75164  Biso   1.000  O 
  O11      1.0000 0.00265  0.70388  0.74444  Biso   1.000  O 
  O12      1.0000 0.99910  0.79730  0.49817  Biso   1.000  O 
  O13      1.0000 0.24716  0.29633  0.74444  Biso   1.000  O 
  O14      1.0000 0.25072  0.20291  0.49817  Biso   1.000  O 
  O15      1.0000 0.24716  0.70388  0.50537  Biso   1.000  O 
  O16      1.0000 0.25072  0.79730  0.75164  Biso   1.000  O 
  Hf8      1.0000 0.62491  0.00011  0.12491  Biso   1.000  Hf
  Hf9      1.0000 0.62491  0.50011  0.37451  Biso   1.000  Hf
  Hf10     1.0000 0.87242  0.50011  0.12491  Biso   1.000  Hf
  Hf11     1.0000 0.87296  0.99726  0.37686  Biso   1.000  Hf
  O17      1.0000 0.50537  0.29633  0.00265  Biso   1.000  O 
  O18      1.0000 0.49817  0.20291  0.25072  Biso   1.000  O 
  O19      1.0000 0.50537  0.70388  0.24717  Biso   1.000  O 
  O20      1.0000 0.49817  0.79731  0.99910  Biso   1.000  O 
  O21      1.0000 0.74444  0.29633  0.24717  Biso   1.000  O 
  O22      1.0000 0.75164  0.20291  0.99910  Biso   1.000  O 
  O23      1.0000 0.74444  0.70389  0.00265  Biso   1.000  O 
  O24      1.0000 0.75164  0.79731  0.25072  Biso   1.000  O 
  Hf12     1.0000 0.62491  0.00011  0.62491  Biso   1.000  Hf
  Hf13     1.0000 0.62491  0.50011  0.87531  Biso   1.000  Hf
  Hf14     1.0000 0.87531  0.50011  0.62491  Biso   1.000  Hf
  Hf15     1.0000 0.87296  0.00295  0.87296  Biso   1.000  Hf
  O25      1.0000 0.50104  0.29770  0.50104  Biso   1.000  O 
  O26      1.0000 0.49966  0.20321  0.75015  Biso   1.000  O 
  O27      1.0000 0.50103  0.70251  0.74878  Biso   1.000  O 
  O28      1.0000 0.49966  0.79701  0.49966  Biso   1.000  O 
  O29      1.0000 0.74878  0.29771  0.74878  Biso   1.000  O 
  O30      1.0000 0.75016  0.20320  0.49966  Biso   1.000  O 
  O31      1.0000 0.74878  0.70251  0.50104  Biso   1.000  O 
  O32      1.0000 0.75016  0.79701  0.75016  Biso   1.000  O 
