data_image0
_cell_length_a       10.046
_cell_length_b       10.2585
_cell_length_c       10.4692
_cell_angle_alpha    90
_cell_angle_beta     90
_cell_angle_gamma    90

_symmetry_space_group_name_H-M    "P 1"
_symmetry_int_tables_number       1

loop_
  _symmetry_equiv_pos_as_xyz
  'x, y, z'

loop_
  _atom_site_label
  _atom_site_occupancy
  _atom_site_fract_x
  _atom_site_fract_y
  _atom_site_fract_z
  _atom_site_thermal_displace_type
  _atom_site_B_iso_or_equiv
  _atom_site_type_symbol
  Bi1      1.0000 0.13318  0.01785  0.17116  Biso   1.000  Bi
  Hf1      1.0000 0.13871  0.23022  0.42349  Biso   1.000  Hf
  Hf2      1.0000 0.36082  0.27156  0.17050  Biso   1.000  Hf
  Hf3      1.0000 0.36044  0.47897  0.42079  Biso   1.000  Hf
  Hf4      1.0000 0.63908  0.02111  0.07934  Biso   1.000  Hf
  Hf5      1.0000 0.63718  0.22978  0.32888  Biso   1.000  Hf
  Hf6      1.0000 0.85873  0.27276  0.07817  Biso   1.000  Hf
  Hf7      1.0000 0.86104  0.47899  0.32860  Biso   1.000  Hf
  O1       1.0000 0.03374  0.17740  0.08157  Biso   1.000  O 
  O2       1.0000 0.02740  0.08483  0.34219  Biso   1.000  O 
  O3       1.0000 0.46683  0.41549  0.08332  Biso   1.000  O 
  O4       1.0000 0.46645  0.33540  0.33318  Biso   1.000  O 
  O5       1.0000 0.28066  0.12735  0.30076  Biso   1.000  O 
  O6       1.0000 0.28354  0.13269  0.03697  Biso   1.000  O 
  O7       1.0000 0.22226  0.37374  0.29431  Biso   1.000  O 
  O8       1.0000 0.22303  0.37777  0.04398  Biso   1.000  O 
  O9       1.0000 0.53337  0.16642  0.16599  Biso   1.000  O 
  O10      1.0000 0.53388  0.08414  0.41709  Biso   1.000  O 
  O11      1.0000 0.96416  0.41906  0.16456  Biso   1.000  O 
  O12      1.0000 0.96591  0.33462  0.41640  Biso   1.000  O 
  O13      1.0000 0.77441  0.12449  0.45735  Biso   1.000  O 
  O14      1.0000 0.77558  0.12734  0.20686  Biso   1.000  O 
  O15      1.0000 0.72300  0.37429  0.45487  Biso   1.000  O 
  O16      1.0000 0.72235  0.37675  0.20518  Biso   1.000  O 
  Hf8      1.0000 0.13809  0.02108  0.67131  Biso   1.000  Hf
  Hf9      1.0000 0.13849  0.23166  0.91841  Biso   1.000  Hf
  Hf10     1.0000 0.36106  0.27128  0.67113  Biso   1.000  Hf
  Hf11     1.0000 0.36013  0.47936  0.92121  Biso   1.000  Hf
  Hf12     1.0000 0.63783  0.02159  0.58073  Biso   1.000  Hf
  Hf13     1.0000 0.63794  0.22932  0.82873  Biso   1.000  Hf
  Hf14     1.0000 0.86064  0.27176  0.57888  Biso   1.000  Hf
  Hf15     1.0000 0.86004  0.47915  0.82747  Biso   1.000  Hf
  O17      1.0000 0.03335  0.16868  0.58691  Biso   1.000  O 
  O18      1.0000 0.03387  0.08289  0.83582  Biso   1.000  O 
  O19      1.0000 0.46619  0.41582  0.58330  Biso   1.000  O 
  O20      1.0000 0.46586  0.33427  0.83369  Biso   1.000  O 
  O21      1.0000 0.27563  0.12416  0.79264  Biso   1.000  O 
  O22      1.0000 0.27582  0.12612  0.54579  Biso   1.000  O 
  O23      1.0000 0.22328  0.37490  0.79373  Biso   1.000  O 
  O24      1.0000 0.22319  0.37669  0.54480  Biso   1.000  O 
  O25      1.0000 0.53280  0.16652  0.66626  Biso   1.000  O 
  O26      1.0000 0.53473  0.08330  0.91482  Biso   1.000  O 
  O27      1.0000 0.96540  0.41766  0.66476  Biso   1.000  O 
  O28      1.0000 0.96387  0.33442  0.91378  Biso   1.000  O 
  O29      1.0000 0.77588  0.12448  0.95611  Biso   1.000  O 
  O30      1.0000 0.77588  0.12668  0.70633  Biso   1.000  O 
  O31      1.0000 0.72138  0.37455  0.95459  Biso   1.000  O 
  O32      1.0000 0.72281  0.37636  0.70464  Biso   1.000  O 
  Hf16     1.0000 0.13825  0.52103  0.17098  Biso   1.000  Hf
  Hf17     1.0000 0.13742  0.72787  0.42214  Biso   1.000  Hf
  Hf18     1.0000 0.36412  0.76904  0.17039  Biso   1.000  Hf
  Hf19     1.0000 0.36250  0.97877  0.42263  Biso   1.000  Hf
  Hf20     1.0000 0.63816  0.52012  0.07812  Biso   1.000  Hf
  Hf21     1.0000 0.63851  0.72809  0.32927  Biso   1.000  Hf
  Hf22     1.0000 0.85847  0.76752  0.07703  Biso   1.000  Hf
  Hf23     1.0000 0.85436  0.97922  0.33292  Biso   1.000  Hf
  O33      1.0000 0.03405  0.66848  0.08472  Biso   1.000  O 
  O34      1.0000 0.03293  0.58362  0.33455  Biso   1.000  O 
  O35      1.0000 0.46786  0.91647  0.08387  Biso   1.000  O 
  O36      1.0000 0.46823  0.83444  0.33374  Biso   1.000  O 
  O37      1.0000 0.27623  0.62244  0.29445  Biso   1.000  O 
  O38      1.0000 0.27615  0.62373  0.04485  Biso   1.000  O 
  O39      1.0000 0.22851  0.86776  0.29799  Biso   1.000  O 
  O40      1.0000 0.23303  0.86790  0.03821  Biso   1.000  O 
  O41      1.0000 0.53402  0.66436  0.16648  Biso   1.000  O 
  O42      1.0000 0.53221  0.58413  0.41625  Biso   1.000  O 
  O43      1.0000 0.94965  0.91718  0.16588  Biso   1.000  O 
  O44      1.0000 0.96525  0.83392  0.41544  Biso   1.000  O 
  O45      1.0000 0.77589  0.62402  0.45512  Biso   1.000  O 
  O46      1.0000 0.77576  0.62594  0.20489  Biso   1.000  O 
  O47      1.0000 0.72181  0.87350  0.45734  Biso   1.000  O 
  O48      1.0000 0.71874  0.87599  0.20722  Biso   1.000  O 
  Hf24     1.0000 0.13771  0.52140  0.67118  Biso   1.000  Hf
  Hf25     1.0000 0.13783  0.72842  0.92015  Biso   1.000  Hf
  Hf26     1.0000 0.35997  0.77109  0.67097  Biso   1.000  Hf
  Hf27     1.0000 0.36226  0.97965  0.91934  Biso   1.000  Hf
  Hf28     1.0000 0.63770  0.52115  0.57807  Biso   1.000  Hf
  Hf29     1.0000 0.63727  0.72913  0.82762  Biso   1.000  Hf
  Hf30     1.0000 0.86083  0.77144  0.57925  Biso   1.000  Hf
  Hf31     1.0000 0.86097  0.97951  0.82969  Biso   1.000  Hf
  O49      1.0000 0.03267  0.66710  0.58519  Biso   1.000  O 
  O50      1.0000 0.03225  0.58303  0.83388  Biso   1.000  O 
  O51      1.0000 0.46630  0.91621  0.58496  Biso   1.000  O 
  O52      1.0000 0.46642  0.83439  0.83242  Biso   1.000  O 
  O53      1.0000 0.27534  0.62418  0.79437  Biso   1.000  O 
  O54      1.0000 0.27514  0.62589  0.54469  Biso   1.000  O 
  O55      1.0000 0.22280  0.87388  0.79305  Biso   1.000  O 
  O56      1.0000 0.22306  0.87628  0.54488  Biso   1.000  O 
  O57      1.0000 0.53215  0.66567  0.66573  Biso   1.000  O 
  O58      1.0000 0.53141  0.58518  0.91639  Biso   1.000  O 
  O59      1.0000 0.96516  0.91722  0.66593  Biso   1.000  O 
  O60      1.0000 0.96605  0.83404  0.91647  Biso   1.000  O 
  O61      1.0000 0.77429  0.62300  0.95399  Biso   1.000  O 
  O62      1.0000 0.77518  0.62672  0.70452  Biso   1.000  O 
  O63      1.0000 0.72233  0.87362  0.95537  Biso   1.000  O 
  O64      1.0000 0.72328  0.87656  0.70604  Biso   1.000  O 
