data_image0
_cell_length_a       10.0583
_cell_length_b       10.0583
_cell_length_c       5.05243
_cell_angle_alpha    90
_cell_angle_beta     90
_cell_angle_gamma    80

_symmetry_space_group_name_H-M    "P 1"
_symmetry_int_tables_number       1

loop_
  _symmetry_equiv_pos_as_xyz
  'x, y, z'

loop_
  _atom_site_label
  _atom_site_occupancy
  _atom_site_fract_x
  _atom_site_fract_y
  _atom_site_fract_z
  _atom_site_thermal_displace_type
  _atom_site_B_iso_or_equiv
  _atom_site_type_symbol
  C1       1.0000 0.12416  0.00012  0.17343  Biso   1.000  C 
  Hf1      1.0000 0.10729  0.25755  0.78464  Biso   1.000  Hf
  Hf2      1.0000 0.35567  0.25511  0.31976  Biso   1.000  Hf
  Hf3      1.0000 0.37845  0.00420  0.78465  Biso   1.000  Hf
  O1       1.0000 0.94077  0.17148  0.87064  Biso   1.000  O 
  O2       1.0000 0.03247  0.08579  0.32435  Biso   1.000  O 
  O3       1.0000 0.97436  0.35040  0.48532  Biso   1.000  O 
  O4       1.0000 0.97074  0.41253  0.99835  Biso   1.000  O 
  O5       1.0000 0.26029  0.15005  0.56660  Biso   1.000  O 
  O6       1.0000 0.19436  0.07745  0.00635  Biso   1.000  O 
  O7       1.0000 0.21138  0.33819  0.07415  Biso   1.000  O 
  O8       1.0000 0.21268  0.40498  0.56546  Biso   1.000  O 
  Hf4      1.0000 0.08313  0.50562  0.26692  Biso   1.000  Hf
  Hf5      1.0000 0.05896  0.75369  0.78464  Biso   1.000  Hf
  Hf6      1.0000 0.29650  0.77342  0.24273  Biso   1.000  Hf
  Hf7      1.0000 0.34034  0.52118  0.73227  Biso   1.000  Hf
  O9       1.0000 0.95485  0.67304  0.07413  Biso   1.000  O 
  O10      1.0000 0.95357  0.60627  0.56545  Biso   1.000  O 
  O11      1.0000 0.90595  0.86119  0.56660  Biso   1.000  O 
  O12      1.0000 0.97188  0.93378  0.00635  Biso   1.000  O 
  O13      1.0000 0.19189  0.66084  0.48531  Biso   1.000  O 
  O14      1.0000 0.19550  0.59870  0.99832  Biso   1.000  O 
  O15      1.0000 0.22549  0.83976  0.87065  Biso   1.000  O 
  O16      1.0000 0.13377  0.92544  0.32435  Biso   1.000  O 
  Hf8      1.0000 0.62416  0.00013  0.26693  Biso   1.000  Hf
  Hf9      1.0000 0.61835  0.26145  0.73227  Biso   1.000  Hf
  Hf10     1.0000 0.86974  0.23783  0.24272  Biso   1.000  Hf
  Hf11     1.0000 0.78779  0.00705  0.78464  Biso   1.000  Hf
  O17      1.0000 0.44915  0.11607  0.07415  Biso   1.000  O 
  O18      1.0000 0.51465  0.12286  0.56546  Biso   1.000  O 
  O19      1.0000 0.47131  0.38249  0.46514  Biso   1.000  O 
  O20      1.0000 0.47488  0.38640  0.96387  Biso   1.000  O 
  O21      1.0000 0.76773  0.12284  0.48533  Biso   1.000  O 
  O22      1.0000 0.70640  0.12140  0.99835  Biso   1.000  O 
  O23      1.0000 0.72840  0.36989  0.00076  Biso   1.000  O 
  O24      1.0000 0.71836  0.37928  0.49517  Biso   1.000  O 
  Hf12     1.0000 0.58312  0.50562  0.21535  Biso   1.000  Hf
  Hf13     1.0000 0.54791  0.74981  0.73227  Biso   1.000  Hf
  Hf14     1.0000 0.81057  0.75613  0.31975  Biso   1.000  Hf
  Hf15     1.0000 0.82592  0.49007  0.73228  Biso   1.000  Hf
  O25      1.0000 0.43784  0.64136  0.00076  Biso   1.000  O 
  O26      1.0000 0.44788  0.63199  0.49517  Biso   1.000  O 
  O27      1.0000 0.39851  0.88842  0.48532  Biso   1.000  O 
  O28      1.0000 0.45985  0.88986  0.99836  Biso   1.000  O 
  O29      1.0000 0.69492  0.62878  0.46516  Biso   1.000  O 
  O30      1.0000 0.69137  0.62485  0.96388  Biso   1.000  O 
  O31      1.0000 0.71710  0.89518  0.07415  Biso   1.000  O 
  O32      1.0000 0.65159  0.88841  0.56546  Biso   1.000  O 
