data_image0
_cell_length_a       10.1064
_cell_length_b       10.293
_cell_length_c       5.04419
_cell_angle_alpha    90
_cell_angle_beta     90
_cell_angle_gamma    90

_symmetry_space_group_name_H-M    "P 1"
_symmetry_int_tables_number       1

loop_
  _symmetry_equiv_pos_as_xyz
  'x, y, z'

loop_
  _atom_site_label
  _atom_site_occupancy
  _atom_site_fract_x
  _atom_site_fract_y
  _atom_site_fract_z
  _atom_site_thermal_displace_type
  _atom_site_B_iso_or_equiv
  _atom_site_type_symbol
  Hf1      1.0000 0.14280  0.99685  0.28147  Biso   1.000  Hf
  Hf2      1.0000 0.15227  0.22566  0.73697  Biso   1.000  Hf
  Hf3      1.0000 0.35537  0.26638  0.21907  Biso   1.000  Hf
  Hf4      1.0000 0.41384  0.99822  0.78460  Biso   1.000  Hf
  O1       1.0000 0.03375  0.17163  0.13001  Biso   1.000  O 
  O2       1.0000 0.02907  0.08199  0.61962  Biso   1.000  O 
  O3       1.0000 0.02994  0.32864  0.45284  Biso   1.000  O 
  O4       1.0000 0.99176  0.39382  0.95494  Biso   1.000  O 
  O5       1.0000 0.33021  0.16856  0.57748  Biso   1.000  O 
  O6       1.0000 0.25502  0.10441  0.03225  Biso   1.000  O 
  O7       1.0000 0.25645  0.37731  0.90358  Biso   1.000  O 
  O8       1.0000 0.28954  0.43060  0.41171  Biso   1.000  O 
  Hf5      1.0000 0.12318  0.47954  0.19393  Biso   1.000  Hf
  Hf6      1.0000 0.15397  0.77331  0.79449  Biso   1.000  Hf
  Hf7      1.0000 0.39786  0.74209  0.26770  Biso   1.000  Hf
  Hf8      1.0000 0.37031  0.52196  0.74063  Biso   1.000  Hf
  O9       1.0000 0.00594  0.65288  0.93868  Biso   1.000  O 
  O10      1.0000 0.99623  0.58354  0.42842  Biso   1.000  O 
  O11      1.0000 0.01635  0.84202  0.51083  Biso   1.000  O 
  O12      1.0000 0.01302  0.90613  0.02391  Biso   1.000  O 
  O13      1.0000 0.26719  0.67197  0.53934  Biso   1.000  O 
  O14      1.0000 0.25071  0.61798  0.02461  Biso   1.000  O 
  O15      1.0000 0.26663  0.86107  0.06909  Biso   1.000  O 
  O16      1.0000 0.25587  0.92605  0.57909  Biso   1.000  O 
  Hf9      1.0000 0.64216  0.01071  0.22929  Biso   1.000  Hf
  Hf10     1.0000 0.61704  0.23773  0.72906  Biso   1.000  Hf
  Hf11     1.0000 0.85474  0.27130  0.20156  Biso   1.000  Hf
  Hf12     1.0000 0.88832  0.98437  0.72342  Biso   1.000  Hf
  O17      1.0000 0.50599  0.14177  0.03405  Biso   1.000  O 
  O18      1.0000 0.55385  0.06142  0.57224  Biso   1.000  O 
  O19      1.0000 0.53405  0.32463  0.41898  Biso   1.000  O 
  O20      1.0000 0.49771  0.39014  0.94239  Biso   1.000  O 
  O21      1.0000 0.77395  0.14976  0.48208  Biso   1.000  O 
  O22      1.0000 0.77606  0.11583  0.98321  Biso   1.000  O 
  O23      1.0000 0.74362  0.36316  0.93312  Biso   1.000  O 
  O24      1.0000 0.77676  0.41280  0.43036  Biso   1.000  O 
  Hf13     1.0000 0.61422  0.48307  0.20528  Biso   1.000  Hf
  Hf14     1.0000 0.64152  0.75001  0.77046  Biso   1.000  Hf
  Hf15     1.0000 0.89156  0.74172  0.24895  Biso   1.000  Hf
  Hf16     1.0000 0.87441  0.51810  0.73148  Biso   1.000  Hf
  O25      1.0000 0.50946  0.63799  0.98612  Biso   1.000  O 
  O26      1.0000 0.51487  0.59038  0.47877  Biso   1.000  O 
  O27      1.0000 0.49077  0.83225  0.57507  Biso   1.000  O 
  O28      1.0000 0.52310  0.88694  0.06543  Biso   1.000  O 
  O29      1.0000 0.76751  0.65963  0.52842  Biso   1.000  O 
  O30      1.0000 0.75198  0.60804  0.02131  Biso   1.000  O 
  O31      1.0000 0.77571  0.86098  0.97417  Biso   1.000  O 
  O32      1.0000 0.76961  0.89084  0.46474  Biso   1.000  O 
  C1       1.0000 0.11831  0.25226  0.29287  Biso   1.000  C 
