data_image0
_cell_length_a       9.96517
_cell_length_b       10.3754
_cell_length_c       10.0188
_cell_angle_alpha    90
_cell_angle_beta     90
_cell_angle_gamma    90

_symmetry_space_group_name_H-M    "P 1"
_symmetry_int_tables_number       1

loop_
  _symmetry_equiv_pos_as_xyz
  'x, y, z'

loop_
  _atom_site_label
  _atom_site_occupancy
  _atom_site_fract_x
  _atom_site_fract_y
  _atom_site_fract_z
  _atom_site_thermal_displace_type
  _atom_site_B_iso_or_equiv
  _atom_site_type_symbol
  Hf1      1.0000 0.14388  0.01979  0.12333  Biso   1.000  Hf
  Hf2      1.0000 0.13621  0.22499  0.39726  Biso   1.000  Hf
  Hf3      1.0000 0.36045  0.25959  0.11939  Biso   1.000  Hf
  Hf4      1.0000 0.37530  0.48713  0.37886  Biso   1.000  Hf
  O1       1.0000 0.02585  0.17602  0.21892  Biso   1.000  O 
  O2       1.0000 0.03852  0.06267  0.45414  Biso   1.000  O 
  O3       1.0000 0.45096  0.42912  0.19676  Biso   1.000  O 
  O4       1.0000 0.46424  0.31436  0.44370  Biso   1.000  O 
  O5       1.0000 0.27104  0.11585  0.25964  Biso   1.000  O 
  O6       1.0000 0.27811  0.12710  0.50848  Biso   1.000  O 
  O7       1.0000 0.23200  0.38185  0.49097  Biso   1.000  O 
  O8       1.0000 0.18124  0.33941  0.22189  Biso   1.000  O 
  Hf5      1.0000 0.14197  0.01400  0.63376  Biso   1.000  Hf
  Hf6      1.0000 0.13905  0.23348  0.88780  Biso   1.000  Hf
  Hf7      1.0000 0.37055  0.26473  0.62991  Biso   1.000  Hf
  Hf8      1.0000 0.37134  0.48488  0.87123  Biso   1.000  Hf
  O9       1.0000 0.04254  0.18360  0.69397  Biso   1.000  O 
  O10      1.0000 0.04320  0.06530  0.94988  Biso   1.000  O 
  O11      1.0000 0.46469  0.43398  0.69062  Biso   1.000  O 
  O12      1.0000 0.46904  0.31228  0.94086  Biso   1.000  O 
  O13      1.0000 0.27444  0.11730  0.75619  Biso   1.000  O 
  O14      1.0000 0.29753  0.11488  0.99562  Biso   1.000  O 
  O15      1.0000 0.24282  0.38632  0.99380  Biso   1.000  O 
  O16      1.0000 0.22890  0.36627  0.74701  Biso   1.000  O 
  Hf9      1.0000 0.12238  0.51660  0.11813  Biso   1.000  Hf
  Hf10     1.0000 0.13005  0.73106  0.37504  Biso   1.000  Hf
  Hf11     1.0000 0.36006  0.76268  0.12616  Biso   1.000  Hf
  Hf12     1.0000 0.36335  0.97934  0.37751  Biso   1.000  Hf
  O17      1.0000 0.03327  0.68582  0.19115  Biso   1.000  O 
  O18      1.0000 0.03360  0.56506  0.44321  Biso   1.000  O 
  O19      1.0000 0.45955  0.93106  0.19488  Biso   1.000  O 
  O20      1.0000 0.46192  0.81268  0.44506  Biso   1.000  O 
  O21      1.0000 0.26035  0.60345  0.24940  Biso   1.000  O 
  O22      1.0000 0.27003  0.63142  0.49813  Biso   1.000  O 
  O23      1.0000 0.22566  0.88022  0.50132  Biso   1.000  O 
  O24      1.0000 0.22844  0.86288  0.25067  Biso   1.000  O 
  Hf13     1.0000 0.13336  0.51471  0.62353  Biso   1.000  Hf
  Hf14     1.0000 0.13357  0.73212  0.87526  Biso   1.000  Hf
  Hf15     1.0000 0.36537  0.76358  0.62535  Biso   1.000  Hf
  Hf16     1.0000 0.36988  0.97671  0.87443  Biso   1.000  Hf
  O25      1.0000 0.03723  0.68380  0.69151  Biso   1.000  O 
  O26      1.0000 0.03598  0.56237  0.93978  Biso   1.000  O 
  O27      1.0000 0.46272  0.93182  0.69035  Biso   1.000  O 
  O28      1.0000 0.46543  0.81109  0.94762  Biso   1.000  O 
  O29      1.0000 0.26947  0.61591  0.74819  Biso   1.000  O 
  O30      1.0000 0.26955  0.63125  0.99789  Biso   1.000  O 
  O31      1.0000 0.22264  0.88001  0.00057  Biso   1.000  O 
  O32      1.0000 0.23070  0.86467  0.75101  Biso   1.000  O 
  Hf17     1.0000 0.63543  0.01823  0.12571  Biso   1.000  Hf
  Hf18     1.0000 0.63591  0.23212  0.37419  Biso   1.000  Hf
  Hf19     1.0000 0.87061  0.27458  0.11493  Biso   1.000  Hf
  Hf20     1.0000 0.86246  0.48338  0.37667  Biso   1.000  Hf
  O33      1.0000 0.53310  0.18241  0.19179  Biso   1.000  O 
  O34      1.0000 0.54104  0.06369  0.44367  Biso   1.000  O 
  O35      1.0000 0.94700  0.44689  0.19123  Biso   1.000  O 
  O36      1.0000 0.96597  0.31675  0.44751  Biso   1.000  O 
  O37      1.0000 0.77096  0.11824  0.24867  Biso   1.000  O 
  O38      1.0000 0.77462  0.13330  0.49934  Biso   1.000  O 
  O39      1.0000 0.72860  0.38098  0.49938  Biso   1.000  O 
  O40      1.0000 0.72460  0.36819  0.24834  Biso   1.000  O 
  Hf21     1.0000 0.64073  0.01667  0.62541  Biso   1.000  Hf
  Hf22     1.0000 0.63995  0.23044  0.87661  Biso   1.000  Hf
  Hf23     1.0000 0.87097  0.26596  0.62899  Biso   1.000  Hf
  Hf24     1.0000 0.86323  0.48401  0.87208  Biso   1.000  Hf
  O41      1.0000 0.54054  0.18267  0.69426  Biso   1.000  O 
  O42      1.0000 0.55107  0.05880  0.93909  Biso   1.000  O 
  O43      1.0000 0.95998  0.43895  0.68754  Biso   1.000  O 
  O44      1.0000 0.95335  0.31257  0.91820  Biso   1.000  O 
  O45      1.0000 0.77681  0.11650  0.74953  Biso   1.000  O 
  O46      1.0000 0.77905  0.13034  0.99970  Biso   1.000  O 
  O47      1.0000 0.73079  0.38067  0.99988  Biso   1.000  O 
  O48      1.0000 0.72766  0.36834  0.74861  Biso   1.000  O 
  Hf25     1.0000 0.62827  0.51488  0.12882  Biso   1.000  Hf
  Hf26     1.0000 0.63429  0.73556  0.37658  Biso   1.000  Hf
  Hf27     1.0000 0.86262  0.76829  0.12629  Biso   1.000  Hf
  Hf28     1.0000 0.86178  0.98500  0.37342  Biso   1.000  Hf
  O49      1.0000 0.52625  0.67830  0.20166  Biso   1.000  O 
  O50      1.0000 0.53738  0.56640  0.44847  Biso   1.000  O 
  O51      1.0000 0.96249  0.93463  0.19431  Biso   1.000  O 
  O52      1.0000 0.96014  0.81509  0.44237  Biso   1.000  O 
  O53      1.0000 0.76364  0.61953  0.25185  Biso   1.000  O 
  O54      1.0000 0.76882  0.63259  0.50092  Biso   1.000  O 
  O55      1.0000 0.72850  0.88306  0.49970  Biso   1.000  O 
  O56      1.0000 0.72542  0.86847  0.24956  Biso   1.000  O 
  Hf29     1.0000 0.63740  0.51549  0.62732  Biso   1.000  Hf
  Hf30     1.0000 0.63599  0.73225  0.87763  Biso   1.000  Hf
  Hf31     1.0000 0.86684  0.76719  0.62550  Biso   1.000  Hf
  Hf32     1.0000 0.86380  0.98237  0.87730  Biso   1.000  Hf
  O57      1.0000 0.53433  0.68108  0.69841  Biso   1.000  O 
  O58      1.0000 0.53797  0.56364  0.94831  Biso   1.000  O 
  O59      1.0000 0.96368  0.93164  0.69918  Biso   1.000  O 
  O60      1.0000 0.96267  0.81333  0.94334  Biso   1.000  O 
  O61      1.0000 0.77069  0.61967  0.74991  Biso   1.000  O 
  O62      1.0000 0.76382  0.63260  0.00248  Biso   1.000  O 
  O63      1.0000 0.72447  0.88257  0.00096  Biso   1.000  O 
  O64      1.0000 0.72817  0.86736  0.75005  Biso   1.000  O 
  C1       1.0000 0.10329  0.25337  0.13053  Biso   1.000  C 
