data_image0
_cell_length_a       10.0562
_cell_length_b       10.1926
_cell_length_c       5.22819
_cell_angle_alpha    90
_cell_angle_beta     90
_cell_angle_gamma    90

_symmetry_space_group_name_H-M    "P 1"
_symmetry_int_tables_number       1

loop_
  _symmetry_equiv_pos_as_xyz
  'x, y, z'

loop_
  _atom_site_label
  _atom_site_occupancy
  _atom_site_fract_x
  _atom_site_fract_y
  _atom_site_fract_z
  _atom_site_thermal_displace_type
  _atom_site_B_iso_or_equiv
  _atom_site_type_symbol
  C1       1.0000 0.02053  0.05730  0.35473  Biso   1.000  C 
  Hf1      1.0000 0.15623  0.23056  0.83815  Biso   1.000  Hf
  Hf2      1.0000 0.35815  0.26252  0.34355  Biso   1.000  Hf
  Hf3      1.0000 0.36354  0.48014  0.84637  Biso   1.000  Hf
  Hf4      1.0000 0.63493  0.02045  0.15932  Biso   1.000  Hf
  Hf5      1.0000 0.63638  0.23137  0.65881  Biso   1.000  Hf
  Hf6      1.0000 0.85708  0.27470  0.15873  Biso   1.000  Hf
  Hf7      1.0000 0.87046  0.47692  0.66079  Biso   1.000  Hf
  O1       1.0000 0.03406  0.13782  0.16870  Biso   1.000  O 
  O2       1.0000 0.02836  0.09650  0.59049  Biso   1.000  O 
  O3       1.0000 0.46841  0.41398  0.17118  Biso   1.000  O 
  O4       1.0000 0.47083  0.33823  0.66847  Biso   1.000  O 
  O5       1.0000 0.28203  0.13037  0.60064  Biso   1.000  O 
  O6       1.0000 0.29129  0.13692  0.07045  Biso   1.000  O 
  O7       1.0000 0.22584  0.37492  0.59313  Biso   1.000  O 
  O8       1.0000 0.22229  0.37507  0.09019  Biso   1.000  O 
  O9       1.0000 0.53714  0.16776  0.33348  Biso   1.000  O 
  O10      1.0000 0.53975  0.08440  0.83133  Biso   1.000  O 
  O11      1.0000 0.97391  0.40771  0.34072  Biso   1.000  O 
  O12      1.0000 0.97121  0.32611  0.84719  Biso   1.000  O 
  O13      1.0000 0.78158  0.12323  0.91738  Biso   1.000  O 
  O14      1.0000 0.77837  0.12612  0.41450  Biso   1.000  O 
  O15      1.0000 0.72740  0.37559  0.91348  Biso   1.000  O 
  O16      1.0000 0.72792  0.37658  0.41082  Biso   1.000  O 
  Hf8      1.0000 0.14440  0.52311  0.34620  Biso   1.000  Hf
  Hf9      1.0000 0.15046  0.73733  0.83992  Biso   1.000  Hf
  Hf10     1.0000 0.35936  0.77969  0.34262  Biso   1.000  Hf
  Hf11     1.0000 0.36120  0.98078  0.83883  Biso   1.000  Hf
  Hf12     1.0000 0.63667  0.52054  0.16445  Biso   1.000  Hf
  Hf13     1.0000 0.63763  0.72786  0.65364  Biso   1.000  Hf
  Hf14     1.0000 0.86540  0.76197  0.14931  Biso   1.000  Hf
  Hf15     1.0000 0.85295  0.97686  0.67494  Biso   1.000  Hf
  O17      1.0000 0.03857  0.67271  0.18143  Biso   1.000  O 
  O18      1.0000 0.03725  0.58371  0.67473  Biso   1.000  O 
  O19      1.0000 0.47757  0.91433  0.16466  Biso   1.000  O 
  O20      1.0000 0.47918  0.84364  0.65576  Biso   1.000  O 
  O21      1.0000 0.28181  0.62221  0.58923  Biso   1.000  O 
  O22      1.0000 0.27904  0.62188  0.09308  Biso   1.000  O 
  O23      1.0000 0.23309  0.86927  0.59463  Biso   1.000  O 
  O24      1.0000 0.24135  0.86826  0.07299  Biso   1.000  O 
  O25      1.0000 0.53672  0.66645  0.33379  Biso   1.000  O 
  O26      1.0000 0.53631  0.58595  0.83636  Biso   1.000  O 
  O27      1.0000 0.97850  0.94245  0.32482  Biso   1.000  O 
  O28      1.0000 0.97157  0.84199  0.83175  Biso   1.000  O 
  O29      1.0000 0.78113  0.62504  0.91690  Biso   1.000  O 
  O30      1.0000 0.78145  0.62313  0.41421  Biso   1.000  O 
  O31      1.0000 0.72551  0.87299  0.91237  Biso   1.000  O 
  O32      1.0000 0.74201  0.87371  0.41031  Biso   1.000  O 
