data_image0
_cell_length_a       4.9932
_cell_length_b       10.3499
_cell_length_c       9.99891
_cell_angle_alpha    90
_cell_angle_beta     90
_cell_angle_gamma    90

_symmetry_space_group_name_H-M    "P 1"
_symmetry_int_tables_number       1

loop_
  _symmetry_equiv_pos_as_xyz
  'x, y, z'

loop_
  _atom_site_label
  _atom_site_occupancy
  _atom_site_fract_x
  _atom_site_fract_y
  _atom_site_fract_z
  _atom_site_thermal_displace_type
  _atom_site_B_iso_or_equiv
  _atom_site_type_symbol
  C1       1.0000 0.04682  0.05890  0.11138  Biso   1.000  C 
  Hf1      1.0000 0.29946  0.22979  0.37870  Biso   1.000  Hf
  Hf2      1.0000 0.70457  0.27085  0.12143  Biso   1.000  Hf
  Hf3      1.0000 0.75055  0.48240  0.37627  Biso   1.000  Hf
  O1       1.0000 0.09204  0.16838  0.17142  Biso   1.000  O 
  O2       1.0000 0.08843  0.06930  0.44488  Biso   1.000  O 
  O3       1.0000 0.92846  0.42672  0.19559  Biso   1.000  O 
  O4       1.0000 0.95165  0.31484  0.44616  Biso   1.000  O 
  O5       1.0000 0.59474  0.13572  0.26079  Biso   1.000  O 
  O6       1.0000 0.55509  0.13088  0.50548  Biso   1.000  O 
  O7       1.0000 0.48062  0.37969  0.49953  Biso   1.000  O 
  O8       1.0000 0.44249  0.37006  0.24823  Biso   1.000  O 
  Hf4      1.0000 0.27744  0.01249  0.62570  Biso   1.000  Hf
  Hf5      1.0000 0.30085  0.23539  0.87780  Biso   1.000  Hf
  Hf6      1.0000 0.75768  0.26385  0.62721  Biso   1.000  Hf
  Hf7      1.0000 0.76210  0.48380  0.87343  Biso   1.000  Hf
  O9       1.0000 0.07803  0.17712  0.70935  Biso   1.000  O 
  O10      1.0000 0.08125  0.06266  0.98186  Biso   1.000  O 
  O11      1.0000 0.95337  0.43247  0.69286  Biso   1.000  O 
  O12      1.0000 0.95940  0.31869  0.94442  Biso   1.000  O 
  O13      1.0000 0.54439  0.11278  0.74899  Biso   1.000  O 
  O14      1.0000 0.57914  0.13875  0.99068  Biso   1.000  O 
  O15      1.0000 0.48291  0.38530  0.99945  Biso   1.000  O 
  O16      1.0000 0.48426  0.36496  0.75015  Biso   1.000  O 
  Hf8      1.0000 0.26270  0.51839  0.12883  Biso   1.000  Hf
  Hf9      1.0000 0.29517  0.73764  0.37294  Biso   1.000  Hf
  Hf10     1.0000 0.73233  0.75945  0.11450  Biso   1.000  Hf
  Hf11     1.0000 0.73678  0.98833  0.37661  Biso   1.000  Hf
  O17      1.0000 0.08284  0.69239  0.19458  Biso   1.000  O 
  O18      1.0000 0.09127  0.56654  0.44154  Biso   1.000  O 
  O19      1.0000 0.96610  0.96078  0.17659  Biso   1.000  O 
  O20      1.0000 0.96115  0.82321  0.44785  Biso   1.000  O 
  O21      1.0000 0.54950  0.61050  0.24681  Biso   1.000  O 
  O22      1.0000 0.56231  0.63340  0.49735  Biso   1.000  O 
  O23      1.0000 0.47910  0.88419  0.50111  Biso   1.000  O 
  O24      1.0000 0.53807  0.85568  0.25853  Biso   1.000  O 
  Hf12     1.0000 0.28870  0.51843  0.62296  Biso   1.000  Hf
  Hf13     1.0000 0.29349  0.73451  0.87809  Biso   1.000  Hf
  Hf14     1.0000 0.75732  0.76790  0.62427  Biso   1.000  Hf
  Hf15     1.0000 0.72019  0.97907  0.88006  Biso   1.000  Hf
  O25      1.0000 0.09264  0.68264  0.69319  Biso   1.000  O 
  O26      1.0000 0.09065  0.56929  0.94942  Biso   1.000  O 
  O27      1.0000 0.93905  0.93412  0.70049  Biso   1.000  O 
  O28      1.0000 0.95446  0.81889  0.93876  Biso   1.000  O 
  O29      1.0000 0.56338  0.61680  0.74802  Biso   1.000  O 
  O30      1.0000 0.56671  0.62721  0.99874  Biso   1.000  O 
  O31      1.0000 0.48728  0.87141  0.99731  Biso   1.000  O 
  O32      1.0000 0.47106  0.86714  0.74768  Biso   1.000  O 
