data_image0
_cell_length_a       10.0583
_cell_length_b       5.05243
_cell_length_c       10.0583
_cell_angle_alpha    90
_cell_angle_beta     80
_cell_angle_gamma    90

_symmetry_space_group_name_H-M    "P 1"
_symmetry_int_tables_number       1

loop_
  _symmetry_equiv_pos_as_xyz
  'x, y, z'

loop_
  _atom_site_label
  _atom_site_occupancy
  _atom_site_fract_x
  _atom_site_fract_y
  _atom_site_fract_z
  _atom_site_thermal_displace_type
  _atom_site_B_iso_or_equiv
  _atom_site_type_symbol
  C1       1.0000 0.11465  0.92370  0.12631  Biso   1.000  C 
  Hf1      1.0000 0.09778  0.53489  0.38373  Biso   1.000  Hf
  Hf2      1.0000 0.36894  0.53490  0.13038  Biso   1.000  Hf
  Hf3      1.0000 0.34616  0.07000  0.38129  Biso   1.000  Hf
  O1       1.0000 0.89644  0.31687  0.98737  Biso   1.000  O 
  O2       1.0000 0.02296  0.07462  0.21198  Biso   1.000  O 
  O3       1.0000 0.93125  0.62090  0.29765  Biso   1.000  O 
  O4       1.0000 0.04444  0.75662  0.04899  Biso   1.000  O 
  O5       1.0000 0.25077  0.31685  0.27624  Biso   1.000  O 
  O6       1.0000 0.20634  0.07462  0.04064  Biso   1.000  O 
  O7       1.0000 0.21595  0.62091  0.96595  Biso   1.000  O 
  O8       1.0000 0.18486  0.75661  0.20363  Biso   1.000  O 
  Hf4      1.0000 0.07360  0.01719  0.63180  Biso   1.000  Hf
  Hf5      1.0000 0.04944  0.53491  0.87988  Biso   1.000  Hf
  Hf6      1.0000 0.33081  0.48255  0.64735  Biso   1.000  Hf
  Hf7      1.0000 0.28698  0.99298  0.89958  Biso   1.000  Hf
  O9       1.0000 0.96484  0.23557  0.47659  Biso   1.000  O 
  O10      1.0000 0.94404  0.31573  0.73245  Biso   1.000  O 
  O11      1.0000 0.94533  0.82442  0.79922  Biso   1.000  O 
  O12      1.0000 0.96123  0.74859  0.53871  Biso   1.000  O 
  O13      1.0000 0.18236  0.23559  0.78702  Biso   1.000  O 
  O14      1.0000 0.20315  0.31572  0.53116  Biso   1.000  O 
  O15      1.0000 0.20188  0.82440  0.46438  Biso   1.000  O 
  O16      1.0000 0.18599  0.74863  0.72489  Biso   1.000  O 
  Hf8      1.0000 0.61465  0.01719  0.12630  Biso   1.000  Hf
  Hf9      1.0000 0.60882  0.48254  0.38762  Biso   1.000  Hf
  Hf10     1.0000 0.86036  0.53491  0.12224  Biso   1.000  Hf
  Hf11     1.0000 0.86023  0.99298  0.36400  Biso   1.000  Hf
  O17      1.0000 0.47108  0.23558  0.00360  Biso   1.000  O 
  O18      1.0000 0.50514  0.31572  0.24901  Biso   1.000  O 
  O19      1.0000 0.43963  0.82440  0.24224  Biso   1.000  O 
  O20      1.0000 0.53241  0.74860  0.00505  Biso   1.000  O 
  O21      1.0000 0.75822  0.23559  0.24900  Biso   1.000  O 
  O22      1.0000 0.72416  0.31573  0.00359  Biso   1.000  O 
  O23      1.0000 0.78967  0.82442  0.01037  Biso   1.000  O 
  O24      1.0000 0.69688  0.74862  0.24757  Biso   1.000  O 
  Hf12     1.0000 0.57360  0.96562  0.63180  Biso   1.000  Hf
  Hf13     1.0000 0.53838  0.48254  0.87597  Biso   1.000  Hf
  Hf14     1.0000 0.81640  0.48254  0.61623  Biso   1.000  Hf
  Hf15     1.0000 0.80105  0.07004  0.88231  Biso   1.000  Hf
  O25      1.0000 0.46180  0.21543  0.50865  Biso   1.000  O 
  O26      1.0000 0.43836  0.24545  0.75815  Biso   1.000  O 
  O27      1.0000 0.42832  0.75104  0.76754  Biso   1.000  O 
  O28      1.0000 0.46536  0.71416  0.51258  Biso   1.000  O 
  O29      1.0000 0.68540  0.21541  0.75494  Biso   1.000  O 
  O30      1.0000 0.70885  0.24544  0.50544  Biso   1.000  O 
  O31      1.0000 0.71889  0.75103  0.49606  Biso   1.000  O 
  O32      1.0000 0.68185  0.71414  0.75101  Biso   1.000  O 
