data_image0
_cell_length_a       10.0408
_cell_length_b       10.2774
_cell_length_c       10.4064
_cell_angle_alpha    90
_cell_angle_beta     90
_cell_angle_gamma    90

_symmetry_space_group_name_H-M    "P 1"
_symmetry_int_tables_number       1

loop_
  _symmetry_equiv_pos_as_xyz
  'x, y, z'

loop_
  _atom_site_label
  _atom_site_occupancy
  _atom_site_fract_x
  _atom_site_fract_y
  _atom_site_fract_z
  _atom_site_thermal_displace_type
  _atom_site_B_iso_or_equiv
  _atom_site_type_symbol
  Hf1      1.0000 0.13691  0.02236  0.17337  Biso   1.000  Hf
  Hf2      1.0000 0.14057  0.23052  0.42140  Biso   1.000  Hf
  Hf3      1.0000 0.36178  0.27173  0.16457  Biso   1.000  Hf
  Hf4      1.0000 0.36362  0.47633  0.41864  Biso   1.000  Hf
  Hf5      1.0000 0.65044  0.01089  0.07954  Biso   1.000  Hf
  Hf6      1.0000 0.64236  0.23114  0.33365  Biso   1.000  Hf
  Hf7      1.0000 0.85901  0.27111  0.07805  Biso   1.000  Hf
  Hf8      1.0000 0.86343  0.47829  0.32913  Biso   1.000  Hf
  O1       1.0000 0.03169  0.16916  0.08725  Biso   1.000  O 
  O2       1.0000 0.03435  0.08218  0.33874  Biso   1.000  O 
  O3       1.0000 0.45793  0.43872  0.09862  Biso   1.000  O 
  O4       1.0000 0.46765  0.32937  0.33088  Biso   1.000  O 
  O5       1.0000 0.27625  0.12604  0.29447  Biso   1.000  O 
  O6       1.0000 0.26893  0.12094  0.04587  Biso   1.000  O 
  O7       1.0000 0.22247  0.37577  0.29499  Biso   1.000  O 
  O8       1.0000 0.22233  0.37621  0.04259  Biso   1.000  O 
  O9       1.0000 0.52750  0.15298  0.16313  Biso   1.000  O 
  O10      1.0000 0.53472  0.08622  0.41698  Biso   1.000  O 
  O11      1.0000 0.96528  0.41772  0.16400  Biso   1.000  O 
  O12      1.0000 0.96613  0.33097  0.41480  Biso   1.000  O 
  O13      1.0000 0.77733  0.12413  0.45835  Biso   1.000  O 
  O14      1.0000 0.77377  0.12605  0.20714  Biso   1.000  O 
  O15      1.0000 0.72480  0.37257  0.45673  Biso   1.000  O 
  O16      1.0000 0.72151  0.37438  0.20604  Biso   1.000  O 
  Hf9      1.0000 0.13997  0.02147  0.67065  Biso   1.000  Hf
  Hf10     1.0000 0.13674  0.22830  0.92133  Biso   1.000  Hf
  Hf11     1.0000 0.36382  0.27067  0.67359  Biso   1.000  Hf
  Hf12     1.0000 0.36125  0.48112  0.92359  Biso   1.000  Hf
  Hf13     1.0000 0.63899  0.02257  0.58273  Biso   1.000  Hf
  Hf14     1.0000 0.63986  0.23803  0.83999  Biso   1.000  Hf
  Hf15     1.0000 0.86322  0.27044  0.58247  Biso   1.000  Hf
  Hf16     1.0000 0.86357  0.48162  0.82875  Biso   1.000  Hf
  O17      1.0000 0.03660  0.16940  0.58797  Biso   1.000  O 
  O18      1.0000 0.03611  0.07915  0.83612  Biso   1.000  O 
  O19      1.0000 0.47031  0.41078  0.57928  Biso   1.000  O 
  O20      1.0000 0.47035  0.34599  0.82826  Biso   1.000  O 
  O21      1.0000 0.27704  0.12228  0.79613  Biso   1.000  O 
  O22      1.0000 0.27776  0.12596  0.54520  Biso   1.000  O 
  O23      1.0000 0.22452  0.37209  0.79437  Biso   1.000  O 
  O24      1.0000 0.22628  0.37596  0.54455  Biso   1.000  O 
  O25      1.0000 0.53238  0.15965  0.67947  Biso   1.000  O 
  O26      1.0000 0.51445  0.09690  0.93850  Biso   1.000  O 
  O27      1.0000 0.96714  0.41966  0.66309  Biso   1.000  O 
  O28      1.0000 0.96435  0.32910  0.91176  Biso   1.000  O 
  O29      1.0000 0.77986  0.11759  0.95445  Biso   1.000  O 
  O30      1.0000 0.77801  0.12771  0.70799  Biso   1.000  O 
  O31      1.0000 0.73213  0.38529  0.95542  Biso   1.000  O 
  O32      1.0000 0.72473  0.37664  0.70790  Biso   1.000  O 
  Hf17     1.0000 0.14034  0.51986  0.17198  Biso   1.000  Hf
  Hf18     1.0000 0.14103  0.72837  0.42155  Biso   1.000  Hf
  Hf19     1.0000 0.36363  0.77144  0.17273  Biso   1.000  Hf
  Hf20     1.0000 0.36236  0.98059  0.42122  Biso   1.000  Hf
  Hf21     1.0000 0.63779  0.52327  0.08118  Biso   1.000  Hf
  Hf22     1.0000 0.63989  0.72917  0.33138  Biso   1.000  Hf
  Hf23     1.0000 0.86449  0.76813  0.07970  Biso   1.000  Hf
  Hf24     1.0000 0.86324  0.97882  0.33168  Biso   1.000  Hf
  O33      1.0000 0.03475  0.66670  0.08670  Biso   1.000  O 
  O34      1.0000 0.03514  0.58186  0.33638  Biso   1.000  O 
  O35      1.0000 0.46941  0.91403  0.08249  Biso   1.000  O 
  O36      1.0000 0.46808  0.83449  0.33645  Biso   1.000  O 
  O37      1.0000 0.27775  0.62437  0.29494  Biso   1.000  O 
  O38      1.0000 0.27550  0.62831  0.04545  Biso   1.000  O 
  O39      1.0000 0.22517  0.87477  0.29546  Biso   1.000  O 
  O40      1.0000 0.22256  0.87451  0.04654  Biso   1.000  O 
  O41      1.0000 0.53888  0.67409  0.16613  Biso   1.000  O 
  O42      1.0000 0.53542  0.58188  0.41464  Biso   1.000  O 
  O43      1.0000 0.96500  0.91913  0.16463  Biso   1.000  O 
  O44      1.0000 0.96719  0.83064  0.41365  Biso   1.000  O 
  O45      1.0000 0.77762  0.62257  0.45697  Biso   1.000  O 
  O46      1.0000 0.77762  0.62480  0.20682  Biso   1.000  O 
  O47      1.0000 0.72545  0.87460  0.45688  Biso   1.000  O 
  O48      1.0000 0.72739  0.87392  0.20762  Biso   1.000  O 
  Hf25     1.0000 0.14163  0.51994  0.67068  Biso   1.000  Hf
  Hf26     1.0000 0.13778  0.72697  0.92138  Biso   1.000  Hf
  Hf27     1.0000 0.36247  0.77155  0.67063  Biso   1.000  Hf
  Hf28     1.0000 0.35069  0.97285  0.92452  Biso   1.000  Hf
  Hf29     1.0000 0.63924  0.52005  0.57964  Biso   1.000  Hf
  Hf30     1.0000 0.63879  0.72889  0.82871  Biso   1.000  Hf
  Hf31     1.0000 0.86311  0.77057  0.57898  Biso   1.000  Hf
  Hf32     1.0000 0.86337  0.97863  0.82722  Biso   1.000  Hf
  O49      1.0000 0.03681  0.66822  0.58689  Biso   1.000  O 
  O50      1.0000 0.03757  0.57993  0.83684  Biso   1.000  O 
  O51      1.0000 0.46807  0.91602  0.58358  Biso   1.000  O 
  O52      1.0000 0.46889  0.84080  0.83234  Biso   1.000  O 
  O53      1.0000 0.27839  0.62392  0.79507  Biso   1.000  O 
  O54      1.0000 0.27899  0.62488  0.54420  Biso   1.000  O 
  O55      1.0000 0.22180  0.87091  0.79455  Biso   1.000  O 
  O56      1.0000 0.22550  0.87608  0.54471  Biso   1.000  O 
  O57      1.0000 0.53326  0.66484  0.66617  Biso   1.000  O 
  O58      1.0000 0.53293  0.58714  0.91757  Biso   1.000  O 
  O59      1.0000 0.96742  0.91846  0.66192  Biso   1.000  O 
  O60      1.0000 0.96580  0.83047  0.91446  Biso   1.000  O 
  O61      1.0000 0.77627  0.62769  0.95492  Biso   1.000  O 
  O62      1.0000 0.77683  0.62708  0.70588  Biso   1.000  O 
  O63      1.0000 0.72435  0.87272  0.95499  Biso   1.000  O 
  O64      1.0000 0.72491  0.87611  0.70543  Biso   1.000  O 
  C1       1.0000 0.52798  0.20635  0.02833  Biso   1.000  C 
