data_image0
_cell_length_a       10.0409
_cell_length_b       10.2044
_cell_length_c       10.4713
_cell_angle_alpha    90
_cell_angle_beta     90
_cell_angle_gamma    90

_symmetry_space_group_name_H-M    "P 1"
_symmetry_int_tables_number       1

loop_
  _symmetry_equiv_pos_as_xyz
  'x, y, z'

loop_
  _atom_site_label
  _atom_site_occupancy
  _atom_site_fract_x
  _atom_site_fract_y
  _atom_site_fract_z
  _atom_site_thermal_displace_type
  _atom_site_B_iso_or_equiv
  _atom_site_type_symbol
  C1       1.0000 0.01920  0.06241  0.18029  Biso   1.000  C 
  Hf1      1.0000 0.14754  0.23218  0.42165  Biso   1.000  Hf
  Hf2      1.0000 0.35547  0.26284  0.17217  Biso   1.000  Hf
  Hf3      1.0000 0.36322  0.48007  0.42019  Biso   1.000  Hf
  Hf4      1.0000 0.63905  0.02185  0.07727  Biso   1.000  Hf
  Hf5      1.0000 0.63510  0.22992  0.32910  Biso   1.000  Hf
  Hf6      1.0000 0.85297  0.27723  0.07879  Biso   1.000  Hf
  Hf7      1.0000 0.86359  0.47947  0.32907  Biso   1.000  Hf
  O1       1.0000 0.03347  0.14894  0.09360  Biso   1.000  O 
  O2       1.0000 0.02738  0.09515  0.29982  Biso   1.000  O 
  O3       1.0000 0.46561  0.41232  0.08457  Biso   1.000  O 
  O4       1.0000 0.46900  0.33813  0.33305  Biso   1.000  O 
  O5       1.0000 0.28289  0.13293  0.30805  Biso   1.000  O 
  O6       1.0000 0.28975  0.13760  0.03196  Biso   1.000  O 
  O7       1.0000 0.22337  0.37665  0.29508  Biso   1.000  O 
  O8       1.0000 0.21904  0.37512  0.04660  Biso   1.000  O 
  O9       1.0000 0.53440  0.16531  0.16709  Biso   1.000  O 
  O10      1.0000 0.53469  0.08528  0.41793  Biso   1.000  O 
  O11      1.0000 0.96783  0.41258  0.16773  Biso   1.000  O 
  O12      1.0000 0.96976  0.33464  0.41637  Biso   1.000  O 
  O13      1.0000 0.77619  0.12138  0.45598  Biso   1.000  O 
  O14      1.0000 0.77750  0.12718  0.20690  Biso   1.000  O 
  O15      1.0000 0.72644  0.37244  0.45576  Biso   1.000  O 
  O16      1.0000 0.72254  0.37745  0.20464  Biso   1.000  O 
  Hf8      1.0000 0.13946  0.02019  0.67057  Biso   1.000  Hf
  Hf9      1.0000 0.14738  0.22741  0.91987  Biso   1.000  Hf
  Hf10     1.0000 0.36326  0.27147  0.67186  Biso   1.000  Hf
  Hf11     1.0000 0.36059  0.47812  0.92459  Biso   1.000  Hf
  Hf12     1.0000 0.63464  0.02025  0.58043  Biso   1.000  Hf
  Hf13     1.0000 0.63930  0.22932  0.82820  Biso   1.000  Hf
  Hf14     1.0000 0.86409  0.26951  0.57646  Biso   1.000  Hf
  Hf15     1.0000 0.86633  0.47630  0.82912  Biso   1.000  Hf
  O17      1.0000 0.02887  0.15088  0.56523  Biso   1.000  O 
  O18      1.0000 0.03210  0.08990  0.83044  Biso   1.000  O 
  O19      1.0000 0.46848  0.41566  0.58330  Biso   1.000  O 
  O20      1.0000 0.46889  0.33619  0.83292  Biso   1.000  O 
  O21      1.0000 0.27591  0.12280  0.79144  Biso   1.000  O 
  O22      1.0000 0.27667  0.12706  0.54873  Biso   1.000  O 
  O23      1.0000 0.22475  0.37182  0.79624  Biso   1.000  O 
  O24      1.0000 0.22481  0.37571  0.54411  Biso   1.000  O 
  O25      1.0000 0.53352  0.16568  0.66772  Biso   1.000  O 
  O26      1.0000 0.53761  0.08455  0.91583  Biso   1.000  O 
  O27      1.0000 0.97328  0.40721  0.67119  Biso   1.000  O 
  O28      1.0000 0.96931  0.33201  0.92573  Biso   1.000  O 
  O29      1.0000 0.77976  0.12647  0.95648  Biso   1.000  O 
  O30      1.0000 0.77653  0.12590  0.70454  Biso   1.000  O 
  O31      1.0000 0.72353  0.37659  0.95535  Biso   1.000  O 
  O32      1.0000 0.72749  0.37598  0.70490  Biso   1.000  O 
  Hf16     1.0000 0.14076  0.52117  0.17220  Biso   1.000  Hf
  Hf17     1.0000 0.14308  0.73109  0.41931  Biso   1.000  Hf
  Hf18     1.0000 0.35730  0.77799  0.17258  Biso   1.000  Hf
  Hf19     1.0000 0.35902  0.98015  0.41725  Biso   1.000  Hf
  Hf20     1.0000 0.63322  0.52176  0.08064  Biso   1.000  Hf
  Hf21     1.0000 0.63690  0.72698  0.32704  Biso   1.000  Hf
  Hf22     1.0000 0.86170  0.76505  0.07255  Biso   1.000  Hf
  Hf23     1.0000 0.84989  0.97608  0.33811  Biso   1.000  Hf
  O33      1.0000 0.03551  0.67252  0.08882  Biso   1.000  O 
  O34      1.0000 0.03295  0.58705  0.33326  Biso   1.000  O 
  O35      1.0000 0.47541  0.91411  0.08271  Biso   1.000  O 
  O36      1.0000 0.47659  0.84363  0.32827  Biso   1.000  O 
  O37      1.0000 0.27872  0.62201  0.29466  Biso   1.000  O 
  O38      1.0000 0.27586  0.62075  0.04702  Biso   1.000  O 
  O39      1.0000 0.23134  0.86706  0.30252  Biso   1.000  O 
  O40      1.0000 0.23980  0.86582  0.03566  Biso   1.000  O 
  O41      1.0000 0.53178  0.66554  0.16794  Biso   1.000  O 
  O42      1.0000 0.53463  0.58610  0.41827  Biso   1.000  O 
  O43      1.0000 0.97497  0.94799  0.16008  Biso   1.000  O 
  O44      1.0000 0.96880  0.84118  0.41490  Biso   1.000  O 
  O45      1.0000 0.77809  0.62346  0.45583  Biso   1.000  O 
  O46      1.0000 0.77644  0.62492  0.20456  Biso   1.000  O 
  O47      1.0000 0.72233  0.87164  0.45680  Biso   1.000  O 
  O48      1.0000 0.73878  0.87498  0.20502  Biso   1.000  O 
  Hf24     1.0000 0.14025  0.52333  0.67295  Biso   1.000  Hf
  Hf25     1.0000 0.14445  0.73320  0.92338  Biso   1.000  Hf
  Hf26     1.0000 0.36270  0.77247  0.67142  Biso   1.000  Hf
  Hf27     1.0000 0.36115  0.97988  0.92529  Biso   1.000  Hf
  Hf28     1.0000 0.64067  0.52060  0.57983  Biso   1.000  Hf
  Hf29     1.0000 0.63790  0.73012  0.82817  Biso   1.000  Hf
  Hf30     1.0000 0.86305  0.76927  0.58024  Biso   1.000  Hf
  Hf31     1.0000 0.86381  0.98020  0.82767  Biso   1.000  Hf
  O49      1.0000 0.03314  0.66390  0.58356  Biso   1.000  O 
  O50      1.0000 0.03461  0.58386  0.83503  Biso   1.000  O 
  O51      1.0000 0.46734  0.91458  0.58174  Biso   1.000  O 
  O52      1.0000 0.46965  0.83715  0.83076  Biso   1.000  O 
  O53      1.0000 0.27796  0.62332  0.79553  Biso   1.000  O 
  O54      1.0000 0.27743  0.62688  0.54515  Biso   1.000  O 
  O55      1.0000 0.22463  0.87390  0.79246  Biso   1.000  O 
  O56      1.0000 0.22373  0.87722  0.54615  Biso   1.000  O 
  O57      1.0000 0.53518  0.66484  0.66701  Biso   1.000  O 
  O58      1.0000 0.53248  0.58571  0.91774  Biso   1.000  O 
  O59      1.0000 0.96863  0.91265  0.66860  Biso   1.000  O 
  O60      1.0000 0.96958  0.83692  0.91864  Biso   1.000  O 
  O61      1.0000 0.77756  0.62558  0.95744  Biso   1.000  O 
  O62      1.0000 0.77921  0.62498  0.70703  Biso   1.000  O 
  O63      1.0000 0.72592  0.87530  0.95423  Biso   1.000  O 
  O64      1.0000 0.72559  0.87546  0.70503  Biso   1.000  O 
