data_image0
_cell_length_a       5.05576
_cell_length_b       10.3515
_cell_length_c       10.3892
_cell_angle_alpha    90
_cell_angle_beta     80
_cell_angle_gamma    90

_symmetry_space_group_name_H-M    "P 1"
_symmetry_int_tables_number       1

loop_
  _symmetry_equiv_pos_as_xyz
  'x, y, z'

loop_
  _atom_site_label
  _atom_site_occupancy
  _atom_site_fract_x
  _atom_site_fract_y
  _atom_site_fract_z
  _atom_site_thermal_displace_type
  _atom_site_B_iso_or_equiv
  _atom_site_type_symbol
  Hf1      1.0000 0.26916  0.01611  0.14877  Biso   1.000  Hf
  Hf2      1.0000 0.27820  0.22410  0.39230  Biso   1.000  Hf
  Hf3      1.0000 0.71891  0.26948  0.11539  Biso   1.000  Hf
  Hf4      1.0000 0.68102  0.48425  0.34910  Biso   1.000  Hf
  O1       1.0000 0.06565  0.16488  0.08321  Biso   1.000  O 
  O2       1.0000 0.07828  0.05615  0.34391  Biso   1.000  O 
  O3       1.0000 0.90105  0.43576  0.15902  Biso   1.000  O 
  O4       1.0000 0.94478  0.35135  0.42562  Biso   1.000  O 
  O5       1.0000 0.53842  0.12272  0.24192  Biso   1.000  O 
  O6       1.0000 0.54877  0.11782  0.49341  Biso   1.000  O 
  O7       1.0000 0.44081  0.37745  0.01154  Biso   1.000  O 
  O8       1.0000 0.40853  0.37531  0.25699  Biso   1.000  O 
  Hf5      1.0000 0.24730  0.01878  0.64594  Biso   1.000  Hf
  Hf6      1.0000 0.24172  0.22359  0.90398  Biso   1.000  Hf
  Hf7      1.0000 0.68872  0.26476  0.61624  Biso   1.000  Hf
  Hf8      1.0000 0.68791  0.47196  0.86095  Biso   1.000  Hf
  O9       1.0000 0.05262  0.17146  0.57849  Biso   1.000  O 
  O10      1.0000 0.04144  0.07631  0.83164  Biso   1.000  O 
  O11      1.0000 0.89911  0.41317  0.67421  Biso   1.000  O 
  O12      1.0000 0.89105  0.32357  0.92636  Biso   1.000  O 
  O13      1.0000 0.52178  0.12597  0.74577  Biso   1.000  O 
  O14      1.0000 0.51933  0.11598  0.99630  Biso   1.000  O 
  O15      1.0000 0.44211  0.37312  0.51107  Biso   1.000  O 
  O16      1.0000 0.41434  0.36583  0.76439  Biso   1.000  O 
  Hf9      1.0000 0.26247  0.52234  0.14232  Biso   1.000  Hf
  Hf10     1.0000 0.24310  0.72681  0.39785  Biso   1.000  Hf
  Hf11     1.0000 0.70548  0.77060  0.10408  Biso   1.000  Hf
  Hf12     1.0000 0.69985  0.97351  0.35748  Biso   1.000  Hf
  O17      1.0000 0.06143  0.67578  0.08115  Biso   1.000  O 
  O18      1.0000 0.04510  0.57874  0.32975  Biso   1.000  O 
  O19      1.0000 0.90196  0.92019  0.16943  Biso   1.000  O 
  O20      1.0000 0.88559  0.81846  0.42041  Biso   1.000  O 
  O21      1.0000 0.52763  0.62977  0.24170  Biso   1.000  O 
  O22      1.0000 0.51254  0.61750  0.49377  Biso   1.000  O 
  O23      1.0000 0.43262  0.87833  0.00933  Biso   1.000  O 
  O24      1.0000 0.42583  0.86491  0.25993  Biso   1.000  O 
  Hf13     1.0000 0.24629  0.51687  0.64890  Biso   1.000  Hf
  Hf14     1.0000 0.23529  0.72563  0.89742  Biso   1.000  Hf
  Hf15     1.0000 0.68489  0.76677  0.60773  Biso   1.000  Hf
  Hf16     1.0000 0.67820  0.97544  0.85823  Biso   1.000  Hf
  O25      1.0000 0.03674  0.66612  0.58633  Biso   1.000  O 
  O26      1.0000 0.03752  0.57357  0.83531  Biso   1.000  O 
  O27      1.0000 0.88561  0.91930  0.66854  Biso   1.000  O 
  O28      1.0000 0.88232  0.82521  0.91891  Biso   1.000  O 
  O29      1.0000 0.51724  0.62436  0.74355  Biso   1.000  O 
  O30      1.0000 0.51027  0.61640  0.99278  Biso   1.000  O 
  O31      1.0000 0.41100  0.87700  0.51186  Biso   1.000  O 
  O32      1.0000 0.40577  0.86799  0.76143  Biso   1.000  O 
  C1       1.0000 0.89764  0.28719  0.32180  Biso   1.000  C 
