data_image0
_cell_length_a       10.0113
_cell_length_b       10.4023
_cell_length_c       10.0677
_cell_angle_alpha    90
_cell_angle_beta     90
_cell_angle_gamma    90

_symmetry_space_group_name_H-M    "P 1"
_symmetry_int_tables_number       1

loop_
  _symmetry_equiv_pos_as_xyz
  'x, y, z'

loop_
  _atom_site_label
  _atom_site_occupancy
  _atom_site_fract_x
  _atom_site_fract_y
  _atom_site_fract_z
  _atom_site_thermal_displace_type
  _atom_site_B_iso_or_equiv
  _atom_site_type_symbol
  Hf1      1.0000 0.13238  0.00317  0.12095  Biso   1.000  Hf
  Hf2      1.0000 0.13471  0.23045  0.39333  Biso   1.000  Hf
  Hf3      1.0000 0.37813  0.27255  0.11848  Biso   1.000  Hf
  Hf4      1.0000 0.36750  0.48604  0.37540  Biso   1.000  Hf
  O1       1.0000 0.99222  0.15891  0.24234  Biso   1.000  O 
  O2       1.0000 0.03913  0.06489  0.46096  Biso   1.000  O 
  O3       1.0000 0.46607  0.43880  0.19612  Biso   1.000  O 
  O4       1.0000 0.46832  0.32248  0.44869  Biso   1.000  O 
  O5       1.0000 0.25085  0.12174  0.24474  Biso   1.000  O 
  O6       1.0000 0.27781  0.13406  0.50013  Biso   1.000  O 
  O7       1.0000 0.23372  0.38464  0.50223  Biso   1.000  O 
  O8       1.0000 0.23182  0.36988  0.25490  Biso   1.000  O 
  Hf5      1.0000 0.13944  0.01166  0.62761  Biso   1.000  Hf
  Hf6      1.0000 0.13302  0.23626  0.85124  Biso   1.000  Hf
  Hf7      1.0000 0.37516  0.27135  0.62537  Biso   1.000  Hf
  Hf8      1.0000 0.37256  0.49341  0.87293  Biso   1.000  Hf
  O9       1.0000 0.03846  0.18267  0.68577  Biso   1.000  O 
  O10      1.0000 0.03632  0.07171  0.94614  Biso   1.000  O 
  O11      1.0000 0.47123  0.43854  0.69401  Biso   1.000  O 
  O12      1.0000 0.47286  0.32586  0.94018  Biso   1.000  O 
  O13      1.0000 0.27377  0.11901  0.74554  Biso   1.000  O 
  O14      1.0000 0.26798  0.14621  0.99517  Biso   1.000  O 
  O15      1.0000 0.24216  0.40379  0.99974  Biso   1.000  O 
  O16      1.0000 0.23914  0.37177  0.74811  Biso   1.000  O 
  Hf9      1.0000 0.13813  0.53233  0.12660  Biso   1.000  Hf
  Hf10     1.0000 0.13677  0.73684  0.37803  Biso   1.000  Hf
  Hf11     1.0000 0.37098  0.76714  0.12399  Biso   1.000  Hf
  Hf12     1.0000 0.36738  0.98955  0.37094  Biso   1.000  Hf
  O17      1.0000 0.03347  0.68543  0.20181  Biso   1.000  O 
  O18      1.0000 0.03797  0.57018  0.44666  Biso   1.000  O 
  O19      1.0000 0.46101  0.93685  0.19269  Biso   1.000  O 
  O20      1.0000 0.46934  0.82306  0.44367  Biso   1.000  O 
  O21      1.0000 0.27639  0.62337  0.24989  Biso   1.000  O 
  O22      1.0000 0.27331  0.63581  0.49959  Biso   1.000  O 
  O23      1.0000 0.23638  0.88580  0.49728  Biso   1.000  O 
  O24      1.0000 0.23180  0.86631  0.24774  Biso   1.000  O 
  Hf13     1.0000 0.13730  0.52006  0.62504  Biso   1.000  Hf
  Hf14     1.0000 0.13562  0.74002  0.87128  Biso   1.000  Hf
  Hf15     1.0000 0.37385  0.77008  0.62287  Biso   1.000  Hf
  Hf16     1.0000 0.37213  0.99068  0.87481  Biso   1.000  Hf
  O25      1.0000 0.03902  0.68657  0.69295  Biso   1.000  O 
  O26      1.0000 0.03802  0.57501  0.94751  Biso   1.000  O 
  O27      1.0000 0.47178  0.93736  0.69627  Biso   1.000  O 
  O28      1.0000 0.47294  0.82563  0.94562  Biso   1.000  O 
  O29      1.0000 0.27305  0.62079  0.74752  Biso   1.000  O 
  O30      1.0000 0.27319  0.64714  0.99708  Biso   1.000  O 
  O31      1.0000 0.23751  0.88973  0.99613  Biso   1.000  O 
  O32      1.0000 0.23946  0.86831  0.74831  Biso   1.000  O 
  Hf17     1.0000 0.63007  0.01330  0.12345  Biso   1.000  Hf
  Hf18     1.0000 0.63146  0.23370  0.37765  Biso   1.000  Hf
  Hf19     1.0000 0.84475  0.26283  0.12899  Biso   1.000  Hf
  Hf20     1.0000 0.87164  0.48427  0.37233  Biso   1.000  Hf
  O33      1.0000 0.52839  0.17946  0.20416  Biso   1.000  O 
  O34      1.0000 0.53366  0.06944  0.44929  Biso   1.000  O 
  O35      1.0000 0.96904  0.42590  0.19189  Biso   1.000  O 
  O36      1.0000 0.97008  0.32431  0.45421  Biso   1.000  O 
  O37      1.0000 0.75189  0.11309  0.25003  Biso   1.000  O 
  O38      1.0000 0.77291  0.13989  0.49669  Biso   1.000  O 
  O39      1.0000 0.73569  0.38825  0.50026  Biso   1.000  O 
  O40      1.0000 0.72434  0.37163  0.25374  Biso   1.000  O 
  Hf21     1.0000 0.63906  0.01826  0.62256  Biso   1.000  Hf
  Hf22     1.0000 0.63908  0.23769  0.87315  Biso   1.000  Hf
  Hf23     1.0000 0.86538  0.27165  0.62502  Biso   1.000  Hf
  Hf24     1.0000 0.87149  0.48691  0.87767  Biso   1.000  Hf
  O41      1.0000 0.54157  0.18703  0.69539  Biso   1.000  O 
  O42      1.0000 0.53477  0.07672  0.94741  Biso   1.000  O 
  O43      1.0000 0.97412  0.43269  0.70312  Biso   1.000  O 
  O44      1.0000 0.96760  0.31651  0.94512  Biso   1.000  O 
  O45      1.0000 0.77581  0.12048  0.74697  Biso   1.000  O 
  O46      1.0000 0.77240  0.13391  0.99733  Biso   1.000  O 
  O47      1.0000 0.73022  0.38939  0.99909  Biso   1.000  O 
  O48      1.0000 0.73454  0.37262  0.74978  Biso   1.000  O 
  Hf25     1.0000 0.63462  0.51962  0.12625  Biso   1.000  Hf
  Hf26     1.0000 0.63840  0.73848  0.37576  Biso   1.000  Hf
  Hf27     1.0000 0.86388  0.76402  0.12522  Biso   1.000  Hf
  Hf28     1.0000 0.87921  0.99677  0.36430  Biso   1.000  Hf
  O49      1.0000 0.54011  0.68792  0.19486  Biso   1.000  O 
  O50      1.0000 0.53762  0.57187  0.44518  Biso   1.000  O 
  O51      1.0000 0.96393  0.92778  0.19008  Biso   1.000  O 
  O52      1.0000 0.97053  0.82390  0.44456  Biso   1.000  O 
  O53      1.0000 0.77252  0.61723  0.24843  Biso   1.000  O 
  O54      1.0000 0.77428  0.63779  0.49744  Biso   1.000  O 
  O55      1.0000 0.73798  0.89045  0.49551  Biso   1.000  O 
  O56      1.0000 0.73142  0.86747  0.24673  Biso   1.000  O 
  Hf29     1.0000 0.63930  0.52159  0.62353  Biso   1.000  Hf
  Hf30     1.0000 0.63957  0.73889  0.87394  Biso   1.000  Hf
  Hf31     1.0000 0.87060  0.77204  0.62136  Biso   1.000  Hf
  Hf32     1.0000 0.87043  0.98691  0.87597  Biso   1.000  Hf
  O57      1.0000 0.54035  0.68768  0.69550  Biso   1.000  O 
  O58      1.0000 0.53796  0.57636  0.94778  Biso   1.000  O 
  O59      1.0000 0.97404  0.93236  0.70227  Biso   1.000  O 
  O60      1.0000 0.97075  0.82174  0.94876  Biso   1.000  O 
  O61      1.0000 0.77595  0.62023  0.74838  Biso   1.000  O 
  O62      1.0000 0.77391  0.63744  0.99790  Biso   1.000  O 
  O63      1.0000 0.73360  0.88638  0.99763  Biso   1.000  O 
  O64      1.0000 0.73588  0.87071  0.74675  Biso   1.000  O 
  Ca1      1.0000 0.10882  0.26875  0.11237  Biso   1.000  Ca
