data_image0
_cell_length_a       10.1014
_cell_length_b       5.11561
_cell_length_c       10.1014
_cell_angle_alpha    90
_cell_angle_beta     90
_cell_angle_gamma    90

_symmetry_space_group_name_H-M    "P 1"
_symmetry_int_tables_number       1

loop_
  _symmetry_equiv_pos_as_xyz
  'x, y, z'

loop_
  _atom_site_label
  _atom_site_occupancy
  _atom_site_fract_x
  _atom_site_fract_y
  _atom_site_fract_z
  _atom_site_thermal_displace_type
  _atom_site_B_iso_or_equiv
  _atom_site_type_symbol
  Hf1      1.0000 0.12491  0.00011  0.12491  Biso   1.000  Hf
  Hf2      1.0000 0.12491  0.50011  0.39519  Biso   1.000  Hf
  Hf3      1.0000 0.39519  0.50011  0.12491  Biso   1.000  Hf
  Hf4      1.0000 0.37111  0.00340  0.37111  Biso   1.000  Hf
  O1       1.0000 0.98813  0.29415  0.98813  Biso   1.000  O 
  O2       1.0000 0.00325  0.21078  0.24656  Biso   1.000  O 
  O3       1.0000 0.98813  0.70606  0.26169  Biso   1.000  O 
  O4       1.0000 0.00325  0.78944  0.00326  Biso   1.000  O 
  O5       1.0000 0.26169  0.29415  0.26169  Biso   1.000  O 
  O6       1.0000 0.24656  0.21078  0.00326  Biso   1.000  O 
  O7       1.0000 0.26169  0.70606  0.98813  Biso   1.000  O 
  O8       1.0000 0.24656  0.78943  0.24656  Biso   1.000  O 
  Hf5      1.0000 0.12491  0.00011  0.62491  Biso   1.000  Hf
  Hf6      1.0000 0.12491  0.50011  0.85463  Biso   1.000  Hf
  Hf7      1.0000 0.37961  0.50011  0.62491  Biso   1.000  Hf
  Hf8      1.0000 0.37111  0.99681  0.87870  Biso   1.000  Hf
  O9       1.0000 0.98878  0.28210  0.49627  Biso   1.000  O 
  O10      1.0000 0.00621  0.21499  0.74433  Biso   1.000  O 
  O11      1.0000 0.98878  0.71811  0.75355  Biso   1.000  O 
  O12      1.0000 0.00621  0.78523  0.50549  Biso   1.000  O 
  O13      1.0000 0.26104  0.28211  0.75355  Biso   1.000  O 
  O14      1.0000 0.24361  0.21498  0.50549  Biso   1.000  O 
  O15      1.0000 0.26104  0.71811  0.49627  Biso   1.000  O 
  O16      1.0000 0.24361  0.78522  0.74433  Biso   1.000  O 
  Hf9      1.0000 0.62491  0.00011  0.12491  Biso   1.000  Hf
  Hf10     1.0000 0.62491  0.50011  0.37961  Biso   1.000  Hf
  Hf11     1.0000 0.85463  0.50011  0.12491  Biso   1.000  Hf
  Hf12     1.0000 0.87870  0.99681  0.37111  Biso   1.000  Hf
  O17      1.0000 0.49627  0.28210  0.98878  Biso   1.000  O 
  O18      1.0000 0.50548  0.21499  0.24361  Biso   1.000  O 
  O19      1.0000 0.49627  0.71811  0.26104  Biso   1.000  O 
  O20      1.0000 0.50548  0.78523  0.00621  Biso   1.000  O 
  O21      1.0000 0.75355  0.28211  0.26104  Biso   1.000  O 
  O22      1.0000 0.74433  0.21498  0.00621  Biso   1.000  O 
  O23      1.0000 0.75355  0.71811  0.98878  Biso   1.000  O 
  O24      1.0000 0.74433  0.78523  0.24361  Biso   1.000  O 
  Hf13     1.0000 0.62491  0.00011  0.62491  Biso   1.000  Hf
  Hf14     1.0000 0.62491  0.50011  0.87021  Biso   1.000  Hf
  Hf15     1.0000 0.87021  0.50011  0.62491  Biso   1.000  Hf
  Hf16     1.0000 0.87870  0.00341  0.87870  Biso   1.000  Hf
  O25      1.0000 0.49100  0.29203  0.49100  Biso   1.000  O 
  O26      1.0000 0.50585  0.21139  0.74396  Biso   1.000  O 
  O27      1.0000 0.49100  0.70818  0.75882  Biso   1.000  O 
  O28      1.0000 0.50585  0.78883  0.50585  Biso   1.000  O 
  O29      1.0000 0.75882  0.29204  0.75882  Biso   1.000  O 
  O30      1.0000 0.74397  0.21139  0.50585  Biso   1.000  O 
  O31      1.0000 0.75882  0.70818  0.49099  Biso   1.000  O 
  O32      1.0000 0.74397  0.78882  0.74396  Biso   1.000  O 
  Ca1      1.0000 0.12491  0.50011  0.12491  Biso   1.000  Ca
