data_image0
_cell_length_a       10.1771
_cell_length_b       10.2691
_cell_length_c       10.4586
_cell_angle_alpha    90
_cell_angle_beta     80
_cell_angle_gamma    90

_symmetry_space_group_name_H-M    "P 1"
_symmetry_int_tables_number       1

loop_
  _symmetry_equiv_pos_as_xyz
  'x, y, z'

loop_
  _atom_site_label
  _atom_site_occupancy
  _atom_site_fract_x
  _atom_site_fract_y
  _atom_site_fract_z
  _atom_site_thermal_displace_type
  _atom_site_B_iso_or_equiv
  _atom_site_type_symbol
  Ca1      1.0000 0.14015  0.01628  0.14591  Biso   1.000  Ca
  Hf1      1.0000 0.13834  0.02117  0.64631  Biso   1.000  Hf
  Hf2      1.0000 0.13885  0.52049  0.14487  Biso   1.000  Hf
  Hf3      1.0000 0.13773  0.52119  0.64659  Biso   1.000  Hf
  Hf4      1.0000 0.63940  0.02047  0.14651  Biso   1.000  Hf
  Hf5      1.0000 0.63808  0.02136  0.64622  Biso   1.000  Hf
  Hf6      1.0000 0.63688  0.51958  0.14575  Biso   1.000  Hf
  Hf7      1.0000 0.63671  0.52130  0.64556  Biso   1.000  Hf
  Hf8      1.0000 0.13915  0.22711  0.39547  Biso   1.000  Hf
  Hf9      1.0000 0.13697  0.22827  0.89847  Biso   1.000  Hf
  Hf10     1.0000 0.13956  0.72792  0.39527  Biso   1.000  Hf
  Hf11     1.0000 0.13848  0.73042  0.89648  Biso   1.000  Hf
  Hf12     1.0000 0.63724  0.22851  0.39610  Biso   1.000  Hf
  Hf13     1.0000 0.63693  0.22900  0.89662  Biso   1.000  Hf
  Hf14     1.0000 0.63549  0.72899  0.39591  Biso   1.000  Hf
  Hf15     1.0000 0.63728  0.72870  0.89586  Biso   1.000  Hf
  Hf16     1.0000 0.35751  0.26664  0.10484  Biso   1.000  Hf
  Hf17     1.0000 0.35816  0.27052  0.60477  Biso   1.000  Hf
  Hf18     1.0000 0.36010  0.77124  0.10362  Biso   1.000  Hf
  Hf19     1.0000 0.35818  0.77226  0.60411  Biso   1.000  Hf
  Hf20     1.0000 0.86036  0.27089  0.10256  Biso   1.000  Hf
  Hf21     1.0000 0.85885  0.27117  0.60366  Biso   1.000  Hf
  Hf22     1.0000 0.85738  0.77050  0.10482  Biso   1.000  Hf
  Hf23     1.0000 0.85892  0.77129  0.60345  Biso   1.000  Hf
  Hf24     1.0000 0.35834  0.47727  0.35312  Biso   1.000  Hf
  Hf25     1.0000 0.35871  0.47779  0.85490  Biso   1.000  Hf
  Hf26     1.0000 0.35721  0.97981  0.35308  Biso   1.000  Hf
  Hf27     1.0000 0.35731  0.97945  0.85573  Biso   1.000  Hf
  Hf28     1.0000 0.85853  0.47925  0.35381  Biso   1.000  Hf
  Hf29     1.0000 0.85781  0.47944  0.85345  Biso   1.000  Hf
  Hf30     1.0000 0.85922  0.97890  0.35323  Biso   1.000  Hf
  Hf31     1.0000 0.85772  0.97852  0.85472  Biso   1.000  Hf
  O1       1.0000 0.03305  0.17990  0.07715  Biso   1.000  O 
  O2       1.0000 0.03394  0.17125  0.58416  Biso   1.000  O 
  O3       1.0000 0.03381  0.66840  0.07962  Biso   1.000  O 
  O4       1.0000 0.03288  0.66794  0.58089  Biso   1.000  O 
  O5       1.0000 0.53525  0.16767  0.07931  Biso   1.000  O 
  O6       1.0000 0.53172  0.16684  0.58014  Biso   1.000  O 
  O7       1.0000 0.53375  0.66581  0.07829  Biso   1.000  O 
  O8       1.0000 0.53142  0.66676  0.57976  Biso   1.000  O 
  O9       1.0000 0.02678  0.08521  0.34395  Biso   1.000  O 
  O10      1.0000 0.03301  0.08084  0.83132  Biso   1.000  O 
  O11      1.0000 0.03240  0.58307  0.32924  Biso   1.000  O 
  O12      1.0000 0.03234  0.58149  0.83004  Biso   1.000  O 
  O13      1.0000 0.53475  0.08165  0.33026  Biso   1.000  O 
  O14      1.0000 0.53467  0.08265  0.82893  Biso   1.000  O 
  O15      1.0000 0.53133  0.58250  0.32891  Biso   1.000  O 
  O16      1.0000 0.53181  0.58356  0.82856  Biso   1.000  O 
  O17      1.0000 0.46411  0.41491  0.17141  Biso   1.000  O 
  O18      1.0000 0.46386  0.41661  0.67111  Biso   1.000  O 
  O19      1.0000 0.46521  0.91816  0.16958  Biso   1.000  O 
  O20      1.0000 0.46363  0.91656  0.67178  Biso   1.000  O 
  O21      1.0000 0.96180  0.42128  0.16900  Biso   1.000  O 
  O22      1.0000 0.96286  0.41968  0.66840  Biso   1.000  O 
  O23      1.0000 0.94891  0.91522  0.17428  Biso   1.000  O 
  O24      1.0000 0.96235  0.91851  0.66986  Biso   1.000  O 
  O25      1.0000 0.46362  0.33236  0.42159  Biso   1.000  O 
  O26      1.0000 0.46558  0.33495  0.92145  Biso   1.000  O 
  O27      1.0000 0.46293  0.83311  0.42257  Biso   1.000  O 
  O28      1.0000 0.46953  0.83644  0.92159  Biso   1.000  O 
  O29      1.0000 0.96410  0.33419  0.42047  Biso   1.000  O 
  O30      1.0000 0.96138  0.33305  0.91614  Biso   1.000  O 
  O31      1.0000 0.96459  0.83149  0.42025  Biso   1.000  O 
  O32      1.0000 0.96231  0.83120  0.91969  Biso   1.000  O 
  O33      1.0000 0.28413  0.13464  0.24933  Biso   1.000  O 
  O34      1.0000 0.27378  0.12810  0.74007  Biso   1.000  O 
  O35      1.0000 0.27501  0.62441  0.23927  Biso   1.000  O 
  O36      1.0000 0.27385  0.62945  0.74105  Biso   1.000  O 
  O37      1.0000 0.77459  0.12966  0.24116  Biso   1.000  O 
  O38      1.0000 0.77539  0.12877  0.74078  Biso   1.000  O 
  O39      1.0000 0.77304  0.62809  0.24069  Biso   1.000  O 
  O40      1.0000 0.77359  0.62885  0.73937  Biso   1.000  O 
  O41      1.0000 0.27383  0.12042  0.49385  Biso   1.000  O 
  O42      1.0000 0.28286  0.12749  0.98295  Biso   1.000  O 
  O43      1.0000 0.27425  0.62081  0.49062  Biso   1.000  O 
  O44      1.0000 0.27379  0.61853  0.99082  Biso   1.000  O 
  O45      1.0000 0.77215  0.12271  0.49220  Biso   1.000  O 
  O46      1.0000 0.77389  0.12084  0.99054  Biso   1.000  O 
  O47      1.0000 0.77361  0.62170  0.49026  Biso   1.000  O 
  O48      1.0000 0.77213  0.61960  0.98986  Biso   1.000  O 
  O49      1.0000 0.22373  0.37909  0.00893  Biso   1.000  O 
  O50      1.0000 0.22249  0.37895  0.50979  Biso   1.000  O 
  O51      1.0000 0.23076  0.86927  0.00029  Biso   1.000  O 
  O52      1.0000 0.22088  0.87873  0.51044  Biso   1.000  O 
  O53      1.0000 0.72265  0.37909  0.00840  Biso   1.000  O 
  O54      1.0000 0.72187  0.37947  0.50928  Biso   1.000  O 
  O55      1.0000 0.72346  0.87848  0.00861  Biso   1.000  O 
  O56      1.0000 0.72249  0.87863  0.50952  Biso   1.000  O 
  O57      1.0000 0.21975  0.37198  0.25880  Biso   1.000  O 
  O58      1.0000 0.22228  0.37168  0.75964  Biso   1.000  O 
  O59      1.0000 0.23185  0.86214  0.26327  Biso   1.000  O 
  O60      1.0000 0.22077  0.87216  0.75746  Biso   1.000  O 
  O61      1.0000 0.72187  0.37161  0.26021  Biso   1.000  O 
  O62      1.0000 0.72205  0.37114  0.75847  Biso   1.000  O 
  O63      1.0000 0.71294  0.86970  0.26081  Biso   1.000  O 
  O64      1.0000 0.72260  0.87101  0.75880  Biso   1.000  O 
