data_image0
_cell_length_a       5.09175
_cell_length_b       10.4056
_cell_length_c       10.1197
_cell_angle_alpha    90
_cell_angle_beta     90
_cell_angle_gamma    90

_symmetry_space_group_name_H-M    "P 1"
_symmetry_int_tables_number       1

loop_
  _symmetry_equiv_pos_as_xyz
  'x, y, z'

loop_
  _atom_site_label
  _atom_site_occupancy
  _atom_site_fract_x
  _atom_site_fract_y
  _atom_site_fract_z
  _atom_site_thermal_displace_type
  _atom_site_B_iso_or_equiv
  _atom_site_type_symbol
  Hf1      1.0000 0.14335  0.97263  0.08100  Biso   1.000  Hf
  Hf2      1.0000 0.19316  0.23400  0.38864  Biso   1.000  Hf
  Hf3      1.0000 0.63815  0.26769  0.11888  Biso   1.000  Hf
  Hf4      1.0000 0.67974  0.48353  0.37054  Biso   1.000  Hf
  O1       1.0000 0.86985  0.18748  0.26464  Biso   1.000  O 
  O2       1.0000 0.01826  0.06893  0.46483  Biso   1.000  O 
  O3       1.0000 0.87789  0.42965  0.19673  Biso   1.000  O 
  O4       1.0000 0.89187  0.33413  0.47101  Biso   1.000  O 
  O5       1.0000 0.39662  0.11422  0.22959  Biso   1.000  O 
  O6       1.0000 0.49952  0.13383  0.48485  Biso   1.000  O 
  O7       1.0000 0.40802  0.38675  0.49659  Biso   1.000  O 
  O8       1.0000 0.38666  0.37119  0.24973  Biso   1.000  O 
  Hf5      1.0000 0.13380  0.97705  0.58871  Biso   1.000  Hf
  Hf6      1.0000 0.17191  0.24293  0.84266  Biso   1.000  Hf
  Hf7      1.0000 0.65930  0.26626  0.61871  Biso   1.000  Hf
  Hf8      1.0000 0.67029  0.48147  0.88035  Biso   1.000  Hf
  O9       1.0000 0.90461  0.15981  0.72638  Biso   1.000  O 
  O10      1.0000 0.99178  0.07814  0.96885  Biso   1.000  O 
  O11      1.0000 0.91421  0.40997  0.72085  Biso   1.000  O 
  O12      1.0000 0.85422  0.31877  0.95388  Biso   1.000  O 
  O13      1.0000 0.41662  0.11198  0.72946  Biso   1.000  O 
  O14      1.0000 0.45413  0.14004  0.97837  Biso   1.000  O 
  O15      1.0000 0.37422  0.39251  0.99638  Biso   1.000  O 
  O16      1.0000 0.42143  0.36684  0.74456  Biso   1.000  O 
  Hf9      1.0000 0.20426  0.53006  0.12775  Biso   1.000  Hf
  Hf10     1.0000 0.21465  0.73358  0.37699  Biso   1.000  Hf
  Hf11     1.0000 0.67232  0.76767  0.12685  Biso   1.000  Hf
  Hf12     1.0000 0.70809  0.02096  0.33549  Biso   1.000  Hf
  O17      1.0000 0.98976  0.67967  0.21355  Biso   1.000  O 
  O18      1.0000 0.00328  0.57148  0.45118  Biso   1.000  O 
  O19      1.0000 0.83963  0.93109  0.21093  Biso   1.000  O 
  O20      1.0000 0.94790  0.81955  0.49317  Biso   1.000  O 
  O21      1.0000 0.48169  0.62053  0.24972  Biso   1.000  O 
  O22      1.0000 0.47839  0.63347  0.49783  Biso   1.000  O 
  O23      1.0000 0.43281  0.88446  0.48103  Biso   1.000  O 
  O24      1.0000 0.36707  0.86379  0.23126  Biso   1.000  O 
  Hf13     1.0000 0.19674  0.51284  0.62268  Biso   1.000  Hf
  Hf14     1.0000 0.20253  0.72868  0.86980  Biso   1.000  Hf
  Hf15     1.0000 0.66780  0.76144  0.62731  Biso   1.000  Hf
  Hf16     1.0000 0.71326  0.01710  0.83797  Biso   1.000  Hf
  O25      1.0000 0.98066  0.66509  0.70926  Biso   1.000  O 
  O26      1.0000 0.98968  0.57344  0.95592  Biso   1.000  O 
  O27      1.0000 0.84617  0.91689  0.72198  Biso   1.000  O 
  O28      1.0000 0.94367  0.82074  0.98799  Biso   1.000  O 
  O29      1.0000 0.46697  0.60938  0.74763  Biso   1.000  O 
  O30      1.0000 0.46853  0.63799  0.99788  Biso   1.000  O 
  O31      1.0000 0.43210  0.88340  0.97824  Biso   1.000  O 
  O32      1.0000 0.36682  0.85848  0.73108  Biso   1.000  O 
  Ca1      1.0000 0.14010  0.24736  0.11036  Biso   1.000  Ca
