data_image0
_cell_length_a       10.0194
_cell_length_b       10.1839
_cell_length_c       10.0194
_cell_angle_alpha    90
_cell_angle_beta     90
_cell_angle_gamma    90

_symmetry_space_group_name_H-M    "P 1"
_symmetry_int_tables_number       1

loop_
  _symmetry_equiv_pos_as_xyz
  'x, y, z'

loop_
  _atom_site_label
  _atom_site_occupancy
  _atom_site_fract_x
  _atom_site_fract_y
  _atom_site_fract_z
  _atom_site_thermal_displace_type
  _atom_site_B_iso_or_equiv
  _atom_site_type_symbol
  Ca1      1.0000 0.12499  0.00001  0.12497  Biso   1.000  Ca
  Hf1      1.0000 0.12499  0.00003  0.62497  Biso   1.000  Hf
  Hf2      1.0000 0.12500  0.50000  0.12497  Biso   1.000  Hf
  Hf3      1.0000 0.12500  0.50002  0.62497  Biso   1.000  Hf
  Hf4      1.0000 0.62499  0.00001  0.12497  Biso   1.000  Hf
  Hf5      1.0000 0.62499  0.00002  0.62497  Biso   1.000  Hf
  Hf6      1.0000 0.62500  0.50000  0.12497  Biso   1.000  Hf
  Hf7      1.0000 0.62500  0.50002  0.62497  Biso   1.000  Hf
  Hf8      1.0000 0.12454  0.24990  0.37319  Biso   1.000  Hf
  Hf9      1.0000 0.12547  0.24992  0.87676  Biso   1.000  Hf
  Hf10     1.0000 0.12548  0.75013  0.37319  Biso   1.000  Hf
  Hf11     1.0000 0.12455  0.75015  0.87676  Biso   1.000  Hf
  Hf12     1.0000 0.62506  0.24926  0.37458  Biso   1.000  Hf
  Hf13     1.0000 0.62495  0.24928  0.87536  Biso   1.000  Hf
  Hf14     1.0000 0.62497  0.75077  0.37458  Biso   1.000  Hf
  Hf15     1.0000 0.62507  0.75079  0.87537  Biso   1.000  Hf
  Hf16     1.0000 0.37322  0.24989  0.12451  Biso   1.000  Hf
  Hf17     1.0000 0.37461  0.24927  0.62502  Biso   1.000  Hf
  Hf18     1.0000 0.37323  0.75012  0.12544  Biso   1.000  Hf
  Hf19     1.0000 0.37462  0.75078  0.62492  Biso   1.000  Hf
  Hf20     1.0000 0.87679  0.24989  0.12544  Biso   1.000  Hf
  Hf21     1.0000 0.87540  0.24927  0.62492  Biso   1.000  Hf
  Hf22     1.0000 0.87680  0.75012  0.12451  Biso   1.000  Hf
  Hf23     1.0000 0.87541  0.75078  0.62503  Biso   1.000  Hf
  Hf24     1.0000 0.37283  0.99940  0.37279  Biso   1.000  Hf
  Hf25     1.0000 0.37280  0.00066  0.87715  Biso   1.000  Hf
  Hf26     1.0000 0.37503  0.49902  0.37500  Biso   1.000  Hf
  Hf27     1.0000 0.37503  0.50103  0.87493  Biso   1.000  Hf
  Hf28     1.0000 0.87717  0.00063  0.37279  Biso   1.000  Hf
  Hf29     1.0000 0.87719  0.99942  0.87715  Biso   1.000  Hf
  Hf30     1.0000 0.87496  0.50101  0.37500  Biso   1.000  Hf
  Hf31     1.0000 0.87496  0.49904  0.87493  Biso   1.000  Hf
  O1       1.0000 0.99518  0.14557  0.99515  Biso   1.000  O 
  O2       1.0000 0.00576  0.14571  0.50613  Biso   1.000  O 
  O3       1.0000 0.00432  0.63867  0.00429  Biso   1.000  O 
  O4       1.0000 0.00177  0.64522  0.50331  Biso   1.000  O 
  O5       1.0000 0.50614  0.14569  0.00574  Biso   1.000  O 
  O6       1.0000 0.50448  0.14696  0.50445  Biso   1.000  O 
  O7       1.0000 0.50334  0.64520  0.00173  Biso   1.000  O 
  O8       1.0000 0.50127  0.64636  0.50123  Biso   1.000  O 
  O9       1.0000 0.99090  0.12026  0.25906  Biso   1.000  O 
  O10      1.0000 0.99682  0.10409  0.75045  Biso   1.000  O 
  O11      1.0000 0.99785  0.60769  0.25213  Biso   1.000  O 
  O12      1.0000 0.99926  0.60443  0.75267  Biso   1.000  O 
  O13      1.0000 0.49951  0.10408  0.25315  Biso   1.000  O 
  O14      1.0000 0.49749  0.10358  0.75247  Biso   1.000  O 
  O15      1.0000 0.49730  0.60442  0.25072  Biso   1.000  O 
  O16      1.0000 0.49924  0.60370  0.75074  Biso   1.000  O 
  O17      1.0000 0.00433  0.36135  0.24565  Biso   1.000  O 
  O18      1.0000 0.00176  0.35483  0.74663  Biso   1.000  O 
  O19      1.0000 0.99519  0.85449  0.25479  Biso   1.000  O 
  O20      1.0000 0.00578  0.85434  0.74382  Biso   1.000  O 
  O21      1.0000 0.50334  0.35482  0.24821  Biso   1.000  O 
  O22      1.0000 0.50126  0.35369  0.74871  Biso   1.000  O 
  O23      1.0000 0.50617  0.85433  0.24420  Biso   1.000  O 
  O24      1.0000 0.50450  0.85309  0.74548  Biso   1.000  O 
  O25      1.0000 0.99784  0.39236  0.99781  Biso   1.000  O 
  O26      1.0000 0.99925  0.39562  0.49727  Biso   1.000  O 
  O27      1.0000 0.99093  0.87980  0.99088  Biso   1.000  O 
  O28      1.0000 0.99684  0.89596  0.49949  Biso   1.000  O 
  O29      1.0000 0.49730  0.39564  0.99922  Biso   1.000  O 
  O30      1.0000 0.49923  0.39635  0.49920  Biso   1.000  O 
  O31      1.0000 0.49954  0.89597  0.99679  Biso   1.000  O 
  O32      1.0000 0.49752  0.89648  0.49747  Biso   1.000  O 
  O33      1.0000 0.25481  0.14554  0.25479  Biso   1.000  O 
  O34      1.0000 0.24423  0.14571  0.74382  Biso   1.000  O 
  O35      1.0000 0.24568  0.63868  0.24565  Biso   1.000  O 
  O36      1.0000 0.24825  0.64522  0.74663  Biso   1.000  O 
  O37      1.0000 0.74384  0.14570  0.24420  Biso   1.000  O 
  O38      1.0000 0.74552  0.14696  0.74549  Biso   1.000  O 
  O39      1.0000 0.74667  0.64521  0.24821  Biso   1.000  O 
  O40      1.0000 0.74875  0.64635  0.74871  Biso   1.000  O 
  O41      1.0000 0.25909  0.12027  0.99088  Biso   1.000  O 
  O42      1.0000 0.25317  0.10409  0.49949  Biso   1.000  O 
  O43      1.0000 0.25217  0.60771  0.99782  Biso   1.000  O 
  O44      1.0000 0.25075  0.60443  0.49727  Biso   1.000  O 
  O45      1.0000 0.75048  0.10411  0.99679  Biso   1.000  O 
  O46      1.0000 0.75249  0.10358  0.49747  Biso   1.000  O 
  O47      1.0000 0.75271  0.60444  0.99922  Biso   1.000  O 
  O48      1.0000 0.75077  0.60370  0.49920  Biso   1.000  O 
  O49      1.0000 0.24567  0.36134  0.00429  Biso   1.000  O 
  O50      1.0000 0.24824  0.35483  0.50331  Biso   1.000  O 
  O51      1.0000 0.25483  0.85451  0.99515  Biso   1.000  O 
  O52      1.0000 0.24425  0.85434  0.50612  Biso   1.000  O 
  O53      1.0000 0.74666  0.35481  0.00173  Biso   1.000  O 
  O54      1.0000 0.74874  0.35369  0.50123  Biso   1.000  O 
  O55      1.0000 0.74386  0.85432  0.00574  Biso   1.000  O 
  O56      1.0000 0.74553  0.85309  0.50445  Biso   1.000  O 
  O57      1.0000 0.25216  0.39234  0.25213  Biso   1.000  O 
  O58      1.0000 0.25075  0.39562  0.75267  Biso   1.000  O 
  O59      1.0000 0.25910  0.87978  0.25906  Biso   1.000  O 
  O60      1.0000 0.25319  0.89596  0.75045  Biso   1.000  O 
  O61      1.0000 0.75270  0.39561  0.25072  Biso   1.000  O 
  O62      1.0000 0.75077  0.39634  0.75074  Biso   1.000  O 
  O63      1.0000 0.75049  0.89595  0.25315  Biso   1.000  O 
  O64      1.0000 0.75251  0.89647  0.75247  Biso   1.000  O 
