data_image0
_cell_length_a       4.99595
_cell_length_b       10.1973
_cell_length_c       10.0637
_cell_angle_alpha    90
_cell_angle_beta     90
_cell_angle_gamma    90

_symmetry_space_group_name_H-M    "P 1"
_symmetry_int_tables_number       1

loop_
  _symmetry_equiv_pos_as_xyz
  'x, y, z'

loop_
  _atom_site_label
  _atom_site_occupancy
  _atom_site_fract_x
  _atom_site_fract_y
  _atom_site_fract_z
  _atom_site_thermal_displace_type
  _atom_site_B_iso_or_equiv
  _atom_site_type_symbol
  Ca1      1.0000 0.25123  0.99985  0.12518  Biso   1.000  Ca
  Hf1      1.0000 0.25124  0.99985  0.62518  Biso   1.000  Hf
  Hf2      1.0000 0.25125  0.49986  0.12518  Biso   1.000  Hf
  Hf3      1.0000 0.25126  0.49984  0.62519  Biso   1.000  Hf
  Hf4      1.0000 0.25069  0.25059  0.37477  Biso   1.000  Hf
  Hf5      1.0000 0.25185  0.25058  0.87559  Biso   1.000  Hf
  Hf6      1.0000 0.25181  0.74911  0.37476  Biso   1.000  Hf
  Hf7      1.0000 0.25069  0.74911  0.87559  Biso   1.000  Hf
  Hf8      1.0000 0.75126  0.25077  0.12518  Biso   1.000  Hf
  Hf9      1.0000 0.75127  0.24716  0.62517  Biso   1.000  Hf
  Hf10     1.0000 0.75124  0.74893  0.12518  Biso   1.000  Hf
  Hf11     1.0000 0.75124  0.75253  0.62518  Biso   1.000  Hf
  Hf12     1.0000 0.75124  0.99985  0.37237  Biso   1.000  Hf
  Hf13     1.0000 0.75125  0.99984  0.87798  Biso   1.000  Hf
  Hf14     1.0000 0.75126  0.49985  0.37564  Biso   1.000  Hf
  Hf15     1.0000 0.75128  0.49985  0.87473  Biso   1.000  Hf
  O1       1.0000 0.00045  0.14402  0.99748  Biso   1.000  O 
  O2       1.0000 0.01902  0.14611  0.50779  Biso   1.000  O 
  O3       1.0000 0.01673  0.63732  0.00503  Biso   1.000  O 
  O4       1.0000 0.00449  0.64446  0.50431  Biso   1.000  O 
  O5       1.0000 0.98299  0.12123  0.25993  Biso   1.000  O 
  O6       1.0000 0.98951  0.10374  0.75071  Biso   1.000  O 
  O7       1.0000 0.98991  0.60869  0.25221  Biso   1.000  O 
  O8       1.0000 0.00036  0.60467  0.75351  Biso   1.000  O 
  O9       1.0000 0.01672  0.36238  0.24533  Biso   1.000  O 
  O10      1.0000 0.00452  0.35523  0.74604  Biso   1.000  O 
  O11      1.0000 0.00042  0.85567  0.25288  Biso   1.000  O 
  O12      1.0000 0.01900  0.85359  0.74257  Biso   1.000  O 
  O13      1.0000 0.98995  0.39099  0.99814  Biso   1.000  O 
  O14      1.0000 0.00037  0.39502  0.49684  Biso   1.000  O 
  O15      1.0000 0.98298  0.87846  0.99042  Biso   1.000  O 
  O16      1.0000 0.98947  0.89595  0.49964  Biso   1.000  O 
  O17      1.0000 0.50210  0.14403  0.25288  Biso   1.000  O 
  O18      1.0000 0.48351  0.14610  0.74257  Biso   1.000  O 
  O19      1.0000 0.48577  0.63733  0.24533  Biso   1.000  O 
  O20      1.0000 0.49799  0.64446  0.74604  Biso   1.000  O 
  O21      1.0000 0.51955  0.12122  0.99042  Biso   1.000  O 
  O22      1.0000 0.51303  0.10375  0.49964  Biso   1.000  O 
  O23      1.0000 0.51259  0.60869  0.99814  Biso   1.000  O 
  O24      1.0000 0.50215  0.60468  0.49684  Biso   1.000  O 
  O25      1.0000 0.48579  0.36238  0.00503  Biso   1.000  O 
  O26      1.0000 0.49801  0.35524  0.50432  Biso   1.000  O 
  O27      1.0000 0.50208  0.85566  0.99748  Biso   1.000  O 
  O28      1.0000 0.48349  0.85359  0.50779  Biso   1.000  O 
  O29      1.0000 0.51257  0.39101  0.25222  Biso   1.000  O 
  O30      1.0000 0.50217  0.39502  0.75351  Biso   1.000  O 
  O31      1.0000 0.51951  0.87847  0.25993  Biso   1.000  O 
  O32      1.0000 0.51301  0.89595  0.75071  Biso   1.000  O 
