data_image0
_cell_length_a       5.09178
_cell_length_b       10.4056
_cell_length_c       10.1197
_cell_angle_alpha    90
_cell_angle_beta     90
_cell_angle_gamma    90

_symmetry_space_group_name_H-M    "P 1"
_symmetry_int_tables_number       1

loop_
  _symmetry_equiv_pos_as_xyz
  'x, y, z'

loop_
  _atom_site_label
  _atom_site_occupancy
  _atom_site_fract_x
  _atom_site_fract_y
  _atom_site_fract_z
  _atom_site_thermal_displace_type
  _atom_site_B_iso_or_equiv
  _atom_site_type_symbol
  Hf1      1.0000 0.09223  0.96700  0.10454  Biso   1.000  Hf
  Hf2      1.0000 0.24816  0.25657  0.38961  Biso   1.000  Hf
  Hf3      1.0000 0.79247  0.23152  0.11341  Biso   1.000  Hf
  Hf4      1.0000 0.74974  0.01801  0.35192  Biso   1.000  Hf
  O1       1.0000 0.03338  0.12831  0.98255  Biso   1.000  O 
  O2       1.0000 0.04578  0.10698  0.23589  Biso   1.000  O 
  O3       1.0000 0.96589  0.35946  0.25390  Biso   1.000  O 
  O4       1.0000 0.03399  0.38500  0.00271  Biso   1.000  O 
  O5       1.0000 0.56581  0.18072  0.27840  Biso   1.000  O 
  O6       1.0000 0.55271  0.06957  0.03556  Biso   1.000  O 
  O7       1.0000 0.55018  0.31200  0.96763  Biso   1.000  O 
  O8       1.0000 0.42824  0.42135  0.26345  Biso   1.000  O 
  Hf5      1.0000 0.08918  0.98451  0.60960  Biso   1.000  Hf
  Hf6      1.0000 0.22688  0.26549  0.84363  Biso   1.000  Hf
  Hf7      1.0000 0.76074  0.23324  0.61356  Biso   1.000  Hf
  Hf8      1.0000 0.74029  0.01597  0.86173  Biso   1.000  Hf
  O9       1.0000 0.99861  0.13265  0.48771  Biso   1.000  O 
  O10      1.0000 0.01201  0.11275  0.73568  Biso   1.000  O 
  O11      1.0000 0.92050  0.36565  0.74742  Biso   1.000  O 
  O12      1.0000 0.00340  0.38753  0.50280  Biso   1.000  O 
  O13      1.0000 0.52814  0.16536  0.76125  Biso   1.000  O 
  O14      1.0000 0.50580  0.08953  0.51141  Biso   1.000  O 
  O15      1.0000 0.51541  0.33969  0.50592  Biso   1.000  O 
  O16      1.0000 0.40174  0.43058  0.76746  Biso   1.000  O 
  Hf9      1.0000 0.15315  0.52443  0.15130  Biso   1.000  Hf
  Hf10     1.0000 0.08336  0.76867  0.36247  Biso   1.000  Hf
  Hf11     1.0000 0.62417  0.72939  0.10545  Biso   1.000  Hf
  Hf12     1.0000 0.70677  0.48240  0.39432  Biso   1.000  Hf
  O17      1.0000 0.92944  0.63326  0.00104  Biso   1.000  O 
  O18      1.0000 0.85379  0.61394  0.25405  Biso   1.000  O 
  O19      1.0000 0.81737  0.85934  0.23441  Biso   1.000  O 
  O20      1.0000 0.80421  0.87681  0.98257  Biso   1.000  O 
  O21      1.0000 0.34223  0.67659  0.24430  Biso   1.000  O 
  O22      1.0000 0.45688  0.56596  0.02137  Biso   1.000  O 
  O23      1.0000 0.30672  0.81738  0.01874  Biso   1.000  O 
  O24      1.0000 0.29621  0.92390  0.27635  Biso   1.000  O 
  Hf13     1.0000 0.15211  0.52029  0.64356  Biso   1.000  Hf
  Hf14     1.0000 0.07125  0.76376  0.85529  Biso   1.000  Hf
  Hf15     1.0000 0.61810  0.73591  0.60497  Biso   1.000  Hf
  Hf16     1.0000 0.71194  0.47853  0.89680  Biso   1.000  Hf
  O25      1.0000 0.91910  0.63887  0.50120  Biso   1.000  O 
  O26      1.0000 0.85308  0.61287  0.75125  Biso   1.000  O 
  O27      1.0000 0.80753  0.86387  0.73445  Biso   1.000  O 
  O28      1.0000 0.81896  0.88796  0.48465  Biso   1.000  O 
  O29      1.0000 0.33798  0.67781  0.73909  Biso   1.000  O 
  O30      1.0000 0.43976  0.58045  0.51030  Biso   1.000  O 
  O31      1.0000 0.30526  0.83226  0.52299  Biso   1.000  O 
  O32      1.0000 0.28265  0.92586  0.78109  Biso   1.000  O 
  Ca1      1.0000 0.29052  0.25187  0.12193  Biso   1.000  Ca
