data_image0
_cell_length_a       5.00715
_cell_length_b       10.1898
_cell_length_c       10.0552
_cell_angle_alpha    90
_cell_angle_beta     90
_cell_angle_gamma    90

_symmetry_space_group_name_H-M    "P 1"
_symmetry_int_tables_number       1

loop_
  _symmetry_equiv_pos_as_xyz
  'x, y, z'

loop_
  _atom_site_label
  _atom_site_occupancy
  _atom_site_fract_x
  _atom_site_fract_y
  _atom_site_fract_z
  _atom_site_thermal_displace_type
  _atom_site_B_iso_or_equiv
  _atom_site_type_symbol
  Cd1      1.0000 0.25217  0.99982  0.12513  Biso   1.000  Cd
  Hf1      1.0000 0.25216  0.99982  0.62510  Biso   1.000  Hf
  Hf2      1.0000 0.25231  0.49978  0.12508  Biso   1.000  Hf
  Hf3      1.0000 0.25228  0.49982  0.62509  Biso   1.000  Hf
  Hf4      1.0000 0.25112  0.25118  0.37560  Biso   1.000  Hf
  Hf5      1.0000 0.25352  0.25118  0.87455  Biso   1.000  Hf
  Hf6      1.0000 0.25347  0.74843  0.37558  Biso   1.000  Hf
  Hf7      1.0000 0.25114  0.74849  0.87456  Biso   1.000  Hf
  Hf8      1.0000 0.75234  0.25175  0.12510  Biso   1.000  Hf
  Hf9      1.0000 0.75237  0.24777  0.62507  Biso   1.000  Hf
  Hf10     1.0000 0.75230  0.74784  0.12508  Biso   1.000  Hf
  Hf11     1.0000 0.75226  0.75188  0.62507  Biso   1.000  Hf
  Hf12     1.0000 0.75213  0.99979  0.37332  Biso   1.000  Hf
  Hf13     1.0000 0.75214  0.99984  0.87691  Biso   1.000  Hf
  Hf14     1.0000 0.75230  0.49982  0.37605  Biso   1.000  Hf
  Hf15     1.0000 0.75227  0.49984  0.87411  Biso   1.000  Hf
  O1       1.0000 0.99688  0.14542  0.99613  Biso   1.000  O 
  O2       1.0000 0.01364  0.14772  0.50466  Biso   1.000  O 
  O3       1.0000 0.01423  0.64127  0.00283  Biso   1.000  O 
  O4       1.0000 0.00195  0.64637  0.50226  Biso   1.000  O 
  O5       1.0000 0.98973  0.11639  0.25653  Biso   1.000  O 
  O6       1.0000 0.99471  0.10217  0.74949  Biso   1.000  O 
  O7       1.0000 0.99282  0.60544  0.25036  Biso   1.000  O 
  O8       1.0000 0.00389  0.60273  0.75225  Biso   1.000  O 
  O9       1.0000 0.01423  0.35837  0.24734  Biso   1.000  O 
  O10      1.0000 0.00196  0.35325  0.74791  Biso   1.000  O 
  O11      1.0000 0.99690  0.85429  0.25404  Biso   1.000  O 
  O12      1.0000 0.01345  0.85189  0.74555  Biso   1.000  O 
  O13      1.0000 0.99271  0.39424  0.99984  Biso   1.000  O 
  O14      1.0000 0.00389  0.39689  0.49792  Biso   1.000  O 
  O15      1.0000 0.98990  0.88335  0.99366  Biso   1.000  O 
  O16      1.0000 0.99445  0.89745  0.50070  Biso   1.000  O 
  O17      1.0000 0.50760  0.14529  0.25402  Biso   1.000  O 
  O18      1.0000 0.49123  0.14774  0.74557  Biso   1.000  O 
  O19      1.0000 0.49043  0.64123  0.24734  Biso   1.000  O 
  O20      1.0000 0.50261  0.64639  0.74791  Biso   1.000  O 
  O21      1.0000 0.51476  0.11636  0.99367  Biso   1.000  O 
  O22      1.0000 0.51019  0.10218  0.50071  Biso   1.000  O 
  O23      1.0000 0.51182  0.60545  0.99983  Biso   1.000  O 
  O24      1.0000 0.50067  0.60274  0.49792  Biso   1.000  O 
  O25      1.0000 0.49038  0.35830  0.00286  Biso   1.000  O 
  O26      1.0000 0.50261  0.35325  0.50229  Biso   1.000  O 
  O27      1.0000 0.50778  0.85428  0.99608  Biso   1.000  O 
  O28      1.0000 0.49102  0.85191  0.50462  Biso   1.000  O 
  O29      1.0000 0.51185  0.39414  0.25037  Biso   1.000  O 
  O30      1.0000 0.50066  0.39691  0.75227  Biso   1.000  O 
  O31      1.0000 0.51476  0.88322  0.25648  Biso   1.000  O 
  O32      1.0000 0.50999  0.89748  0.74944  Biso   1.000  O 
