data_image0
_cell_length_a       10.0415
_cell_length_b       10.495
_cell_length_c       5.09775
_cell_angle_alpha    90
_cell_angle_beta     90
_cell_angle_gamma    90

_symmetry_space_group_name_H-M    "P 1"
_symmetry_int_tables_number       1

loop_
  _symmetry_equiv_pos_as_xyz
  'x, y, z'

loop_
  _atom_site_label
  _atom_site_occupancy
  _atom_site_fract_x
  _atom_site_fract_y
  _atom_site_fract_z
  _atom_site_thermal_displace_type
  _atom_site_B_iso_or_equiv
  _atom_site_type_symbol
  Hf1      1.0000 0.14493  0.01359  0.28013  Biso   1.000  Hf
  Hf2      1.0000 0.16040  0.21116  0.83447  Biso   1.000  Hf
  Hf3      1.0000 0.37702  0.26394  0.26534  Biso   1.000  Hf
  Hf4      1.0000 0.38420  0.48204  0.74989  Biso   1.000  Hf
  O1       1.0000 0.05046  0.09820  0.59566  Biso   1.000  O 
  O2       1.0000 0.99656  0.08508  0.04044  Biso   1.000  O 
  O3       1.0000 0.48032  0.42575  0.40368  Biso   1.000  O 
  O4       1.0000 0.48754  0.31165  0.89335  Biso   1.000  O 
  O5       1.0000 0.29332  0.11144  0.52051  Biso   1.000  O 
  O6       1.0000 0.28419  0.11883  0.02275  Biso   1.000  O 
  O7       1.0000 0.24712  0.39792  0.04925  Biso   1.000  O 
  O8       1.0000 0.25774  0.34662  0.57151  Biso   1.000  O 
  Hf5      1.0000 0.13081  0.54460  0.21378  Biso   1.000  Hf
  Hf6      1.0000 0.14780  0.73736  0.73381  Biso   1.000  Hf
  Hf7      1.0000 0.37611  0.76251  0.23765  Biso   1.000  Hf
  Hf8      1.0000 0.38294  0.97459  0.74670  Biso   1.000  Hf
  O9       1.0000 0.03709  0.68906  0.38647  Biso   1.000  O 
  O10      1.0000 0.05053  0.57097  0.87065  Biso   1.000  O 
  O11      1.0000 0.47359  0.92650  0.37607  Biso   1.000  O 
  O12      1.0000 0.48628  0.81098  0.88357  Biso   1.000  O 
  O13      1.0000 0.27724  0.61033  0.47635  Biso   1.000  O 
  O14      1.0000 0.28845  0.63875  0.97027  Biso   1.000  O 
  O15      1.0000 0.24527  0.87817  0.99010  Biso   1.000  O 
  O16      1.0000 0.24579  0.86060  0.48926  Biso   1.000  O 
  Hf9      1.0000 0.63951  0.01115  0.22397  Biso   1.000  Hf
  Hf10     1.0000 0.64158  0.22973  0.71255  Biso   1.000  Hf
  Hf11     1.0000 0.84852  0.25578  0.17287  Biso   1.000  Hf
  Hf12     1.0000 0.88099  0.48236  0.72363  Biso   1.000  Hf
  O17      1.0000 0.54741  0.17904  0.36756  Biso   1.000  O 
  O18      1.0000 0.55611  0.05872  0.86703  Biso   1.000  O 
  O19      1.0000 0.96859  0.44950  0.36084  Biso   1.000  O 
  O20      1.0000 0.98777  0.32129  0.84768  Biso   1.000  O 
  O21      1.0000 0.78435  0.11075  0.44199  Biso   1.000  O 
  O22      1.0000 0.77805  0.12894  0.93645  Biso   1.000  O 
  O23      1.0000 0.74932  0.37696  0.96678  Biso   1.000  O 
  O24      1.0000 0.74271  0.36263  0.46672  Biso   1.000  O 
  Hf13     1.0000 0.63821  0.51572  0.23938  Biso   1.000  Hf
  Hf14     1.0000 0.65298  0.72937  0.74104  Biso   1.000  Hf
  Hf15     1.0000 0.86456  0.76898  0.23203  Biso   1.000  Hf
  Hf16     1.0000 0.89091  0.98484  0.72028  Biso   1.000  Hf
  O25      1.0000 0.54007  0.67798  0.39385  Biso   1.000  O 
  O26      1.0000 0.55139  0.56374  0.90127  Biso   1.000  O 
  O27      1.0000 0.97363  0.91109  0.38564  Biso   1.000  O 
  O28      1.0000 0.98430  0.82152  0.87872  Biso   1.000  O 
  O29      1.0000 0.77579  0.61416  0.48056  Biso   1.000  O 
  O30      1.0000 0.79043  0.62596  0.97771  Biso   1.000  O 
  O31      1.0000 0.75098  0.87422  0.98669  Biso   1.000  O 
  O32      1.0000 0.73667  0.86548  0.48949  Biso   1.000  O 
  Cd1      1.0000 0.09050  0.28542  0.35094  Biso   1.000  Cd
