data_image0
_cell_length_a       10.0285
_cell_length_b       10.2141
_cell_length_c       10.0285
_cell_angle_alpha    90
_cell_angle_beta     90
_cell_angle_gamma    90

_symmetry_space_group_name_H-M    "P 1"
_symmetry_int_tables_number       1

loop_
  _symmetry_equiv_pos_as_xyz
  'x, y, z'

loop_
  _atom_site_label
  _atom_site_occupancy
  _atom_site_fract_x
  _atom_site_fract_y
  _atom_site_fract_z
  _atom_site_thermal_displace_type
  _atom_site_B_iso_or_equiv
  _atom_site_type_symbol
  Cd1      1.0000 0.12011  0.01725  0.12068  Biso   1.000  Cd
  Hf1      1.0000 0.11698  0.00728  0.62399  Biso   1.000  Hf
  Hf2      1.0000 0.12664  0.49516  0.12386  Biso   1.000  Hf
  Hf3      1.0000 0.12511  0.50484  0.62416  Biso   1.000  Hf
  Hf4      1.0000 0.62335  0.00388  0.12064  Biso   1.000  Hf
  Hf5      1.0000 0.62770  0.00159  0.62437  Biso   1.000  Hf
  Hf6      1.0000 0.62700  0.50146  0.12528  Biso   1.000  Hf
  Hf7      1.0000 0.62284  0.50697  0.62297  Biso   1.000  Hf
  Hf8      1.0000 0.12585  0.25388  0.38043  Biso   1.000  Hf
  Hf9      1.0000 0.12623  0.25734  0.87309  Biso   1.000  Hf
  Hf10     1.0000 0.12171  0.75404  0.37136  Biso   1.000  Hf
  Hf11     1.0000 0.12182  0.75092  0.87704  Biso   1.000  Hf
  Hf12     1.0000 0.62418  0.25078  0.37687  Biso   1.000  Hf
  Hf13     1.0000 0.62282  0.25641  0.87192  Biso   1.000  Hf
  Hf14     1.0000 0.62462  0.75509  0.37189  Biso   1.000  Hf
  Hf15     1.0000 0.62581  0.75526  0.87534  Biso   1.000  Hf
  Hf16     1.0000 0.38147  0.25217  0.12634  Biso   1.000  Hf
  Hf17     1.0000 0.37492  0.25247  0.62464  Biso   1.000  Hf
  Hf18     1.0000 0.37597  0.75233  0.11863  Biso   1.000  Hf
  Hf19     1.0000 0.37352  0.75678  0.62150  Biso   1.000  Hf
  Hf20     1.0000 0.87415  0.25229  0.12963  Biso   1.000  Hf
  Hf21     1.0000 0.87000  0.25473  0.62621  Biso   1.000  Hf
  Hf22     1.0000 0.88162  0.74578  0.12176  Biso   1.000  Hf
  Hf23     1.0000 0.87693  0.75357  0.62570  Biso   1.000  Hf
  Hf24     1.0000 0.36836  0.00413  0.37051  Biso   1.000  Hf
  Hf25     1.0000 0.37577  0.00079  0.86856  Biso   1.000  Hf
  Hf26     1.0000 0.37774  0.50741  0.37639  Biso   1.000  Hf
  Hf27     1.0000 0.37351  0.50799  0.87388  Biso   1.000  Hf
  Hf28     1.0000 0.87338  0.99743  0.37392  Biso   1.000  Hf
  Hf29     1.0000 0.87910  0.00002  0.87727  Biso   1.000  Hf
  Hf30     1.0000 0.87524  0.50461  0.37514  Biso   1.000  Hf
  Hf31     1.0000 0.87155  0.50286  0.87320  Biso   1.000  Hf
  O1       1.0000 0.00716  0.14504  0.00615  Biso   1.000  O 
  O2       1.0000 0.00038  0.15427  0.50859  Biso   1.000  O 
  O3       1.0000 0.99788  0.64465  0.99927  Biso   1.000  O 
  O4       1.0000 0.00050  0.65170  0.49977  Biso   1.000  O 
  O5       1.0000 0.50969  0.15084  0.00234  Biso   1.000  O 
  O6       1.0000 0.49738  0.15106  0.49928  Biso   1.000  O 
  O7       1.0000 0.49843  0.65508  0.99887  Biso   1.000  O 
  O8       1.0000 0.50089  0.65189  0.49928  Biso   1.000  O 
  O9       1.0000 0.99723  0.10929  0.26505  Biso   1.000  O 
  O10      1.0000 0.00048  0.10646  0.75889  Biso   1.000  O 
  O11      1.0000 0.00375  0.60124  0.24889  Biso   1.000  O 
  O12      1.0000 0.99821  0.60549  0.74959  Biso   1.000  O 
  O13      1.0000 0.50277  0.10383  0.25003  Biso   1.000  O 
  O14      1.0000 0.49974  0.10714  0.75011  Biso   1.000  O 
  O15      1.0000 0.50304  0.60501  0.24928  Biso   1.000  O 
  O16      1.0000 0.49930  0.60731  0.74936  Biso   1.000  O 
  O17      1.0000 0.00670  0.35312  0.24768  Biso   1.000  O 
  O18      1.0000 0.99647  0.35602  0.74929  Biso   1.000  O 
  O19      1.0000 0.98110  0.84769  0.26246  Biso   1.000  O 
  O20      1.0000 0.00420  0.85656  0.74880  Biso   1.000  O 
  O21      1.0000 0.50698  0.35616  0.24982  Biso   1.000  O 
  O22      1.0000 0.49549  0.35804  0.75073  Biso   1.000  O 
  O23      1.0000 0.48946  0.85382  0.25265  Biso   1.000  O 
  O24      1.0000 0.50376  0.85551  0.74758  Biso   1.000  O 
  O25      1.0000 0.99518  0.39819  0.99828  Biso   1.000  O 
  O26      1.0000 0.00063  0.40291  0.49833  Biso   1.000  O 
  O27      1.0000 0.99867  0.88923  0.99835  Biso   1.000  O 
  O28      1.0000 0.00163  0.90237  0.50326  Biso   1.000  O 
  O29      1.0000 0.50120  0.39955  0.00074  Biso   1.000  O 
  O30      1.0000 0.50000  0.40081  0.50012  Biso   1.000  O 
  O31      1.0000 0.50366  0.90574  0.99828  Biso   1.000  O 
  O32      1.0000 0.50266  0.90334  0.49931  Biso   1.000  O 
  O33      1.0000 0.26179  0.16065  0.26221  Biso   1.000  O 
  O34      1.0000 0.24958  0.15339  0.75090  Biso   1.000  O 
  O35      1.0000 0.25285  0.65655  0.24970  Biso   1.000  O 
  O36      1.0000 0.24942  0.65350  0.74810  Biso   1.000  O 
  O37      1.0000 0.75049  0.15002  0.25298  Biso   1.000  O 
  O38      1.0000 0.74970  0.15189  0.75310  Biso   1.000  O 
  O39      1.0000 0.75122  0.65014  0.24929  Biso   1.000  O 
  O40      1.0000 0.74950  0.65213  0.74936  Biso   1.000  O 
  O41      1.0000 0.25989  0.11428  0.99800  Biso   1.000  O 
  O42      1.0000 0.24777  0.10556  0.50350  Biso   1.000  O 
  O43      1.0000 0.25314  0.59956  0.00099  Biso   1.000  O 
  O44      1.0000 0.25057  0.60672  0.50023  Biso   1.000  O 
  O45      1.0000 0.75964  0.10135  0.00428  Biso   1.000  O 
  O46      1.0000 0.74786  0.10546  0.50346  Biso   1.000  O 
  O47      1.0000 0.74794  0.60719  0.99838  Biso   1.000  O 
  O48      1.0000 0.75067  0.60562  0.49948  Biso   1.000  O 
  O49      1.0000 0.25019  0.35150  0.00562  Biso   1.000  O 
  O50      1.0000 0.24936  0.35791  0.50588  Biso   1.000  O 
  O51      1.0000 0.26261  0.85255  0.97669  Biso   1.000  O 
  O52      1.0000 0.25574  0.85541  0.48498  Biso   1.000  O 
  O53      1.0000 0.74589  0.35771  0.99837  Biso   1.000  O 
  O54      1.0000 0.75033  0.35632  0.49741  Biso   1.000  O 
  O55      1.0000 0.75481  0.85151  0.00267  Biso   1.000  O 
  O56      1.0000 0.75060  0.85385  0.50222  Biso   1.000  O 
  O57      1.0000 0.25469  0.40600  0.25325  Biso   1.000  O 
  O58      1.0000 0.24411  0.40311  0.75640  Biso   1.000  O 
  O59      1.0000 0.24426  0.90264  0.23935  Biso   1.000  O 
  O60      1.0000 0.25871  0.90495  0.73311  Biso   1.000  O 
  O61      1.0000 0.75784  0.39967  0.24575  Biso   1.000  O 
  O62      1.0000 0.74613  0.40198  0.74771  Biso   1.000  O 
  O63      1.0000 0.73791  0.90174  0.25676  Biso   1.000  O 
  O64      1.0000 0.75386  0.90148  0.75201  Biso   1.000  O 
