data_image0
_cell_length_a       10.2515
_cell_length_b       5.16197
_cell_length_c       10.5805
_cell_angle_alpha    90
_cell_angle_beta     80
_cell_angle_gamma    90

_symmetry_space_group_name_H-M    "P 1"
_symmetry_int_tables_number       1

loop_
  _symmetry_equiv_pos_as_xyz
  'x, y, z'

loop_
  _atom_site_label
  _atom_site_occupancy
  _atom_site_fract_x
  _atom_site_fract_y
  _atom_site_fract_z
  _atom_site_thermal_displace_type
  _atom_site_B_iso_or_equiv
  _atom_site_type_symbol
  Hf1      1.0000 0.13130  0.04382  0.13990  Biso   1.000  Hf
  Hf2      1.0000 0.14865  0.45197  0.38963  Biso   1.000  Hf
  Hf3      1.0000 0.34922  0.55062  0.09533  Biso   1.000  Hf
  Hf4      1.0000 0.36020  0.92637  0.34695  Biso   1.000  Hf
  O1       1.0000 0.02886  0.33808  0.07305  Biso   1.000  O 
  O2       1.0000 0.03287  0.17218  0.32483  Biso   1.000  O 
  O3       1.0000 0.46377  0.86372  0.16320  Biso   1.000  O 
  O4       1.0000 0.49620  0.70064  0.44664  Biso   1.000  O 
  O5       1.0000 0.26387  0.22858  0.23088  Biso   1.000  O 
  O6       1.0000 0.28707  0.22569  0.48677  Biso   1.000  O 
  O7       1.0000 0.21697  0.76845  0.00228  Biso   1.000  O 
  O8       1.0000 0.20636  0.74538  0.24827  Biso   1.000  O 
  Hf5      1.0000 0.15425  0.03855  0.64117  Biso   1.000  Hf
  Hf6      1.0000 0.15193  0.45385  0.88947  Biso   1.000  Hf
  Hf7      1.0000 0.37656  0.54329  0.60742  Biso   1.000  Hf
  Hf8      1.0000 0.37637  0.95620  0.85125  Biso   1.000  Hf
  O9       1.0000 0.04822  0.32384  0.57344  Biso   1.000  O 
  O10      1.0000 0.04938  0.16655  0.82137  Biso   1.000  O 
  O11      1.0000 0.48317  0.81963  0.68070  Biso   1.000  O 
  O12      1.0000 0.48284  0.66835  0.92050  Biso   1.000  O 
  O13      1.0000 0.29049  0.25066  0.73605  Biso   1.000  O 
  O14      1.0000 0.29104  0.24790  0.98210  Biso   1.000  O 
  O15      1.0000 0.23598  0.74037  0.50823  Biso   1.000  O 
  O16      1.0000 0.24010  0.73994  0.75488  Biso   1.000  O 
  Hf9      1.0000 0.64260  0.04053  0.14742  Biso   1.000  Hf
  Hf10     1.0000 0.66382  0.45575  0.41030  Biso   1.000  Hf
  Hf11     1.0000 0.85774  0.54274  0.10570  Biso   1.000  Hf
  Hf12     1.0000 0.87009  0.95097  0.35430  Biso   1.000  Hf
  O17      1.0000 0.53306  0.34324  0.08146  Biso   1.000  O 
  O18      1.0000 0.55246  0.13572  0.33844  Biso   1.000  O 
  O19      1.0000 0.95955  0.83368  0.17151  Biso   1.000  O 
  O20      1.0000 0.97530  0.66465  0.42286  Biso   1.000  O 
  O21      1.0000 0.78107  0.25869  0.24394  Biso   1.000  O 
  O22      1.0000 0.79069  0.23216  0.49582  Biso   1.000  O 
  O23      1.0000 0.72169  0.75926  0.01378  Biso   1.000  O 
  O24      1.0000 0.72514  0.73786  0.26382  Biso   1.000  O 
  Hf13     1.0000 0.65302  0.03716  0.65067  Biso   1.000  Hf
  Hf14     1.0000 0.65413  0.45459  0.89700  Biso   1.000  Hf
  Hf15     1.0000 0.88048  0.53868  0.60656  Biso   1.000  Hf
  Hf16     1.0000 0.87783  0.95366  0.85275  Biso   1.000  Hf
  O25      1.0000 0.54718  0.32038  0.58089  Biso   1.000  O 
  O26      1.0000 0.54911  0.16801  0.82872  Biso   1.000  O 
  O27      1.0000 0.98196  0.82707  0.67191  Biso   1.000  O 
  O28      1.0000 0.98167  0.66607  0.91884  Biso   1.000  O 
  O29      1.0000 0.79017  0.25439  0.74163  Biso   1.000  O 
  O30      1.0000 0.79303  0.23704  0.98934  Biso   1.000  O 
  O31      1.0000 0.74099  0.74830  0.51616  Biso   1.000  O 
  O32      1.0000 0.74130  0.74019  0.76261  Biso   1.000  O 
  Cd1      1.0000 0.43982  0.44438  0.30101  Biso   1.000  Cd
