data_image0
_cell_length_a       9.96702
_cell_length_b       5.18656
_cell_length_c       10.0507
_cell_angle_alpha    90
_cell_angle_beta     90
_cell_angle_gamma    90

_symmetry_space_group_name_H-M    "P 1"
_symmetry_int_tables_number       1

loop_
  _symmetry_equiv_pos_as_xyz
  'x, y, z'

loop_
  _atom_site_label
  _atom_site_occupancy
  _atom_site_fract_x
  _atom_site_fract_y
  _atom_site_fract_z
  _atom_site_thermal_displace_type
  _atom_site_B_iso_or_equiv
  _atom_site_type_symbol
  Cd1      1.0000 0.12659  0.03778  0.11742  Biso   1.000  Cd
  Hf1      1.0000 0.13736  0.03650  0.63002  Biso   1.000  Hf
  Hf2      1.0000 0.63564  0.03044  0.12584  Biso   1.000  Hf
  Hf3      1.0000 0.63557  0.03177  0.62428  Biso   1.000  Hf
  Hf4      1.0000 0.14111  0.46660  0.37767  Biso   1.000  Hf
  Hf5      1.0000 0.13874  0.46899  0.87585  Biso   1.000  Hf
  Hf6      1.0000 0.63453  0.46634  0.37558  Biso   1.000  Hf
  Hf7      1.0000 0.63862  0.46215  0.87477  Biso   1.000  Hf
  Hf8      1.0000 0.36512  0.53233  0.13160  Biso   1.000  Hf
  Hf9      1.0000 0.36954  0.53524  0.62769  Biso   1.000  Hf
  Hf10     1.0000 0.86368  0.52833  0.12326  Biso   1.000  Hf
  Hf11     1.0000 0.86874  0.53161  0.62256  Biso   1.000  Hf
  Hf12     1.0000 0.36447  0.96768  0.37612  Biso   1.000  Hf
  Hf13     1.0000 0.37021  0.96496  0.87811  Biso   1.000  Hf
  Hf14     1.0000 0.86963  0.96887  0.37818  Biso   1.000  Hf
  Hf15     1.0000 0.86840  0.96188  0.87125  Biso   1.000  Hf
  O1       1.0000 0.03631  0.38489  0.19808  Biso   1.000  O 
  O2       1.0000 0.04299  0.38056  0.68800  Biso   1.000  O 
  O3       1.0000 0.54223  0.37045  0.19261  Biso   1.000  O 
  O4       1.0000 0.53981  0.36704  0.69458  Biso   1.000  O 
  O5       1.0000 0.03918  0.13029  0.44625  Biso   1.000  O 
  O6       1.0000 0.04081  0.13321  0.91357  Biso   1.000  O 
  O7       1.0000 0.53820  0.13191  0.44413  Biso   1.000  O 
  O8       1.0000 0.54248  0.12621  0.94468  Biso   1.000  O 
  O9       1.0000 0.46922  0.86530  0.19752  Biso   1.000  O 
  O10      1.0000 0.46762  0.86808  0.69653  Biso   1.000  O 
  O11      1.0000 0.95547  0.86521  0.19518  Biso   1.000  O 
  O12      1.0000 0.96360  0.86990  0.68750  Biso   1.000  O 
  O13      1.0000 0.46785  0.63306  0.44824  Biso   1.000  O 
  O14      1.0000 0.46818  0.62664  0.94386  Biso   1.000  O 
  O15      1.0000 0.96652  0.63079  0.44229  Biso   1.000  O 
  O16      1.0000 0.96844  0.63296  0.94395  Biso   1.000  O 
  O17      1.0000 0.28336  0.24986  0.25722  Biso   1.000  O 
  O18      1.0000 0.27753  0.23991  0.75220  Biso   1.000  O 
  O19      1.0000 0.77281  0.23203  0.24888  Biso   1.000  O 
  O20      1.0000 0.77381  0.23342  0.74702  Biso   1.000  O 
  O21      1.0000 0.27348  0.26214  0.50479  Biso   1.000  O 
  O22      1.0000 0.27868  0.26324  0.99969  Biso   1.000  O 
  O23      1.0000 0.77190  0.26600  0.49811  Biso   1.000  O 
  O24      1.0000 0.77794  0.25736  0.99721  Biso   1.000  O 
  O25      1.0000 0.23131  0.76514  0.50418  Biso   1.000  O 
  O26      1.0000 0.23329  0.75314  0.00145  Biso   1.000  O 
  O27      1.0000 0.73224  0.76521  0.49864  Biso   1.000  O 
  O28      1.0000 0.73241  0.75639  0.99896  Biso   1.000  O 
  O29      1.0000 0.23806  0.72866  0.25767  Biso   1.000  O 
  O30      1.0000 0.23273  0.73994  0.75164  Biso   1.000  O 
  O31      1.0000 0.73217  0.73380  0.24908  Biso   1.000  O 
  O32      1.0000 0.73225  0.73192  0.74817  Biso   1.000  O 
