data_image0
_cell_length_a       10.0573
_cell_length_b       10.2628
_cell_length_c       5.22343
_cell_angle_alpha    90
_cell_angle_beta     90
_cell_angle_gamma    90

_symmetry_space_group_name_H-M    "P 1"
_symmetry_int_tables_number       1

loop_
  _symmetry_equiv_pos_as_xyz
  'x, y, z'

loop_
  _atom_site_label
  _atom_site_occupancy
  _atom_site_fract_x
  _atom_site_fract_y
  _atom_site_fract_z
  _atom_site_thermal_displace_type
  _atom_site_B_iso_or_equiv
  _atom_site_type_symbol
  Cd1      1.0000 0.13046  0.01504  0.34545  Biso   1.000  Cd
  Hf1      1.0000 0.13845  0.52144  0.34307  Biso   1.000  Hf
  Hf2      1.0000 0.13713  0.22980  0.84285  Biso   1.000  Hf
  Hf3      1.0000 0.13658  0.73047  0.84153  Biso   1.000  Hf
  Hf4      1.0000 0.35685  0.26911  0.33847  Biso   1.000  Hf
  Hf5      1.0000 0.35987  0.77167  0.33631  Biso   1.000  Hf
  Hf6      1.0000 0.35662  0.47929  0.84168  Biso   1.000  Hf
  Hf7      1.0000 0.35658  0.98107  0.83946  Biso   1.000  Hf
  Hf8      1.0000 0.63840  0.02128  0.15930  Biso   1.000  Hf
  Hf9      1.0000 0.63757  0.51979  0.15619  Biso   1.000  Hf
  Hf10     1.0000 0.63527  0.23044  0.65770  Biso   1.000  Hf
  Hf11     1.0000 0.63590  0.72943  0.65467  Biso   1.000  Hf
  Hf12     1.0000 0.85933  0.27092  0.15882  Biso   1.000  Hf
  Hf13     1.0000 0.85994  0.76846  0.15450  Biso   1.000  Hf
  Hf14     1.0000 0.85914  0.47961  0.65796  Biso   1.000  Hf
  Hf15     1.0000 0.85693  0.98163  0.66833  Biso   1.000  Hf
  O1       1.0000 0.03987  0.18404  0.18680  Biso   1.000  O 
  O2       1.0000 0.03480  0.67073  0.17562  Biso   1.000  O 
  O3       1.0000 0.02537  0.08071  0.72209  Biso   1.000  O 
  O4       1.0000 0.03201  0.58123  0.67265  Biso   1.000  O 
  O5       1.0000 0.46693  0.41372  0.16491  Biso   1.000  O 
  O6       1.0000 0.46972  0.91420  0.16373  Biso   1.000  O 
  O7       1.0000 0.46451  0.33606  0.66485  Biso   1.000  O 
  O8       1.0000 0.46700  0.83744  0.66024  Biso   1.000  O 
  O9       1.0000 0.27594  0.12558  0.58815  Biso   1.000  O 
  O10      1.0000 0.27463  0.62440  0.58859  Biso   1.000  O 
  O11      1.0000 0.28860  0.13525  0.06659  Biso   1.000  O 
  O12      1.0000 0.27576  0.62313  0.08981  Biso   1.000  O 
  O13      1.0000 0.22127  0.37457  0.58877  Biso   1.000  O 
  O14      1.0000 0.22513  0.86918  0.58678  Biso   1.000  O 
  O15      1.0000 0.22218  0.37903  0.08958  Biso   1.000  O 
  O16      1.0000 0.23260  0.86930  0.07421  Biso   1.000  O 
  O17      1.0000 0.53249  0.16630  0.33071  Biso   1.000  O 
  O18      1.0000 0.53162  0.66389  0.33111  Biso   1.000  O 
  O19      1.0000 0.53211  0.08397  0.82857  Biso   1.000  O 
  O20      1.0000 0.52819  0.58633  0.83185  Biso   1.000  O 
  O21      1.0000 0.96348  0.42029  0.32654  Biso   1.000  O 
  O22      1.0000 0.94557  0.92466  0.32389  Biso   1.000  O 
  O23      1.0000 0.96145  0.33403  0.82972  Biso   1.000  O 
  O24      1.0000 0.96119  0.82942  0.82484  Biso   1.000  O 
  O25      1.0000 0.77100  0.12671  0.91691  Biso   1.000  O 
  O26      1.0000 0.77151  0.62399  0.90879  Biso   1.000  O 
  O27      1.0000 0.77478  0.12803  0.41670  Biso   1.000  O 
  O28      1.0000 0.77449  0.62630  0.40885  Biso   1.000  O 
  O29      1.0000 0.71946  0.37600  0.90961  Biso   1.000  O 
  O30      1.0000 0.71981  0.87508  0.91070  Biso   1.000  O 
  O31      1.0000 0.72241  0.37667  0.40997  Biso   1.000  O 
  O32      1.0000 0.71977  0.87546  0.41081  Biso   1.000  O 
