data_image0
_cell_length_a       9.95833
_cell_length_b       10.3718
_cell_length_c       10.0213
_cell_angle_alpha    90
_cell_angle_beta     90
_cell_angle_gamma    90

_symmetry_space_group_name_H-M    "P 1"
_symmetry_int_tables_number       1

loop_
  _symmetry_equiv_pos_as_xyz
  'x, y, z'

loop_
  _atom_site_label
  _atom_site_occupancy
  _atom_site_fract_x
  _atom_site_fract_y
  _atom_site_fract_z
  _atom_site_thermal_displace_type
  _atom_site_B_iso_or_equiv
  _atom_site_type_symbol
  Cd1      1.0000 0.12510  0.01940  0.11654  Biso   1.000  Cd
  Hf1      1.0000 0.13571  0.01781  0.63087  Biso   1.000  Hf
  Hf2      1.0000 0.13568  0.51614  0.12712  Biso   1.000  Hf
  Hf3      1.0000 0.13581  0.51727  0.62677  Biso   1.000  Hf
  Hf4      1.0000 0.63571  0.01599  0.12550  Biso   1.000  Hf
  Hf5      1.0000 0.63435  0.01614  0.62461  Biso   1.000  Hf
  Hf6      1.0000 0.63409  0.51616  0.12740  Biso   1.000  Hf
  Hf7      1.0000 0.63540  0.51640  0.62666  Biso   1.000  Hf
  Hf8      1.0000 0.13844  0.23211  0.37821  Biso   1.000  Hf
  Hf9      1.0000 0.13505  0.23523  0.87425  Biso   1.000  Hf
  Hf10     1.0000 0.13659  0.73451  0.37735  Biso   1.000  Hf
  Hf11     1.0000 0.13701  0.73285  0.87811  Biso   1.000  Hf
  Hf12     1.0000 0.63394  0.23299  0.37551  Biso   1.000  Hf
  Hf13     1.0000 0.63674  0.23215  0.87552  Biso   1.000  Hf
  Hf14     1.0000 0.63431  0.73402  0.37695  Biso   1.000  Hf
  Hf15     1.0000 0.63595  0.73271  0.87599  Biso   1.000  Hf
  Hf16     1.0000 0.36526  0.26651  0.12998  Biso   1.000  Hf
  Hf17     1.0000 0.36814  0.26685  0.62743  Biso   1.000  Hf
  Hf18     1.0000 0.36566  0.76577  0.12892  Biso   1.000  Hf
  Hf19     1.0000 0.36721  0.76768  0.62749  Biso   1.000  Hf
  Hf20     1.0000 0.86223  0.26601  0.12603  Biso   1.000  Hf
  Hf21     1.0000 0.86729  0.26705  0.62436  Biso   1.000  Hf
  Hf22     1.0000 0.86683  0.76445  0.12397  Biso   1.000  Hf
  Hf23     1.0000 0.86769  0.76553  0.62465  Biso   1.000  Hf
  Hf24     1.0000 0.36641  0.48369  0.37767  Biso   1.000  Hf
  Hf25     1.0000 0.36783  0.48309  0.87706  Biso   1.000  Hf
  Hf26     1.0000 0.36334  0.98367  0.37537  Biso   1.000  Hf
  Hf27     1.0000 0.36759  0.98273  0.87842  Biso   1.000  Hf
  Hf28     1.0000 0.86689  0.48376  0.37695  Biso   1.000  Hf
  Hf29     1.0000 0.86815  0.48299  0.87616  Biso   1.000  Hf
  Hf30     1.0000 0.86808  0.98471  0.37835  Biso   1.000  Hf
  Hf31     1.0000 0.86620  0.98168  0.87190  Biso   1.000  Hf
  O1       1.0000 0.03547  0.19230  0.19790  Biso   1.000  O 
  O2       1.0000 0.04254  0.19110  0.68548  Biso   1.000  O 
  O3       1.0000 0.03765  0.68458  0.19425  Biso   1.000  O 
  O4       1.0000 0.03821  0.68504  0.69506  Biso   1.000  O 
  O5       1.0000 0.54094  0.18621  0.19068  Biso   1.000  O 
  O6       1.0000 0.53925  0.18469  0.69375  Biso   1.000  O 
  O7       1.0000 0.53809  0.68387  0.19623  Biso   1.000  O 
  O8       1.0000 0.53721  0.68351  0.69545  Biso   1.000  O 
  O9       1.0000 0.03878  0.06529  0.44501  Biso   1.000  O 
  O10      1.0000 0.03954  0.06653  0.91080  Biso   1.000  O 
  O11      1.0000 0.03742  0.56507  0.44540  Biso   1.000  O 
  O12      1.0000 0.03833  0.56554  0.94553  Biso   1.000  O 
  O13      1.0000 0.53710  0.06579  0.44377  Biso   1.000  O 
  O14      1.0000 0.54034  0.06436  0.94380  Biso   1.000  O 
  O15      1.0000 0.53759  0.56595  0.44498  Biso   1.000  O 
  O16      1.0000 0.53861  0.56441  0.94589  Biso   1.000  O 
  O17      1.0000 0.46432  0.43387  0.19605  Biso   1.000  O 
  O18      1.0000 0.46575  0.43436  0.69538  Biso   1.000  O 
  O19      1.0000 0.46778  0.93332  0.19625  Biso   1.000  O 
  O20      1.0000 0.46512  0.93438  0.69642  Biso   1.000  O 
  O21      1.0000 0.96377  0.43316  0.19425  Biso   1.000  O 
  O22      1.0000 0.96504  0.43540  0.69478  Biso   1.000  O 
  O23      1.0000 0.95253  0.93579  0.19319  Biso   1.000  O 
  O24      1.0000 0.96125  0.93473  0.68694  Biso   1.000  O 
  O25      1.0000 0.46489  0.31600  0.44519  Biso   1.000  O 
  O26      1.0000 0.46451  0.31329  0.94307  Biso   1.000  O 
  O27      1.0000 0.46642  0.81666  0.44842  Biso   1.000  O 
  O28      1.0000 0.46594  0.81506  0.94501  Biso   1.000  O 
  O29      1.0000 0.96486  0.31643  0.44296  Biso   1.000  O 
  O30      1.0000 0.96556  0.31617  0.94518  Biso   1.000  O 
  O31      1.0000 0.96426  0.81485  0.44269  Biso   1.000  O 
  O32      1.0000 0.96573  0.81563  0.94301  Biso   1.000  O 
  O33      1.0000 0.28287  0.12836  0.25817  Biso   1.000  O 
  O34      1.0000 0.27647  0.12019  0.75240  Biso   1.000  O 
  O35      1.0000 0.27161  0.61558  0.25089  Biso   1.000  O 
  O36      1.0000 0.27237  0.61824  0.75141  Biso   1.000  O 
  O37      1.0000 0.77106  0.11776  0.25050  Biso   1.000  O 
  O38      1.0000 0.77246  0.11772  0.74792  Biso   1.000  O 
  O39      1.0000 0.77244  0.61698  0.24943  Biso   1.000  O 
  O40      1.0000 0.77222  0.61719  0.74993  Biso   1.000  O 
  O41      1.0000 0.27209  0.13045  0.50498  Biso   1.000  O 
  O42      1.0000 0.27147  0.13243  0.00009  Biso   1.000  O 
  O43      1.0000 0.27243  0.63250  0.50127  Biso   1.000  O 
  O44      1.0000 0.27092  0.63052  0.00151  Biso   1.000  O 
  O45      1.0000 0.77149  0.13313  0.49922  Biso   1.000  O 
  O46      1.0000 0.77602  0.13055  0.99853  Biso   1.000  O 
  O47      1.0000 0.77109  0.63230  0.49964  Biso   1.000  O 
  O48      1.0000 0.77290  0.63064  0.99940  Biso   1.000  O 
  O49      1.0000 0.23117  0.38194  0.50141  Biso   1.000  O 
  O50      1.0000 0.22938  0.38163  0.00151  Biso   1.000  O 
  O51      1.0000 0.22886  0.88283  0.50397  Biso   1.000  O 
  O52      1.0000 0.23208  0.87668  0.00145  Biso   1.000  O 
  O53      1.0000 0.73062  0.38264  0.50024  Biso   1.000  O 
  O54      1.0000 0.72740  0.38107  0.00025  Biso   1.000  O 
  O55      1.0000 0.73053  0.88254  0.49916  Biso   1.000  O 
  O56      1.0000 0.73028  0.87952  0.99944  Biso   1.000  O 
  O57      1.0000 0.22808  0.37077  0.25182  Biso   1.000  O 
  O58      1.0000 0.23135  0.36964  0.75036  Biso   1.000  O 
  O59      1.0000 0.23904  0.86032  0.25741  Biso   1.000  O 
  O60      1.0000 0.23041  0.86888  0.75244  Biso   1.000  O 
  O61      1.0000 0.72957  0.36858  0.25074  Biso   1.000  O 
  O62      1.0000 0.73141  0.36758  0.75034  Biso   1.000  O 
  O63      1.0000 0.73210  0.86706  0.24915  Biso   1.000  O 
  O64      1.0000 0.72998  0.86635  0.74849  Biso   1.000  O 
