data_image0
_cell_length_a       9.97132
_cell_length_b       10.3795
_cell_length_c       5.02048
_cell_angle_alpha    90
_cell_angle_beta     90
_cell_angle_gamma    90

_symmetry_space_group_name_H-M    "P 1"
_symmetry_int_tables_number       1

loop_
  _symmetry_equiv_pos_as_xyz
  'x, y, z'

loop_
  _atom_site_label
  _atom_site_occupancy
  _atom_site_fract_x
  _atom_site_fract_y
  _atom_site_fract_z
  _atom_site_thermal_displace_type
  _atom_site_B_iso_or_equiv
  _atom_site_type_symbol
  Cd1      1.0000 0.12503  0.01936  0.23892  Biso   1.000  Cd
  Hf1      1.0000 0.13611  0.51644  0.25378  Biso   1.000  Hf
  Hf2      1.0000 0.63440  0.01564  0.24748  Biso   1.000  Hf
  Hf3      1.0000 0.63426  0.51592  0.25430  Biso   1.000  Hf
  Hf4      1.0000 0.13706  0.23293  0.75095  Biso   1.000  Hf
  Hf5      1.0000 0.13758  0.73304  0.75618  Biso   1.000  Hf
  Hf6      1.0000 0.63487  0.23166  0.74914  Biso   1.000  Hf
  Hf7      1.0000 0.63510  0.73257  0.75327  Biso   1.000  Hf
  Hf8      1.0000 0.36646  0.26723  0.25990  Biso   1.000  Hf
  Hf9      1.0000 0.36624  0.76606  0.25875  Biso   1.000  Hf
  Hf10     1.0000 0.86216  0.26615  0.24729  Biso   1.000  Hf
  Hf11     1.0000 0.86743  0.76364  0.24543  Biso   1.000  Hf
  Hf12     1.0000 0.36728  0.48271  0.75577  Biso   1.000  Hf
  Hf13     1.0000 0.36526  0.98167  0.75304  Biso   1.000  Hf
  Hf14     1.0000 0.86744  0.48283  0.75290  Biso   1.000  Hf
  Hf15     1.0000 0.86627  0.98224  0.74821  Biso   1.000  Hf
  O1       1.0000 0.04133  0.19875  0.37623  Biso   1.000  O 
  O2       1.0000 0.03763  0.68414  0.39000  Biso   1.000  O 
  O3       1.0000 0.54136  0.18587  0.38101  Biso   1.000  O 
  O4       1.0000 0.53767  0.68265  0.39424  Biso   1.000  O 
  O5       1.0000 0.03583  0.06923  0.83183  Biso   1.000  O 
  O6       1.0000 0.03757  0.56464  0.89266  Biso   1.000  O 
  O7       1.0000 0.53944  0.06403  0.88549  Biso   1.000  O 
  O8       1.0000 0.53837  0.56458  0.89266  Biso   1.000  O 
  O9       1.0000 0.46549  0.43351  0.39358  Biso   1.000  O 
  O10      1.0000 0.46795  0.93296  0.39395  Biso   1.000  O 
  O11      1.0000 0.96456  0.43283  0.38854  Biso   1.000  O 
  O12      1.0000 0.95055  0.93524  0.37706  Biso   1.000  O 
  O13      1.0000 0.46530  0.31402  0.88899  Biso   1.000  O 
  O14      1.0000 0.46740  0.81526  0.89654  Biso   1.000  O 
  O15      1.0000 0.96523  0.31694  0.88627  Biso   1.000  O 
  O16      1.0000 0.96602  0.81515  0.88548  Biso   1.000  O 
  O17      1.0000 0.28653  0.12976  0.52203  Biso   1.000  O 
  O18      1.0000 0.27197  0.61528  0.50257  Biso   1.000  O 
  O19      1.0000 0.77171  0.11761  0.49579  Biso   1.000  O 
  O20      1.0000 0.77269  0.61604  0.49780  Biso   1.000  O 
  O21      1.0000 0.27169  0.12974  0.00817  Biso   1.000  O 
  O22      1.0000 0.27093  0.63091  0.00343  Biso   1.000  O 
  O23      1.0000 0.77366  0.13139  0.99523  Biso   1.000  O 
  O24      1.0000 0.77217  0.63026  0.99751  Biso   1.000  O 
  O25      1.0000 0.22996  0.38118  0.00366  Biso   1.000  O 
  O26      1.0000 0.23059  0.87730  0.00849  Biso   1.000  O 
  O27      1.0000 0.73090  0.38109  0.99985  Biso   1.000  O 
  O28      1.0000 0.73026  0.87908  0.99754  Biso   1.000  O 
  O29      1.0000 0.22936  0.37170  0.50270  Biso   1.000  O 
  O30      1.0000 0.23942  0.86034  0.51749  Biso   1.000  O 
  O31      1.0000 0.73041  0.36794  0.50057  Biso   1.000  O 
  O32      1.0000 0.73120  0.86551  0.49507  Biso   1.000  O 
