data_image0
_cell_length_a       10.0204
_cell_length_b       10.3838
_cell_length_c       10.0748
_cell_angle_alpha    90
_cell_angle_beta     90
_cell_angle_gamma    90

_symmetry_space_group_name_H-M    "P 1"
_symmetry_int_tables_number       1

loop_
  _symmetry_equiv_pos_as_xyz
  'x, y, z'

loop_
  _atom_site_label
  _atom_site_occupancy
  _atom_site_fract_x
  _atom_site_fract_y
  _atom_site_fract_z
  _atom_site_thermal_displace_type
  _atom_site_B_iso_or_equiv
  _atom_site_type_symbol
  Hf1      1.0000 0.14520  0.00197  0.10879  Biso   1.000  Hf
  Hf2      1.0000 0.13005  0.23334  0.40344  Biso   1.000  Hf
  Hf3      1.0000 0.36757  0.26712  0.12096  Biso   1.000  Hf
  Hf4      1.0000 0.36618  0.48709  0.37613  Biso   1.000  Hf
  O1       1.0000 0.95964  0.18780  0.28551  Biso   1.000  O 
  O2       1.0000 0.04218  0.06430  0.46615  Biso   1.000  O 
  O3       1.0000 0.45904  0.43569  0.19409  Biso   1.000  O 
  O4       1.0000 0.46407  0.32125  0.44634  Biso   1.000  O 
  O5       1.0000 0.25081  0.11564  0.25387  Biso   1.000  O 
  O6       1.0000 0.27744  0.13429  0.50558  Biso   1.000  O 
  O7       1.0000 0.23553  0.38720  0.50377  Biso   1.000  O 
  O8       1.0000 0.22355  0.36733  0.25559  Biso   1.000  O 
  Hf5      1.0000 0.14116  0.01713  0.63514  Biso   1.000  Hf
  Hf6      1.0000 0.13642  0.23499  0.87123  Biso   1.000  Hf
  Hf7      1.0000 0.37049  0.27179  0.62942  Biso   1.000  Hf
  Hf8      1.0000 0.36813  0.49204  0.87185  Biso   1.000  Hf
  O9       1.0000 0.04052  0.18878  0.69203  Biso   1.000  O 
  O10      1.0000 0.05330  0.05611  0.92146  Biso   1.000  O 
  O11      1.0000 0.46709  0.43882  0.69503  Biso   1.000  O 
  O12      1.0000 0.46548  0.32105  0.94099  Biso   1.000  O 
  O13      1.0000 0.27751  0.12320  0.75103  Biso   1.000  O 
  O14      1.0000 0.29287  0.12727  0.99538  Biso   1.000  O 
  O15      1.0000 0.23659  0.39882  0.99808  Biso   1.000  O 
  O16      1.0000 0.23159  0.37156  0.74977  Biso   1.000  O 
  Hf9      1.0000 0.13212  0.52897  0.12408  Biso   1.000  Hf
  Hf10     1.0000 0.13047  0.73951  0.37687  Biso   1.000  Hf
  Hf11     1.0000 0.36478  0.76392  0.12468  Biso   1.000  Hf
  Hf12     1.0000 0.35810  0.98789  0.37479  Biso   1.000  Hf
  O17      1.0000 0.03302  0.68891  0.19374  Biso   1.000  O 
  O18      1.0000 0.03272  0.57447  0.44113  Biso   1.000  O 
  O19      1.0000 0.45368  0.93536  0.19448  Biso   1.000  O 
  O20      1.0000 0.46193  0.82022  0.44166  Biso   1.000  O 
  O21      1.0000 0.26914  0.61963  0.24807  Biso   1.000  O 
  O22      1.0000 0.26785  0.63605  0.49690  Biso   1.000  O 
  O23      1.0000 0.22736  0.88627  0.49899  Biso   1.000  O 
  O24      1.0000 0.22650  0.86527  0.24567  Biso   1.000  O 
  Hf13     1.0000 0.12912  0.51756  0.62248  Biso   1.000  Hf
  Hf14     1.0000 0.13057  0.73699  0.86879  Biso   1.000  Hf
  Hf15     1.0000 0.36673  0.76807  0.62080  Biso   1.000  Hf
  Hf16     1.0000 0.37001  0.98547  0.87042  Biso   1.000  Hf
  O25      1.0000 0.03540  0.68990  0.68786  Biso   1.000  O 
  O26      1.0000 0.03454  0.57324  0.94583  Biso   1.000  O 
  O27      1.0000 0.46559  0.93638  0.69071  Biso   1.000  O 
  O28      1.0000 0.47099  0.82372  0.94909  Biso   1.000  O 
  O29      1.0000 0.26641  0.61896  0.74579  Biso   1.000  O 
  O30      1.0000 0.26898  0.64196  0.99622  Biso   1.000  O 
  O31      1.0000 0.23454  0.88080  0.99220  Biso   1.000  O 
  O32      1.0000 0.23385  0.86827  0.74703  Biso   1.000  O 
  Hf17     1.0000 0.62816  0.00832  0.11906  Biso   1.000  Hf
  Hf18     1.0000 0.62853  0.23387  0.37929  Biso   1.000  Hf
  Hf19     1.0000 0.83281  0.26322  0.12833  Biso   1.000  Hf
  Hf20     1.0000 0.86506  0.48623  0.37620  Biso   1.000  Hf
  O33      1.0000 0.52578  0.18234  0.19459  Biso   1.000  O 
  O34      1.0000 0.53436  0.06898  0.44659  Biso   1.000  O 
  O35      1.0000 0.95970  0.43162  0.18786  Biso   1.000  O 
  O36      1.0000 0.97786  0.34059  0.47309  Biso   1.000  O 
  O37      1.0000 0.74314  0.11293  0.24609  Biso   1.000  O 
  O38      1.0000 0.77348  0.14319  0.49743  Biso   1.000  O 
  O39      1.0000 0.73196  0.38747  0.50061  Biso   1.000  O 
  O40      1.0000 0.71918  0.37254  0.25455  Biso   1.000  O 
  Hf21     1.0000 0.64166  0.01990  0.62183  Biso   1.000  Hf
  Hf22     1.0000 0.63487  0.23798  0.87150  Biso   1.000  Hf
  Hf23     1.0000 0.86765  0.27517  0.63233  Biso   1.000  Hf
  Hf24     1.0000 0.86476  0.48826  0.87852  Biso   1.000  Hf
  O41      1.0000 0.54169  0.18869  0.69173  Biso   1.000  O 
  O42      1.0000 0.54551  0.06928  0.93711  Biso   1.000  O 
  O43      1.0000 0.96300  0.44407  0.70298  Biso   1.000  O 
  O44      1.0000 0.95073  0.31693  0.92762  Biso   1.000  O 
  O45      1.0000 0.77506  0.12174  0.74835  Biso   1.000  O 
  O46      1.0000 0.77267  0.13490  0.99784  Biso   1.000  O 
  O47      1.0000 0.71778  0.38112  0.00273  Biso   1.000  O 
  O48      1.0000 0.72753  0.37551  0.75039  Biso   1.000  O 
  Hf25     1.0000 0.62842  0.52112  0.12796  Biso   1.000  Hf
  Hf26     1.0000 0.63464  0.74079  0.37538  Biso   1.000  Hf
  Hf27     1.0000 0.86158  0.76845  0.12443  Biso   1.000  Hf
  Hf28     1.0000 0.87950  0.00531  0.36301  Biso   1.000  Hf
  O49      1.0000 0.53419  0.68701  0.19693  Biso   1.000  O 
  O50      1.0000 0.53408  0.57161  0.44521  Biso   1.000  O 
  O51      1.0000 0.96048  0.94542  0.18230  Biso   1.000  O 
  O52      1.0000 0.96107  0.82585  0.43583  Biso   1.000  O 
  O53      1.0000 0.76914  0.61950  0.24959  Biso   1.000  O 
  O54      1.0000 0.76919  0.63723  0.49724  Biso   1.000  O 
  O55      1.0000 0.72969  0.89144  0.49445  Biso   1.000  O 
  O56      1.0000 0.72800  0.86901  0.24494  Biso   1.000  O 
  Hf29     1.0000 0.63535  0.52201  0.62476  Biso   1.000  Hf
  Hf30     1.0000 0.63632  0.73840  0.87360  Biso   1.000  Hf
  Hf31     1.0000 0.86565  0.77406  0.61819  Biso   1.000  Hf
  Hf32     1.0000 0.86568  0.98689  0.87154  Biso   1.000  Hf
  O57      1.0000 0.53357  0.68713  0.69632  Biso   1.000  O 
  O58      1.0000 0.53423  0.57467  0.94800  Biso   1.000  O 
  O59      1.0000 0.96309  0.93402  0.69533  Biso   1.000  O 
  O60      1.0000 0.96434  0.81942  0.94474  Biso   1.000  O 
  O61      1.0000 0.76998  0.62347  0.74842  Biso   1.000  O 
  O62      1.0000 0.76577  0.63213  0.00122  Biso   1.000  O 
  O63      1.0000 0.73079  0.88661  0.99615  Biso   1.000  O 
  O64      1.0000 0.72975  0.87200  0.74584  Biso   1.000  O 
  Cd1      1.0000 0.08777  0.25402  0.12801  Biso   1.000  Cd
