data_image0
_cell_length_a       10.3181
_cell_length_b       5.29588
_cell_length_c       10.2664
_cell_angle_alpha    80
_cell_angle_beta     90
_cell_angle_gamma    90

_symmetry_space_group_name_H-M    "P 1"
_symmetry_int_tables_number       1

loop_
  _symmetry_equiv_pos_as_xyz
  'x, y, z'

loop_
  _atom_site_label
  _atom_site_occupancy
  _atom_site_fract_x
  _atom_site_fract_y
  _atom_site_fract_z
  _atom_site_thermal_displace_type
  _atom_site_B_iso_or_equiv
  _atom_site_type_symbol
  Hf1      1.0000 0.10229  0.95280  0.10095  Biso   1.000  Hf
  Hf2      1.0000 0.14617  0.59882  0.40535  Biso   1.000  Hf
  Hf3      1.0000 0.41161  0.46769  0.10657  Biso   1.000  Hf
  Hf4      1.0000 0.35867  0.07264  0.39033  Biso   1.000  Hf
  O1       1.0000 0.00056  0.28829  0.95049  Biso   1.000  O 
  O2       1.0000 0.94365  0.09528  0.21145  Biso   1.000  O 
  O3       1.0000 0.02174  0.65250  0.23951  Biso   1.000  O 
  O4       1.0000 0.99797  0.79797  0.96698  Biso   1.000  O 
  O5       1.0000 0.30748  0.45110  0.29293  Biso   1.000  O 
  O6       1.0000 0.26066  0.20707  0.01073  Biso   1.000  O 
  O7       1.0000 0.25957  0.71841  0.02570  Biso   1.000  O 
  O8       1.0000 0.21394  0.93570  0.28319  Biso   1.000  O 
  Hf5      1.0000 0.10722  0.99987  0.61408  Biso   1.000  Hf
  Hf6      1.0000 0.14813  0.56394  0.88721  Biso   1.000  Hf
  Hf7      1.0000 0.40174  0.49118  0.60905  Biso   1.000  Hf
  Hf8      1.0000 0.35615  0.07246  0.87691  Biso   1.000  Hf
  O9       1.0000 0.00599  0.31043  0.47306  Biso   1.000  O 
  O10      1.0000 0.95669  0.12782  0.71084  Biso   1.000  O 
  O11      1.0000 0.04424  0.62804  0.71226  Biso   1.000  O 
  O12      1.0000 0.00168  0.81458  0.47921  Biso   1.000  O 
  O13      1.0000 0.29268  0.43676  0.77465  Biso   1.000  O 
  O14      1.0000 0.24723  0.27051  0.52507  Biso   1.000  O 
  O15      1.0000 0.26036  0.77592  0.52849  Biso   1.000  O 
  O16      1.0000 0.21260  0.93140  0.78317  Biso   1.000  O 
  Hf9      1.0000 0.60890  0.96698  0.10998  Biso   1.000  Hf
  Hf10     1.0000 0.65117  0.56485  0.38596  Biso   1.000  Hf
  Hf11     1.0000 0.89628  0.45143  0.10741  Biso   1.000  Hf
  Hf12     1.0000 0.85111  0.06753  0.38490  Biso   1.000  Hf
  O17      1.0000 0.51164  0.31853  0.96923  Biso   1.000  O 
  O18      1.0000 0.46056  0.11228  0.21583  Biso   1.000  O 
  O19      1.0000 0.54725  0.61011  0.21268  Biso   1.000  O 
  O20      1.0000 0.50442  0.81812  0.96811  Biso   1.000  O 
  O21      1.0000 0.78978  0.42150  0.28015  Biso   1.000  O 
  O22      1.0000 0.74918  0.23313  0.02396  Biso   1.000  O 
  O23      1.0000 0.75427  0.73292  0.02329  Biso   1.000  O 
  O24      1.0000 0.70849  0.92455  0.28349  Biso   1.000  O 
  Hf13     1.0000 0.60983  0.98860  0.60556  Biso   1.000  Hf
  Hf14     1.0000 0.65239  0.58608  0.88143  Biso   1.000  Hf
  Hf15     1.0000 0.89891  0.49071  0.61096  Biso   1.000  Hf
  Hf16     1.0000 0.85249  0.07680  0.88387  Biso   1.000  Hf
  O25      1.0000 0.50616  0.29817  0.46996  Biso   1.000  O 
  O26      1.0000 0.46523  0.13490  0.70861  Biso   1.000  O 
  O27      1.0000 0.54265  0.63434  0.71279  Biso   1.000  O 
  O28      1.0000 0.50087  0.79815  0.47108  Biso   1.000  O 
  O29      1.0000 0.78940  0.43600  0.77723  Biso   1.000  O 
  O30      1.0000 0.74764  0.25921  0.52220  Biso   1.000  O 
  O31      1.0000 0.75806  0.75667  0.52063  Biso   1.000  O 
  O32      1.0000 0.71529  0.93723  0.77450  Biso   1.000  O 
  Cd1      1.0000 0.14697  0.36815  0.18476  Biso   1.000  Cd
