data_image0
_cell_length_a       5.16154
_cell_length_b       10.4687
_cell_length_c       10.3211
_cell_angle_alpha    90
_cell_angle_beta     90
_cell_angle_gamma    90

_symmetry_space_group_name_H-M    "P 1"
_symmetry_int_tables_number       1

loop_
  _symmetry_equiv_pos_as_xyz
  'x, y, z'

loop_
  _atom_site_label
  _atom_site_occupancy
  _atom_site_fract_x
  _atom_site_fract_y
  _atom_site_fract_z
  _atom_site_thermal_displace_type
  _atom_site_B_iso_or_equiv
  _atom_site_type_symbol
  Hf1      1.0000 0.12027  0.00185  0.17322  Biso   1.000  Hf
  Hf2      1.0000 0.06924  0.22294  0.43110  Biso   1.000  Hf
  Hf3      1.0000 0.59018  0.23168  0.16663  Biso   1.000  Hf
  Hf4      1.0000 0.56781  0.99712  0.41591  Biso   1.000  Hf
  O1       1.0000 0.90675  0.16544  0.05146  Biso   1.000  O 
  O2       1.0000 0.84983  0.07550  0.29322  Biso   1.000  O 
  O3       1.0000 0.75978  0.30158  0.33097  Biso   1.000  O 
  O4       1.0000 0.86200  0.40682  0.96945  Biso   1.000  O 
  O5       1.0000 0.34281  0.13531  0.30089  Biso   1.000  O 
  O6       1.0000 0.39873  0.08855  0.04366  Biso   1.000  O 
  O7       1.0000 0.28645  0.30843  0.98444  Biso   1.000  O 
  O8       1.0000 0.68532  0.43183  0.16183  Biso   1.000  O 
  Hf5      1.0000 0.01806  0.99582  0.66796  Biso   1.000  Hf
  Hf6      1.0000 0.97426  0.22147  0.90934  Biso   1.000  Hf
  Hf7      1.0000 0.52410  0.22343  0.67044  Biso   1.000  Hf
  Hf8      1.0000 0.46311  0.99164  0.91506  Biso   1.000  Hf
  O9       1.0000 0.80443  0.14009  0.55074  Biso   1.000  O 
  O10      1.0000 0.74885  0.07593  0.79465  Biso   1.000  O 
  O11      1.0000 0.83745  0.31582  0.75115  Biso   1.000  O 
  O12      1.0000 0.96344  0.41360  0.48987  Biso   1.000  O 
  O13      1.0000 0.24887  0.13751  0.78776  Biso   1.000  O 
  O14      1.0000 0.30205  0.07678  0.54439  Biso   1.000  O 
  O15      1.0000 0.37924  0.31550  0.51516  Biso   1.000  O 
  O16      1.0000 0.40282  0.40521  0.73345  Biso   1.000  O 
  Hf9      1.0000 0.39130  0.51572  0.06353  Biso   1.000  Hf
  Hf10     1.0000 0.31362  0.73070  0.32334  Biso   1.000  Hf
  Hf11     1.0000 0.87425  0.73802  0.07678  Biso   1.000  Hf
  Hf12     1.0000 0.80672  0.50850  0.33409  Biso   1.000  Hf
  O17      1.0000 0.94307  0.64432  0.94848  Biso   1.000  O 
  O18      1.0000 0.10124  0.58850  0.20353  Biso   1.000  O 
  O19      1.0000 0.01997  0.82717  0.23501  Biso   1.000  O 
  O20      1.0000 0.01897  0.91671  0.01301  Biso   1.000  O 
  O21      1.0000 0.58836  0.65723  0.20054  Biso   1.000  O 
  O22      1.0000 0.44259  0.58255  0.93799  Biso   1.000  O 
  O23      1.0000 0.36873  0.81682  0.98063  Biso   1.000  O 
  O24      1.0000 0.46941  0.90347  0.25916  Biso   1.000  O 
  Hf13     1.0000 0.26243  0.49799  0.57548  Biso   1.000  Hf
  Hf14     1.0000 0.22006  0.72566  0.82182  Biso   1.000  Hf
  Hf15     1.0000 0.76971  0.73223  0.57702  Biso   1.000  Hf
  Hf16     1.0000 0.71293  0.49664  0.81449  Biso   1.000  Hf
  O25      1.0000 0.02555  0.65051  0.45047  Biso   1.000  O 
  O26      1.0000 0.98696  0.58232  0.69946  Biso   1.000  O 
  O27      1.0000 0.92072  0.82168  0.73439  Biso   1.000  O 
  O28      1.0000 0.92130  0.90390  0.51035  Biso   1.000  O 
  O29      1.0000 0.48677  0.64443  0.69490  Biso   1.000  O 
  O30      1.0000 0.51543  0.57676  0.44277  Biso   1.000  O 
  O31      1.0000 0.47519  0.82014  0.48220  Biso   1.000  O 
  O32      1.0000 0.37238  0.89911  0.75702  Biso   1.000  O 
  Cd1      1.0000 0.09494  0.33764  0.18370  Biso   1.000  Cd
