data_image0
_cell_length_a       5.07472
_cell_length_b       10.2913
_cell_length_c       10.4719
_cell_angle_alpha    90
_cell_angle_beta     80
_cell_angle_gamma    90

_symmetry_space_group_name_H-M    "P 1"
_symmetry_int_tables_number       1

loop_
  _symmetry_equiv_pos_as_xyz
  'x, y, z'

loop_
  _atom_site_label
  _atom_site_occupancy
  _atom_site_fract_x
  _atom_site_fract_y
  _atom_site_fract_z
  _atom_site_thermal_displace_type
  _atom_site_B_iso_or_equiv
  _atom_site_type_symbol
  Cd1      1.0000 0.26446  0.01468  0.14818  Biso   1.000  Cd
  Hf1      1.0000 0.26826  0.02154  0.64664  Biso   1.000  Hf
  Hf2      1.0000 0.27315  0.51959  0.14466  Biso   1.000  Hf
  Hf3      1.0000 0.26908  0.52181  0.64691  Biso   1.000  Hf
  Hf4      1.0000 0.27221  0.23008  0.39608  Biso   1.000  Hf
  Hf5      1.0000 0.26744  0.22879  0.89744  Biso   1.000  Hf
  Hf6      1.0000 0.26858  0.72660  0.39606  Biso   1.000  Hf
  Hf7      1.0000 0.26756  0.73075  0.89565  Biso   1.000  Hf
  Hf8      1.0000 0.71311  0.26682  0.10395  Biso   1.000  Hf
  Hf9      1.0000 0.70998  0.27203  0.60488  Biso   1.000  Hf
  Hf10     1.0000 0.71814  0.76881  0.10222  Biso   1.000  Hf
  Hf11     1.0000 0.71225  0.77221  0.60410  Biso   1.000  Hf
  Hf12     1.0000 0.71412  0.47831  0.35320  Biso   1.000  Hf
  Hf13     1.0000 0.71062  0.47887  0.85521  Biso   1.000  Hf
  Hf14     1.0000 0.70700  0.98032  0.35715  Biso   1.000  Hf
  Hf15     1.0000 0.70708  0.98112  0.85553  Biso   1.000  Hf
  O1       1.0000 0.07469  0.18113  0.07948  Biso   1.000  O 
  O2       1.0000 0.05955  0.17071  0.58291  Biso   1.000  O 
  O3       1.0000 0.07142  0.66934  0.07873  Biso   1.000  O 
  O4       1.0000 0.06010  0.66794  0.58092  Biso   1.000  O 
  O5       1.0000 0.05654  0.08066  0.34799  Biso   1.000  O 
  O6       1.0000 0.06176  0.08181  0.83021  Biso   1.000  O 
  O7       1.0000 0.06267  0.58104  0.32889  Biso   1.000  O 
  O8       1.0000 0.05815  0.58284  0.82980  Biso   1.000  O 
  O9       1.0000 0.92112  0.41935  0.16931  Biso   1.000  O 
  O10      1.0000 0.92113  0.41817  0.67137  Biso   1.000  O 
  O11      1.0000 0.89419  0.92078  0.17325  Biso   1.000  O 
  O12      1.0000 0.91835  0.91879  0.67072  Biso   1.000  O 
  O13      1.0000 0.92107  0.33322  0.42152  Biso   1.000  O 
  O14      1.0000 0.91983  0.33439  0.92041  Biso   1.000  O 
  O15      1.0000 0.92159  0.83045  0.42060  Biso   1.000  O 
  O16      1.0000 0.92161  0.83418  0.92088  Biso   1.000  O 
  O17      1.0000 0.55694  0.13285  0.24771  Biso   1.000  O 
  O18      1.0000 0.54222  0.12898  0.73924  Biso   1.000  O 
  O19      1.0000 0.54688  0.62596  0.23912  Biso   1.000  O 
  O20      1.0000 0.54230  0.62989  0.74041  Biso   1.000  O 
  O21      1.0000 0.53975  0.12273  0.49392  Biso   1.000  O 
  O22      1.0000 0.55588  0.12833  0.98266  Biso   1.000  O 
  O23      1.0000 0.54364  0.62096  0.49051  Biso   1.000  O 
  O24      1.0000 0.53725  0.62044  0.99035  Biso   1.000  O 
  O25      1.0000 0.44888  0.38051  0.00831  Biso   1.000  O 
  O26      1.0000 0.43751  0.37988  0.51002  Biso   1.000  O 
  O27      1.0000 0.46057  0.87345  0.00209  Biso   1.000  O 
  O28      1.0000 0.43743  0.87923  0.51065  Biso   1.000  O 
  O29      1.0000 0.43819  0.37191  0.25941  Biso   1.000  O 
  O30      1.0000 0.43813  0.37196  0.75980  Biso   1.000  O 
  O31      1.0000 0.44970  0.86310  0.26262  Biso   1.000  O 
  O32      1.0000 0.43581  0.87205  0.75803  Biso   1.000  O 
