data_image0
_cell_length_a       10.1002
_cell_length_b       10.3124
_cell_length_c       5.28596
_cell_angle_alpha    90
_cell_angle_beta     90
_cell_angle_gamma    90

_symmetry_space_group_name_H-M    "P 1"
_symmetry_int_tables_number       1

loop_
  _symmetry_equiv_pos_as_xyz
  'x, y, z'

loop_
  _atom_site_label
  _atom_site_occupancy
  _atom_site_fract_x
  _atom_site_fract_y
  _atom_site_fract_z
  _atom_site_thermal_displace_type
  _atom_site_B_iso_or_equiv
  _atom_site_type_symbol
  Hf1      1.0000 0.13306  0.02048  0.34860  Biso   1.000  Hf
  Hf2      1.0000 0.12168  0.22777  0.85806  Biso   1.000  Hf
  Hf3      1.0000 0.33966  0.26941  0.38527  Biso   1.000  Hf
  Hf4      1.0000 0.34548  0.48616  0.85278  Biso   1.000  Hf
  Hf5      1.0000 0.64126  0.01810  0.14405  Biso   1.000  Hf
  Hf6      1.0000 0.63823  0.22390  0.64229  Biso   1.000  Hf
  Hf7      1.0000 0.85551  0.26989  0.14379  Biso   1.000  Hf
  Hf8      1.0000 0.85756  0.48278  0.64982  Biso   1.000  Hf
  O1       1.0000 0.03015  0.16392  0.16980  Biso   1.000  O 
  O2       1.0000 0.02605  0.08304  0.66627  Biso   1.000  O 
  O3       1.0000 0.45698  0.43051  0.19676  Biso   1.000  O 
  O4       1.0000 0.45784  0.33766  0.68039  Biso   1.000  O 
  O5       1.0000 0.26131  0.12641  0.60951  Biso   1.000  O 
  O6       1.0000 0.27593  0.12442  0.10540  Biso   1.000  O 
  O7       1.0000 0.21113  0.37652  0.61051  Biso   1.000  O 
  O8       1.0000 0.22240  0.37496  0.10767  Biso   1.000  O 
  O9       1.0000 0.50526  0.14432  0.38639  Biso   1.000  O 
  O10      1.0000 0.52189  0.06943  0.82272  Biso   1.000  O 
  O11      1.0000 0.96174  0.41368  0.33327  Biso   1.000  O 
  O12      1.0000 0.95795  0.33605  0.83238  Biso   1.000  O 
  O13      1.0000 0.77946  0.11997  0.88366  Biso   1.000  O 
  O14      1.0000 0.77350  0.12315  0.39785  Biso   1.000  O 
  O15      1.0000 0.72851  0.39704  0.89765  Biso   1.000  O 
  O16      1.0000 0.71712  0.37905  0.40771  Biso   1.000  O 
  Hf9      1.0000 0.13150  0.52113  0.34277  Biso   1.000  Hf
  Hf10     1.0000 0.12638  0.73199  0.84421  Biso   1.000  Hf
  Hf11     1.0000 0.35664  0.77208  0.34954  Biso   1.000  Hf
  Hf12     1.0000 0.34871  0.97688  0.85357  Biso   1.000  Hf
  Hf13     1.0000 0.64261  0.53355  0.15535  Biso   1.000  Hf
  Hf14     1.0000 0.62956  0.73328  0.65495  Biso   1.000  Hf
  Hf15     1.0000 0.86256  0.77260  0.15556  Biso   1.000  Hf
  Hf16     1.0000 0.85463  0.97785  0.65233  Biso   1.000  Hf
  O17      1.0000 0.03170  0.66355  0.16241  Biso   1.000  O 
  O18      1.0000 0.02645  0.58802  0.66314  Biso   1.000  O 
  O19      1.0000 0.46721  0.91066  0.16918  Biso   1.000  O 
  O20      1.0000 0.45599  0.83194  0.67162  Biso   1.000  O 
  O21      1.0000 0.26749  0.62458  0.59064  Biso   1.000  O 
  O22      1.0000 0.27384  0.62577  0.09155  Biso   1.000  O 
  O23      1.0000 0.21627  0.87449  0.59616  Biso   1.000  O 
  O24      1.0000 0.22239  0.87454  0.09867  Biso   1.000  O 
  O25      1.0000 0.52995  0.66863  0.33520  Biso   1.000  O 
  O26      1.0000 0.51885  0.58841  0.83795  Biso   1.000  O 
  O27      1.0000 0.96529  0.91417  0.33229  Biso   1.000  O 
  O28      1.0000 0.95634  0.83565  0.83559  Biso   1.000  O 
  O29      1.0000 0.76211  0.63450  0.90496  Biso   1.000  O 
  O30      1.0000 0.77356  0.62940  0.40551  Biso   1.000  O 
  O31      1.0000 0.71308  0.87778  0.91036  Biso   1.000  O 
  O32      1.0000 0.72098  0.87418  0.40948  Biso   1.000  O 
  Cd1      1.0000 0.56424  0.26840  0.08355  Biso   1.000  Cd
