data_image0
_cell_length_a       10.1713
_cell_length_b       10.2918
_cell_length_c       5.23337
_cell_angle_alpha    90
_cell_angle_beta     80
_cell_angle_gamma    90

_symmetry_space_group_name_H-M    "P 1"
_symmetry_int_tables_number       1

loop_
  _symmetry_equiv_pos_as_xyz
  'x, y, z'

loop_
  _atom_site_label
  _atom_site_occupancy
  _atom_site_fract_x
  _atom_site_fract_y
  _atom_site_fract_z
  _atom_site_thermal_displace_type
  _atom_site_B_iso_or_equiv
  _atom_site_type_symbol
  Cd1      1.0000 0.13047  0.01115  0.30553  Biso   1.000  Cd
  Hf1      1.0000 0.13935  0.52112  0.29079  Biso   1.000  Hf
  Hf2      1.0000 0.63836  0.02191  0.29361  Biso   1.000  Hf
  Hf3      1.0000 0.63716  0.51904  0.29122  Biso   1.000  Hf
  Hf4      1.0000 0.13954  0.22797  0.78997  Biso   1.000  Hf
  Hf5      1.0000 0.13833  0.72655  0.79383  Biso   1.000  Hf
  Hf6      1.0000 0.63699  0.22816  0.79231  Biso   1.000  Hf
  Hf7      1.0000 0.63579  0.72599  0.79205  Biso   1.000  Hf
  Hf8      1.0000 0.35855  0.26804  0.20452  Biso   1.000  Hf
  Hf9      1.0000 0.36162  0.77166  0.21199  Biso   1.000  Hf
  Hf10     1.0000 0.86006  0.27112  0.20493  Biso   1.000  Hf
  Hf11     1.0000 0.85901  0.76714  0.20491  Biso   1.000  Hf
  Hf12     1.0000 0.35923  0.47669  0.70622  Biso   1.000  Hf
  Hf13     1.0000 0.35890  0.97845  0.70945  Biso   1.000  Hf
  Hf14     1.0000 0.86027  0.47674  0.70642  Biso   1.000  Hf
  Hf15     1.0000 0.85553  0.97619  0.71700  Biso   1.000  Hf
  O1       1.0000 0.03411  0.17471  0.14683  Biso   1.000  O 
  O2       1.0000 0.03538  0.67001  0.16364  Biso   1.000  O 
  O3       1.0000 0.53465  0.16805  0.15833  Biso   1.000  O 
  O4       1.0000 0.53510  0.66615  0.15723  Biso   1.000  O 
  O5       1.0000 0.02927  0.07880  0.69007  Biso   1.000  O 
  O6       1.0000 0.03412  0.58000  0.65911  Biso   1.000  O 
  O7       1.0000 0.53549  0.08109  0.65836  Biso   1.000  O 
  O8       1.0000 0.53233  0.58123  0.65662  Biso   1.000  O 
  O9       1.0000 0.46478  0.41518  0.34145  Biso   1.000  O 
  O10      1.0000 0.46732  0.91673  0.34240  Biso   1.000  O 
  O11      1.0000 0.96442  0.41832  0.33750  Biso   1.000  O 
  O12      1.0000 0.94581  0.91972  0.34696  Biso   1.000  O 
  O13      1.0000 0.46544  0.33346  0.84271  Biso   1.000  O 
  O14      1.0000 0.46553  0.83179  0.84444  Biso   1.000  O 
  O15      1.0000 0.96243  0.33204  0.83714  Biso   1.000  O 
  O16      1.0000 0.96243  0.82819  0.84113  Biso   1.000  O 
  O17      1.0000 0.27755  0.12725  0.48139  Biso   1.000  O 
  O18      1.0000 0.27609  0.62414  0.47923  Biso   1.000  O 
  O19      1.0000 0.77548  0.12940  0.48360  Biso   1.000  O 
  O20      1.0000 0.77413  0.62739  0.47939  Biso   1.000  O 
  O21      1.0000 0.28444  0.12914  0.95814  Biso   1.000  O 
  O22      1.0000 0.27429  0.61892  0.98153  Biso   1.000  O 
  O23      1.0000 0.77165  0.11968  0.98415  Biso   1.000  O 
  O24      1.0000 0.77322  0.61795  0.97942  Biso   1.000  O 
  O25      1.0000 0.22396  0.38097  0.01521  Biso   1.000  O 
  O26      1.0000 0.23068  0.87689  0.01541  Biso   1.000  O 
  O27      1.0000 0.72381  0.37947  0.01723  Biso   1.000  O 
  O28      1.0000 0.72312  0.87815  0.02012  Biso   1.000  O 
  O29      1.0000 0.22310  0.36966  0.51445  Biso   1.000  O 
  O30      1.0000 0.23141  0.86058  0.52997  Biso   1.000  O 
  O31      1.0000 0.72276  0.37086  0.51821  Biso   1.000  O 
  O32      1.0000 0.71905  0.86952  0.52261  Biso   1.000  O 
