data_image0
_cell_length_a       9.9854
_cell_length_b       10.3815
_cell_length_c       10.0257
_cell_angle_alpha    90
_cell_angle_beta     90
_cell_angle_gamma    90

_symmetry_space_group_name_H-M    "P 1"
_symmetry_int_tables_number       1

loop_
  _symmetry_equiv_pos_as_xyz
  'x, y, z'

loop_
  _atom_site_label
  _atom_site_occupancy
  _atom_site_fract_x
  _atom_site_fract_y
  _atom_site_fract_z
  _atom_site_thermal_displace_type
  _atom_site_B_iso_or_equiv
  _atom_site_type_symbol
  Ce1      1.0000 0.12590  0.00995  0.12051  Biso   1.000  Ce
  Hf1      1.0000 0.13337  0.23317  0.37741  Biso   1.000  Hf
  Hf2      1.0000 0.36499  0.26606  0.12625  Biso   1.000  Hf
  Hf3      1.0000 0.36399  0.48240  0.37551  Biso   1.000  Hf
  O1       1.0000 0.03047  0.18888  0.19949  Biso   1.000  O 
  O2       1.0000 0.03445  0.06417  0.44252  Biso   1.000  O 
  O3       1.0000 0.46316  0.43305  0.19503  Biso   1.000  O 
  O4       1.0000 0.46184  0.31423  0.44399  Biso   1.000  O 
  O5       1.0000 0.27509  0.12286  0.25296  Biso   1.000  O 
  O6       1.0000 0.26858  0.13046  0.50038  Biso   1.000  O 
  O7       1.0000 0.22819  0.38166  0.49959  Biso   1.000  O 
  O8       1.0000 0.22685  0.36751  0.24919  Biso   1.000  O 
  Hf4      1.0000 0.13170  0.01508  0.62562  Biso   1.000  Hf
  Hf5      1.0000 0.13196  0.23539  0.87151  Biso   1.000  Hf
  Hf6      1.0000 0.36467  0.26474  0.62497  Biso   1.000  Hf
  Hf7      1.0000 0.36441  0.48149  0.87597  Biso   1.000  Hf
  O9       1.0000 0.03690  0.18621  0.68725  Biso   1.000  O 
  O10      1.0000 0.03064  0.07073  0.92703  Biso   1.000  O 
  O11      1.0000 0.46275  0.43223  0.69477  Biso   1.000  O 
  O12      1.0000 0.46239  0.31468  0.94436  Biso   1.000  O 
  O13      1.0000 0.26893  0.11628  0.74799  Biso   1.000  O 
  O14      1.0000 0.27031  0.13336  0.99424  Biso   1.000  O 
  O15      1.0000 0.22706  0.38137  0.99899  Biso   1.000  O 
  O16      1.0000 0.22903  0.36740  0.74804  Biso   1.000  O 
  Hf8      1.0000 0.13268  0.51611  0.12561  Biso   1.000  Hf
  Hf9      1.0000 0.13238  0.73201  0.37686  Biso   1.000  Hf
  Hf10     1.0000 0.36892  0.76354  0.12514  Biso   1.000  Hf
  Hf11     1.0000 0.36498  0.98273  0.37528  Biso   1.000  Hf
  O17      1.0000 0.03526  0.68527  0.19527  Biso   1.000  O 
  O18      1.0000 0.03433  0.56497  0.44574  Biso   1.000  O 
  O19      1.0000 0.46249  0.93461  0.19267  Biso   1.000  O 
  O20      1.0000 0.46295  0.81527  0.44581  Biso   1.000  O 
  O21      1.0000 0.26878  0.61449  0.24932  Biso   1.000  O 
  O22      1.0000 0.26868  0.63135  0.49977  Biso   1.000  O 
  O23      1.0000 0.22776  0.88181  0.49951  Biso   1.000  O 
  O24      1.0000 0.23676  0.85911  0.25348  Biso   1.000  O 
  Hf12     1.0000 0.13227  0.51546  0.62588  Biso   1.000  Hf
  Hf13     1.0000 0.13274  0.73127  0.87562  Biso   1.000  Hf
  Hf14     1.0000 0.36411  0.76516  0.62533  Biso   1.000  Hf
  Hf15     1.0000 0.36701  0.98231  0.87307  Biso   1.000  Hf
  O25      1.0000 0.03400  0.68288  0.69574  Biso   1.000  O 
  O26      1.0000 0.03258  0.56661  0.94442  Biso   1.000  O 
  O27      1.0000 0.46265  0.93248  0.69369  Biso   1.000  O 
  O28      1.0000 0.46604  0.81455  0.94452  Biso   1.000  O 
  O29      1.0000 0.26882  0.61612  0.74960  Biso   1.000  O 
  O30      1.0000 0.26800  0.62905  0.99955  Biso   1.000  O 
  O31      1.0000 0.23663  0.87428  0.99343  Biso   1.000  O 
  O32      1.0000 0.22749  0.86626  0.74806  Biso   1.000  O 
  Hf16     1.0000 0.63353  0.01558  0.12634  Biso   1.000  Hf
  Hf17     1.0000 0.63194  0.23279  0.37519  Biso   1.000  Hf
  Hf18     1.0000 0.86322  0.26803  0.12630  Biso   1.000  Hf
  Hf19     1.0000 0.86485  0.48277  0.37634  Biso   1.000  Hf
  O33      1.0000 0.53685  0.18424  0.19237  Biso   1.000  O 
  O34      1.0000 0.53505  0.06484  0.44449  Biso   1.000  O 
  O35      1.0000 0.96115  0.43650  0.19397  Biso   1.000  O 
  O36      1.0000 0.96215  0.31629  0.44479  Biso   1.000  O 
  O37      1.0000 0.76826  0.11676  0.25124  Biso   1.000  O 
  O38      1.0000 0.76753  0.13231  0.50079  Biso   1.000  O 
  O39      1.0000 0.72773  0.38155  0.49958  Biso   1.000  O 
  O40      1.0000 0.72778  0.36753  0.25011  Biso   1.000  O 
  Hf20     1.0000 0.63171  0.01607  0.62595  Biso   1.000  Hf
  Hf21     1.0000 0.63185  0.23229  0.87605  Biso   1.000  Hf
  Hf22     1.0000 0.86456  0.26635  0.62516  Biso   1.000  Hf
  Hf23     1.0000 0.86384  0.48163  0.87630  Biso   1.000  Hf
  O41      1.0000 0.53396  0.18267  0.69494  Biso   1.000  O 
  O42      1.0000 0.53607  0.06369  0.94291  Biso   1.000  O 
  O43      1.0000 0.96296  0.43314  0.69609  Biso   1.000  O 
  O44      1.0000 0.96225  0.31604  0.94600  Biso   1.000  O 
  O45      1.0000 0.76864  0.11680  0.74932  Biso   1.000  O 
  O46      1.0000 0.77184  0.13194  0.00009  Biso   1.000  O 
  O47      1.0000 0.72636  0.38071  0.99959  Biso   1.000  O 
  O48      1.0000 0.72802  0.36616  0.74989  Biso   1.000  O 
  Hf24     1.0000 0.63278  0.51520  0.12626  Biso   1.000  Hf
  Hf25     1.0000 0.63159  0.73191  0.37802  Biso   1.000  Hf
  Hf26     1.0000 0.86170  0.76414  0.12877  Biso   1.000  Hf
  Hf27     1.0000 0.86118  0.98272  0.38075  Biso   1.000  Hf
  O49      1.0000 0.53591  0.68186  0.19613  Biso   1.000  O 
  O50      1.0000 0.53367  0.56419  0.44529  Biso   1.000  O 
  O51      1.0000 0.95001  0.93060  0.20317  Biso   1.000  O 
  O52      1.0000 0.96197  0.81441  0.44636  Biso   1.000  O 
  O53      1.0000 0.76872  0.61668  0.25047  Biso   1.000  O 
  O54      1.0000 0.76859  0.63080  0.50003  Biso   1.000  O 
  O55      1.0000 0.72680  0.88040  0.50241  Biso   1.000  O 
  O56      1.0000 0.72261  0.86609  0.25207  Biso   1.000  O 
  Hf28     1.0000 0.63189  0.51466  0.62602  Biso   1.000  Hf
  Hf29     1.0000 0.63217  0.73079  0.87553  Biso   1.000  Hf
  Hf30     1.0000 0.86447  0.76426  0.62580  Biso   1.000  Hf
  Hf31     1.0000 0.86028  0.98097  0.87398  Biso   1.000  Hf
  O57      1.0000 0.53421  0.68241  0.69446  Biso   1.000  O 
  O58      1.0000 0.53341  0.56432  0.94560  Biso   1.000  O 
  O59      1.0000 0.96075  0.93246  0.69387  Biso   1.000  O 
  O60      1.0000 0.96940  0.82209  0.95466  Biso   1.000  O 
  O61      1.0000 0.76881  0.61554  0.74954  Biso   1.000  O 
  O62      1.0000 0.76799  0.62984  0.99958  Biso   1.000  O 
  O63      1.0000 0.73118  0.88075  0.00102  Biso   1.000  O 
  O64      1.0000 0.72788  0.86567  0.75074  Biso   1.000  O 
