data_image0
_cell_length_a       10.0831
_cell_length_b       10.2851
_cell_length_c       5.24209
_cell_angle_alpha    90
_cell_angle_beta     90
_cell_angle_gamma    90

_symmetry_space_group_name_H-M    "P 1"
_symmetry_int_tables_number       1

loop_
  _symmetry_equiv_pos_as_xyz
  'x, y, z'

loop_
  _atom_site_label
  _atom_site_occupancy
  _atom_site_fract_x
  _atom_site_fract_y
  _atom_site_fract_z
  _atom_site_thermal_displace_type
  _atom_site_B_iso_or_equiv
  _atom_site_type_symbol
  Ce1      1.0000 0.13463  0.01633  0.33567  Biso   1.000  Ce
  Hf1      1.0000 0.13828  0.23240  0.84049  Biso   1.000  Hf
  Hf2      1.0000 0.36126  0.27108  0.34135  Biso   1.000  Hf
  Hf3      1.0000 0.35996  0.47824  0.84147  Biso   1.000  Hf
  Hf4      1.0000 0.63870  0.02133  0.16319  Biso   1.000  Hf
  Hf5      1.0000 0.63729  0.22943  0.65753  Biso   1.000  Hf
  Hf6      1.0000 0.85890  0.27390  0.15489  Biso   1.000  Hf
  Hf7      1.0000 0.86013  0.47916  0.65397  Biso   1.000  Hf
  O1       1.0000 0.03311  0.17891  0.16883  Biso   1.000  O 
  O2       1.0000 0.02729  0.08548  0.68793  Biso   1.000  O 
  O3       1.0000 0.46664  0.41483  0.16507  Biso   1.000  O 
  O4       1.0000 0.46658  0.33513  0.66557  Biso   1.000  O 
  O5       1.0000 0.27940  0.12696  0.59535  Biso   1.000  O 
  O6       1.0000 0.28265  0.13190  0.07735  Biso   1.000  O 
  O7       1.0000 0.22254  0.37420  0.58700  Biso   1.000  O 
  O8       1.0000 0.22299  0.37738  0.08848  Biso   1.000  O 
  O9       1.0000 0.53322  0.16640  0.33274  Biso   1.000  O 
  O10      1.0000 0.53605  0.08255  0.83131  Biso   1.000  O 
  O11      1.0000 0.96364  0.41995  0.32742  Biso   1.000  O 
  O12      1.0000 0.96408  0.33622  0.82789  Biso   1.000  O 
  O13      1.0000 0.77417  0.12487  0.91682  Biso   1.000  O 
  O14      1.0000 0.77581  0.12678  0.41557  Biso   1.000  O 
  O15      1.0000 0.72163  0.37464  0.90741  Biso   1.000  O 
  O16      1.0000 0.72236  0.37630  0.40841  Biso   1.000  O 
  Hf8      1.0000 0.13745  0.52091  0.34132  Biso   1.000  Hf
  Hf9      1.0000 0.13754  0.72639  0.84225  Biso   1.000  Hf
  Hf10     1.0000 0.36358  0.76787  0.34031  Biso   1.000  Hf
  Hf11     1.0000 0.36436  0.97852  0.83987  Biso   1.000  Hf
  Hf12     1.0000 0.63724  0.51972  0.15439  Biso   1.000  Hf
  Hf13     1.0000 0.63723  0.72806  0.65635  Biso   1.000  Hf
  Hf14     1.0000 0.85767  0.76766  0.15674  Biso   1.000  Hf
  Hf15     1.0000 0.85476  0.97910  0.66790  Biso   1.000  Hf
  O17      1.0000 0.03314  0.66781  0.16908  Biso   1.000  O 
  O18      1.0000 0.03139  0.58424  0.66602  Biso   1.000  O 
  O19      1.0000 0.46714  0.91699  0.17005  Biso   1.000  O 
  O20      1.0000 0.46833  0.83372  0.66496  Biso   1.000  O 
  O21      1.0000 0.27547  0.62181  0.58822  Biso   1.000  O 
  O22      1.0000 0.27472  0.62273  0.08974  Biso   1.000  O 
  O23      1.0000 0.22838  0.86702  0.59097  Biso   1.000  O 
  O24      1.0000 0.23474  0.86735  0.07516  Biso   1.000  O 
  O25      1.0000 0.53306  0.66339  0.33253  Biso   1.000  O 
  O26      1.0000 0.53064  0.58452  0.83336  Biso   1.000  O 
  O27      1.0000 0.95151  0.91281  0.34328  Biso   1.000  O 
  O28      1.0000 0.96686  0.83646  0.84011  Biso   1.000  O 
  O29      1.0000 0.77388  0.62300  0.90776  Biso   1.000  O 
  O30      1.0000 0.77428  0.62592  0.40804  Biso   1.000  O 
  O31      1.0000 0.72187  0.87277  0.91489  Biso   1.000  O 
  O32      1.0000 0.71706  0.87579  0.41502  Biso   1.000  O 
