data_image0
_cell_length_a       5.07834
_cell_length_b       10.3289
_cell_length_c       10.4752
_cell_angle_alpha    90
_cell_angle_beta     80
_cell_angle_gamma    90

_symmetry_space_group_name_H-M    "P 1"
_symmetry_int_tables_number       1

loop_
  _symmetry_equiv_pos_as_xyz
  'x, y, z'

loop_
  _atom_site_label
  _atom_site_occupancy
  _atom_site_fract_x
  _atom_site_fract_y
  _atom_site_fract_z
  _atom_site_thermal_displace_type
  _atom_site_B_iso_or_equiv
  _atom_site_type_symbol
  Ce1      1.0000 0.26738  0.01593  0.14499  Biso   1.000  Ce
  Hf1      1.0000 0.26687  0.22952  0.39883  Biso   1.000  Hf
  Hf2      1.0000 0.71559  0.27315  0.10317  Biso   1.000  Hf
  Hf3      1.0000 0.71086  0.47727  0.35451  Biso   1.000  Hf
  O1       1.0000 0.06971  0.18017  0.07753  Biso   1.000  O 
  O2       1.0000 0.05312  0.08079  0.34107  Biso   1.000  O 
  O3       1.0000 0.91810  0.42137  0.16929  Biso   1.000  O 
  O4       1.0000 0.91596  0.33015  0.42081  Biso   1.000  O 
  O5       1.0000 0.55321  0.13467  0.24724  Biso   1.000  O 
  O6       1.0000 0.53679  0.12010  0.49423  Biso   1.000  O 
  O7       1.0000 0.44573  0.38016  0.00809  Biso   1.000  O 
  O8       1.0000 0.43489  0.37152  0.25972  Biso   1.000  O 
  Hf4      1.0000 0.26420  0.02119  0.64789  Biso   1.000  Hf
  Hf5      1.0000 0.25805  0.23023  0.89511  Biso   1.000  Hf
  Hf6      1.0000 0.70929  0.27062  0.60531  Biso   1.000  Hf
  Hf7      1.0000 0.70386  0.47775  0.85421  Biso   1.000  Hf
  O9       1.0000 0.05927  0.17110  0.58487  Biso   1.000  O 
  O10      1.0000 0.05913  0.07850  0.83326  Biso   1.000  O 
  O11      1.0000 0.91160  0.41979  0.66973  Biso   1.000  O 
  O12      1.0000 0.90694  0.33170  0.91893  Biso   1.000  O 
  O13      1.0000 0.53799  0.12872  0.74077  Biso   1.000  O 
  O14      1.0000 0.54195  0.12426  0.98545  Biso   1.000  O 
  O15      1.0000 0.43408  0.37851  0.51017  Biso   1.000  O 
  O16      1.0000 0.43045  0.37078  0.75938  Biso   1.000  O 
  Hf8      1.0000 0.27095  0.51946  0.14574  Biso   1.000  Hf
  Hf9      1.0000 0.26212  0.72457  0.39822  Biso   1.000  Hf
  Hf10     1.0000 0.71893  0.76432  0.10308  Biso   1.000  Hf
  Hf11     1.0000 0.70228  0.97745  0.36021  Biso   1.000  Hf
  O17      1.0000 0.07486  0.67152  0.08080  Biso   1.000  O 
  O18      1.0000 0.05962  0.57928  0.33039  Biso   1.000  O 
  O19      1.0000 0.88560  0.92207  0.17205  Biso   1.000  O 
  O20      1.0000 0.91468  0.82950  0.42111  Biso   1.000  O 
  O21      1.0000 0.54346  0.62514  0.24024  Biso   1.000  O 
  O22      1.0000 0.53819  0.61954  0.49118  Biso   1.000  O 
  O23      1.0000 0.46553  0.87067  0.00091  Biso   1.000  O 
  O24      1.0000 0.43792  0.86162  0.26518  Biso   1.000  O 
  Hf12     1.0000 0.26118  0.52034  0.64670  Biso   1.000  Hf
  Hf13     1.0000 0.25967  0.72705  0.89483  Biso   1.000  Hf
  Hf14     1.0000 0.70659  0.77085  0.60509  Biso   1.000  Hf
  Hf15     1.0000 0.70686  0.97718  0.85430  Biso   1.000  Hf
  O25      1.0000 0.05523  0.66835  0.58240  Biso   1.000  O 
  O26      1.0000 0.05269  0.57932  0.83098  Biso   1.000  O 
  O27      1.0000 0.91206  0.91867  0.67096  Biso   1.000  O 
  O28      1.0000 0.91814  0.83144  0.92247  Biso   1.000  O 
  O29      1.0000 0.53485  0.62852  0.74049  Biso   1.000  O 
  O30      1.0000 0.53007  0.61732  0.99133  Biso   1.000  O 
  O31      1.0000 0.43124  0.87823  0.51217  Biso   1.000  O 
  O32      1.0000 0.43105  0.87005  0.75922  Biso   1.000  O 
