data_image0
_cell_length_a       5.18132
_cell_length_b       10.3224
_cell_length_c       10.0786
_cell_angle_alpha    90
_cell_angle_beta     90
_cell_angle_gamma    90

_symmetry_space_group_name_H-M    "P 1"
_symmetry_int_tables_number       1

loop_
  _symmetry_equiv_pos_as_xyz
  'x, y, z'

loop_
  _atom_site_label
  _atom_site_occupancy
  _atom_site_fract_x
  _atom_site_fract_y
  _atom_site_fract_z
  _atom_site_thermal_displace_type
  _atom_site_B_iso_or_equiv
  _atom_site_type_symbol
  Hf1      1.0000 0.34643  0.95832  0.11155  Biso   1.000  Hf
  Hf2      1.0000 0.26567  0.24678  0.40119  Biso   1.000  Hf
  Hf3      1.0000 0.83887  0.23885  0.12010  Biso   1.000  Hf
  Hf4      1.0000 0.77687  0.01317  0.37359  Biso   1.000  Hf
  O1       1.0000 0.07225  0.09211  0.98195  Biso   1.000  O 
  O2       1.0000 0.06904  0.10111  0.24736  Biso   1.000  O 
  O3       1.0000 0.06304  0.36097  0.25034  Biso   1.000  O 
  O4       1.0000 0.07823  0.35863  0.99309  Biso   1.000  O 
  O5       1.0000 0.60436  0.16921  0.28457  Biso   1.000  O 
  O6       1.0000 0.57762  0.05972  0.03501  Biso   1.000  O 
  O7       1.0000 0.62418  0.28844  0.95394  Biso   1.000  O 
  O8       1.0000 0.58589  0.40707  0.20872  Biso   1.000  O 
  Hf5      1.0000 0.41337  0.96906  0.64378  Biso   1.000  Hf
  Hf6      1.0000 0.24149  0.24000  0.83883  Biso   1.000  Hf
  Hf7      1.0000 0.72357  0.22842  0.63138  Biso   1.000  Hf
  Hf8      1.0000 0.78891  0.98424  0.86941  Biso   1.000  Hf
  O9       1.0000 0.95253  0.16772  0.48506  Biso   1.000  O 
  O10      1.0000 0.01052  0.09286  0.73150  Biso   1.000  O 
  O11      1.0000 0.96172  0.33840  0.74082  Biso   1.000  O 
  O12      1.0000 0.08636  0.41740  0.48662  Biso   1.000  O 
  O13      1.0000 0.51401  0.11075  0.76373  Biso   1.000  O 
  O14      1.0000 0.47260  0.10231  0.51353  Biso   1.000  O 
  O15      1.0000 0.56139  0.35915  0.48923  Biso   1.000  O 
  O16      1.0000 0.47314  0.36986  0.73575  Biso   1.000  O 
  Hf9      1.0000 0.26230  0.51668  0.13911  Biso   1.000  Hf
  Hf10     1.0000 0.37618  0.77029  0.39160  Biso   1.000  Hf
  Hf11     1.0000 0.82567  0.75422  0.14663  Biso   1.000  Hf
  Hf12     1.0000 0.79751  0.48075  0.35996  Biso   1.000  Hf
  O17      1.0000 0.98524  0.62653  0.00504  Biso   1.000  O 
  O18      1.0000 0.01234  0.61534  0.26399  Biso   1.000  O 
  O19      1.0000 0.10641  0.85625  0.25266  Biso   1.000  O 
  O20      1.0000 0.06550  0.84272  0.99922  Biso   1.000  O 
  O21      1.0000 0.51919  0.65041  0.24176  Biso   1.000  O 
  O22      1.0000 0.47383  0.53743  0.97591  Biso   1.000  O 
  O23      1.0000 0.53316  0.80782  0.01769  Biso   1.000  O 
  O24      1.0000 0.61413  0.90060  0.26045  Biso   1.000  O 
  Hf13     1.0000 0.34256  0.51111  0.60439  Biso   1.000  Hf
  Hf14     1.0000 0.28900  0.69493  0.88851  Biso   1.000  Hf
  Hf15     1.0000 0.84821  0.72557  0.64487  Biso   1.000  Hf
  Hf16     1.0000 0.78387  0.46171  0.87749  Biso   1.000  Hf
  O25      1.0000 0.15474  0.67357  0.52356  Biso   1.000  O 
  O26      1.0000 0.06811  0.57881  0.75331  Biso   1.000  O 
  O27      1.0000 0.15296  0.83606  0.74846  Biso   1.000  O 
  O28      1.0000 0.18110  0.92343  0.48842  Biso   1.000  O 
  O29      1.0000 0.57714  0.61984  0.75035  Biso   1.000  O 
  O30      1.0000 0.63108  0.60775  0.49771  Biso   1.000  O 
  O31      1.0000 0.65969  0.85229  0.51127  Biso   1.000  O 
  O32      1.0000 0.66529  0.86647  0.76168  Biso   1.000  O 
  Ce1      1.0000 0.34611  0.23775  0.11605  Biso   1.000  Ce
