data_image0
_cell_length_a       10.1459
_cell_length_b       10.2908
_cell_length_c       5.31828
_cell_angle_alpha    90
_cell_angle_beta     90
_cell_angle_gamma    90

_symmetry_space_group_name_H-M    "P 1"
_symmetry_int_tables_number       1

loop_
  _symmetry_equiv_pos_as_xyz
  'x, y, z'

loop_
  _atom_site_label
  _atom_site_occupancy
  _atom_site_fract_x
  _atom_site_fract_y
  _atom_site_fract_z
  _atom_site_thermal_displace_type
  _atom_site_B_iso_or_equiv
  _atom_site_type_symbol
  Hf1      1.0000 0.13120  0.01953  0.34974  Biso   1.000  Hf
  Hf2      1.0000 0.12795  0.22808  0.85248  Biso   1.000  Hf
  Hf3      1.0000 0.34645  0.26779  0.37909  Biso   1.000  Hf
  Hf4      1.0000 0.34882  0.48196  0.86130  Biso   1.000  Hf
  Hf5      1.0000 0.63992  0.99537  0.16119  Biso   1.000  Hf
  Hf6      1.0000 0.63675  0.22702  0.60469  Biso   1.000  Hf
  Hf7      1.0000 0.87627  0.27651  0.13545  Biso   1.000  Hf
  Hf8      1.0000 0.85828  0.48241  0.64411  Biso   1.000  Hf
  O1       1.0000 0.03200  0.15572  0.15052  Biso   1.000  O 
  O2       1.0000 0.01873  0.09280  0.65298  Biso   1.000  O 
  O3       1.0000 0.45839  0.42993  0.20326  Biso   1.000  O 
  O4       1.0000 0.46315  0.33167  0.69251  Biso   1.000  O 
  O5       1.0000 0.25939  0.12389  0.60772  Biso   1.000  O 
  O6       1.0000 0.27464  0.12309  0.10560  Biso   1.000  O 
  O7       1.0000 0.21619  0.37638  0.61357  Biso   1.000  O 
  O8       1.0000 0.22448  0.37357  0.10837  Biso   1.000  O 
  O9       1.0000 0.50132  0.12827  0.38096  Biso   1.000  O 
  O10      1.0000 0.51281  0.08152  0.85542  Biso   1.000  O 
  O11      1.0000 0.97114  0.41416  0.34125  Biso   1.000  O 
  O12      1.0000 0.96627  0.34343  0.83588  Biso   1.000  O 
  O13      1.0000 0.76062  0.13111  0.87372  Biso   1.000  O 
  O14      1.0000 0.76558  0.12327  0.36341  Biso   1.000  O 
  O15      1.0000 0.72468  0.38856  0.88209  Biso   1.000  O 
  O16      1.0000 0.72456  0.38093  0.38735  Biso   1.000  O 
  Hf9      1.0000 0.13974  0.52147  0.35021  Biso   1.000  Hf
  Hf10     1.0000 0.12716  0.73090  0.84797  Biso   1.000  Hf
  Hf11     1.0000 0.35825  0.76854  0.35825  Biso   1.000  Hf
  Hf12     1.0000 0.35196  0.97589  0.85501  Biso   1.000  Hf
  Hf13     1.0000 0.64391  0.53712  0.15348  Biso   1.000  Hf
  Hf14     1.0000 0.63413  0.73043  0.65860  Biso   1.000  Hf
  Hf15     1.0000 0.87120  0.77149  0.15879  Biso   1.000  Hf
  Hf16     1.0000 0.85925  0.98472  0.65426  Biso   1.000  Hf
  O17      1.0000 0.03692  0.66182  0.16027  Biso   1.000  O 
  O18      1.0000 0.02682  0.59219  0.65811  Biso   1.000  O 
  O19      1.0000 0.47009  0.89658  0.15867  Biso   1.000  O 
  O20      1.0000 0.46460  0.83978  0.66405  Biso   1.000  O 
  O21      1.0000 0.26997  0.62485  0.60041  Biso   1.000  O 
  O22      1.0000 0.27748  0.62545  0.09685  Biso   1.000  O 
  O23      1.0000 0.22022  0.87328  0.60164  Biso   1.000  O 
  O24      1.0000 0.22765  0.87541  0.10283  Biso   1.000  O 
  O25      1.0000 0.53140  0.66579  0.34978  Biso   1.000  O 
  O26      1.0000 0.51905  0.58999  0.84237  Biso   1.000  O 
  O27      1.0000 0.97086  0.91267  0.34385  Biso   1.000  O 
  O28      1.0000 0.96055  0.84296  0.84416  Biso   1.000  O 
  O29      1.0000 0.76773  0.63084  0.90368  Biso   1.000  O 
  O30      1.0000 0.77804  0.63027  0.40691  Biso   1.000  O 
  O31      1.0000 0.71851  0.87544  0.91397  Biso   1.000  O 
  O32      1.0000 0.72998  0.86998  0.42218  Biso   1.000  O 
  Ce1      1.0000 0.59486  0.25995  0.08628  Biso   1.000  Ce
