data_image0
_cell_length_a       10.0485
_cell_length_b       10.4057
_cell_length_c       10.0999
_cell_angle_alpha    90
_cell_angle_beta     90
_cell_angle_gamma    90

_symmetry_space_group_name_H-M    "P 1"
_symmetry_int_tables_number       1

loop_
  _symmetry_equiv_pos_as_xyz
  'x, y, z'

loop_
  _atom_site_label
  _atom_site_occupancy
  _atom_site_fract_x
  _atom_site_fract_y
  _atom_site_fract_z
  _atom_site_thermal_displace_type
  _atom_site_B_iso_or_equiv
  _atom_site_type_symbol
  Hf1      1.0000 0.13142  0.98165  0.11231  Biso   1.000  Hf
  Hf2      1.0000 0.12683  0.23069  0.39503  Biso   1.000  Hf
  Hf3      1.0000 0.37477  0.27418  0.11585  Biso   1.000  Hf
  Hf4      1.0000 0.36281  0.48673  0.37342  Biso   1.000  Hf
  O1       1.0000 0.96001  0.17438  0.26855  Biso   1.000  O 
  O2       1.0000 0.03392  0.06395  0.46388  Biso   1.000  O 
  O3       1.0000 0.46313  0.43908  0.19285  Biso   1.000  O 
  O4       1.0000 0.46332  0.32245  0.44713  Biso   1.000  O 
  O5       1.0000 0.23215  0.10470  0.25061  Biso   1.000  O 
  O6       1.0000 0.27411  0.13317  0.49959  Biso   1.000  O 
  O7       1.0000 0.23099  0.38669  0.49941  Biso   1.000  O 
  O8       1.0000 0.23253  0.36869  0.25300  Biso   1.000  O 
  Hf5      1.0000 0.13541  0.01098  0.62679  Biso   1.000  Hf
  Hf6      1.0000 0.13541  0.23576  0.85177  Biso   1.000  Hf
  Hf7      1.0000 0.36930  0.27003  0.62157  Biso   1.000  Hf
  Hf8      1.0000 0.36297  0.48983  0.86998  Biso   1.000  Hf
  O9       1.0000 0.03024  0.17877  0.69050  Biso   1.000  O 
  O10      1.0000 0.02753  0.07594  0.95363  Biso   1.000  O 
  O11      1.0000 0.46613  0.43630  0.69510  Biso   1.000  O 
  O12      1.0000 0.46202  0.32230  0.93945  Biso   1.000  O 
  O13      1.0000 0.26950  0.11721  0.74451  Biso   1.000  O 
  O14      1.0000 0.26557  0.13210  0.99490  Biso   1.000  O 
  O15      1.0000 0.22690  0.39312  0.99109  Biso   1.000  O 
  O16      1.0000 0.23344  0.37089  0.74166  Biso   1.000  O 
  Hf9      1.0000 0.13280  0.52666  0.12320  Biso   1.000  Hf
  Hf10     1.0000 0.12774  0.73571  0.37652  Biso   1.000  Hf
  Hf11     1.0000 0.36864  0.76030  0.12220  Biso   1.000  Hf
  Hf12     1.0000 0.35647  0.98799  0.36913  Biso   1.000  Hf
  O17      1.0000 0.02940  0.68340  0.19940  Biso   1.000  O 
  O18      1.0000 0.02980  0.57141  0.44483  Biso   1.000  O 
  O19      1.0000 0.45318  0.93307  0.19276  Biso   1.000  O 
  O20      1.0000 0.46195  0.82164  0.44340  Biso   1.000  O 
  O21      1.0000 0.27008  0.61788  0.24670  Biso   1.000  O 
  O22      1.0000 0.26508  0.63565  0.49641  Biso   1.000  O 
  O23      1.0000 0.22723  0.88556  0.49461  Biso   1.000  O 
  O24      1.0000 0.23071  0.85522  0.24533  Biso   1.000  O 
  Hf13     1.0000 0.12764  0.51668  0.62097  Biso   1.000  Hf
  Hf14     1.0000 0.12627  0.73450  0.86816  Biso   1.000  Hf
  Hf15     1.0000 0.36513  0.76780  0.61969  Biso   1.000  Hf
  Hf16     1.0000 0.36256  0.98580  0.87117  Biso   1.000  Hf
  O25      1.0000 0.02956  0.68455  0.69181  Biso   1.000  O 
  O26      1.0000 0.02643  0.57462  0.94708  Biso   1.000  O 
  O27      1.0000 0.46315  0.93431  0.69573  Biso   1.000  O 
  O28      1.0000 0.46848  0.82441  0.94890  Biso   1.000  O 
  O29      1.0000 0.26324  0.61740  0.74442  Biso   1.000  O 
  O30      1.0000 0.26313  0.63772  0.99410  Biso   1.000  O 
  O31      1.0000 0.23313  0.87717  0.98778  Biso   1.000  O 
  O32      1.0000 0.23000  0.86507  0.74415  Biso   1.000  O 
  Hf17     1.0000 0.62479  0.00844  0.11947  Biso   1.000  Hf
  Hf18     1.0000 0.62417  0.23090  0.37918  Biso   1.000  Hf
  Hf19     1.0000 0.82732  0.26432  0.13090  Biso   1.000  Hf
  Hf20     1.0000 0.86343  0.48322  0.37538  Biso   1.000  Hf
  O33      1.0000 0.51631  0.17557  0.20585  Biso   1.000  O 
  O34      1.0000 0.52847  0.06791  0.45088  Biso   1.000  O 
  O35      1.0000 0.95981  0.42613  0.19490  Biso   1.000  O 
  O36      1.0000 0.96976  0.33173  0.46571  Biso   1.000  O 
  O37      1.0000 0.73809  0.10992  0.24822  Biso   1.000  O 
  O38      1.0000 0.76775  0.14021  0.49764  Biso   1.000  O 
  O39      1.0000 0.72928  0.38625  0.50146  Biso   1.000  O 
  O40      1.0000 0.71413  0.37346  0.25673  Biso   1.000  O 
  Hf21     1.0000 0.63519  0.01674  0.62277  Biso   1.000  Hf
  Hf22     1.0000 0.62953  0.23664  0.87018  Biso   1.000  Hf
  Hf23     1.0000 0.86219  0.27122  0.62823  Biso   1.000  Hf
  Hf24     1.0000 0.86136  0.48468  0.87801  Biso   1.000  Hf
  O41      1.0000 0.53537  0.18558  0.69333  Biso   1.000  O 
  O42      1.0000 0.52913  0.07381  0.94371  Biso   1.000  O 
  O43      1.0000 0.96565  0.43469  0.70500  Biso   1.000  O 
  O44      1.0000 0.95429  0.31778  0.93909  Biso   1.000  O 
  O45      1.0000 0.76853  0.11829  0.74899  Biso   1.000  O 
  O46      1.0000 0.75927  0.13340  0.99771  Biso   1.000  O 
  O47      1.0000 0.71566  0.38875  0.99951  Biso   1.000  O 
  O48      1.0000 0.72737  0.37087  0.75003  Biso   1.000  O 
  Hf25     1.0000 0.63076  0.52239  0.12636  Biso   1.000  Hf
  Hf26     1.0000 0.63223  0.73882  0.37701  Biso   1.000  Hf
  Hf27     1.0000 0.86095  0.76587  0.12754  Biso   1.000  Hf
  Hf28     1.0000 0.86694  0.99988  0.36596  Biso   1.000  Hf
  O49      1.0000 0.53553  0.68676  0.19768  Biso   1.000  O 
  O50      1.0000 0.53140  0.57163  0.44592  Biso   1.000  O 
  O51      1.0000 0.95978  0.93212  0.19691  Biso   1.000  O 
  O52      1.0000 0.96223  0.82402  0.44577  Biso   1.000  O 
  O53      1.0000 0.76848  0.61827  0.24970  Biso   1.000  O 
  O54      1.0000 0.76694  0.63692  0.49830  Biso   1.000  O 
  O55      1.0000 0.72873  0.89000  0.49638  Biso   1.000  O 
  O56      1.0000 0.72508  0.86634  0.24621  Biso   1.000  O 
  Hf29     1.0000 0.63223  0.52011  0.62331  Biso   1.000  Hf
  Hf30     1.0000 0.63079  0.73663  0.87248  Biso   1.000  Hf
  Hf31     1.0000 0.86285  0.77169  0.62118  Biso   1.000  Hf
  Hf32     1.0000 0.86058  0.98759  0.87669  Biso   1.000  Hf
  O57      1.0000 0.53057  0.68571  0.69569  Biso   1.000  O 
  O58      1.0000 0.52689  0.57500  0.94777  Biso   1.000  O 
  O59      1.0000 0.96602  0.92977  0.70755  Biso   1.000  O 
  O60      1.0000 0.97023  0.82675  0.95771  Biso   1.000  O 
  O61      1.0000 0.76645  0.61907  0.74832  Biso   1.000  O 
  O62      1.0000 0.76376  0.63743  0.99881  Biso   1.000  O 
  O63      1.0000 0.72738  0.88536  0.99712  Biso   1.000  O 
  O64      1.0000 0.72764  0.86918  0.74709  Biso   1.000  O 
  Ce1      1.0000 0.09645  0.24825  0.11524  Biso   1.000  Ce
