data_image0
_cell_length_a       10.0902
_cell_length_b       10.2627
_cell_length_c       10.5434
_cell_angle_alpha    90
_cell_angle_beta     90
_cell_angle_gamma    90

_symmetry_space_group_name_H-M    "P 1"
_symmetry_int_tables_number       1

loop_
  _symmetry_equiv_pos_as_xyz
  'x, y, z'

loop_
  _atom_site_label
  _atom_site_occupancy
  _atom_site_fract_x
  _atom_site_fract_y
  _atom_site_fract_z
  _atom_site_thermal_displace_type
  _atom_site_B_iso_or_equiv
  _atom_site_type_symbol
  Hf1      1.0000 0.13323  0.01977  0.17314  Biso   1.000  Hf
  Hf2      1.0000 0.12965  0.22803  0.42644  Biso   1.000  Hf
  Hf3      1.0000 0.34266  0.26872  0.18686  Biso   1.000  Hf
  Hf4      1.0000 0.35538  0.47808  0.42628  Biso   1.000  Hf
  Hf5      1.0000 0.63739  0.99960  0.08090  Biso   1.000  Hf
  Hf6      1.0000 0.62847  0.22382  0.33266  Biso   1.000  Hf
  Hf7      1.0000 0.87230  0.27641  0.07164  Biso   1.000  Hf
  Hf8      1.0000 0.85550  0.47901  0.32427  Biso   1.000  Hf
  O1       1.0000 0.03260  0.15904  0.07827  Biso   1.000  O 
  O2       1.0000 0.02057  0.09090  0.32925  Biso   1.000  O 
  O3       1.0000 0.45568  0.43139  0.10071  Biso   1.000  O 
  O4       1.0000 0.45931  0.33371  0.33654  Biso   1.000  O 
  O5       1.0000 0.26065  0.12382  0.30323  Biso   1.000  O 
  O6       1.0000 0.27400  0.12288  0.04907  Biso   1.000  O 
  O7       1.0000 0.21317  0.37650  0.30435  Biso   1.000  O 
  O8       1.0000 0.22080  0.37522  0.04970  Biso   1.000  O 
  O9       1.0000 0.49991  0.13068  0.19194  Biso   1.000  O 
  O10      1.0000 0.52157  0.08677  0.42676  Biso   1.000  O 
  O11      1.0000 0.96873  0.41582  0.17073  Biso   1.000  O 
  O12      1.0000 0.96238  0.33914  0.41855  Biso   1.000  O 
  O13      1.0000 0.76773  0.12294  0.45055  Biso   1.000  O 
  O14      1.0000 0.75500  0.13043  0.19706  Biso   1.000  O 
  O15      1.0000 0.71666  0.37396  0.45038  Biso   1.000  O 
  O16      1.0000 0.71942  0.38143  0.19908  Biso   1.000  O 
  Hf9      1.0000 0.12624  0.02056  0.67373  Biso   1.000  Hf
  Hf10     1.0000 0.12657  0.22824  0.92259  Biso   1.000  Hf
  Hf11     1.0000 0.35186  0.27015  0.67650  Biso   1.000  Hf
  Hf12     1.0000 0.34547  0.48121  0.92698  Biso   1.000  Hf
  Hf13     1.0000 0.62995  0.01646  0.57598  Biso   1.000  Hf
  Hf14     1.0000 0.63997  0.22974  0.80069  Biso   1.000  Hf
  Hf15     1.0000 0.85562  0.27309  0.57189  Biso   1.000  Hf
  Hf16     1.0000 0.85423  0.48276  0.82432  Biso   1.000  Hf
  O17      1.0000 0.02208  0.16147  0.58046  Biso   1.000  O 
  O18      1.0000 0.01895  0.08736  0.83080  Biso   1.000  O 
  O19      1.0000 0.46188  0.41213  0.58581  Biso   1.000  O 
  O20      1.0000 0.46243  0.33332  0.84204  Biso   1.000  O 
  O21      1.0000 0.26262  0.12424  0.79723  Biso   1.000  O 
  O22      1.0000 0.26675  0.12563  0.55005  Biso   1.000  O 
  O23      1.0000 0.21668  0.37435  0.79933  Biso   1.000  O 
  O24      1.0000 0.21809  0.37468  0.55057  Biso   1.000  O 
  O25      1.0000 0.51835  0.15760  0.66597  Biso   1.000  O 
  O26      1.0000 0.51250  0.08216  0.92010  Biso   1.000  O 
  O27      1.0000 0.96232  0.41274  0.66741  Biso   1.000  O 
  O28      1.0000 0.96041  0.33875  0.91562  Biso   1.000  O 
  O29      1.0000 0.75435  0.12891  0.94522  Biso   1.000  O 
  O30      1.0000 0.77331  0.12028  0.69190  Biso   1.000  O 
  O31      1.0000 0.72154  0.38802  0.94307  Biso   1.000  O 
  O32      1.0000 0.72090  0.37840  0.69520  Biso   1.000  O 
  Hf17     1.0000 0.13801  0.52232  0.17421  Biso   1.000  Hf
  Hf18     1.0000 0.13180  0.72856  0.42318  Biso   1.000  Hf
  Hf19     1.0000 0.35753  0.76948  0.17667  Biso   1.000  Hf
  Hf20     1.0000 0.35700  0.97768  0.42599  Biso   1.000  Hf
  Hf21     1.0000 0.64242  0.53668  0.07756  Biso   1.000  Hf
  Hf22     1.0000 0.63528  0.72937  0.33053  Biso   1.000  Hf
  Hf23     1.0000 0.86731  0.77080  0.07806  Biso   1.000  Hf
  Hf24     1.0000 0.85897  0.98091  0.32708  Biso   1.000  Hf
  O33      1.0000 0.03536  0.66381  0.08132  Biso   1.000  O 
  O34      1.0000 0.02657  0.58921  0.33153  Biso   1.000  O 
  O35      1.0000 0.46713  0.90035  0.07798  Biso   1.000  O 
  O36      1.0000 0.46564  0.83896  0.33330  Biso   1.000  O 
  O37      1.0000 0.27161  0.62397  0.29875  Biso   1.000  O 
  O38      1.0000 0.27687  0.62654  0.04660  Biso   1.000  O 
  O39      1.0000 0.22092  0.87356  0.29878  Biso   1.000  O 
  O40      1.0000 0.22426  0.87582  0.04882  Biso   1.000  O 
  O41      1.0000 0.53163  0.66840  0.17283  Biso   1.000  O 
  O42      1.0000 0.52487  0.58678  0.41896  Biso   1.000  O 
  O43      1.0000 0.96664  0.91590  0.16847  Biso   1.000  O 
  O44      1.0000 0.96277  0.83939  0.41949  Biso   1.000  O 
  O45      1.0000 0.77000  0.62384  0.45368  Biso   1.000  O 
  O46      1.0000 0.77814  0.63010  0.20480  Biso   1.000  O 
  O47      1.0000 0.72005  0.87397  0.45595  Biso   1.000  O 
  O48      1.0000 0.72781  0.87094  0.20875  Biso   1.000  O 
  Hf25     1.0000 0.13137  0.52105  0.67304  Biso   1.000  Hf
  Hf26     1.0000 0.12519  0.73088  0.92240  Biso   1.000  Hf
  Hf27     1.0000 0.35292  0.77046  0.67369  Biso   1.000  Hf
  Hf28     1.0000 0.34726  0.97700  0.92361  Biso   1.000  Hf
  Hf29     1.0000 0.63134  0.52275  0.57507  Biso   1.000  Hf
  Hf30     1.0000 0.62768  0.72940  0.82561  Biso   1.000  Hf
  Hf31     1.0000 0.85645  0.77176  0.57922  Biso   1.000  Hf
  Hf32     1.0000 0.85162  0.98179  0.82940  Biso   1.000  Hf
  O49      1.0000 0.02545  0.66329  0.58192  Biso   1.000  O 
  O50      1.0000 0.02352  0.58850  0.83095  Biso   1.000  O 
  O51      1.0000 0.46304  0.90877  0.58190  Biso   1.000  O 
  O52      1.0000 0.45756  0.83700  0.83025  Biso   1.000  O 
  O53      1.0000 0.26590  0.62450  0.79723  Biso   1.000  O 
  O54      1.0000 0.26800  0.62492  0.54705  Biso   1.000  O 
  O55      1.0000 0.21371  0.87342  0.79722  Biso   1.000  O 
  O56      1.0000 0.21818  0.87593  0.54787  Biso   1.000  O 
  O57      1.0000 0.52294  0.66176  0.66833  Biso   1.000  O 
  O58      1.0000 0.51654  0.58835  0.91864  Biso   1.000  O 
  O59      1.0000 0.96127  0.91200  0.67010  Biso   1.000  O 
  O60      1.0000 0.95558  0.83855  0.91925  Biso   1.000  O 
  O61      1.0000 0.76414  0.63093  0.95070  Biso   1.000  O 
  O62      1.0000 0.76683  0.62693  0.70184  Biso   1.000  O 
  O63      1.0000 0.71201  0.87407  0.95528  Biso   1.000  O 
  O64      1.0000 0.71705  0.87482  0.70665  Biso   1.000  O 
  Ce1      1.0000 0.59061  0.26106  0.04465  Biso   1.000  Ce
