data_image0
_cell_length_a       10.2204
_cell_length_b       10.3007
_cell_length_c       10.546
_cell_angle_alpha    90
_cell_angle_beta     80
_cell_angle_gamma    90

_symmetry_space_group_name_H-M    "P 1"
_symmetry_int_tables_number       1

loop_
  _symmetry_equiv_pos_as_xyz
  'x, y, z'

loop_
  _atom_site_label
  _atom_site_occupancy
  _atom_site_fract_x
  _atom_site_fract_y
  _atom_site_fract_z
  _atom_site_thermal_displace_type
  _atom_site_B_iso_or_equiv
  _atom_site_type_symbol
  Hf1      1.0000 0.13268  0.01902  0.14126  Biso   1.000  Hf
  Hf2      1.0000 0.13488  0.22286  0.39271  Biso   1.000  Hf
  Hf3      1.0000 0.34504  0.27161  0.08081  Biso   1.000  Hf
  Hf4      1.0000 0.37137  0.49788  0.35318  Biso   1.000  Hf
  O1       1.0000 0.03215  0.16514  0.07193  Biso   1.000  O 
  O2       1.0000 0.03086  0.08155  0.32349  Biso   1.000  O 
  O3       1.0000 0.47171  0.41809  0.17333  Biso   1.000  O 
  O4       1.0000 0.50456  0.37058  0.44204  Biso   1.000  O 
  O5       1.0000 0.26703  0.11841  0.22594  Biso   1.000  O 
  O6       1.0000 0.28289  0.11441  0.48035  Biso   1.000  O 
  O7       1.0000 0.22711  0.38700  0.99534  Biso   1.000  O 
  O8       1.0000 0.23282  0.36909  0.25063  Biso   1.000  O 
  Hf5      1.0000 0.14839  0.02128  0.64133  Biso   1.000  Hf
  Hf6      1.0000 0.14575  0.22957  0.88598  Biso   1.000  Hf
  Hf7      1.0000 0.37673  0.27848  0.60651  Biso   1.000  Hf
  Hf8      1.0000 0.37265  0.48429  0.85072  Biso   1.000  Hf
  O9       1.0000 0.04366  0.16626  0.57680  Biso   1.000  O 
  O10      1.0000 0.04252  0.08484  0.82212  Biso   1.000  O 
  O11      1.0000 0.47996  0.41650  0.68032  Biso   1.000  O 
  O12      1.0000 0.48057  0.34035  0.91844  Biso   1.000  O 
  O13      1.0000 0.28484  0.12987  0.73249  Biso   1.000  O 
  O14      1.0000 0.28177  0.12235  0.97735  Biso   1.000  O 
  O15      1.0000 0.24804  0.37401  0.49918  Biso   1.000  O 
  O16      1.0000 0.23555  0.37430  0.75332  Biso   1.000  O 
  Hf9      1.0000 0.14343  0.52051  0.14644  Biso   1.000  Hf
  Hf10     1.0000 0.14243  0.72869  0.39650  Biso   1.000  Hf
  Hf11     1.0000 0.36403  0.77231  0.10209  Biso   1.000  Hf
  Hf12     1.0000 0.36770  0.96209  0.35317  Biso   1.000  Hf
  O17      1.0000 0.03637  0.66417  0.07597  Biso   1.000  O 
  O18      1.0000 0.04067  0.58523  0.32566  Biso   1.000  O 
  O19      1.0000 0.47236  0.91409  0.17335  Biso   1.000  O 
  O20      1.0000 0.47435  0.82826  0.42623  Biso   1.000  O 
  O21      1.0000 0.28129  0.63008  0.24066  Biso   1.000  O 
  O22      1.0000 0.28012  0.62523  0.49401  Biso   1.000  O 
  O23      1.0000 0.22664  0.87827  0.00802  Biso   1.000  O 
  O24      1.0000 0.22637  0.86675  0.25742  Biso   1.000  O 
  Hf13     1.0000 0.14974  0.52073  0.64341  Biso   1.000  Hf
  Hf14     1.0000 0.15148  0.72884  0.89467  Biso   1.000  Hf
  Hf15     1.0000 0.37276  0.77166  0.60541  Biso   1.000  Hf
  Hf16     1.0000 0.37558  0.97894  0.84967  Biso   1.000  Hf
  O25      1.0000 0.03997  0.66329  0.57632  Biso   1.000  O 
  O26      1.0000 0.04720  0.58564  0.82334  Biso   1.000  O 
  O27      1.0000 0.47959  0.91690  0.67142  Biso   1.000  O 
  O28      1.0000 0.48183  0.83807  0.92086  Biso   1.000  O 
  O29      1.0000 0.28720  0.62868  0.73921  Biso   1.000  O 
  O30      1.0000 0.29247  0.62569  0.98939  Biso   1.000  O 
  O31      1.0000 0.23163  0.87363  0.51034  Biso   1.000  O 
  O32      1.0000 0.23756  0.87221  0.75797  Biso   1.000  O 
  Hf17     1.0000 0.64110  0.02034  0.15030  Biso   1.000  Hf
  Hf18     1.0000 0.66373  0.23318  0.40748  Biso   1.000  Hf
  Hf19     1.0000 0.86255  0.27307  0.10597  Biso   1.000  Hf
  Hf20     1.0000 0.86990  0.48053  0.35425  Biso   1.000  Hf
  O33      1.0000 0.52661  0.16834  0.08910  Biso   1.000  O 
  O34      1.0000 0.55237  0.06671  0.34296  Biso   1.000  O 
  O35      1.0000 0.97211  0.41466  0.17269  Biso   1.000  O 
  O36      1.0000 0.97305  0.33784  0.42462  Biso   1.000  O 
  O37      1.0000 0.78271  0.12986  0.24180  Biso   1.000  O 
  O38      1.0000 0.79196  0.11887  0.49784  Biso   1.000  O 
  O39      1.0000 0.72389  0.37852  0.01349  Biso   1.000  O 
  O40      1.0000 0.73341  0.37394  0.26300  Biso   1.000  O 
  Hf21     1.0000 0.64761  0.02315  0.64828  Biso   1.000  Hf
  Hf22     1.0000 0.64985  0.23057  0.89959  Biso   1.000  Hf
  Hf23     1.0000 0.87290  0.27231  0.60945  Biso   1.000  Hf
  Hf24     1.0000 0.87387  0.48051  0.85336  Biso   1.000  Hf
  O41      1.0000 0.54593  0.16873  0.57921  Biso   1.000  O 
  O42      1.0000 0.54263  0.08735  0.82918  Biso   1.000  O 
  O43      1.0000 0.97948  0.41558  0.67266  Biso   1.000  O 
  O44      1.0000 0.97527  0.33470  0.91915  Biso   1.000  O 
  O45      1.0000 0.78410  0.13042  0.74445  Biso   1.000  O 
  O46      1.0000 0.78521  0.12257  0.99239  Biso   1.000  O 
  O47      1.0000 0.74127  0.38005  0.51716  Biso   1.000  O 
  O48      1.0000 0.73679  0.37257  0.76390  Biso   1.000  O 
  Hf25     1.0000 0.64239  0.52333  0.14629  Biso   1.000  Hf
  Hf26     1.0000 0.64999  0.72934  0.39767  Biso   1.000  Hf
  Hf27     1.0000 0.86433  0.76981  0.10409  Biso   1.000  Hf
  Hf28     1.0000 0.86523  0.97701  0.35452  Biso   1.000  Hf
  O49      1.0000 0.53612  0.66613  0.07601  Biso   1.000  O 
  O50      1.0000 0.54279  0.59616  0.32139  Biso   1.000  O 
  O51      1.0000 0.96743  0.91186  0.17358  Biso   1.000  O 
  O52      1.0000 0.97262  0.83445  0.42315  Biso   1.000  O 
  O53      1.0000 0.78381  0.62846  0.24016  Biso   1.000  O 
  O54      1.0000 0.78453  0.62214  0.49026  Biso   1.000  O 
  O55      1.0000 0.72691  0.87871  0.01217  Biso   1.000  O 
  O56      1.0000 0.72946  0.86984  0.26003  Biso   1.000  O 
  Hf29     1.0000 0.64981  0.52368  0.64718  Biso   1.000  Hf
  Hf30     1.0000 0.65227  0.73023  0.89538  Biso   1.000  Hf
  Hf31     1.0000 0.87214  0.77334  0.60467  Biso   1.000  Hf
  Hf32     1.0000 0.87504  0.97939  0.85354  Biso   1.000  Hf
  O57      1.0000 0.54319  0.66380  0.57765  Biso   1.000  O 
  O58      1.0000 0.54556  0.58946  0.82632  Biso   1.000  O 
  O59      1.0000 0.97834  0.91606  0.67186  Biso   1.000  O 
  O60      1.0000 0.98157  0.83585  0.92066  Biso   1.000  O 
  O61      1.0000 0.78709  0.62988  0.73950  Biso   1.000  O 
  O62      1.0000 0.79084  0.62293  0.98791  Biso   1.000  O 
  O63      1.0000 0.73262  0.87856  0.51207  Biso   1.000  O 
  O64      1.0000 0.73761  0.87371  0.76068  Biso   1.000  O 
  Ce1      1.0000 0.41743  0.23685  0.31004  Biso   1.000  Ce
