data_image0
_cell_length_a       10.2186
_cell_length_b       10.4007
_cell_length_c       5.13392
_cell_angle_alpha    80
_cell_angle_beta     90
_cell_angle_gamma    90

_symmetry_space_group_name_H-M    "P 1"
_symmetry_int_tables_number       1

loop_
  _symmetry_equiv_pos_as_xyz
  'x, y, z'

loop_
  _atom_site_label
  _atom_site_occupancy
  _atom_site_fract_x
  _atom_site_fract_y
  _atom_site_fract_z
  _atom_site_thermal_displace_type
  _atom_site_B_iso_or_equiv
  _atom_site_type_symbol
  Hf1      1.0000 0.09864  0.96397  0.22040  Biso   1.000  Hf
  Hf2      1.0000 0.10374  0.20281  0.61815  Biso   1.000  Hf
  Hf3      1.0000 0.38068  0.26150  0.19429  Biso   1.000  Hf
  Hf4      1.0000 0.39520  0.46162  0.69646  Biso   1.000  Hf
  O1       1.0000 0.97782  0.10651  0.37653  Biso   1.000  O 
  O2       1.0000 0.04434  0.02827  0.87805  Biso   1.000  O 
  O3       1.0000 0.49451  0.37639  0.41113  Biso   1.000  O 
  O4       1.0000 0.50162  0.30610  0.91310  Biso   1.000  O 
  O5       1.0000 0.23435  0.09910  0.38933  Biso   1.000  O 
  O6       1.0000 0.27771  0.15218  0.86131  Biso   1.000  O 
  O7       1.0000 0.27426  0.39825  0.00135  Biso   1.000  O 
  O8       1.0000 0.24484  0.34786  0.45662  Biso   1.000  O 
  Hf5      1.0000 0.14504  0.51865  0.25903  Biso   1.000  Hf
  Hf6      1.0000 0.10128  0.69862  0.74431  Biso   1.000  Hf
  Hf7      1.0000 0.35639  0.76415  0.28077  Biso   1.000  Hf
  Hf8      1.0000 0.35253  0.99373  0.70120  Biso   1.000  Hf
  O9       1.0000 0.99499  0.61561  0.45473  Biso   1.000  O 
  O10      1.0000 0.02533  0.51436  0.93561  Biso   1.000  O 
  O11      1.0000 0.47454  0.87325  0.52573  Biso   1.000  O 
  O12      1.0000 0.51858  0.83317  0.04981  Biso   1.000  O 
  O13      1.0000 0.25221  0.59925  0.54189  Biso   1.000  O 
  O14      1.0000 0.23096  0.68365  0.04191  Biso   1.000  O 
  O15      1.0000 0.26723  0.92632  0.03538  Biso   1.000  O 
  O16      1.0000 0.22525  0.84389  0.53164  Biso   1.000  O 
  Hf9      1.0000 0.60406  0.98924  0.22296  Biso   1.000  Hf
  Hf10     1.0000 0.60342  0.20029  0.69544  Biso   1.000  Hf
  Hf11     1.0000 0.82965  0.25294  0.23276  Biso   1.000  Hf
  Hf12     1.0000 0.88648  0.44835  0.69469  Biso   1.000  Hf
  O17      1.0000 0.49077  0.12029  0.43028  Biso   1.000  O 
  O18      1.0000 0.50357  0.04202  0.93028  Biso   1.000  O 
  O19      1.0000 0.99040  0.36908  0.39801  Biso   1.000  O 
  O20      1.0000 0.93418  0.25514  0.85560  Biso   1.000  O 
  O21      1.0000 0.73935  0.08745  0.50985  Biso   1.000  O 
  O22      1.0000 0.70868  0.16810  0.01631  Biso   1.000  O 
  O23      1.0000 0.76660  0.43231  0.01888  Biso   1.000  O 
  O24      1.0000 0.73381  0.34431  0.50854  Biso   1.000  O 
  Hf13     1.0000 0.63756  0.51299  0.24129  Biso   1.000  Hf
  Hf14     1.0000 0.59436  0.71637  0.75207  Biso   1.000  Hf
  Hf15     1.0000 0.84696  0.75110  0.27584  Biso   1.000  Hf
  Hf16     1.0000 0.86486  0.96526  0.70830  Biso   1.000  Hf
  O25      1.0000 0.49817  0.62615  0.46004  Biso   1.000  O 
  O26      1.0000 0.50757  0.54843  0.95159  Biso   1.000  O 
  O27      1.0000 0.97800  0.85286  0.50867  Biso   1.000  O 
  O28      1.0000 0.00025  0.81798  0.01478  Biso   1.000  O 
  O29      1.0000 0.74859  0.58944  0.51902  Biso   1.000  O 
  O30      1.0000 0.73244  0.68082  0.01831  Biso   1.000  O 
  O31      1.0000 0.77212  0.93195  0.04281  Biso   1.000  O 
  O32      1.0000 0.72923  0.83920  0.52643  Biso   1.000  O 
  Ce1      1.0000 0.11302  0.26861  0.09488  Biso   1.000  Ce
