data_image0
_cell_length_a       5.10467
_cell_length_b       10.3668
_cell_length_c       10.1483
_cell_angle_alpha    90
_cell_angle_beta     90
_cell_angle_gamma    90

_symmetry_space_group_name_H-M    "P 1"
_symmetry_int_tables_number       1

loop_
  _symmetry_equiv_pos_as_xyz
  'x, y, z'

loop_
  _atom_site_label
  _atom_site_occupancy
  _atom_site_fract_x
  _atom_site_fract_y
  _atom_site_fract_z
  _atom_site_thermal_displace_type
  _atom_site_B_iso_or_equiv
  _atom_site_type_symbol
  Hf1      1.0000 0.21809  0.97296  0.09694  Biso   1.000  Hf
  Hf2      1.0000 0.22808  0.23160  0.39626  Biso   1.000  Hf
  Hf3      1.0000 0.64773  0.26684  0.12942  Biso   1.000  Hf
  Hf4      1.0000 0.70385  0.48784  0.37208  Biso   1.000  Hf
  O1       1.0000 0.87226  0.17947  0.27704  Biso   1.000  O 
  O2       1.0000 0.05084  0.06567  0.46424  Biso   1.000  O 
  O3       1.0000 0.89322  0.43207  0.19454  Biso   1.000  O 
  O4       1.0000 0.93181  0.34034  0.46936  Biso   1.000  O 
  O5       1.0000 0.41301  0.10663  0.24704  Biso   1.000  O 
  O6       1.0000 0.52995  0.13989  0.50018  Biso   1.000  O 
  O7       1.0000 0.44989  0.38933  0.49950  Biso   1.000  O 
  O8       1.0000 0.40545  0.37397  0.25617  Biso   1.000  O 
  Hf5      1.0000 0.26930  0.01147  0.62111  Biso   1.000  Hf
  Hf6      1.0000 0.24490  0.23925  0.85037  Biso   1.000  Hf
  Hf7      1.0000 0.71861  0.27434  0.62489  Biso   1.000  Hf
  Hf8      1.0000 0.69015  0.48730  0.87635  Biso   1.000  Hf
  O9       1.0000 0.04475  0.17949  0.68927  Biso   1.000  O 
  O10      1.0000 0.03704  0.08149  0.94513  Biso   1.000  O 
  O11      1.0000 0.92176  0.43379  0.71255  Biso   1.000  O 
  O12      1.0000 0.86345  0.31974  0.94200  Biso   1.000  O 
  O13      1.0000 0.51944  0.11914  0.74766  Biso   1.000  O 
  O14      1.0000 0.49088  0.13025  0.99707  Biso   1.000  O 
  O15      1.0000 0.39440  0.39185  0.99263  Biso   1.000  O 
  O16      1.0000 0.44636  0.37304  0.74135  Biso   1.000  O 
  Hf9      1.0000 0.23908  0.52748  0.12407  Biso   1.000  Hf
  Hf10     1.0000 0.22852  0.74226  0.37652  Biso   1.000  Hf
  Hf11     1.0000 0.71117  0.76244  0.12560  Biso   1.000  Hf
  Hf12     1.0000 0.73000  0.00411  0.35876  Biso   1.000  Hf
  O17      1.0000 0.03885  0.68544  0.20183  Biso   1.000  O 
  O18      1.0000 0.02747  0.57812  0.44698  Biso   1.000  O 
  O19      1.0000 0.88337  0.93725  0.19525  Biso   1.000  O 
  O20      1.0000 0.89203  0.82644  0.44426  Biso   1.000  O 
  O21      1.0000 0.51463  0.61983  0.24719  Biso   1.000  O 
  O22      1.0000 0.49635  0.63897  0.49492  Biso   1.000  O 
  O23      1.0000 0.42059  0.89131  0.49048  Biso   1.000  O 
  O24      1.0000 0.43217  0.85991  0.23987  Biso   1.000  O 
  Hf13     1.0000 0.22835  0.51775  0.61824  Biso   1.000  Hf
  Hf14     1.0000 0.22626  0.73359  0.86553  Biso   1.000  Hf
  Hf15     1.0000 0.69734  0.77043  0.61475  Biso   1.000  Hf
  Hf16     1.0000 0.68082  0.99059  0.86630  Biso   1.000  Hf
  O25      1.0000 0.02280  0.68433  0.69343  Biso   1.000  O 
  O26      1.0000 0.01283  0.58037  0.94958  Biso   1.000  O 
  O27      1.0000 0.89309  0.92926  0.70562  Biso   1.000  O 
  O28      1.0000 0.94122  0.83630  0.96694  Biso   1.000  O 
  O29      1.0000 0.49322  0.61681  0.74423  Biso   1.000  O 
  O30      1.0000 0.49157  0.63784  0.99548  Biso   1.000  O 
  O31      1.0000 0.45055  0.87633  0.98290  Biso   1.000  O 
  O32      1.0000 0.42095  0.86622  0.73865  Biso   1.000  O 
  Ce1      1.0000 0.14093  0.24287  0.11351  Biso   1.000  Ce
