data_image0
_cell_length_a       10.1062
_cell_length_b       5.2576
_cell_length_c       10.1452
_cell_angle_alpha    90
_cell_angle_beta     90
_cell_angle_gamma    90

_symmetry_space_group_name_H-M    "P 1"
_symmetry_int_tables_number       1

loop_
  _symmetry_equiv_pos_as_xyz
  'x, y, z'

loop_
  _atom_site_label
  _atom_site_occupancy
  _atom_site_fract_x
  _atom_site_fract_y
  _atom_site_fract_z
  _atom_site_thermal_displace_type
  _atom_site_B_iso_or_equiv
  _atom_site_type_symbol
  Hf1      1.0000 0.13323  0.03105  0.12408  Biso   1.000  Hf
  Hf2      1.0000 0.13430  0.46058  0.39095  Biso   1.000  Hf
  Hf3      1.0000 0.38666  0.54887  0.11600  Biso   1.000  Hf
  Hf4      1.0000 0.36987  0.98248  0.37338  Biso   1.000  Hf
  O1       1.0000 0.98891  0.28949  0.24606  Biso   1.000  O 
  O2       1.0000 0.03884  0.13091  0.46242  Biso   1.000  O 
  O3       1.0000 0.47003  0.87841  0.19706  Biso   1.000  O 
  O4       1.0000 0.47365  0.65470  0.44716  Biso   1.000  O 
  O5       1.0000 0.25862  0.24907  0.24783  Biso   1.000  O 
  O6       1.0000 0.27873  0.27037  0.49945  Biso   1.000  O 
  O7       1.0000 0.24015  0.77340  0.50004  Biso   1.000  O 
  O8       1.0000 0.24393  0.74465  0.25558  Biso   1.000  O 
  Hf5      1.0000 0.13867  0.02548  0.62597  Biso   1.000  Hf
  Hf6      1.0000 0.13952  0.47799  0.84536  Biso   1.000  Hf
  Hf7      1.0000 0.37984  0.54530  0.61924  Biso   1.000  Hf
  Hf8      1.0000 0.37923  0.99492  0.87037  Biso   1.000  Hf
  O9       1.0000 0.03333  0.35608  0.68921  Biso   1.000  O 
  O10      1.0000 0.03211  0.15876  0.95586  Biso   1.000  O 
  O11      1.0000 0.47883  0.87727  0.69416  Biso   1.000  O 
  O12      1.0000 0.48086  0.66390  0.94253  Biso   1.000  O 
  O13      1.0000 0.27215  0.23666  0.74140  Biso   1.000  O 
  O14      1.0000 0.27483  0.30178  0.98819  Biso   1.000  O 
  O15      1.0000 0.24935  0.81249  0.99352  Biso   1.000  O 
  O16      1.0000 0.24907  0.74003  0.74544  Biso   1.000  O 
  Hf9      1.0000 0.62954  0.03023  0.12369  Biso   1.000  Hf
  Hf10     1.0000 0.63542  0.47319  0.37752  Biso   1.000  Hf
  Hf11     1.0000 0.84073  0.51457  0.12753  Biso   1.000  Hf
  Hf12     1.0000 0.88393  0.98739  0.36551  Biso   1.000  Hf
  O17      1.0000 0.53421  0.36606  0.20196  Biso   1.000  O 
  O18      1.0000 0.53491  0.14932  0.44950  Biso   1.000  O 
  O19      1.0000 0.96784  0.82817  0.19564  Biso   1.000  O 
  O20      1.0000 0.97403  0.65444  0.45365  Biso   1.000  O 
  O21      1.0000 0.75268  0.22086  0.24989  Biso   1.000  O 
  O22      1.0000 0.77408  0.28663  0.49628  Biso   1.000  O 
  O23      1.0000 0.74178  0.78693  0.49787  Biso   1.000  O 
  O24      1.0000 0.72810  0.73507  0.25135  Biso   1.000  O 
  Hf13     1.0000 0.64026  0.04138  0.62052  Biso   1.000  Hf
  Hf14     1.0000 0.64155  0.47820  0.86937  Biso   1.000  Hf
  Hf15     1.0000 0.86917  0.54651  0.62170  Biso   1.000  Hf
  Hf16     1.0000 0.87553  0.97359  0.87677  Biso   1.000  Hf
  O25      1.0000 0.54055  0.37531  0.69734  Biso   1.000  O 
  O26      1.0000 0.53549  0.16347  0.94881  Biso   1.000  O 
  O27      1.0000 0.98312  0.85608  0.70834  Biso   1.000  O 
  O28      1.0000 0.96785  0.64377  0.94116  Biso   1.000  O 
  O29      1.0000 0.77472  0.23755  0.74659  Biso   1.000  O 
  O30      1.0000 0.76929  0.27070  0.99586  Biso   1.000  O 
  O31      1.0000 0.73389  0.77721  0.99877  Biso   1.000  O 
  O32      1.0000 0.74022  0.74292  0.74790  Biso   1.000  O 
  Ce1      1.0000 0.11282  0.52767  0.11119  Biso   1.000  Ce
