data_image0
_cell_length_a       10.3171
_cell_length_b       10.3156
_cell_length_c       5.32325
_cell_angle_alpha    90
_cell_angle_beta     80
_cell_angle_gamma    90

_symmetry_space_group_name_H-M    "P 1"
_symmetry_int_tables_number       1

loop_
  _symmetry_equiv_pos_as_xyz
  'x, y, z'

loop_
  _atom_site_label
  _atom_site_occupancy
  _atom_site_fract_x
  _atom_site_fract_y
  _atom_site_fract_z
  _atom_site_thermal_displace_type
  _atom_site_B_iso_or_equiv
  _atom_site_type_symbol
  Hf1      1.0000 0.13542  0.01841  0.28056  Biso   1.000  Hf
  Hf2      1.0000 0.13610  0.22335  0.77155  Biso   1.000  Hf
  Hf3      1.0000 0.35674  0.27427  0.15699  Biso   1.000  Hf
  Hf4      1.0000 0.37665  0.49981  0.70022  Biso   1.000  Hf
  O1       1.0000 0.03208  0.16055  0.14036  Biso   1.000  O 
  O2       1.0000 0.03292  0.08264  0.63768  Biso   1.000  O 
  O3       1.0000 0.47841  0.41698  0.35911  Biso   1.000  O 
  O4       1.0000 0.50836  0.36983  0.87717  Biso   1.000  O 
  O5       1.0000 0.26973  0.11985  0.44059  Biso   1.000  O 
  O6       1.0000 0.28361  0.11528  0.94528  Biso   1.000  O 
  O7       1.0000 0.24142  0.38077  0.96925  Biso   1.000  O 
  O8       1.0000 0.23562  0.36891  0.48515  Biso   1.000  O 
  Hf5      1.0000 0.14727  0.51780  0.28724  Biso   1.000  Hf
  Hf6      1.0000 0.14850  0.72613  0.79236  Biso   1.000  Hf
  Hf7      1.0000 0.36729  0.77127  0.21194  Biso   1.000  Hf
  Hf8      1.0000 0.37578  0.96063  0.70616  Biso   1.000  Hf
  O9       1.0000 0.03351  0.65790  0.14586  Biso   1.000  O 
  O10      1.0000 0.04521  0.58711  0.63948  Biso   1.000  O 
  O11      1.0000 0.47887  0.91173  0.35291  Biso   1.000  O 
  O12      1.0000 0.48497  0.83171  0.85751  Biso   1.000  O 
  O13      1.0000 0.28418  0.62766  0.48118  Biso   1.000  O 
  O14      1.0000 0.29043  0.62693  0.98703  Biso   1.000  O 
  O15      1.0000 0.22671  0.87384  0.02397  Biso   1.000  O 
  O16      1.0000 0.23374  0.86693  0.51825  Biso   1.000  O 
  Hf9      1.0000 0.64429  0.01938  0.30733  Biso   1.000  Hf
  Hf10     1.0000 0.66528  0.23186  0.82183  Biso   1.000  Hf
  Hf11     1.0000 0.86642  0.27191  0.22325  Biso   1.000  Hf
  Hf12     1.0000 0.87619  0.47942  0.70706  Biso   1.000  Hf
  O17      1.0000 0.53205  0.16877  0.18232  Biso   1.000  O 
  O18      1.0000 0.55595  0.06852  0.68647  Biso   1.000  O 
  O19      1.0000 0.97858  0.41035  0.35001  Biso   1.000  O 
  O20      1.0000 0.97773  0.33817  0.84893  Biso   1.000  O 
  O21      1.0000 0.78476  0.12867  0.49267  Biso   1.000  O 
  O22      1.0000 0.77899  0.11926  0.00413  Biso   1.000  O 
  O23      1.0000 0.73259  0.37831  0.04253  Biso   1.000  O 
  O24      1.0000 0.73930  0.37212  0.53525  Biso   1.000  O 
  Hf13     1.0000 0.64601  0.52436  0.29585  Biso   1.000  Hf
  Hf14     1.0000 0.65646  0.72787  0.79716  Biso   1.000  Hf
  Hf15     1.0000 0.86808  0.76989  0.21194  Biso   1.000  Hf
  Hf16     1.0000 0.87209  0.97515  0.71091  Biso   1.000  Hf
  O25      1.0000 0.53707  0.66181  0.15333  Biso   1.000  O 
  O26      1.0000 0.54722  0.59867  0.64208  Biso   1.000  O 
  O27      1.0000 0.97391  0.90715  0.35484  Biso   1.000  O 
  O28      1.0000 0.98311  0.83634  0.85029  Biso   1.000  O 
  O29      1.0000 0.78710  0.62709  0.48043  Biso   1.000  O 
  O30      1.0000 0.79243  0.62017  0.97694  Biso   1.000  O 
  O31      1.0000 0.72862  0.87700  0.03156  Biso   1.000  O 
  O32      1.0000 0.73608  0.87003  0.52494  Biso   1.000  O 
  Ce1      1.0000 0.41874  0.23644  0.61281  Biso   1.000  Ce
