data_image0
_cell_length_a       10.1605
_cell_length_b       10.3297
_cell_length_c       5.23515
_cell_angle_alpha    90
_cell_angle_beta     80
_cell_angle_gamma    90

_symmetry_space_group_name_H-M    "P 1"
_symmetry_int_tables_number       1

loop_
  _symmetry_equiv_pos_as_xyz
  'x, y, z'

loop_
  _atom_site_label
  _atom_site_occupancy
  _atom_site_fract_x
  _atom_site_fract_y
  _atom_site_fract_z
  _atom_site_thermal_displace_type
  _atom_site_B_iso_or_equiv
  _atom_site_type_symbol
  Ce1      1.0000 0.13340  0.01672  0.29028  Biso   1.000  Ce
  Hf1      1.0000 0.13443  0.23191  0.79226  Biso   1.000  Hf
  Hf2      1.0000 0.36032  0.27089  0.20688  Biso   1.000  Hf
  Hf3      1.0000 0.35658  0.47763  0.70768  Biso   1.000  Hf
  O1       1.0000 0.03574  0.18374  0.16337  Biso   1.000  O 
  O2       1.0000 0.02681  0.08081  0.68625  Biso   1.000  O 
  O3       1.0000 0.46173  0.41829  0.34050  Biso   1.000  O 
  O4       1.0000 0.46021  0.33151  0.84107  Biso   1.000  O 
  O5       1.0000 0.27785  0.13358  0.48894  Biso   1.000  O 
  O6       1.0000 0.27618  0.12445  0.97144  Biso   1.000  O 
  O7       1.0000 0.22366  0.37982  0.01622  Biso   1.000  O 
  O8       1.0000 0.21894  0.37204  0.51657  Biso   1.000  O 
  Hf4      1.0000 0.13590  0.52096  0.29045  Biso   1.000  Hf
  Hf5      1.0000 0.13366  0.72586  0.79264  Biso   1.000  Hf
  Hf6      1.0000 0.36255  0.76827  0.20687  Biso   1.000  Hf
  Hf7      1.0000 0.35989  0.97757  0.70837  Biso   1.000  Hf
  O9       1.0000 0.03506  0.67247  0.16349  Biso   1.000  O 
  O10      1.0000 0.03117  0.57947  0.66104  Biso   1.000  O 
  O11      1.0000 0.46127  0.91996  0.33828  Biso   1.000  O 
  O12      1.0000 0.46286  0.83078  0.84273  Biso   1.000  O 
  O13      1.0000 0.27292  0.62615  0.47922  Biso   1.000  O 
  O14      1.0000 0.26975  0.61844  0.98160  Biso   1.000  O 
  O15      1.0000 0.23168  0.87132  0.00437  Biso   1.000  O 
  O16      1.0000 0.22675  0.86349  0.52233  Biso   1.000  O 
  Hf8      1.0000 0.63753  0.02149  0.29401  Biso   1.000  Hf
  Hf9      1.0000 0.63355  0.22903  0.79408  Biso   1.000  Hf
  Hf10     1.0000 0.85776  0.27352  0.20826  Biso   1.000  Hf
  Hf11     1.0000 0.85655  0.47840  0.70752  Biso   1.000  Hf
  O17      1.0000 0.53485  0.16925  0.16077  Biso   1.000  O 
  O18      1.0000 0.53468  0.07971  0.66177  Biso   1.000  O 
  O19      1.0000 0.95854  0.42397  0.33544  Biso   1.000  O 
  O20      1.0000 0.95692  0.33112  0.83622  Biso   1.000  O 
  O21      1.0000 0.77376  0.13009  0.48448  Biso   1.000  O 
  O22      1.0000 0.76881  0.12089  0.98717  Biso   1.000  O 
  O23      1.0000 0.72220  0.37961  0.01799  Biso   1.000  O 
  O24      1.0000 0.71945  0.37084  0.51970  Biso   1.000  O 
  Hf12     1.0000 0.63571  0.51956  0.29202  Biso   1.000  Hf
  Hf13     1.0000 0.63309  0.72680  0.79086  Biso   1.000  Hf
  Hf14     1.0000 0.85579  0.76754  0.20738  Biso   1.000  Hf
  Hf15     1.0000 0.85041  0.97775  0.71910  Biso   1.000  Hf
  O25      1.0000 0.53564  0.66758  0.15943  Biso   1.000  O 
  O26      1.0000 0.53060  0.58024  0.65929  Biso   1.000  O 
  O27      1.0000 0.94469  0.91983  0.34831  Biso   1.000  O 
  O28      1.0000 0.95894  0.83092  0.84289  Biso   1.000  O 
  O29      1.0000 0.77159  0.62808  0.48023  Biso   1.000  O 
  O30      1.0000 0.76992  0.61954  0.98089  Biso   1.000  O 
  O31      1.0000 0.72205  0.87833  0.02094  Biso   1.000  O 
  O32      1.0000 0.71406  0.86904  0.52349  Biso   1.000  O 
