data_image0
_cell_length_a       10.1629
_cell_length_b       5.16238
_cell_length_c       10.4666
_cell_angle_alpha    90
_cell_angle_beta     80
_cell_angle_gamma    90

_symmetry_space_group_name_H-M    "P 1"
_symmetry_int_tables_number       1

loop_
  _symmetry_equiv_pos_as_xyz
  'x, y, z'

loop_
  _atom_site_label
  _atom_site_occupancy
  _atom_site_fract_x
  _atom_site_fract_y
  _atom_site_fract_z
  _atom_site_thermal_displace_type
  _atom_site_B_iso_or_equiv
  _atom_site_type_symbol
  Ce1      1.0000 0.13239  0.03233  0.14409  Biso   1.000  Ce
  Hf1      1.0000 0.13364  0.45506  0.39926  Biso   1.000  Hf
  Hf2      1.0000 0.36430  0.53645  0.10267  Biso   1.000  Hf
  Hf3      1.0000 0.35675  0.95525  0.35550  Biso   1.000  Hf
  O1       1.0000 0.03598  0.37085  0.08015  Biso   1.000  O 
  O2       1.0000 0.02463  0.16410  0.34005  Biso   1.000  O 
  O3       1.0000 0.46061  0.83987  0.16940  Biso   1.000  O 
  O4       1.0000 0.45721  0.65729  0.42128  Biso   1.000  O 
  O5       1.0000 0.27769  0.26046  0.24517  Biso   1.000  O 
  O6       1.0000 0.26935  0.23854  0.49252  Biso   1.000  O 
  O7       1.0000 0.22209  0.74317  0.00180  Biso   1.000  O 
  O8       1.0000 0.22517  0.72886  0.26199  Biso   1.000  O 
  Hf4      1.0000 0.13149  0.04127  0.64718  Biso   1.000  Hf
  Hf5      1.0000 0.12900  0.46007  0.89399  Biso   1.000  Hf
  Hf6      1.0000 0.35354  0.54084  0.60495  Biso   1.000  Hf
  Hf7      1.0000 0.35396  0.95493  0.85351  Biso   1.000  Hf
  O9       1.0000 0.03014  0.34467  0.58558  Biso   1.000  O 
  O10      1.0000 0.02839  0.15415  0.83499  Biso   1.000  O 
  O11      1.0000 0.45671  0.83633  0.67041  Biso   1.000  O 
  O12      1.0000 0.45982  0.66424  0.92098  Biso   1.000  O 
  O13      1.0000 0.26764  0.25741  0.74019  Biso   1.000  O 
  O14      1.0000 0.27100  0.24599  0.98497  Biso   1.000  O 
  O15      1.0000 0.21668  0.75770  0.51063  Biso   1.000  O 
  O16      1.0000 0.21491  0.74193  0.75835  Biso   1.000  O 
  Hf8      1.0000 0.63681  0.03815  0.14666  Biso   1.000  Hf
  Hf9      1.0000 0.63111  0.45474  0.39768  Biso   1.000  Hf
  Hf10     1.0000 0.85368  0.53821  0.10366  Biso   1.000  Hf
  Hf11     1.0000 0.84970  0.95574  0.35910  Biso   1.000  Hf
  O17      1.0000 0.53779  0.33716  0.07972  Biso   1.000  O 
  O18      1.0000 0.53213  0.15661  0.33163  Biso   1.000  O 
  O19      1.0000 0.94103  0.84925  0.17147  Biso   1.000  O 
  O20      1.0000 0.95811  0.66226  0.42013  Biso   1.000  O 
  O21      1.0000 0.77084  0.25827  0.24232  Biso   1.000  O 
  O22      1.0000 0.76812  0.24213  0.49315  Biso   1.000  O 
  O23      1.0000 0.72275  0.75795  0.00891  Biso   1.000  O 
  O24      1.0000 0.71206  0.73803  0.26258  Biso   1.000  O 
  Hf12     1.0000 0.63155  0.04272  0.64750  Biso   1.000  Hf
  Hf13     1.0000 0.63004  0.45622  0.89601  Biso   1.000  Hf
  Hf14     1.0000 0.85474  0.54317  0.60542  Biso   1.000  Hf
  Hf15     1.0000 0.85128  0.95639  0.85523  Biso   1.000  Hf
  O25      1.0000 0.52754  0.33610  0.58209  Biso   1.000  O 
  O26      1.0000 0.52856  0.16037  0.83063  Biso   1.000  O 
  O27      1.0000 0.95482  0.84329  0.66979  Biso   1.000  O 
  O28      1.0000 0.95168  0.65954  0.91906  Biso   1.000  O 
  O29      1.0000 0.76904  0.25839  0.74142  Biso   1.000  O 
  O30      1.0000 0.76527  0.23790  0.99224  Biso   1.000  O 
  O31      1.0000 0.71601  0.75677  0.51158  Biso   1.000  O 
  O32      1.0000 0.71584  0.74068  0.76013  Biso   1.000  O 
