data_image0
_cell_length_a       10.1393
_cell_length_b       10.3231
_cell_length_c       5.23827
_cell_angle_alpha    90
_cell_angle_beta     80
_cell_angle_gamma    90

_symmetry_space_group_name_H-M    "P 1"
_symmetry_int_tables_number       1

loop_
  _symmetry_equiv_pos_as_xyz
  'x, y, z'

loop_
  _atom_site_label
  _atom_site_occupancy
  _atom_site_fract_x
  _atom_site_fract_y
  _atom_site_fract_z
  _atom_site_thermal_displace_type
  _atom_site_B_iso_or_equiv
  _atom_site_type_symbol
  Hf1      1.0000 0.13636  0.02197  0.29522  Biso   1.000  Hf
  Hf2      1.0000 0.13820  0.23150  0.78984  Biso   1.000  Hf
  Hf3      1.0000 0.35603  0.27701  0.21181  Biso   1.000  Hf
  Hf4      1.0000 0.35332  0.47409  0.70137  Biso   1.000  Hf
  O1       1.0000 0.03664  0.17000  0.15885  Biso   1.000  O 
  O2       1.0000 0.03583  0.08055  0.65796  Biso   1.000  O 
  O3       1.0000 0.45998  0.42374  0.33660  Biso   1.000  O 
  O4       1.0000 0.47276  0.34120  0.85326  Biso   1.000  O 
  O5       1.0000 0.27978  0.12816  0.48110  Biso   1.000  O 
  O6       1.0000 0.28071  0.12048  0.97282  Biso   1.000  O 
  O7       1.0000 0.21813  0.38220  0.01733  Biso   1.000  O 
  O8       1.0000 0.20738  0.37667  0.50650  Biso   1.000  O 
  Hf5      1.0000 0.13295  0.52385  0.28864  Biso   1.000  Hf
  Hf6      1.0000 0.13167  0.72646  0.79321  Biso   1.000  Hf
  Hf7      1.0000 0.35522  0.76818  0.20896  Biso   1.000  Hf
  Hf8      1.0000 0.35461  0.96572  0.71075  Biso   1.000  Hf
  O9       1.0000 0.02774  0.67147  0.15953  Biso   1.000  O 
  O10      1.0000 0.02881  0.58288  0.65861  Biso   1.000  O 
  O11      1.0000 0.45823  0.91666  0.34236  Biso   1.000  O 
  O12      1.0000 0.45852  0.82377  0.84262  Biso   1.000  O 
  O13      1.0000 0.27099  0.62823  0.48160  Biso   1.000  O 
  O14      1.0000 0.26977  0.61940  0.97996  Biso   1.000  O 
  O15      1.0000 0.21707  0.87940  0.02238  Biso   1.000  O 
  O16      1.0000 0.21578  0.86808  0.51871  Biso   1.000  O 
  Hf9      1.0000 0.63868  0.02051  0.29328  Biso   1.000  Hf
  Hf10     1.0000 0.64369  0.22687  0.80210  Biso   1.000  Hf
  Hf11     1.0000 0.86051  0.27209  0.21217  Biso   1.000  Hf
  Hf12     1.0000 0.85769  0.47725  0.71079  Biso   1.000  Hf
  O17      1.0000 0.53320  0.16977  0.16885  Biso   1.000  O 
  O18      1.0000 0.54156  0.06883  0.67690  Biso   1.000  O 
  O19      1.0000 0.95870  0.42154  0.33936  Biso   1.000  O 
  O20      1.0000 0.96146  0.33122  0.84150  Biso   1.000  O 
  O21      1.0000 0.77666  0.12859  0.48305  Biso   1.000  O 
  O22      1.0000 0.77807  0.11803  0.98630  Biso   1.000  O 
  O23      1.0000 0.72222  0.37888  0.02649  Biso   1.000  O 
  O24      1.0000 0.72111  0.36965  0.52415  Biso   1.000  O 
  Hf13     1.0000 0.63533  0.52225  0.29604  Biso   1.000  Hf
  Hf14     1.0000 0.63405  0.72457  0.79300  Biso   1.000  Hf
  Hf15     1.0000 0.85412  0.77221  0.20896  Biso   1.000  Hf
  Hf16     1.0000 0.85495  0.97720  0.70949  Biso   1.000  Hf
  O25      1.0000 0.53126  0.66894  0.16218  Biso   1.000  O 
  O26      1.0000 0.53005  0.58024  0.65973  Biso   1.000  O 
  O27      1.0000 0.95864  0.91972  0.33980  Biso   1.000  O 
  O28      1.0000 0.95820  0.83119  0.84111  Biso   1.000  O 
  O29      1.0000 0.77201  0.62901  0.48312  Biso   1.000  O 
  O30      1.0000 0.77167  0.61902  0.98295  Biso   1.000  O 
  O31      1.0000 0.71664  0.87998  0.02110  Biso   1.000  O 
  O32      1.0000 0.71805  0.86991  0.52053  Biso   1.000  O 
  Co1      1.0000 0.40382  0.20774  0.67216  Biso   1.000  Co
