data_image0
_cell_length_a       5.07424
_cell_length_b       10.3971
_cell_length_c       10.097
_cell_angle_alpha    90
_cell_angle_beta     90
_cell_angle_gamma    90

_symmetry_space_group_name_H-M    "P 1"
_symmetry_int_tables_number       1

loop_
  _symmetry_equiv_pos_as_xyz
  'x, y, z'

loop_
  _atom_site_label
  _atom_site_occupancy
  _atom_site_fract_x
  _atom_site_fract_y
  _atom_site_fract_z
  _atom_site_thermal_displace_type
  _atom_site_B_iso_or_equiv
  _atom_site_type_symbol
  Hf1      1.0000 0.18684  0.95193  0.13659  Biso   1.000  Hf
  Hf2      1.0000 0.30526  0.23885  0.35182  Biso   1.000  Hf
  Hf3      1.0000 0.69950  0.26086  0.10812  Biso   1.000  Hf
  Hf4      1.0000 0.81039  0.01428  0.39040  Biso   1.000  Hf
  O1       1.0000 0.00225  0.18047  0.97248  Biso   1.000  O 
  O2       1.0000 0.13060  0.07149  0.27183  Biso   1.000  O 
  O3       1.0000 0.03598  0.31871  0.21567  Biso   1.000  O 
  O4       1.0000 0.97865  0.43448  0.98594  Biso   1.000  O 
  O5       1.0000 0.64651  0.15755  0.27893  Biso   1.000  O 
  O6       1.0000 0.48080  0.09045  0.02160  Biso   1.000  O 
  O7       1.0000 0.46934  0.36707  0.99396  Biso   1.000  O 
  O8       1.0000 0.49610  0.39873  0.24463  Biso   1.000  O 
  Hf5      1.0000 0.25567  0.04491  0.64394  Biso   1.000  Hf
  Hf6      1.0000 0.20899  0.30584  0.85403  Biso   1.000  Hf
  Hf7      1.0000 0.74742  0.26267  0.60169  Biso   1.000  Hf
  Hf8      1.0000 0.69629  0.01745  0.89587  Biso   1.000  Hf
  O9       1.0000 0.03010  0.16221  0.49690  Biso   1.000  O 
  O10      1.0000 0.94797  0.13511  0.73736  Biso   1.000  O 
  O11      1.0000 0.92931  0.39312  0.73339  Biso   1.000  O 
  O12      1.0000 0.94141  0.40574  0.48316  Biso   1.000  O 
  O13      1.0000 0.43971  0.21055  0.72825  Biso   1.000  O 
  O14      1.0000 0.53103  0.11479  0.50559  Biso   1.000  O 
  O15      1.0000 0.44914  0.37436  0.50078  Biso   1.000  O 
  O16      1.0000 0.41961  0.46459  0.76170  Biso   1.000  O 
  Hf9      1.0000 0.18735  0.49030  0.11962  Biso   1.000  Hf
  Hf10     1.0000 0.24785  0.77001  0.39481  Biso   1.000  Hf
  Hf11     1.0000 0.70143  0.72774  0.12897  Biso   1.000  Hf
  Hf12     1.0000 0.67360  0.51533  0.38129  Biso   1.000  Hf
  O17      1.0000 0.04381  0.67479  0.99721  Biso   1.000  O 
  O18      1.0000 0.90471  0.57025  0.23135  Biso   1.000  O 
  O19      1.0000 0.98140  0.81584  0.25125  Biso   1.000  O 
  O20      1.0000 0.90331  0.89120  0.00757  Biso   1.000  O 
  O21      1.0000 0.42864  0.64619  0.26678  Biso   1.000  O 
  O22      1.0000 0.48734  0.58340  0.02494  Biso   1.000  O 
  O23      1.0000 0.41872  0.83249  0.00774  Biso   1.000  O 
  O24      1.0000 0.48406  0.89271  0.26028  Biso   1.000  O 
  Hf13     1.0000 0.18535  0.50918  0.60430  Biso   1.000  Hf
  Hf14     1.0000 0.21645  0.79195  0.86253  Biso   1.000  Hf
  Hf15     1.0000 0.75281  0.76642  0.61801  Biso   1.000  Hf
  Hf16     1.0000 0.73144  0.54317  0.86078  Biso   1.000  Hf
  O25      1.0000 0.96470  0.65254  0.48589  Biso   1.000  O 
  O26      1.0000 0.01081  0.64209  0.73798  Biso   1.000  O 
  O27      1.0000 0.92177  0.89117  0.75541  Biso   1.000  O 
  O28      1.0000 0.99405  0.90663  0.50531  Biso   1.000  O 
  O29      1.0000 0.53421  0.70892  0.77723  Biso   1.000  O 
  O30      1.0000 0.46769  0.62849  0.52087  Biso   1.000  O 
  O31      1.0000 0.50040  0.87270  0.51069  Biso   1.000  O 
  O32      1.0000 0.38993  0.96063  0.77755  Biso   1.000  O 
  Co1      1.0000 0.20821  0.19219  0.10515  Biso   1.000  Co
