data_image0
_cell_length_a       10.0729
_cell_length_b       10.1941
_cell_length_c       10.0067
_cell_angle_alpha    90
_cell_angle_beta     90
_cell_angle_gamma    90

_symmetry_space_group_name_H-M    "P 1"
_symmetry_int_tables_number       1

loop_
  _symmetry_equiv_pos_as_xyz
  'x, y, z'

loop_
  _atom_site_label
  _atom_site_occupancy
  _atom_site_fract_x
  _atom_site_fract_y
  _atom_site_fract_z
  _atom_site_thermal_displace_type
  _atom_site_B_iso_or_equiv
  _atom_site_type_symbol
  Co1      1.0000 0.10825  0.03773  0.11075  Biso   1.000  Co
  Hf1      1.0000 0.11738  0.99653  0.61475  Biso   1.000  Hf
  Hf2      1.0000 0.11491  0.49207  0.12997  Biso   1.000  Hf
  Hf3      1.0000 0.12250  0.51833  0.62530  Biso   1.000  Hf
  Hf4      1.0000 0.59991  0.02208  0.12491  Biso   1.000  Hf
  Hf5      1.0000 0.61760  0.99448  0.61337  Biso   1.000  Hf
  Hf6      1.0000 0.61556  0.49209  0.13446  Biso   1.000  Hf
  Hf7      1.0000 0.62166  0.51572  0.62639  Biso   1.000  Hf
  Hf8      1.0000 0.12818  0.25994  0.39442  Biso   1.000  Hf
  Hf9      1.0000 0.09324  0.24582  0.86750  Biso   1.000  Hf
  Hf10     1.0000 0.10243  0.75075  0.36340  Biso   1.000  Hf
  Hf11     1.0000 0.09386  0.74398  0.88318  Biso   1.000  Hf
  Hf12     1.0000 0.62451  0.25471  0.38936  Biso   1.000  Hf
  Hf13     1.0000 0.59373  0.24290  0.86952  Biso   1.000  Hf
  Hf14     1.0000 0.59712  0.76357  0.35465  Biso   1.000  Hf
  Hf15     1.0000 0.59609  0.74555  0.87919  Biso   1.000  Hf
  Hf16     1.0000 0.36308  0.25816  0.13349  Biso   1.000  Hf
  Hf17     1.0000 0.37123  0.23839  0.62653  Biso   1.000  Hf
  Hf18     1.0000 0.35523  0.73628  0.11944  Biso   1.000  Hf
  Hf19     1.0000 0.36772  0.75909  0.61441  Biso   1.000  Hf
  Hf20     1.0000 0.86584  0.24780  0.13191  Biso   1.000  Hf
  Hf21     1.0000 0.86897  0.23202  0.62299  Biso   1.000  Hf
  Hf22     1.0000 0.85696  0.72772  0.12917  Biso   1.000  Hf
  Hf23     1.0000 0.86548  0.75713  0.62042  Biso   1.000  Hf
  Hf24     1.0000 0.33992  0.99259  0.34426  Biso   1.000  Hf
  Hf25     1.0000 0.33853  0.00590  0.87526  Biso   1.000  Hf
  Hf26     1.0000 0.37792  0.49904  0.38776  Biso   1.000  Hf
  Hf27     1.0000 0.34571  0.51085  0.86893  Biso   1.000  Hf
  Hf28     1.0000 0.85853  0.98550  0.35650  Biso   1.000  Hf
  Hf29     1.0000 0.84326  0.00327  0.88087  Biso   1.000  Hf
  Hf30     1.0000 0.87238  0.49058  0.39009  Biso   1.000  Hf
  Hf31     1.0000 0.84433  0.50788  0.86992  Biso   1.000  Hf
  O1       1.0000 0.00221  0.15507  0.00130  Biso   1.000  O 
  O2       1.0000 0.00106  0.14222  0.49654  Biso   1.000  O 
  O3       1.0000 0.00226  0.64959  0.00459  Biso   1.000  O 
  O4       1.0000 0.00403  0.64532  0.50192  Biso   1.000  O 
  O5       1.0000 0.48900  0.15788  0.00061  Biso   1.000  O 
  O6       1.0000 0.50887  0.15157  0.51365  Biso   1.000  O 
  O7       1.0000 0.45726  0.65411  0.99730  Biso   1.000  O 
  O8       1.0000 0.50658  0.64832  0.49598  Biso   1.000  O 
  O9       1.0000 0.96730  0.07543  0.22149  Biso   1.000  O 
  O10      1.0000 0.98372  0.09748  0.74724  Biso   1.000  O 
  O11      1.0000 0.97920  0.58959  0.25243  Biso   1.000  O 
  O12      1.0000 0.98055  0.60309  0.75208  Biso   1.000  O 
  O13      1.0000 0.46709  0.11198  0.25164  Biso   1.000  O 
  O14      1.0000 0.48326  0.09519  0.75150  Biso   1.000  O 
  O15      1.0000 0.47587  0.61052  0.24855  Biso   1.000  O 
  O16      1.0000 0.47878  0.60328  0.74712  Biso   1.000  O 
  O17      1.0000 0.99130  0.33567  0.26895  Biso   1.000  O 
  O18      1.0000 0.93966  0.34469  0.77769  Biso   1.000  O 
  O19      1.0000 0.96074  0.83339  0.25845  Biso   1.000  O 
  O20      1.0000 0.01982  0.84935  0.73398  Biso   1.000  O 
  O21      1.0000 0.49499  0.35618  0.26855  Biso   1.000  O 
  O22      1.0000 0.44149  0.34652  0.78040  Biso   1.000  O 
  O23      1.0000 0.47212  0.86433  0.22585  Biso   1.000  O 
  O24      1.0000 0.52544  0.84023  0.71632  Biso   1.000  O 
  O25      1.0000 0.95434  0.40803  0.03239  Biso   1.000  O 
  O26      1.0000 0.99514  0.39136  0.52002  Biso   1.000  O 
  O27      1.0000 0.00808  0.91786  0.99475  Biso   1.000  O 
  O28      1.0000 0.98440  0.89714  0.49482  Biso   1.000  O 
  O29      1.0000 0.45325  0.41408  0.03409  Biso   1.000  O 
  O30      1.0000 0.49242  0.39715  0.51984  Biso   1.000  O 
  O31      1.0000 0.50603  0.91075  0.96919  Biso   1.000  O 
  O32      1.0000 0.48284  0.90412  0.47609  Biso   1.000  O 
  O33      1.0000 0.21074  0.14544  0.24182  Biso   1.000  O 
  O34      1.0000 0.23023  0.15454  0.75136  Biso   1.000  O 
  O35      1.0000 0.22443  0.64694  0.24320  Biso   1.000  O 
  O36      1.0000 0.23358  0.66038  0.74714  Biso   1.000  O 
  O37      1.0000 0.72643  0.14144  0.25344  Biso   1.000  O 
  O38      1.0000 0.73155  0.15334  0.75325  Biso   1.000  O 
  O39      1.0000 0.72422  0.63877  0.25402  Biso   1.000  O 
  O40      1.0000 0.73513  0.65704  0.75265  Biso   1.000  O 
  O41      1.0000 0.24619  0.09201  0.00156  Biso   1.000  O 
  O42      1.0000 0.25077  0.11108  0.49397  Biso   1.000  O 
  O43      1.0000 0.24480  0.59298  0.00046  Biso   1.000  O 
  O44      1.0000 0.25598  0.61069  0.50306  Biso   1.000  O 
  O45      1.0000 0.74991  0.09558  0.00091  Biso   1.000  O 
  O46      1.0000 0.75056  0.10144  0.49943  Biso   1.000  O 
  O47      1.0000 0.74400  0.59097  0.00355  Biso   1.000  O 
  O48      1.0000 0.76313  0.60128  0.51519  Biso   1.000  O 
  O49      1.0000 0.20510  0.33635  0.03253  Biso   1.000  O 
  O50      1.0000 0.24419  0.36396  0.52464  Biso   1.000  O 
  O51      1.0000 0.25611  0.83967  0.95547  Biso   1.000  O 
  O52      1.0000 0.23583  0.85678  0.47143  Biso   1.000  O 
  O53      1.0000 0.70253  0.33334  0.03620  Biso   1.000  O 
  O54      1.0000 0.74120  0.35552  0.52187  Biso   1.000  O 
  O55      1.0000 0.75899  0.83849  0.96739  Biso   1.000  O 
  O56      1.0000 0.73408  0.84827  0.48017  Biso   1.000  O 
  O57      1.0000 0.24455  0.39848  0.27038  Biso   1.000  O 
  O58      1.0000 0.19028  0.41145  0.78226  Biso   1.000  O 
  O59      1.0000 0.21421  0.90290  0.21046  Biso   1.000  O 
  O60      1.0000 0.27870  0.91630  0.70837  Biso   1.000  O 
  O61      1.0000 0.74462  0.39327  0.26913  Biso   1.000  O 
  O62      1.0000 0.68930  0.40896  0.78311  Biso   1.000  O 
  O63      1.0000 0.72473  0.88921  0.22671  Biso   1.000  O 
  O64      1.0000 0.77497  0.91322  0.71869  Biso   1.000  O 
