data_image0
_cell_length_a       9.98258
_cell_length_b       5.08149
_cell_length_c       10.4045
_cell_angle_alpha    90
_cell_angle_beta     90
_cell_angle_gamma    90

_symmetry_space_group_name_H-M    "P 1"
_symmetry_int_tables_number       1

loop_
  _symmetry_equiv_pos_as_xyz
  'x, y, z'

loop_
  _atom_site_label
  _atom_site_occupancy
  _atom_site_fract_x
  _atom_site_fract_y
  _atom_site_fract_z
  _atom_site_thermal_displace_type
  _atom_site_B_iso_or_equiv
  _atom_site_type_symbol
  Co1      1.0000 0.11825  0.02411  0.19320  Biso   1.000  Co
  Hf1      1.0000 0.12944  0.03912  0.66911  Biso   1.000  Hf
  Hf2      1.0000 0.13444  0.45905  0.41561  Biso   1.000  Hf
  Hf3      1.0000 0.13582  0.45594  0.92240  Biso   1.000  Hf
  Hf4      1.0000 0.35413  0.55456  0.16602  Biso   1.000  Hf
  Hf5      1.0000 0.35550  0.54419  0.67024  Biso   1.000  Hf
  Hf6      1.0000 0.35641  0.96343  0.41667  Biso   1.000  Hf
  Hf7      1.0000 0.35316  0.96386  0.92397  Biso   1.000  Hf
  Hf8      1.0000 0.63876  0.04279  0.07784  Biso   1.000  Hf
  Hf9      1.0000 0.62818  0.03892  0.58033  Biso   1.000  Hf
  Hf10     1.0000 0.63166  0.45525  0.32744  Biso   1.000  Hf
  Hf11     1.0000 0.63153  0.45870  0.83079  Biso   1.000  Hf
  Hf12     1.0000 0.87240  0.52914  0.08403  Biso   1.000  Hf
  Hf13     1.0000 0.85407  0.53587  0.58094  Biso   1.000  Hf
  Hf14     1.0000 0.85680  0.95327  0.33227  Biso   1.000  Hf
  Hf15     1.0000 0.85953  0.95235  0.83274  Biso   1.000  Hf
  O1       1.0000 0.05052  0.30225  0.09554  Biso   1.000  O 
  O2       1.0000 0.02472  0.31846  0.57648  Biso   1.000  O 
  O3       1.0000 0.02975  0.15498  0.33240  Biso   1.000  O 
  O4       1.0000 0.02506  0.17055  0.83405  Biso   1.000  O 
  O5       1.0000 0.47210  0.83847  0.08573  Biso   1.000  O 
  O6       1.0000 0.45880  0.84237  0.58471  Biso   1.000  O 
  O7       1.0000 0.45544  0.65491  0.33793  Biso   1.000  O 
  O8       1.0000 0.46032  0.66814  0.83380  Biso   1.000  O 
  O9       1.0000 0.26250  0.24074  0.27964  Biso   1.000  O 
  O10      1.0000 0.26738  0.24172  0.78585  Biso   1.000  O 
  O11      1.0000 0.30468  0.30649  0.02330  Biso   1.000  O 
  O12      1.0000 0.27009  0.25674  0.53776  Biso   1.000  O 
  O13      1.0000 0.21138  0.75962  0.29099  Biso   1.000  O 
  O14      1.0000 0.21761  0.74360  0.79665  Biso   1.000  O 
  O15      1.0000 0.22031  0.79648  0.05081  Biso   1.000  O 
  O16      1.0000 0.21759  0.75209  0.54162  Biso   1.000  O 
  O17      1.0000 0.53473  0.34307  0.16194  Biso   1.000  O 
  O18      1.0000 0.52897  0.34186  0.66147  Biso   1.000  O 
  O19      1.0000 0.52746  0.15697  0.41005  Biso   1.000  O 
  O20      1.0000 0.52901  0.15652  0.91038  Biso   1.000  O 
  O21      1.0000 0.97645  0.82834  0.17154  Biso   1.000  O 
  O22      1.0000 0.96462  0.81777  0.67071  Biso   1.000  O 
  O23      1.0000 0.96027  0.65997  0.41622  Biso   1.000  O 
  O24      1.0000 0.96191  0.66090  0.92583  Biso   1.000  O 
  O25      1.0000 0.77148  0.24343  0.95890  Biso   1.000  O 
  O26      1.0000 0.76893  0.24262  0.45628  Biso   1.000  O 
  O27      1.0000 0.77656  0.24619  0.20671  Biso   1.000  O 
  O28      1.0000 0.77002  0.24827  0.70734  Biso   1.000  O 
  O29      1.0000 0.71986  0.74051  0.95870  Biso   1.000  O 
  O30      1.0000 0.71749  0.74246  0.45697  Biso   1.000  O 
  O31      1.0000 0.73082  0.74555  0.20643  Biso   1.000  O 
  O32      1.0000 0.71921  0.75227  0.70755  Biso   1.000  O 
