data_image0
_cell_length_a       10.1007
_cell_length_b       10.2871
_cell_length_c       5.0777
_cell_angle_alpha    90
_cell_angle_beta     90
_cell_angle_gamma    90

_symmetry_space_group_name_H-M    "P 1"
_symmetry_int_tables_number       1

loop_
  _symmetry_equiv_pos_as_xyz
  'x, y, z'

loop_
  _atom_site_label
  _atom_site_occupancy
  _atom_site_fract_x
  _atom_site_fract_y
  _atom_site_fract_z
  _atom_site_thermal_displace_type
  _atom_site_B_iso_or_equiv
  _atom_site_type_symbol
  Hf1      1.0000 0.15974  0.95817  0.23196  Biso   1.000  Hf
  Hf2      1.0000 0.16450  0.26483  0.78784  Biso   1.000  Hf
  Hf3      1.0000 0.40712  0.26820  0.31136  Biso   1.000  Hf
  Hf4      1.0000 0.42302  0.99924  0.74904  Biso   1.000  Hf
  O1       1.0000 0.99505  0.16583  0.86775  Biso   1.000  O 
  O2       1.0000 0.99623  0.09265  0.38609  Biso   1.000  O 
  O3       1.0000 0.04044  0.34582  0.48333  Biso   1.000  O 
  O4       1.0000 0.04935  0.41543  0.99283  Biso   1.000  O 
  O5       1.0000 0.29199  0.15480  0.54274  Biso   1.000  O 
  O6       1.0000 0.24975  0.09024  0.99475  Biso   1.000  O 
  O7       1.0000 0.25254  0.33101  0.08484  Biso   1.000  O 
  O8       1.0000 0.29503  0.41042  0.56034  Biso   1.000  O 
  Hf5      1.0000 0.15188  0.49566  0.25687  Biso   1.000  Hf
  Hf6      1.0000 0.16888  0.75298  0.74115  Biso   1.000  Hf
  Hf7      1.0000 0.41951  0.73991  0.24115  Biso   1.000  Hf
  Hf8      1.0000 0.44156  0.51752  0.73965  Biso   1.000  Hf
  O9       1.0000 0.06366  0.66162  0.08249  Biso   1.000  O 
  O10      1.0000 0.07770  0.59102  0.57971  Biso   1.000  O 
  O11      1.0000 0.03606  0.84441  0.48874  Biso   1.000  O 
  O12      1.0000 0.05446  0.90061  0.96506  Biso   1.000  O 
  O13      1.0000 0.32734  0.66416  0.56881  Biso   1.000  O 
  O14      1.0000 0.31313  0.57746  0.08032  Biso   1.000  O 
  O15      1.0000 0.28089  0.83247  0.00290  Biso   1.000  O 
  O16      1.0000 0.28689  0.90167  0.51509  Biso   1.000  O 
  Hf9      1.0000 0.64940  0.99692  0.22810  Biso   1.000  Hf
  Hf10     1.0000 0.64818  0.23988  0.77548  Biso   1.000  Hf
  Hf11     1.0000 0.89718  0.25513  0.21901  Biso   1.000  Hf
  Hf12     1.0000 0.88751  0.01742  0.70713  Biso   1.000  Hf
  O17      1.0000 0.47939  0.14159  0.02852  Biso   1.000  O 
  O18      1.0000 0.52845  0.10822  0.52939  Biso   1.000  O 
  O19      1.0000 0.54998  0.36781  0.51525  Biso   1.000  O 
  O20      1.0000 0.51346  0.39110  0.01657  Biso   1.000  O 
  O21      1.0000 0.77473  0.16716  0.50465  Biso   1.000  O 
  O22      1.0000 0.76508  0.10738  0.99363  Biso   1.000  O 
  O23      1.0000 0.79432  0.35996  0.94074  Biso   1.000  O 
  O24      1.0000 0.80490  0.41604  0.42491  Biso   1.000  O 
  Hf13     1.0000 0.66038  0.49494  0.20893  Biso   1.000  Hf
  Hf14     1.0000 0.68015  0.76643  0.71388  Biso   1.000  Hf
  Hf15     1.0000 0.90002  0.76121  0.21549  Biso   1.000  Hf
  Hf16     1.0000 0.91486  0.49480  0.71628  Biso   1.000  Hf
  O25      1.0000 0.57908  0.64722  0.96955  Biso   1.000  O 
  O26      1.0000 0.56348  0.61413  0.47072  Biso   1.000  O 
  O27      1.0000 0.53873  0.85979  0.49073  Biso   1.000  O 
  O28      1.0000 0.55841  0.89608  0.99125  Biso   1.000  O 
  O29      1.0000 0.82099  0.66080  0.52595  Biso   1.000  O 
  O30      1.0000 0.80098  0.60517  0.01883  Biso   1.000  O 
  O31      1.0000 0.80640  0.86098  0.96571  Biso   1.000  O 
  O32      1.0000 0.78968  0.90807  0.46188  Biso   1.000  O 
  Co1      1.0000 0.14723  0.20310  0.29178  Biso   1.000  Co
