data_image0
_cell_length_a       9.98792
_cell_length_b       10.1649
_cell_length_c       5.20327
_cell_angle_alpha    90
_cell_angle_beta     90
_cell_angle_gamma    90

_symmetry_space_group_name_H-M    "P 1"
_symmetry_int_tables_number       1

loop_
  _symmetry_equiv_pos_as_xyz
  'x, y, z'

loop_
  _atom_site_label
  _atom_site_occupancy
  _atom_site_fract_x
  _atom_site_fract_y
  _atom_site_fract_z
  _atom_site_thermal_displace_type
  _atom_site_B_iso_or_equiv
  _atom_site_type_symbol
  Co1      1.0000 0.11609  0.01199  0.38499  Biso   1.000  Co
  Hf1      1.0000 0.14360  0.52295  0.34634  Biso   1.000  Hf
  Hf2      1.0000 0.14260  0.22631  0.83436  Biso   1.000  Hf
  Hf3      1.0000 0.13979  0.73405  0.84635  Biso   1.000  Hf
  Hf4      1.0000 0.35931  0.26980  0.33365  Biso   1.000  Hf
  Hf5      1.0000 0.36190  0.77945  0.33693  Biso   1.000  Hf
  Hf6      1.0000 0.35969  0.48001  0.84339  Biso   1.000  Hf
  Hf7      1.0000 0.36151  0.98378  0.83749  Biso   1.000  Hf
  Hf8      1.0000 0.63585  0.02170  0.15386  Biso   1.000  Hf
  Hf9      1.0000 0.64361  0.52000  0.16182  Biso   1.000  Hf
  Hf10     1.0000 0.63664  0.23009  0.65872  Biso   1.000  Hf
  Hf11     1.0000 0.63799  0.72790  0.65691  Biso   1.000  Hf
  Hf12     1.0000 0.87094  0.26453  0.16899  Biso   1.000  Hf
  Hf13     1.0000 0.86748  0.76954  0.16118  Biso   1.000  Hf
  Hf14     1.0000 0.86429  0.47664  0.66751  Biso   1.000  Hf
  Hf15     1.0000 0.86201  0.97713  0.66177  Biso   1.000  Hf
  O1       1.0000 0.05031  0.14653  0.17548  Biso   1.000  O 
  O2       1.0000 0.03935  0.66656  0.17267  Biso   1.000  O 
  O3       1.0000 0.02945  0.08147  0.65662  Biso   1.000  O 
  O4       1.0000 0.03590  0.58344  0.67753  Biso   1.000  O 
  O5       1.0000 0.46879  0.41923  0.17225  Biso   1.000  O 
  O6       1.0000 0.47502  0.91908  0.16451  Biso   1.000  O 
  O7       1.0000 0.46534  0.33274  0.67012  Biso   1.000  O 
  O8       1.0000 0.46444  0.83336  0.66762  Biso   1.000  O 
  O9       1.0000 0.26124  0.11512  0.54540  Biso   1.000  O 
  O10      1.0000 0.27814  0.62839  0.58990  Biso   1.000  O 
  O11      1.0000 0.30600  0.14977  0.03389  Biso   1.000  O 
  O12      1.0000 0.28345  0.63194  0.08954  Biso   1.000  O 
  O13      1.0000 0.22497  0.37316  0.59131  Biso   1.000  O 
  O14      1.0000 0.21584  0.87925  0.58134  Biso   1.000  O 
  O15      1.0000 0.22279  0.38233  0.08887  Biso   1.000  O 
  O16      1.0000 0.22748  0.89008  0.09037  Biso   1.000  O 
  O17      1.0000 0.53641  0.17067  0.32413  Biso   1.000  O 
  O18      1.0000 0.53729  0.67020  0.32504  Biso   1.000  O 
  O19      1.0000 0.53313  0.07820  0.81512  Biso   1.000  O 
  O20      1.0000 0.53500  0.58116  0.82747  Biso   1.000  O 
  O21      1.0000 0.97349  0.41059  0.34409  Biso   1.000  O 
  O22      1.0000 0.97658  0.91637  0.33926  Biso   1.000  O 
  O23      1.0000 0.96722  0.32698  0.84581  Biso   1.000  O 
  O24      1.0000 0.96613  0.83412  0.83739  Biso   1.000  O 
  O25      1.0000 0.77501  0.12183  0.91437  Biso   1.000  O 
  O26      1.0000 0.77728  0.62267  0.91649  Biso   1.000  O 
  O27      1.0000 0.77713  0.12469  0.41138  Biso   1.000  O 
  O28      1.0000 0.78065  0.62433  0.41697  Biso   1.000  O 
  O29      1.0000 0.72521  0.37146  0.91992  Biso   1.000  O 
  O30      1.0000 0.72331  0.87153  0.91100  Biso   1.000  O 
  O31      1.0000 0.72910  0.37438  0.41589  Biso   1.000  O 
  O32      1.0000 0.73135  0.87574  0.41140  Biso   1.000  O 
