data_image0
_cell_length_a       10.0355
_cell_length_b       10.2869
_cell_length_c       5.23676
_cell_angle_alpha    90
_cell_angle_beta     90
_cell_angle_gamma    90

_symmetry_space_group_name_H-M    "P 1"
_symmetry_int_tables_number       1

loop_
  _symmetry_equiv_pos_as_xyz
  'x, y, z'

loop_
  _atom_site_label
  _atom_site_occupancy
  _atom_site_fract_x
  _atom_site_fract_y
  _atom_site_fract_z
  _atom_site_thermal_displace_type
  _atom_site_B_iso_or_equiv
  _atom_site_type_symbol
  Hf1      1.0000 0.13928  0.02089  0.34530  Biso   1.000  Hf
  Hf2      1.0000 0.13350  0.22812  0.84769  Biso   1.000  Hf
  Hf3      1.0000 0.35378  0.27176  0.35540  Biso   1.000  Hf
  Hf4      1.0000 0.35460  0.48077  0.84355  Biso   1.000  Hf
  Hf5      1.0000 0.64366  0.02358  0.15251  Biso   1.000  Hf
  Hf6      1.0000 0.63886  0.22354  0.66510  Biso   1.000  Hf
  Hf7      1.0000 0.85836  0.26643  0.15656  Biso   1.000  Hf
  Hf8      1.0000 0.85868  0.47890  0.65619  Biso   1.000  Hf
  O1       1.0000 0.03312  0.16409  0.17063  Biso   1.000  O 
  O2       1.0000 0.03358  0.08227  0.66873  Biso   1.000  O 
  O3       1.0000 0.45692  0.42852  0.18838  Biso   1.000  O 
  O4       1.0000 0.46327  0.33251  0.67913  Biso   1.000  O 
  O5       1.0000 0.27365  0.12494  0.59633  Biso   1.000  O 
  O6       1.0000 0.27608  0.12572  0.09374  Biso   1.000  O 
  O7       1.0000 0.21780  0.37455  0.59513  Biso   1.000  O 
  O8       1.0000 0.22002  0.37570  0.09220  Biso   1.000  O 
  O9       1.0000 0.52359  0.15694  0.34598  Biso   1.000  O 
  O10      1.0000 0.53221  0.07822  0.82752  Biso   1.000  O 
  O11      1.0000 0.96134  0.41530  0.33452  Biso   1.000  O 
  O12      1.0000 0.96088  0.33396  0.83349  Biso   1.000  O 
  O13      1.0000 0.78502  0.11741  0.90158  Biso   1.000  O 
  O14      1.0000 0.77798  0.12251  0.41569  Biso   1.000  O 
  O15      1.0000 0.71499  0.37457  0.91463  Biso   1.000  O 
  O16      1.0000 0.71539  0.37423  0.40710  Biso   1.000  O 
  Hf9      1.0000 0.13453  0.52014  0.34218  Biso   1.000  Hf
  Hf10     1.0000 0.13321  0.72872  0.84410  Biso   1.000  Hf
  Hf11     1.0000 0.35658  0.77325  0.34520  Biso   1.000  Hf
  Hf12     1.0000 0.35311  0.97834  0.84821  Biso   1.000  Hf
  Hf13     1.0000 0.63603  0.53220  0.15734  Biso   1.000  Hf
  Hf14     1.0000 0.63379  0.73225  0.65752  Biso   1.000  Hf
  Hf15     1.0000 0.85925  0.77120  0.15750  Biso   1.000  Hf
  Hf16     1.0000 0.85674  0.97603  0.65640  Biso   1.000  Hf
  O17      1.0000 0.03028  0.66414  0.16838  Biso   1.000  O 
  O18      1.0000 0.02806  0.58314  0.66866  Biso   1.000  O 
  O19      1.0000 0.46238  0.91656  0.17063  Biso   1.000  O 
  O20      1.0000 0.45985  0.83346  0.67253  Biso   1.000  O 
  O21      1.0000 0.27071  0.62356  0.59008  Biso   1.000  O 
  O22      1.0000 0.27341  0.62580  0.09008  Biso   1.000  O 
  O23      1.0000 0.21810  0.87384  0.59281  Biso   1.000  O 
  O24      1.0000 0.21889  0.87495  0.09253  Biso   1.000  O 
  O25      1.0000 0.52983  0.67194  0.33244  Biso   1.000  O 
  O26      1.0000 0.52754  0.58548  0.83110  Biso   1.000  O 
  O27      1.0000 0.96406  0.91421  0.33052  Biso   1.000  O 
  O28      1.0000 0.96144  0.83192  0.83261  Biso   1.000  O 
  O29      1.0000 0.77183  0.62560  0.90729  Biso   1.000  O 
  O30      1.0000 0.77317  0.62681  0.41084  Biso   1.000  O 
  O31      1.0000 0.71740  0.87347  0.91231  Biso   1.000  O 
  O32      1.0000 0.72039  0.87500  0.40990  Biso   1.000  O 
  Co1      1.0000 0.59423  0.28969  0.14165  Biso   1.000  Co
