data_image0
_cell_length_a       5.07226
_cell_length_b       10.3172
_cell_length_c       10.4727
_cell_angle_alpha    90
_cell_angle_beta     80
_cell_angle_gamma    90

_symmetry_space_group_name_H-M    "P 1"
_symmetry_int_tables_number       1

loop_
  _symmetry_equiv_pos_as_xyz
  'x, y, z'

loop_
  _atom_site_label
  _atom_site_occupancy
  _atom_site_fract_x
  _atom_site_fract_y
  _atom_site_fract_z
  _atom_site_thermal_displace_type
  _atom_site_B_iso_or_equiv
  _atom_site_type_symbol
  Hf1      1.0000 0.27642  0.02179  0.14733  Biso   1.000  Hf
  Hf2      1.0000 0.29285  0.23086  0.39886  Biso   1.000  Hf
  Hf3      1.0000 0.70977  0.27559  0.10307  Biso   1.000  Hf
  Hf4      1.0000 0.70828  0.47284  0.34941  Biso   1.000  Hf
  O1       1.0000 0.06371  0.17058  0.08385  Biso   1.000  O 
  O2       1.0000 0.08752  0.06954  0.33770  Biso   1.000  O 
  O3       1.0000 0.91202  0.42696  0.16306  Biso   1.000  O 
  O4       1.0000 0.94644  0.34176  0.42714  Biso   1.000  O 
  O5       1.0000 0.56283  0.12806  0.24066  Biso   1.000  O 
  O6       1.0000 0.57095  0.11786  0.48820  Biso   1.000  O 
  O7       1.0000 0.43604  0.38229  0.00718  Biso   1.000  O 
  O8       1.0000 0.41414  0.37646  0.25393  Biso   1.000  O 
  Hf5      1.0000 0.27580  0.01806  0.64674  Biso   1.000  Hf
  Hf6      1.0000 0.27305  0.22527  0.89720  Biso   1.000  Hf
  Hf7      1.0000 0.72462  0.27046  0.60849  Biso   1.000  Hf
  Hf8      1.0000 0.71651  0.47543  0.85567  Biso   1.000  Hf
  O9       1.0000 0.07775  0.16763  0.58157  Biso   1.000  O 
  O10      1.0000 0.07062  0.07671  0.83072  Biso   1.000  O 
  O11      1.0000 0.92728  0.41574  0.67378  Biso   1.000  O 
  O12      1.0000 0.92431  0.32660  0.91928  Biso   1.000  O 
  O13      1.0000 0.55226  0.12586  0.74106  Biso   1.000  O 
  O14      1.0000 0.54810  0.11760  0.99106  Biso   1.000  O 
  O15      1.0000 0.44815  0.37613  0.51418  Biso   1.000  O 
  O16      1.0000 0.44493  0.36725  0.76052  Biso   1.000  O 
  Hf9      1.0000 0.26506  0.52401  0.14482  Biso   1.000  Hf
  Hf10     1.0000 0.26698  0.72203  0.39638  Biso   1.000  Hf
  Hf11     1.0000 0.70794  0.77119  0.10357  Biso   1.000  Hf
  Hf12     1.0000 0.71140  0.96531  0.35549  Biso   1.000  Hf
  O17      1.0000 0.05893  0.67397  0.07967  Biso   1.000  O 
  O18      1.0000 0.05523  0.58167  0.32782  Biso   1.000  O 
  O19      1.0000 0.91730  0.91877  0.17057  Biso   1.000  O 
  O20      1.0000 0.91843  0.82402  0.42232  Biso   1.000  O 
  O21      1.0000 0.54192  0.62887  0.24061  Biso   1.000  O 
  O22      1.0000 0.54114  0.61662  0.49077  Biso   1.000  O 
  O23      1.0000 0.43305  0.88172  0.01061  Biso   1.000  O 
  O24      1.0000 0.43335  0.86745  0.25957  Biso   1.000  O 
  Hf13     1.0000 0.27381  0.51911  0.64732  Biso   1.000  Hf
  Hf14     1.0000 0.26645  0.72606  0.89662  Biso   1.000  Hf
  Hf15     1.0000 0.71272  0.76665  0.60534  Biso   1.000  Hf
  Hf16     1.0000 0.70890  0.97526  0.85477  Biso   1.000  Hf
  O25      1.0000 0.06096  0.66410  0.58160  Biso   1.000  O 
  O26      1.0000 0.06518  0.57790  0.83160  Biso   1.000  O 
  O27      1.0000 0.91775  0.91560  0.67038  Biso   1.000  O 
  O28      1.0000 0.91714  0.82805  0.91927  Biso   1.000  O 
  O29      1.0000 0.54647  0.62540  0.74158  Biso   1.000  O 
  O30      1.0000 0.54438  0.61878  0.99033  Biso   1.000  O 
  O31      1.0000 0.43583  0.87514  0.51113  Biso   1.000  O 
  O32      1.0000 0.43637  0.86776  0.76001  Biso   1.000  O 
  Co1      1.0000 0.81383  0.20812  0.33448  Biso   1.000  Co
