data_image0
_cell_length_a       10.0282
_cell_length_b       10.2585
_cell_length_c       10.4618
_cell_angle_alpha    90
_cell_angle_beta     90
_cell_angle_gamma    90

_symmetry_space_group_name_H-M    "P 1"
_symmetry_int_tables_number       1

loop_
  _symmetry_equiv_pos_as_xyz
  'x, y, z'

loop_
  _atom_site_label
  _atom_site_occupancy
  _atom_site_fract_x
  _atom_site_fract_y
  _atom_site_fract_z
  _atom_site_thermal_displace_type
  _atom_site_B_iso_or_equiv
  _atom_site_type_symbol
  Hf1      1.0000 0.13816  0.02126  0.17213  Biso   1.000  Hf
  Hf2      1.0000 0.13560  0.22898  0.42349  Biso   1.000  Hf
  Hf3      1.0000 0.35346  0.27211  0.17581  Biso   1.000  Hf
  Hf4      1.0000 0.35919  0.47924  0.42191  Biso   1.000  Hf
  Hf5      1.0000 0.64329  0.02440  0.07463  Biso   1.000  Hf
  Hf6      1.0000 0.63720  0.22670  0.33227  Biso   1.000  Hf
  Hf7      1.0000 0.85888  0.26700  0.07718  Biso   1.000  Hf
  Hf8      1.0000 0.85925  0.47850  0.32788  Biso   1.000  Hf
  O1       1.0000 0.03335  0.16427  0.08398  Biso   1.000  O 
  O2       1.0000 0.03218  0.08359  0.33547  Biso   1.000  O 
  O3       1.0000 0.45731  0.42857  0.09359  Biso   1.000  O 
  O4       1.0000 0.46380  0.33231  0.33621  Biso   1.000  O 
  O5       1.0000 0.27328  0.12484  0.29718  Biso   1.000  O 
  O6       1.0000 0.27603  0.12616  0.04542  Biso   1.000  O 
  O7       1.0000 0.21887  0.37479  0.29701  Biso   1.000  O 
  O8       1.0000 0.22000  0.37636  0.04483  Biso   1.000  O 
  O9       1.0000 0.52320  0.15659  0.17233  Biso   1.000  O 
  O10      1.0000 0.53144  0.08398  0.41839  Biso   1.000  O 
  O11      1.0000 0.96260  0.41511  0.16659  Biso   1.000  O 
  O12      1.0000 0.96375  0.33421  0.41707  Biso   1.000  O 
  O13      1.0000 0.77449  0.12382  0.45654  Biso   1.000  O 
  O14      1.0000 0.77700  0.12491  0.20979  Biso   1.000  O 
  O15      1.0000 0.72062  0.37344  0.45523  Biso   1.000  O 
  O16      1.0000 0.71605  0.37618  0.20271  Biso   1.000  O 
  Hf9      1.0000 0.13805  0.02131  0.67189  Biso   1.000  Hf
  Hf10     1.0000 0.13469  0.22880  0.92172  Biso   1.000  Hf
  Hf11     1.0000 0.35945  0.27137  0.67325  Biso   1.000  Hf
  Hf12     1.0000 0.35481  0.48108  0.92141  Biso   1.000  Hf
  Hf13     1.0000 0.63738  0.02098  0.58001  Biso   1.000  Hf
  Hf14     1.0000 0.63815  0.22670  0.82809  Biso   1.000  Hf
  Hf15     1.0000 0.85893  0.27124  0.57966  Biso   1.000  Hf
  Hf16     1.0000 0.85840  0.47990  0.82897  Biso   1.000  Hf
  O17      1.0000 0.03128  0.16671  0.58561  Biso   1.000  O 
  O18      1.0000 0.03302  0.08306  0.83320  Biso   1.000  O 
  O19      1.0000 0.46409  0.41689  0.58541  Biso   1.000  O 
  O20      1.0000 0.46397  0.33419  0.83813  Biso   1.000  O 
  O21      1.0000 0.27498  0.12460  0.79581  Biso   1.000  O 
  O22      1.0000 0.27465  0.12643  0.54626  Biso   1.000  O 
  O23      1.0000 0.22041  0.37430  0.79555  Biso   1.000  O 
  O24      1.0000 0.22154  0.37612  0.54618  Biso   1.000  O 
  O25      1.0000 0.53117  0.16665  0.66620  Biso   1.000  O 
  O26      1.0000 0.53231  0.07913  0.91120  Biso   1.000  O 
  O27      1.0000 0.96350  0.41698  0.66648  Biso   1.000  O 
  O28      1.0000 0.96170  0.33425  0.91543  Biso   1.000  O 
  O29      1.0000 0.78504  0.11854  0.94911  Biso   1.000  O 
  O30      1.0000 0.77534  0.12488  0.70352  Biso   1.000  O 
  O31      1.0000 0.71558  0.37531  0.95732  Biso   1.000  O 
  O32      1.0000 0.72131  0.37617  0.70587  Biso   1.000  O 
  Hf17     1.0000 0.13545  0.52100  0.17140  Biso   1.000  Hf
  Hf18     1.0000 0.13579  0.72856  0.42146  Biso   1.000  Hf
  Hf19     1.0000 0.35830  0.77382  0.17215  Biso   1.000  Hf
  Hf20     1.0000 0.35641  0.97915  0.42303  Biso   1.000  Hf
  Hf21     1.0000 0.63695  0.53251  0.07899  Biso   1.000  Hf
  Hf22     1.0000 0.63596  0.73151  0.32989  Biso   1.000  Hf
  Hf23     1.0000 0.85996  0.77264  0.07923  Biso   1.000  Hf
  Hf24     1.0000 0.85757  0.97854  0.32971  Biso   1.000  Hf
  O33      1.0000 0.03120  0.66560  0.08446  Biso   1.000  O 
  O34      1.0000 0.02993  0.58305  0.33465  Biso   1.000  O 
  O35      1.0000 0.46480  0.91698  0.08396  Biso   1.000  O 
  O36      1.0000 0.46299  0.83505  0.33612  Biso   1.000  O 
  O37      1.0000 0.27302  0.62420  0.29481  Biso   1.000  O 
  O38      1.0000 0.27449  0.62678  0.04493  Biso   1.000  O 
  O39      1.0000 0.22037  0.87453  0.29589  Biso   1.000  O 
  O40      1.0000 0.22053  0.87615  0.04582  Biso   1.000  O 
  O41      1.0000 0.53148  0.67243  0.16687  Biso   1.000  O 
  O42      1.0000 0.53098  0.58402  0.41531  Biso   1.000  O 
  O43      1.0000 0.96436  0.91604  0.16691  Biso   1.000  O 
  O44      1.0000 0.96316  0.83199  0.41525  Biso   1.000  O 
  O45      1.0000 0.77355  0.62370  0.45492  Biso   1.000  O 
  O46      1.0000 0.77470  0.62788  0.20581  Biso   1.000  O 
  O47      1.0000 0.72012  0.87446  0.45622  Biso   1.000  O 
  O48      1.0000 0.72198  0.87669  0.20560  Biso   1.000  O 
  Hf25     1.0000 0.13582  0.52089  0.67120  Biso   1.000  Hf
  Hf26     1.0000 0.13407  0.72970  0.92192  Biso   1.000  Hf
  Hf27     1.0000 0.35749  0.77115  0.67177  Biso   1.000  Hf
  Hf28     1.0000 0.35585  0.97889  0.92243  Biso   1.000  Hf
  Hf29     1.0000 0.63612  0.52131  0.57858  Biso   1.000  Hf
  Hf30     1.0000 0.63454  0.73030  0.82752  Biso   1.000  Hf
  Hf31     1.0000 0.85856  0.77030  0.57819  Biso   1.000  Hf
  Hf32     1.0000 0.85827  0.97701  0.82708  Biso   1.000  Hf
  O49      1.0000 0.03057  0.66549  0.58405  Biso   1.000  O 
  O50      1.0000 0.02949  0.58455  0.83390  Biso   1.000  O 
  O51      1.0000 0.46207  0.91646  0.58547  Biso   1.000  O 
  O52      1.0000 0.46146  0.83306  0.83435  Biso   1.000  O 
  O53      1.0000 0.27231  0.62388  0.79512  Biso   1.000  O 
  O54      1.0000 0.27352  0.62587  0.54495  Biso   1.000  O 
  O55      1.0000 0.21913  0.87379  0.79531  Biso   1.000  O 
  O56      1.0000 0.21973  0.87565  0.54524  Biso   1.000  O 
  O57      1.0000 0.52988  0.66645  0.66513  Biso   1.000  O 
  O58      1.0000 0.52814  0.58572  0.91595  Biso   1.000  O 
  O59      1.0000 0.96408  0.91527  0.66394  Biso   1.000  O 
  O60      1.0000 0.96269  0.83432  0.91673  Biso   1.000  O 
  O61      1.0000 0.77285  0.62622  0.95404  Biso   1.000  O 
  O62      1.0000 0.77305  0.62605  0.70488  Biso   1.000  O 
  O63      1.0000 0.71862  0.87357  0.95516  Biso   1.000  O 
  O64      1.0000 0.71980  0.87531  0.70455  Biso   1.000  O 
  Co1      1.0000 0.59455  0.28906  0.07027  Biso   1.000  Co
