data_image0
_cell_length_a       9.99465
_cell_length_b       5.20941
_cell_length_c       10.0419
_cell_angle_alpha    90
_cell_angle_beta     90
_cell_angle_gamma    90

_symmetry_space_group_name_H-M    "P 1"
_symmetry_int_tables_number       1

loop_
  _symmetry_equiv_pos_as_xyz
  'x, y, z'

loop_
  _atom_site_label
  _atom_site_occupancy
  _atom_site_fract_x
  _atom_site_fract_y
  _atom_site_fract_z
  _atom_site_thermal_displace_type
  _atom_site_B_iso_or_equiv
  _atom_site_type_symbol
  Hf1      1.0000 0.13393  0.07633  0.12019  Biso   1.000  Hf
  Hf2      1.0000 0.13478  0.46906  0.38401  Biso   1.000  Hf
  Hf3      1.0000 0.36361  0.53284  0.12369  Biso   1.000  Hf
  Hf4      1.0000 0.36454  0.96960  0.37514  Biso   1.000  Hf
  O1       1.0000 0.01777  0.35800  0.21517  Biso   1.000  O 
  O2       1.0000 0.03426  0.13570  0.45025  Biso   1.000  O 
  O3       1.0000 0.46031  0.86804  0.19444  Biso   1.000  O 
  O4       1.0000 0.46203  0.63378  0.44376  Biso   1.000  O 
  O5       1.0000 0.27030  0.24585  0.25307  Biso   1.000  O 
  O6       1.0000 0.27032  0.26577  0.50140  Biso   1.000  O 
  O7       1.0000 0.22972  0.76867  0.50076  Biso   1.000  O 
  O8       1.0000 0.22460  0.73999  0.25035  Biso   1.000  O 
  Hf5      1.0000 0.13249  0.03316  0.62760  Biso   1.000  Hf
  Hf6      1.0000 0.13769  0.46556  0.87225  Biso   1.000  Hf
  Hf7      1.0000 0.36724  0.53509  0.62514  Biso   1.000  Hf
  Hf8      1.0000 0.36779  0.96723  0.87325  Biso   1.000  Hf
  O9       1.0000 0.03511  0.36922  0.69320  Biso   1.000  O 
  O10      1.0000 0.03501  0.13781  0.93970  Biso   1.000  O 
  O11      1.0000 0.46588  0.86892  0.69256  Biso   1.000  O 
  O12      1.0000 0.46408  0.63613  0.94397  Biso   1.000  O 
  O13      1.0000 0.27043  0.23483  0.74762  Biso   1.000  O 
  O14      1.0000 0.28276  0.25939  0.99262  Biso   1.000  O 
  O15      1.0000 0.22809  0.77595  0.99923  Biso   1.000  O 
  O16      1.0000 0.23199  0.73623  0.74872  Biso   1.000  O 
  Hf9      1.0000 0.62979  0.03142  0.12548  Biso   1.000  Hf
  Hf10     1.0000 0.63065  0.46607  0.37650  Biso   1.000  Hf
  Hf11     1.0000 0.85046  0.53142  0.12748  Biso   1.000  Hf
  Hf12     1.0000 0.86675  0.97058  0.37490  Biso   1.000  Hf
  O17      1.0000 0.53377  0.36504  0.19420  Biso   1.000  O 
  O18      1.0000 0.53360  0.13296  0.44557  Biso   1.000  O 
  O19      1.0000 0.96019  0.87295  0.19289  Biso   1.000  O 
  O20      1.0000 0.96512  0.64090  0.44825  Biso   1.000  O 
  O21      1.0000 0.76318  0.23227  0.25092  Biso   1.000  O 
  O22      1.0000 0.76915  0.26957  0.49920  Biso   1.000  O 
  O23      1.0000 0.72981  0.76878  0.49940  Biso   1.000  O 
  O24      1.0000 0.72370  0.73780  0.25159  Biso   1.000  O 
  Hf13     1.0000 0.63548  0.03452  0.62502  Biso   1.000  Hf
  Hf14     1.0000 0.63178  0.46891  0.87378  Biso   1.000  Hf
  Hf15     1.0000 0.86577  0.53562  0.62578  Biso   1.000  Hf
  Hf16     1.0000 0.86369  0.96842  0.87670  Biso   1.000  Hf
  O25      1.0000 0.53652  0.37002  0.69315  Biso   1.000  O 
  O26      1.0000 0.53820  0.13304  0.94051  Biso   1.000  O 
  O27      1.0000 0.96461  0.86616  0.69971  Biso   1.000  O 
  O28      1.0000 0.96415  0.63619  0.95041  Biso   1.000  O 
  O29      1.0000 0.77089  0.23635  0.74959  Biso   1.000  O 
  O30      1.0000 0.76765  0.26769  0.99965  Biso   1.000  O 
  O31      1.0000 0.72427  0.76838  0.99977  Biso   1.000  O 
  O32      1.0000 0.72991  0.73691  0.74995  Biso   1.000  O 
  Co1      1.0000 0.09576  0.61159  0.10780  Biso   1.000  Co
