data_image0
_cell_length_a       10.0322
_cell_length_b       10.2644
_cell_length_c       10.0322
_cell_angle_alpha    90
_cell_angle_beta     90
_cell_angle_gamma    90

_symmetry_space_group_name_H-M    "P 1"
_symmetry_int_tables_number       1

loop_
  _symmetry_equiv_pos_as_xyz
  'x, y, z'

loop_
  _atom_site_label
  _atom_site_occupancy
  _atom_site_fract_x
  _atom_site_fract_y
  _atom_site_fract_z
  _atom_site_thermal_displace_type
  _atom_site_B_iso_or_equiv
  _atom_site_type_symbol
  Hf1      1.0000 0.12486  0.96551  0.12486  Biso   1.000  Hf
  Hf2      1.0000 0.12304  0.25380  0.37913  Biso   1.000  Hf
  Hf3      1.0000 0.37902  0.25381  0.12320  Biso   1.000  Hf
  Hf4      1.0000 0.37723  0.00550  0.37742  Biso   1.000  Hf
  O1       1.0000 0.99028  0.15775  0.99073  Biso   1.000  O 
  O2       1.0000 0.00277  0.09486  0.24698  Biso   1.000  O 
  O3       1.0000 0.98696  0.35237  0.26277  Biso   1.000  O 
  O4       1.0000 0.00316  0.40269  0.00306  Biso   1.000  O 
  O5       1.0000 0.25908  0.15784  0.25919  Biso   1.000  O 
  O6       1.0000 0.24695  0.09490  0.00290  Biso   1.000  O 
  O7       1.0000 0.26245  0.35242  0.98696  Biso   1.000  O 
  O8       1.0000 0.24667  0.40274  0.24668  Biso   1.000  O 
  Hf5      1.0000 0.12466  0.99837  0.62490  Biso   1.000  Hf
  Hf6      1.0000 0.12624  0.25382  0.87080  Biso   1.000  Hf
  Hf7      1.0000 0.37380  0.25173  0.62486  Biso   1.000  Hf
  Hf8      1.0000 0.37421  0.00336  0.87516  Biso   1.000  Hf
  O9       1.0000 0.99793  0.14854  0.49926  Biso   1.000  O 
  O10      1.0000 0.99899  0.10281  0.74671  Biso   1.000  O 
  O11      1.0000 0.99658  0.35508  0.75273  Biso   1.000  O 
  O12      1.0000 0.99992  0.39934  0.50497  Biso   1.000  O 
  O13      1.0000 0.25133  0.14855  0.75060  Biso   1.000  O 
  O14      1.0000 0.25024  0.10282  0.50316  Biso   1.000  O 
  O15      1.0000 0.25274  0.35511  0.49706  Biso   1.000  O 
  O16      1.0000 0.24942  0.39935  0.74479  Biso   1.000  O 
  Hf9      1.0000 0.12488  0.50619  0.12489  Biso   1.000  Hf
  Hf10     1.0000 0.12661  0.74824  0.37993  Biso   1.000  Hf
  Hf11     1.0000 0.37993  0.74824  0.12671  Biso   1.000  Hf
  Hf12     1.0000 0.37367  0.50004  0.37378  Biso   1.000  Hf
  O17      1.0000 0.00073  0.65041  0.00068  Biso   1.000  O 
  O18      1.0000 0.99862  0.59930  0.25105  Biso   1.000  O 
  O19      1.0000 0.00312  0.84305  0.24657  Biso   1.000  O 
  O20      1.0000 0.99237  0.89521  0.99276  Biso   1.000  O 
  O21      1.0000 0.24901  0.65046  0.24906  Biso   1.000  O 
  O22      1.0000 0.25066  0.59935  0.99868  Biso   1.000  O 
  O23      1.0000 0.24663  0.84307  0.00318  Biso   1.000  O 
  O24      1.0000 0.25692  0.89528  0.25699  Biso   1.000  O 
  Hf13     1.0000 0.12468  0.50265  0.62488  Biso   1.000  Hf
  Hf14     1.0000 0.12273  0.74822  0.86984  Biso   1.000  Hf
  Hf15     1.0000 0.37647  0.75125  0.62567  Biso   1.000  Hf
  Hf16     1.0000 0.37524  0.49919  0.87420  Biso   1.000  Hf
  O25      1.0000 0.99724  0.64831  0.50091  Biso   1.000  O 
  O26      1.0000 0.00254  0.60325  0.75205  Biso   1.000  O 
  O27      1.0000 0.00060  0.85246  0.74429  Biso   1.000  O 
  O28      1.0000 0.00157  0.89891  0.49517  Biso   1.000  O 
  O29      1.0000 0.25210  0.64832  0.74883  Biso   1.000  O 
  O30      1.0000 0.24678  0.60327  0.49770  Biso   1.000  O 
  O31      1.0000 0.24877  0.85248  0.50545  Biso   1.000  O 
  O32      1.0000 0.24780  0.89892  0.75460  Biso   1.000  O 
  Hf17     1.0000 0.62489  0.99835  0.12488  Biso   1.000  Hf
  Hf18     1.0000 0.62467  0.25173  0.37408  Biso   1.000  Hf
  Hf19     1.0000 0.87069  0.25379  0.12662  Biso   1.000  Hf
  Hf20     1.0000 0.87496  0.00334  0.37463  Biso   1.000  Hf
  O33      1.0000 0.49881  0.14855  0.99815  Biso   1.000  O 
  O34      1.0000 0.50304  0.10281  0.25048  Biso   1.000  O 
  O35      1.0000 0.49701  0.35510  0.25290  Biso   1.000  O 
  O36      1.0000 0.50506  0.39934  0.00007  Biso   1.000  O 
  O37      1.0000 0.75048  0.14853  0.25166  Biso   1.000  O 
  O38      1.0000 0.74624  0.10282  0.99934  Biso   1.000  O 
  O39      1.0000 0.75235  0.35509  0.99686  Biso   1.000  O 
  O40      1.0000 0.74476  0.39933  0.24968  Biso   1.000  O 
  Hf21     1.0000 0.62460  0.00260  0.62490  Biso   1.000  Hf
  Hf22     1.0000 0.62459  0.25175  0.87575  Biso   1.000  Hf
  Hf23     1.0000 0.87546  0.25173  0.62501  Biso   1.000  Hf
  Hf24     1.0000 0.87195  0.00549  0.87235  Biso   1.000  Hf
  O41      1.0000 0.49965  0.15075  0.49988  Biso   1.000  O 
  O42      1.0000 0.49986  0.10284  0.74961  Biso   1.000  O 
  O43      1.0000 0.49841  0.35223  0.75107  Biso   1.000  O 
  O44      1.0000 0.50044  0.40061  0.50059  Biso   1.000  O 
  O45      1.0000 0.74959  0.15074  0.74993  Biso   1.000  O 
  O46      1.0000 0.74938  0.10283  0.50020  Biso   1.000  O 
  O47      1.0000 0.75092  0.35222  0.49869  Biso   1.000  O 
  O48      1.0000 0.74890  0.40060  0.74916  Biso   1.000  O 
  Hf25     1.0000 0.62487  0.50264  0.12491  Biso   1.000  Hf
  Hf26     1.0000 0.62556  0.75125  0.37668  Biso   1.000  Hf
  Hf27     1.0000 0.86984  0.74820  0.12306  Biso   1.000  Hf
  Hf28     1.0000 0.87409  0.49916  0.37557  Biso   1.000  Hf
  O49      1.0000 0.50052  0.64833  0.99740  Biso   1.000  O 
  O50      1.0000 0.49765  0.60326  0.24694  Biso   1.000  O 
  O51      1.0000 0.50539  0.85247  0.24894  Biso   1.000  O 
  O52      1.0000 0.49522  0.89891  0.00173  Biso   1.000  O 
  O53      1.0000 0.74877  0.64830  0.25237  Biso   1.000  O 
  O54      1.0000 0.75210  0.60323  0.00282  Biso   1.000  O 
  O55      1.0000 0.74434  0.85245  0.00088  Biso   1.000  O 
  O56      1.0000 0.75453  0.89890  0.24809  Biso   1.000  O 
  Hf29     1.0000 0.62466  0.50023  0.62488  Biso   1.000  Hf
  Hf30     1.0000 0.62378  0.75123  0.87310  Biso   1.000  Hf
  Hf31     1.0000 0.87289  0.75122  0.62411  Biso   1.000  Hf
  Hf32     1.0000 0.87566  0.50003  0.87599  Biso   1.000  Hf
  O57      1.0000 0.49631  0.65043  0.49647  Biso   1.000  O 
  O58      1.0000 0.50181  0.60355  0.74769  Biso   1.000  O 
  O59      1.0000 0.49931  0.85385  0.75021  Biso   1.000  O 
  O60      1.0000 0.50019  0.90041  0.50035  Biso   1.000  O 
  O61      1.0000 0.75303  0.65043  0.75331  Biso   1.000  O 
  O62      1.0000 0.74753  0.60353  0.50208  Biso   1.000  O 
  O63      1.0000 0.75003  0.85383  0.49960  Biso   1.000  O 
  O64      1.0000 0.74918  0.90040  0.74945  Biso   1.000  O 
  Co1      1.0000 0.12489  0.18885  0.12499  Biso   1.000  Co
