data_image0
_cell_length_a       5.0087
_cell_length_b       10.1917
_cell_length_c       10.0181
_cell_angle_alpha    90
_cell_angle_beta     90
_cell_angle_gamma    90

_symmetry_space_group_name_H-M    "P 1"
_symmetry_int_tables_number       1

loop_
  _symmetry_equiv_pos_as_xyz
  'x, y, z'

loop_
  _atom_site_label
  _atom_site_occupancy
  _atom_site_fract_x
  _atom_site_fract_y
  _atom_site_fract_z
  _atom_site_thermal_displace_type
  _atom_site_B_iso_or_equiv
  _atom_site_type_symbol
  Co1      1.0000 0.30952  0.96213  0.11240  Biso   1.000  Co
  Hf1      1.0000 0.31431  0.01328  0.60185  Biso   1.000  Hf
  Hf2      1.0000 0.30355  0.49789  0.12380  Biso   1.000  Hf
  Hf3      1.0000 0.33294  0.49901  0.63223  Biso   1.000  Hf
  Hf4      1.0000 0.35081  0.26842  0.37787  Biso   1.000  Hf
  Hf5      1.0000 0.35447  0.25827  0.88536  Biso   1.000  Hf
  Hf6      1.0000 0.32562  0.74779  0.38824  Biso   1.000  Hf
  Hf7      1.0000 0.36144  0.76287  0.86899  Biso   1.000  Hf
  Hf8      1.0000 0.81401  0.25893  0.12758  Biso   1.000  Hf
  Hf9      1.0000 0.83708  0.24991  0.62204  Biso   1.000  Hf
  Hf10     1.0000 0.80186  0.76404  0.11927  Biso   1.000  Hf
  Hf11     1.0000 0.82393  0.76945  0.62317  Biso   1.000  Hf
  Hf12     1.0000 0.81105  0.00949  0.35206  Biso   1.000  Hf
  Hf13     1.0000 0.80296  0.01270  0.86984  Biso   1.000  Hf
  Hf14     1.0000 0.82710  0.51519  0.38665  Biso   1.000  Hf
  Hf15     1.0000 0.85759  0.49770  0.87211  Biso   1.000  Hf
  O1       1.0000 0.00690  0.17360  0.95412  Biso   1.000  O 
  O2       1.0000 0.07285  0.15109  0.46796  Biso   1.000  O 
  O3       1.0000 0.11489  0.66196  0.03817  Biso   1.000  O 
  O4       1.0000 0.08626  0.65010  0.52671  Biso   1.000  O 
  O5       1.0000 0.06095  0.08702  0.20264  Biso   1.000  O 
  O6       1.0000 0.02941  0.09307  0.71493  Biso   1.000  O 
  O7       1.0000 0.15492  0.58837  0.28883  Biso   1.000  O 
  O8       1.0000 0.16003  0.59749  0.78474  Biso   1.000  O 
  O9       1.0000 0.09806  0.34535  0.24193  Biso   1.000  O 
  O10      1.0000 0.09491  0.35037  0.74869  Biso   1.000  O 
  O11      1.0000 0.10917  0.85073  0.24390  Biso   1.000  O 
  O12      1.0000 0.05919  0.84715  0.76845  Biso   1.000  O 
  O13      1.0000 0.03173  0.40302  0.00182  Biso   1.000  O 
  O14      1.0000 0.08652  0.39966  0.50414  Biso   1.000  O 
  O15      1.0000 0.03449  0.91142  0.00207  Biso   1.000  O 
  O16      1.0000 0.10133  0.89791  0.49914  Biso   1.000  O 
  O17      1.0000 0.60228  0.16644  0.26418  Biso   1.000  O 
  O18      1.0000 0.55772  0.15283  0.74781  Biso   1.000  O 
  O19      1.0000 0.65592  0.67858  0.28395  Biso   1.000  O 
  O20      1.0000 0.64888  0.65372  0.76900  Biso   1.000  O 
  O21      1.0000 0.50695  0.09527  0.99791  Biso   1.000  O 
  O22      1.0000 0.58203  0.11882  0.50007  Biso   1.000  O 
  O23      1.0000 0.61277  0.59500  0.03008  Biso   1.000  O 
  O24      1.0000 0.58049  0.61751  0.51841  Biso   1.000  O 
  O25      1.0000 0.51623  0.34578  0.00653  Biso   1.000  O 
  O26      1.0000 0.58925  0.37031  0.50299  Biso   1.000  O 
  O27      1.0000 0.63931  0.85937  0.99180  Biso   1.000  O 
  O28      1.0000 0.60474  0.87025  0.48332  Biso   1.000  O 
  O29      1.0000 0.59769  0.41661  0.25122  Biso   1.000  O 
  O30      1.0000 0.59722  0.39819  0.75346  Biso   1.000  O 
  O31      1.0000 0.60163  0.92711  0.22053  Biso   1.000  O 
  O32      1.0000 0.57273  0.90342  0.74001  Biso   1.000  O 
