data_image0
_cell_length_a       10.0553
_cell_length_b       5.15385
_cell_length_c       10.0552
_cell_angle_alpha    90
_cell_angle_beta     90
_cell_angle_gamma    90

_symmetry_space_group_name_H-M    "P 1"
_symmetry_int_tables_number       1

loop_
  _symmetry_equiv_pos_as_xyz
  'x, y, z'

loop_
  _atom_site_label
  _atom_site_occupancy
  _atom_site_fract_x
  _atom_site_fract_y
  _atom_site_fract_z
  _atom_site_thermal_displace_type
  _atom_site_B_iso_or_equiv
  _atom_site_type_symbol
  Hf1      1.0000 0.12619  0.90621  0.12483  Biso   1.000  Hf
  Hf2      1.0000 0.13142  0.50608  0.38276  Biso   1.000  Hf
  Hf3      1.0000 0.38413  0.50608  0.12738  Biso   1.000  Hf
  Hf4      1.0000 0.38306  0.01173  0.37904  Biso   1.000  Hf
  O1       1.0000 0.00212  0.31548  0.99161  Biso   1.000  O 
  O2       1.0000 0.00816  0.18072  0.24406  Biso   1.000  O 
  O3       1.0000 0.99016  0.69510  0.26233  Biso   1.000  O 
  O4       1.0000 0.00212  0.79849  0.99157  Biso   1.000  O 
  O5       1.0000 0.26075  0.31540  0.25802  Biso   1.000  O 
  O6       1.0000 0.24411  0.18072  0.00557  Biso   1.000  O 
  O7       1.0000 0.27278  0.69519  0.98731  Biso   1.000  O 
  O8       1.0000 0.26082  0.79843  0.25804  Biso   1.000  O 
  Hf5      1.0000 0.13144  0.00165  0.62483  Biso   1.000  Hf
  Hf6      1.0000 0.13151  0.50607  0.86691  Biso   1.000  Hf
  Hf7      1.0000 0.38203  0.50718  0.62767  Biso   1.000  Hf
  Hf8      1.0000 0.38180  0.00478  0.87710  Biso   1.000  Hf
  O9       1.0000 0.00178  0.29904  0.49734  Biso   1.000  O 
  O10      1.0000 0.00887  0.21125  0.74758  Biso   1.000  O 
  O11      1.0000 0.00541  0.71161  0.74612  Biso   1.000  O 
  O12      1.0000 0.00760  0.80286  0.50076  Biso   1.000  O 
  O13      1.0000 0.26111  0.29903  0.75227  Biso   1.000  O 
  O14      1.0000 0.25402  0.21125  0.50206  Biso   1.000  O 
  O15      1.0000 0.25755  0.71162  0.50349  Biso   1.000  O 
  O16      1.0000 0.25535  0.80286  0.74886  Biso   1.000  O 
  Hf9      1.0000 0.62616  0.00162  0.12485  Biso   1.000  Hf
  Hf10     1.0000 0.63167  0.50716  0.37540  Biso   1.000  Hf
  Hf11     1.0000 0.86825  0.50603  0.12235  Biso   1.000  Hf
  Hf12     1.0000 0.88108  0.00474  0.37253  Biso   1.000  Hf
  O17      1.0000 0.50786  0.29908  0.99648  Biso   1.000  O 
  O18      1.0000 0.50471  0.21123  0.24872  Biso   1.000  O 
  O19      1.0000 0.50622  0.71159  0.25219  Biso   1.000  O 
  O20      1.0000 0.50085  0.80283  0.00229  Biso   1.000  O 
  O21      1.0000 0.75499  0.29900  0.25316  Biso   1.000  O 
  O22      1.0000 0.74762  0.21121  0.00098  Biso   1.000  O 
  O23      1.0000 0.75671  0.71165  0.99745  Biso   1.000  O 
  O24      1.0000 0.75154  0.80284  0.24741  Biso   1.000  O 
  Hf13     1.0000 0.63144  0.00929  0.62482  Biso   1.000  Hf
  Hf14     1.0000 0.63125  0.50720  0.87428  Biso   1.000  Hf
  Hf15     1.0000 0.88089  0.50718  0.62200  Biso   1.000  Hf
  Hf16     1.0000 0.87981  0.01176  0.87059  Biso   1.000  Hf
  O25      1.0000 0.50324  0.30756  0.49795  Biso   1.000  O 
  O26      1.0000 0.50901  0.20958  0.74856  Biso   1.000  O 
  O27      1.0000 0.50512  0.70917  0.75250  Biso   1.000  O 
  O28      1.0000 0.50732  0.80678  0.50196  Biso   1.000  O 
  O29      1.0000 0.75965  0.30758  0.75169  Biso   1.000  O 
  O30      1.0000 0.75388  0.20956  0.50108  Biso   1.000  O 
  O31      1.0000 0.75782  0.70915  0.49713  Biso   1.000  O 
  O32      1.0000 0.75564  0.80679  0.74767  Biso   1.000  O 
  Co1      1.0000 0.12617  0.35787  0.12485  Biso   1.000  Co
