data_image0
_cell_length_a       5.12413
_cell_length_b       10.2832
_cell_length_c       10.4901
_cell_angle_alpha    90
_cell_angle_beta     80
_cell_angle_gamma    90

_symmetry_space_group_name_H-M    "P 1"
_symmetry_int_tables_number       1

loop_
  _symmetry_equiv_pos_as_xyz
  'x, y, z'

loop_
  _atom_site_label
  _atom_site_occupancy
  _atom_site_fract_x
  _atom_site_fract_y
  _atom_site_fract_z
  _atom_site_thermal_displace_type
  _atom_site_B_iso_or_equiv
  _atom_site_type_symbol
  Hf1      1.0000 0.27724  0.02192  0.14697  Biso   1.000  Hf
  Hf2      1.0000 0.28267  0.22705  0.39850  Biso   1.000  Hf
  Hf3      1.0000 0.71483  0.27464  0.10827  Biso   1.000  Hf
  Hf4      1.0000 0.72426  0.47895  0.34234  Biso   1.000  Hf
  O1       1.0000 0.06462  0.16763  0.08165  Biso   1.000  O 
  O2       1.0000 0.05658  0.08447  0.32754  Biso   1.000  O 
  O3       1.0000 0.92463  0.42705  0.15955  Biso   1.000  O 
  O4       1.0000 0.98264  0.35693  0.42638  Biso   1.000  O 
  O5       1.0000 0.56176  0.12699  0.24901  Biso   1.000  O 
  O6       1.0000 0.56372  0.10619  0.49140  Biso   1.000  O 
  O7       1.0000 0.44518  0.38047  0.00593  Biso   1.000  O 
  O8       1.0000 0.42123  0.37645  0.25088  Biso   1.000  O 
  Hf5      1.0000 0.28884  0.01182  0.64781  Biso   1.000  Hf
  Hf6      1.0000 0.28811  0.22145  0.89859  Biso   1.000  Hf
  Hf7      1.0000 0.74300  0.26157  0.61417  Biso   1.000  Hf
  Hf8      1.0000 0.73925  0.46971  0.85317  Biso   1.000  Hf
  O9       1.0000 0.08792  0.16007  0.58053  Biso   1.000  O 
  O10      1.0000 0.08236  0.07468  0.82879  Biso   1.000  O 
  O11      1.0000 0.95341  0.40627  0.67621  Biso   1.000  O 
  O12      1.0000 0.94550  0.32422  0.92107  Biso   1.000  O 
  O13      1.0000 0.56290  0.12023  0.74443  Biso   1.000  O 
  O14      1.0000 0.56527  0.11283  0.99394  Biso   1.000  O 
  O15      1.0000 0.50113  0.35932  0.49865  Biso   1.000  O 
  O16      1.0000 0.45977  0.36540  0.75831  Biso   1.000  O 
  Hf9      1.0000 0.27586  0.52362  0.14183  Biso   1.000  Hf
  Hf10     1.0000 0.27815  0.72108  0.39597  Biso   1.000  Hf
  Hf11     1.0000 0.71916  0.77156  0.10080  Biso   1.000  Hf
  Hf12     1.0000 0.71721  0.96313  0.35374  Biso   1.000  Hf
  O17      1.0000 0.06338  0.67015  0.07336  Biso   1.000  O 
  O18      1.0000 0.06498  0.58824  0.31995  Biso   1.000  O 
  O19      1.0000 0.92996  0.91503  0.17051  Biso   1.000  O 
  O20      1.0000 0.93842  0.82877  0.42416  Biso   1.000  O 
  O21      1.0000 0.55075  0.63039  0.23796  Biso   1.000  O 
  O22      1.0000 0.55057  0.61196  0.48938  Biso   1.000  O 
  O23      1.0000 0.44212  0.88099  0.00990  Biso   1.000  O 
  O24      1.0000 0.43982  0.86946  0.25907  Biso   1.000  O 
  Hf13     1.0000 0.29233  0.51257  0.64440  Biso   1.000  Hf
  Hf14     1.0000 0.28898  0.72075  0.89326  Biso   1.000  Hf
  Hf15     1.0000 0.73252  0.76276  0.60374  Biso   1.000  Hf
  Hf16     1.0000 0.73354  0.97123  0.85453  Biso   1.000  Hf
  O25      1.0000 0.07178  0.65459  0.57589  Biso   1.000  O 
  O26      1.0000 0.08324  0.57732  0.82295  Biso   1.000  O 
  O27      1.0000 0.94119  0.90860  0.67177  Biso   1.000  O 
  O28      1.0000 0.94389  0.82556  0.91816  Biso   1.000  O 
  O29      1.0000 0.56334  0.61977  0.73778  Biso   1.000  O 
  O30      1.0000 0.56694  0.61445  0.98628  Biso   1.000  O 
  O31      1.0000 0.45249  0.86658  0.51121  Biso   1.000  O 
  O32      1.0000 0.46157  0.86389  0.75891  Biso   1.000  O 
  Cr1      1.0000 0.78573  0.22401  0.37215  Biso   1.000  Cr
