data_image0
_cell_length_a       9.93857
_cell_length_b       5.19955
_cell_length_c       9.96089
_cell_angle_alpha    90
_cell_angle_beta     90
_cell_angle_gamma    90

_symmetry_space_group_name_H-M    "P 1"
_symmetry_int_tables_number       1

loop_
  _symmetry_equiv_pos_as_xyz
  'x, y, z'

loop_
  _atom_site_label
  _atom_site_occupancy
  _atom_site_fract_x
  _atom_site_fract_y
  _atom_site_fract_z
  _atom_site_thermal_displace_type
  _atom_site_B_iso_or_equiv
  _atom_site_type_symbol
  Cr1      1.0000 0.11643  0.05693  0.11346  Biso   1.000  Cr
  Hf1      1.0000 0.13891  0.41777  0.37314  Biso   1.000  Hf
  Hf2      1.0000 0.38615  0.52488  0.10855  Biso   1.000  Hf
  Hf3      1.0000 0.36674  0.91753  0.37234  Biso   1.000  Hf
  O1       1.0000 0.03688  0.36035  0.18699  Biso   1.000  O 
  O2       1.0000 0.03589  0.10447  0.45617  Biso   1.000  O 
  O3       1.0000 0.46887  0.86531  0.18913  Biso   1.000  O 
  O4       1.0000 0.47816  0.61523  0.45936  Biso   1.000  O 
  O5       1.0000 0.22712  0.09915  0.25285  Biso   1.000  O 
  O6       1.0000 0.28016  0.22498  0.49909  Biso   1.000  O 
  O7       1.0000 0.22985  0.72445  0.50374  Biso   1.000  O 
  O8       1.0000 0.27772  0.60289  0.26797  Biso   1.000  O 
  Hf4      1.0000 0.14271  0.00045  0.62931  Biso   1.000  Hf
  Hf5      1.0000 0.13996  0.43044  0.88444  Biso   1.000  Hf
  Hf6      1.0000 0.36891  0.50296  0.62974  Biso   1.000  Hf
  Hf7      1.0000 0.36242  0.93065  0.88521  Biso   1.000  Hf
  O9       1.0000 0.04194  0.33134  0.70012  Biso   1.000  O 
  O10      1.0000 0.04176  0.08266  0.94545  Biso   1.000  O 
  O11      1.0000 0.46392  0.83986  0.69954  Biso   1.000  O 
  O12      1.0000 0.47072  0.60206  0.93115  Biso   1.000  O 
  O13      1.0000 0.27696  0.20547  0.75708  Biso   1.000  O 
  O14      1.0000 0.25802  0.27378  0.01263  Biso   1.000  O 
  O15      1.0000 0.22182  0.78240  0.01661  Biso   1.000  O 
  O16      1.0000 0.23114  0.70262  0.75830  Biso   1.000  O 
  Hf8      1.0000 0.63835  0.03526  0.12591  Biso   1.000  Hf
  Hf9      1.0000 0.64078  0.44591  0.37846  Biso   1.000  Hf
  Hf10     1.0000 0.86911  0.53040  0.12031  Biso   1.000  Hf
  Hf11     1.0000 0.87163  0.94734  0.37445  Biso   1.000  Hf
  O17      1.0000 0.54072  0.36288  0.20188  Biso   1.000  O 
  O18      1.0000 0.54121  0.10424  0.43682  Biso   1.000  O 
  O19      1.0000 0.98266  0.86667  0.18598  Biso   1.000  O 
  O20      1.0000 0.96896  0.60222  0.43517  Biso   1.000  O 
  O21      1.0000 0.77966  0.22152  0.24666  Biso   1.000  O 
  O22      1.0000 0.77384  0.23531  0.49721  Biso   1.000  O 
  O23      1.0000 0.74023  0.73912  0.49642  Biso   1.000  O 
  O24      1.0000 0.73744  0.72372  0.24573  Biso   1.000  O 
  Hf12     1.0000 0.63160  0.99138  0.61800  Biso   1.000  Hf
  Hf13     1.0000 0.64288  0.42039  0.86795  Biso   1.000  Hf
  Hf14     1.0000 0.87703  0.49427  0.61978  Biso   1.000  Hf
  Hf15     1.0000 0.87002  0.92083  0.86903  Biso   1.000  Hf
  O25      1.0000 0.54018  0.32972  0.69149  Biso   1.000  O 
  O26      1.0000 0.53078  0.11344  0.95706  Biso   1.000  O 
  O27      1.0000 0.97057  0.82909  0.69138  Biso   1.000  O 
  O28      1.0000 0.96423  0.58249  0.93814  Biso   1.000  O 
  O29      1.0000 0.77222  0.18532  0.74488  Biso   1.000  O 
  O30      1.0000 0.77604  0.21384  0.99532  Biso   1.000  O 
  O31      1.0000 0.73345  0.71614  0.99402  Biso   1.000  O 
  O32      1.0000 0.73605  0.68766  0.74309  Biso   1.000  O 
