data_image0
_cell_length_a       10.1758
_cell_length_b       10.2856
_cell_length_c       10.4654
_cell_angle_alpha    90
_cell_angle_beta     80
_cell_angle_gamma    90

_symmetry_space_group_name_H-M    "P 1"
_symmetry_int_tables_number       1

loop_
  _symmetry_equiv_pos_as_xyz
  'x, y, z'

loop_
  _atom_site_label
  _atom_site_occupancy
  _atom_site_fract_x
  _atom_site_fract_y
  _atom_site_fract_z
  _atom_site_thermal_displace_type
  _atom_site_B_iso_or_equiv
  _atom_site_type_symbol
  Hf1      1.0000 0.13810  0.02106  0.14771  Biso   1.000  Hf
  Hf2      1.0000 0.12895  0.22725  0.39454  Biso   1.000  Hf
  Hf3      1.0000 0.35764  0.27458  0.10925  Biso   1.000  Hf
  Hf4      1.0000 0.36178  0.47822  0.34389  Biso   1.000  Hf
  O1       1.0000 0.03388  0.16810  0.07995  Biso   1.000  O 
  O2       1.0000 0.03227  0.07827  0.32703  Biso   1.000  O 
  O3       1.0000 0.46312  0.42848  0.15983  Biso   1.000  O 
  O4       1.0000 0.49175  0.35327  0.42542  Biso   1.000  O 
  O5       1.0000 0.27928  0.12899  0.24946  Biso   1.000  O 
  O6       1.0000 0.27343  0.10931  0.49119  Biso   1.000  O 
  O7       1.0000 0.22219  0.38030  0.00667  Biso   1.000  O 
  O8       1.0000 0.20665  0.37537  0.25328  Biso   1.000  O 
  Hf5      1.0000 0.13846  0.01761  0.64643  Biso   1.000  Hf
  Hf6      1.0000 0.13979  0.22484  0.89800  Biso   1.000  Hf
  Hf7      1.0000 0.36778  0.26589  0.61411  Biso   1.000  Hf
  Hf8      1.0000 0.36263  0.47455  0.85571  Biso   1.000  Hf
  O9       1.0000 0.03480  0.16532  0.57886  Biso   1.000  O 
  O10      1.0000 0.03593  0.07850  0.82873  Biso   1.000  O 
  O11      1.0000 0.46821  0.41415  0.67672  Biso   1.000  O 
  O12      1.0000 0.46471  0.32707  0.92161  Biso   1.000  O 
  O13      1.0000 0.27702  0.12442  0.74434  Biso   1.000  O 
  O14      1.0000 0.27681  0.11685  0.99500  Biso   1.000  O 
  O15      1.0000 0.24571  0.35899  0.49565  Biso   1.000  O 
  O16      1.0000 0.22279  0.36879  0.75860  Biso   1.000  O 
  Hf9      1.0000 0.13642  0.52177  0.14346  Biso   1.000  Hf
  Hf10     1.0000 0.13764  0.72356  0.39664  Biso   1.000  Hf
  Hf11     1.0000 0.36043  0.77065  0.10237  Biso   1.000  Hf
  Hf12     1.0000 0.35767  0.96665  0.35416  Biso   1.000  Hf
  O17      1.0000 0.03234  0.66955  0.07593  Biso   1.000  O 
  O18      1.0000 0.03223  0.58253  0.32689  Biso   1.000  O 
  O19      1.0000 0.46380  0.91749  0.17072  Biso   1.000  O 
  O20      1.0000 0.46620  0.82894  0.42324  Biso   1.000  O 
  O21      1.0000 0.27435  0.62927  0.23922  Biso   1.000  O 
  O22      1.0000 0.27383  0.61276  0.49067  Biso   1.000  O 
  O23      1.0000 0.22259  0.87951  0.00952  Biso   1.000  O 
  O24      1.0000 0.22063  0.86803  0.25846  Biso   1.000  O 
  Hf13     1.0000 0.14208  0.51534  0.64483  Biso   1.000  Hf
  Hf14     1.0000 0.13876  0.72499  0.89471  Biso   1.000  Hf
  Hf15     1.0000 0.36187  0.76690  0.60506  Biso   1.000  Hf
  Hf16     1.0000 0.36148  0.97465  0.85576  Biso   1.000  Hf
  O25      1.0000 0.03425  0.66163  0.57891  Biso   1.000  O 
  O26      1.0000 0.03730  0.57842  0.82476  Biso   1.000  O 
  O27      1.0000 0.46530  0.91396  0.67180  Biso   1.000  O 
  O28      1.0000 0.46563  0.82769  0.91984  Biso   1.000  O 
  O29      1.0000 0.27726  0.62449  0.73976  Biso   1.000  O 
  O30      1.0000 0.27665  0.61825  0.98941  Biso   1.000  O 
  O31      1.0000 0.22264  0.86977  0.51106  Biso   1.000  O 
  O32      1.0000 0.22443  0.86787  0.75958  Biso   1.000  O 
  Hf17     1.0000 0.63804  0.02221  0.14500  Biso   1.000  Hf
  Hf18     1.0000 0.64936  0.22817  0.39928  Biso   1.000  Hf
  Hf19     1.0000 0.86021  0.27189  0.10372  Biso   1.000  Hf
  Hf20     1.0000 0.86050  0.47917  0.35226  Biso   1.000  Hf
  O33      1.0000 0.53395  0.17015  0.08296  Biso   1.000  O 
  O34      1.0000 0.52954  0.08626  0.33164  Biso   1.000  O 
  O35      1.0000 0.96131  0.42097  0.16705  Biso   1.000  O 
  O36      1.0000 0.96121  0.33265  0.42062  Biso   1.000  O 
  O37      1.0000 0.77548  0.12713  0.24047  Biso   1.000  O 
  O38      1.0000 0.78165  0.11643  0.49225  Biso   1.000  O 
  O39      1.0000 0.72390  0.37973  0.00930  Biso   1.000  O 
  O40      1.0000 0.72512  0.37062  0.25848  Biso   1.000  O 
  Hf21     1.0000 0.64051  0.01605  0.64774  Biso   1.000  Hf
  Hf22     1.0000 0.63752  0.22545  0.89782  Biso   1.000  Hf
  Hf23     1.0000 0.86106  0.26813  0.60664  Biso   1.000  Hf
  Hf24     1.0000 0.86351  0.47424  0.85321  Biso   1.000  Hf
  O41      1.0000 0.54141  0.16481  0.58168  Biso   1.000  O 
  O42      1.0000 0.53585  0.07694  0.83155  Biso   1.000  O 
  O43      1.0000 0.96918  0.41260  0.66947  Biso   1.000  O 
  O44      1.0000 0.96612  0.32736  0.91978  Biso   1.000  O 
  O45      1.0000 0.77616  0.12533  0.74201  Biso   1.000  O 
  O46      1.0000 0.77586  0.11714  0.99087  Biso   1.000  O 
  O47      1.0000 0.72740  0.37675  0.51259  Biso   1.000  O 
  O48      1.0000 0.72621  0.36778  0.76098  Biso   1.000  O 
  Hf25     1.0000 0.63965  0.52389  0.14388  Biso   1.000  Hf
  Hf26     1.0000 0.63906  0.72593  0.39568  Biso   1.000  Hf
  Hf27     1.0000 0.86026  0.77242  0.10253  Biso   1.000  Hf
  Hf28     1.0000 0.86030  0.97417  0.35393  Biso   1.000  Hf
  O49      1.0000 0.53648  0.67197  0.07835  Biso   1.000  O 
  O50      1.0000 0.53546  0.58517  0.32415  Biso   1.000  O 
  O51      1.0000 0.96447  0.91772  0.16875  Biso   1.000  O 
  O52      1.0000 0.96507  0.82913  0.42061  Biso   1.000  O 
  O53      1.0000 0.77687  0.63048  0.23938  Biso   1.000  O 
  O54      1.0000 0.77576  0.61912  0.48987  Biso   1.000  O 
  O55      1.0000 0.72283  0.88101  0.00942  Biso   1.000  O 
  O56      1.0000 0.72116  0.87208  0.26002  Biso   1.000  O 
  Hf29     1.0000 0.63973  0.51903  0.64672  Biso   1.000  Hf
  Hf30     1.0000 0.63976  0.72508  0.89537  Biso   1.000  Hf
  Hf31     1.0000 0.86268  0.76749  0.60362  Biso   1.000  Hf
  Hf32     1.0000 0.86186  0.97565  0.85382  Biso   1.000  Hf
  O57      1.0000 0.53498  0.66289  0.57865  Biso   1.000  O 
  O58      1.0000 0.53617  0.57912  0.83040  Biso   1.000  O 
  O59      1.0000 0.96561  0.91498  0.66982  Biso   1.000  O 
  O60      1.0000 0.96497  0.82806  0.91827  Biso   1.000  O 
  O61      1.0000 0.77742  0.62482  0.73961  Biso   1.000  O 
  O62      1.0000 0.77788  0.61736  0.98858  Biso   1.000  O 
  O63      1.0000 0.72434  0.87525  0.51024  Biso   1.000  O 
  O64      1.0000 0.72564  0.86725  0.75957  Biso   1.000  O 
  Cr1      1.0000 0.38948  0.22299  0.37348  Biso   1.000  Cr
