data_image0
_cell_length_a       10.0016
_cell_length_b       10.5193
_cell_length_c       5.03646
_cell_angle_alpha    90
_cell_angle_beta     90
_cell_angle_gamma    90

_symmetry_space_group_name_H-M    "P 1"
_symmetry_int_tables_number       1

loop_
  _symmetry_equiv_pos_as_xyz
  'x, y, z'

loop_
  _atom_site_label
  _atom_site_occupancy
  _atom_site_fract_x
  _atom_site_fract_y
  _atom_site_fract_z
  _atom_site_thermal_displace_type
  _atom_site_B_iso_or_equiv
  _atom_site_type_symbol
  Hf1      1.0000 0.13494  0.01274  0.24827  Biso   1.000  Hf
  Hf2      1.0000 0.13139  0.22383  0.72713  Biso   1.000  Hf
  Hf3      1.0000 0.37724  0.27168  0.25454  Biso   1.000  Hf
  Hf4      1.0000 0.37280  0.48974  0.74719  Biso   1.000  Hf
  O1       1.0000 0.01621  0.16572  0.40848  Biso   1.000  O 
  O2       1.0000 0.03334  0.06315  0.89906  Biso   1.000  O 
  O3       1.0000 0.47667  0.43318  0.40471  Biso   1.000  O 
  O4       1.0000 0.47480  0.32316  0.89978  Biso   1.000  O 
  O5       1.0000 0.26884  0.10627  0.51619  Biso   1.000  O 
  O6       1.0000 0.24447  0.16122  0.04013  Biso   1.000  O 
  O7       1.0000 0.24480  0.40288  0.01474  Biso   1.000  O 
  O8       1.0000 0.23712  0.36422  0.50490  Biso   1.000  O 
  Hf5      1.0000 0.13826  0.53331  0.23945  Biso   1.000  Hf
  Hf6      1.0000 0.13811  0.74220  0.74124  Biso   1.000  Hf
  Hf7      1.0000 0.37462  0.76433  0.24214  Biso   1.000  Hf
  Hf8      1.0000 0.38271  0.97994  0.73280  Biso   1.000  Hf
  O9       1.0000 0.03332  0.68660  0.40340  Biso   1.000  O 
  O10      1.0000 0.03945  0.57561  0.88816  Biso   1.000  O 
  O11      1.0000 0.47475  0.92792  0.38825  Biso   1.000  O 
  O12      1.0000 0.47818  0.81853  0.88662  Biso   1.000  O 
  O13      1.0000 0.27922  0.62062  0.49197  Biso   1.000  O 
  O14      1.0000 0.27543  0.65105  0.98493  Biso   1.000  O 
  O15      1.0000 0.24481  0.89792  0.98727  Biso   1.000  O 
  O16      1.0000 0.23827  0.86341  0.48384  Biso   1.000  O 
  Hf9      1.0000 0.63700  0.01419  0.24734  Biso   1.000  Hf
  Hf10     1.0000 0.63514  0.23555  0.74750  Biso   1.000  Hf
  Hf11     1.0000 0.85874  0.26227  0.24433  Biso   1.000  Hf
  Hf12     1.0000 0.87636  0.48324  0.74646  Biso   1.000  Hf
  O17      1.0000 0.53421  0.17648  0.40767  Biso   1.000  O 
  O18      1.0000 0.52876  0.07434  0.90873  Biso   1.000  O 
  O19      1.0000 0.98040  0.42204  0.39519  Biso   1.000  O 
  O20      1.0000 0.97873  0.32389  0.91152  Biso   1.000  O 
  O21      1.0000 0.76581  0.11207  0.49737  Biso   1.000  O 
  O22      1.0000 0.76949  0.13599  0.99149  Biso   1.000  O 
  O23      1.0000 0.73731  0.38830  0.99456  Biso   1.000  O 
  O24      1.0000 0.73596  0.36650  0.50074  Biso   1.000  O 
  Hf13     1.0000 0.63989  0.51604  0.24873  Biso   1.000  Hf
  Hf14     1.0000 0.64268  0.73202  0.74677  Biso   1.000  Hf
  Hf15     1.0000 0.86898  0.76567  0.24711  Biso   1.000  Hf
  Hf16     1.0000 0.87319  0.98413  0.74431  Biso   1.000  Hf
  O25      1.0000 0.54229  0.68196  0.39129  Biso   1.000  O 
  O26      1.0000 0.53896  0.57150  0.89940  Biso   1.000  O 
  O27      1.0000 0.97138  0.92770  0.39704  Biso   1.000  O 
  O28      1.0000 0.97366  0.82104  0.89958  Biso   1.000  O 
  O29      1.0000 0.77680  0.61269  0.49514  Biso   1.000  O 
  O30      1.0000 0.77783  0.63613  0.99465  Biso   1.000  O 
  O31      1.0000 0.73751  0.88725  0.99394  Biso   1.000  O 
  O32      1.0000 0.73580  0.86389  0.49493  Biso   1.000  O 
  Cr1      1.0000 0.11258  0.30200  0.21295  Biso   1.000  Cr
