data_image0
_cell_length_a       10.0345
_cell_length_b       10.2678
_cell_length_c       10.0345
_cell_angle_alpha    90
_cell_angle_beta     90
_cell_angle_gamma    90

_symmetry_space_group_name_H-M    "P 1"
_symmetry_int_tables_number       1

loop_
  _symmetry_equiv_pos_as_xyz
  'x, y, z'

loop_
  _atom_site_label
  _atom_site_occupancy
  _atom_site_fract_x
  _atom_site_fract_y
  _atom_site_fract_z
  _atom_site_thermal_displace_type
  _atom_site_B_iso_or_equiv
  _atom_site_type_symbol
  Hf1      1.0000 0.12611  0.96377  0.12490  Biso   1.000  Hf
  Hf2      1.0000 0.13647  0.25726  0.38203  Biso   1.000  Hf
  Hf3      1.0000 0.38333  0.25726  0.13279  Biso   1.000  Hf
  Hf4      1.0000 0.37872  0.00470  0.37510  Biso   1.000  Hf
  O1       1.0000 0.99739  0.15109  0.98786  Biso   1.000  O 
  O2       1.0000 0.01218  0.09116  0.23993  Biso   1.000  O 
  O3       1.0000 0.01778  0.33458  0.23428  Biso   1.000  O 
  O4       1.0000 0.00226  0.40480  0.99268  Biso   1.000  O 
  O5       1.0000 0.26442  0.15108  0.26190  Biso   1.000  O 
  O6       1.0000 0.24004  0.09116  0.00988  Biso   1.000  O 
  O7       1.0000 0.23444  0.33458  0.01553  Biso   1.000  O 
  O8       1.0000 0.25955  0.40479  0.25707  Biso   1.000  O 
  Hf5      1.0000 0.13091  0.99822  0.62488  Biso   1.000  Hf
  Hf6      1.0000 0.12534  0.25727  0.86773  Biso   1.000  Hf
  Hf7      1.0000 0.38125  0.24786  0.62999  Biso   1.000  Hf
  Hf8      1.0000 0.37689  0.00327  0.88135  Biso   1.000  Hf
  O9       1.0000 0.00519  0.14886  0.49318  Biso   1.000  O 
  O10      1.0000 0.00217  0.10437  0.74158  Biso   1.000  O 
  O11      1.0000 0.00227  0.35773  0.73949  Biso   1.000  O 
  O12      1.0000 0.01027  0.40134  0.49044  Biso   1.000  O 
  O13      1.0000 0.25662  0.14887  0.75659  Biso   1.000  O 
  O14      1.0000 0.25965  0.10436  0.50819  Biso   1.000  O 
  O15      1.0000 0.25954  0.35772  0.51027  Biso   1.000  O 
  O16      1.0000 0.25154  0.40135  0.75932  Biso   1.000  O 
  Hf9      1.0000 0.12611  0.49768  0.12490  Biso   1.000  Hf
  Hf10     1.0000 0.13067  0.74548  0.37864  Biso   1.000  Hf
  Hf11     1.0000 0.37988  0.74549  0.12701  Biso   1.000  Hf
  Hf12     1.0000 0.38375  0.50183  0.38008  Biso   1.000  Hf
  O17      1.0000 0.00753  0.64902  0.00747  Biso   1.000  O 
  O18      1.0000 0.99890  0.59149  0.25334  Biso   1.000  O 
  O19      1.0000 0.99993  0.83986  0.25230  Biso   1.000  O 
  O20      1.0000 0.00279  0.89151  0.99320  Biso   1.000  O 
  O21      1.0000 0.24468  0.64903  0.24234  Biso   1.000  O 
  O22      1.0000 0.26291  0.59150  0.99641  Biso   1.000  O 
  O23      1.0000 0.26189  0.83987  0.99746  Biso   1.000  O 
  O24      1.0000 0.25903  0.89150  0.25656  Biso   1.000  O 
  Hf13     1.0000 0.13091  0.50170  0.62488  Biso   1.000  Hf
  Hf14     1.0000 0.13116  0.74549  0.87112  Biso   1.000  Hf
  Hf15     1.0000 0.38169  0.75646  0.62499  Biso   1.000  Hf
  Hf16     1.0000 0.38841  0.50326  0.86972  Biso   1.000  Hf
  O25      1.0000 0.00306  0.64878  0.50501  Biso   1.000  O 
  O26      1.0000 0.00989  0.60481  0.75472  Biso   1.000  O 
  O27      1.0000 0.00956  0.85380  0.74699  Biso   1.000  O 
  O28      1.0000 0.00416  0.89981  0.49877  Biso   1.000  O 
  O29      1.0000 0.25875  0.64879  0.74475  Biso   1.000  O 
  O30      1.0000 0.25192  0.60480  0.49504  Biso   1.000  O 
  O31      1.0000 0.25227  0.85379  0.50277  Biso   1.000  O 
  O32      1.0000 0.25766  0.89982  0.75100  Biso   1.000  O 
  Hf17     1.0000 0.62611  0.99821  0.12490  Biso   1.000  Hf
  Hf18     1.0000 0.63362  0.24785  0.37518  Biso   1.000  Hf
  Hf19     1.0000 0.86889  0.25726  0.11700  Biso   1.000  Hf
  Hf20     1.0000 0.88493  0.00326  0.36841  Biso   1.000  Hf
  O33      1.0000 0.49320  0.14886  0.00046  Biso   1.000  O 
  O34      1.0000 0.51066  0.10436  0.25476  Biso   1.000  O 
  O35      1.0000 0.51273  0.35772  0.25463  Biso   1.000  O 
  O36      1.0000 0.49051  0.40134  0.00557  Biso   1.000  O 
  O37      1.0000 0.75901  0.14886  0.24935  Biso   1.000  O 
  O38      1.0000 0.75116  0.10437  0.99500  Biso   1.000  O 
  O39      1.0000 0.74907  0.35773  0.99513  Biso   1.000  O 
  O40      1.0000 0.76170  0.40134  0.24424  Biso   1.000  O 
  Hf21     1.0000 0.63091  0.00314  0.62488  Biso   1.000  Hf
  Hf22     1.0000 0.62820  0.24786  0.87457  Biso   1.000  Hf
  Hf23     1.0000 0.88056  0.24786  0.61976  Biso   1.000  Hf
  Hf24     1.0000 0.88310  0.00471  0.87466  Biso   1.000  Hf
  O41      1.0000 0.50911  0.15202  0.50425  Biso   1.000  O 
  O42      1.0000 0.50451  0.10233  0.75250  Biso   1.000  O 
  O43      1.0000 0.50319  0.35459  0.75383  Biso   1.000  O 
  O44      1.0000 0.50815  0.40028  0.50330  Biso   1.000  O 
  O45      1.0000 0.75271  0.15203  0.74552  Biso   1.000  O 
  O46      1.0000 0.75730  0.10232  0.49727  Biso   1.000  O 
  O47      1.0000 0.75862  0.35459  0.49594  Biso   1.000  O 
  O48      1.0000 0.75366  0.40029  0.74647  Biso   1.000  O 
  Hf25     1.0000 0.62611  0.50169  0.12490  Biso   1.000  Hf
  Hf26     1.0000 0.62863  0.75645  0.37567  Biso   1.000  Hf
  Hf27     1.0000 0.87234  0.74548  0.12278  Biso   1.000  Hf
  Hf28     1.0000 0.87340  0.50325  0.38004  Biso   1.000  Hf
  O49      1.0000 0.51461  0.64879  0.99816  Biso   1.000  O 
  O50      1.0000 0.49743  0.60480  0.24716  Biso   1.000  O 
  O51      1.0000 0.50517  0.85379  0.24743  Biso   1.000  O 
  O52      1.0000 0.50838  0.89982  0.99932  Biso   1.000  O 
  O53      1.0000 0.74720  0.64878  0.25159  Biso   1.000  O 
  O54      1.0000 0.75478  0.60480  0.00264  Biso   1.000  O 
  O55      1.0000 0.74704  0.85379  0.00238  Biso   1.000  O 
  O56      1.0000 0.75344  0.89981  0.25044  Biso   1.000  O 
  Hf29     1.0000 0.63091  0.50255  0.62488  Biso   1.000  Hf
  Hf30     1.0000 0.63319  0.75646  0.87409  Biso   1.000  Hf
  Hf31     1.0000 0.88013  0.75646  0.62477  Biso   1.000  Hf
  Hf32     1.0000 0.87806  0.50184  0.86967  Biso   1.000  Hf
  O57      1.0000 0.50298  0.65224  0.49818  Biso   1.000  O 
  O58      1.0000 0.50888  0.60655  0.74809  Biso   1.000  O 
  O59      1.0000 0.50926  0.85455  0.74771  Biso   1.000  O 
  O60      1.0000 0.50389  0.90266  0.49908  Biso   1.000  O 
  O61      1.0000 0.75883  0.65225  0.75158  Biso   1.000  O 
  O62      1.0000 0.75294  0.60655  0.50168  Biso   1.000  O 
  O63      1.0000 0.75257  0.85454  0.50205  Biso   1.000  O 
  O64      1.0000 0.75793  0.90267  0.75069  Biso   1.000  O 
  Cr1      1.0000 0.12611  0.19891  0.12490  Biso   1.000  Cr
