data_image0
_cell_length_a       4.99608
_cell_length_b       10.153
_cell_length_c       9.99426
_cell_angle_alpha    90
_cell_angle_beta     90
_cell_angle_gamma    90

_symmetry_space_group_name_H-M    "P 1"
_symmetry_int_tables_number       1

loop_
  _symmetry_equiv_pos_as_xyz
  'x, y, z'

loop_
  _atom_site_label
  _atom_site_occupancy
  _atom_site_fract_x
  _atom_site_fract_y
  _atom_site_fract_z
  _atom_site_thermal_displace_type
  _atom_site_B_iso_or_equiv
  _atom_site_type_symbol
  Cr1      1.0000 0.24982  0.00005  0.12491  Biso   1.000  Cr
  Hf1      1.0000 0.25988  0.24913  0.37374  Biso   1.000  Hf
  Hf2      1.0000 0.74982  0.25222  0.12491  Biso   1.000  Hf
  Hf3      1.0000 0.74982  0.00005  0.37247  Biso   1.000  Hf
  O1       1.0000 0.94841  0.15279  0.97970  Biso   1.000  O 
  O2       1.0000 0.03935  0.09516  0.23237  Biso   1.000  O 
  O3       1.0000 0.00269  0.34997  0.25222  Biso   1.000  O 
  O4       1.0000 0.99707  0.39901  0.00278  Biso   1.000  O 
  O5       1.0000 0.55123  0.15279  0.27012  Biso   1.000  O 
  O6       1.0000 0.46029  0.09516  0.01745  Biso   1.000  O 
  O7       1.0000 0.49695  0.34997  0.99760  Biso   1.000  O 
  O8       1.0000 0.50256  0.39901  0.24703  Biso   1.000  O 
  Hf4      1.0000 0.24982  0.00005  0.62491  Biso   1.000  Hf
  Hf5      1.0000 0.23975  0.24913  0.87607  Biso   1.000  Hf
  Hf6      1.0000 0.74982  0.24780  0.62491  Biso   1.000  Hf
  Hf7      1.0000 0.74982  0.00005  0.87735  Biso   1.000  Hf
  O9       1.0000 0.98489  0.14450  0.48309  Biso   1.000  O 
  O10      1.0000 0.00335  0.10656  0.73823  Biso   1.000  O 
  O11      1.0000 0.99534  0.35570  0.75299  Biso   1.000  O 
  O12      1.0000 0.00104  0.39390  0.50331  Biso   1.000  O 
  O13      1.0000 0.51474  0.14450  0.76673  Biso   1.000  O 
  O14      1.0000 0.49629  0.10656  0.51159  Biso   1.000  O 
  O15      1.0000 0.50430  0.35570  0.49683  Biso   1.000  O 
  O16      1.0000 0.49859  0.39390  0.74651  Biso   1.000  O 
  Hf8      1.0000 0.24982  0.50005  0.12491  Biso   1.000  Hf
  Hf9      1.0000 0.23975  0.75098  0.37374  Biso   1.000  Hf
  Hf10     1.0000 0.74982  0.74788  0.12491  Biso   1.000  Hf
  Hf11     1.0000 0.74982  0.50005  0.37808  Biso   1.000  Hf
  O17      1.0000 0.00269  0.65014  0.99760  Biso   1.000  O 
  O18      1.0000 0.99707  0.60109  0.24703  Biso   1.000  O 
  O19      1.0000 0.94840  0.84732  0.27012  Biso   1.000  O 
  O20      1.0000 0.03935  0.90494  0.01745  Biso   1.000  O 
  O21      1.0000 0.49695  0.65014  0.25222  Biso   1.000  O 
  O22      1.0000 0.50256  0.60110  0.00278  Biso   1.000  O 
  O23      1.0000 0.55123  0.84732  0.97970  Biso   1.000  O 
  O24      1.0000 0.46029  0.90494  0.23237  Biso   1.000  O 
  Hf12     1.0000 0.24982  0.50005  0.62491  Biso   1.000  Hf
  Hf13     1.0000 0.25988  0.75098  0.87608  Biso   1.000  Hf
  Hf14     1.0000 0.74982  0.75230  0.62491  Biso   1.000  Hf
  Hf15     1.0000 0.74982  0.50005  0.87174  Biso   1.000  Hf
  O25      1.0000 0.99533  0.64441  0.49683  Biso   1.000  O 
  O26      1.0000 0.00104  0.60621  0.74651  Biso   1.000  O 
  O27      1.0000 0.98489  0.85561  0.76673  Biso   1.000  O 
  O28      1.0000 0.00335  0.89354  0.51159  Biso   1.000  O 
  O29      1.0000 0.50430  0.64441  0.75299  Biso   1.000  O 
  O30      1.0000 0.49860  0.60621  0.50330  Biso   1.000  O 
  O31      1.0000 0.51474  0.85560  0.48309  Biso   1.000  O 
  O32      1.0000 0.49629  0.89355  0.73823  Biso   1.000  O 
