data_image0
_cell_length_a       10.2459
_cell_length_b       10.2874
_cell_length_c       5.25283
_cell_angle_alpha    90
_cell_angle_beta     80
_cell_angle_gamma    90

_symmetry_space_group_name_H-M    "P 1"
_symmetry_int_tables_number       1

loop_
  _symmetry_equiv_pos_as_xyz
  'x, y, z'

loop_
  _atom_site_label
  _atom_site_occupancy
  _atom_site_fract_x
  _atom_site_fract_y
  _atom_site_fract_z
  _atom_site_thermal_displace_type
  _atom_site_B_iso_or_equiv
  _atom_site_type_symbol
  Hf1      1.0000 0.13691  0.01846  0.29580  Biso   1.000  Hf
  Hf2      1.0000 0.13238  0.22555  0.79345  Biso   1.000  Hf
  Hf3      1.0000 0.36498  0.27171  0.24515  Biso   1.000  Hf
  Hf4      1.0000 0.36478  0.47697  0.69155  Biso   1.000  Hf
  O1       1.0000 0.03165  0.16483  0.15526  Biso   1.000  O 
  O2       1.0000 0.03317  0.07983  0.64835  Biso   1.000  O 
  O3       1.0000 0.46780  0.42634  0.33192  Biso   1.000  O 
  O4       1.0000 0.49498  0.35216  0.84630  Biso   1.000  O 
  O5       1.0000 0.28071  0.12691  0.50923  Biso   1.000  O 
  O6       1.0000 0.27675  0.10706  0.99429  Biso   1.000  O 
  O7       1.0000 0.24962  0.35726  0.99129  Biso   1.000  O 
  O8       1.0000 0.20846  0.37501  0.50615  Biso   1.000  O 
  Hf5      1.0000 0.14010  0.51812  0.28459  Biso   1.000  Hf
  Hf6      1.0000 0.13994  0.72244  0.78951  Biso   1.000  Hf
  Hf7      1.0000 0.36168  0.76855  0.20642  Biso   1.000  Hf
  Hf8      1.0000 0.36045  0.96529  0.71103  Biso   1.000  Hf
  O9       1.0000 0.03021  0.66276  0.14574  Biso   1.000  O 
  O10      1.0000 0.03520  0.58388  0.63935  Biso   1.000  O 
  O11      1.0000 0.46643  0.91359  0.34668  Biso   1.000  O 
  O12      1.0000 0.47070  0.82929  0.84748  Biso   1.000  O 
  O13      1.0000 0.27641  0.62696  0.47650  Biso   1.000  O 
  O14      1.0000 0.27664  0.61276  0.97808  Biso   1.000  O 
  O15      1.0000 0.22161  0.87182  0.02151  Biso   1.000  O 
  O16      1.0000 0.22336  0.86792  0.51632  Biso   1.000  O 
  Hf9      1.0000 0.63961  0.01931  0.29308  Biso   1.000  Hf
  Hf10     1.0000 0.65000  0.22696  0.79934  Biso   1.000  Hf
  Hf11     1.0000 0.86025  0.27111  0.21124  Biso   1.000  Hf
  Hf12     1.0000 0.86511  0.47702  0.70136  Biso   1.000  Hf
  O17      1.0000 0.53886  0.16787  0.16650  Biso   1.000  O 
  O18      1.0000 0.53034  0.08547  0.66399  Biso   1.000  O 
  O19      1.0000 0.96748  0.41534  0.33531  Biso   1.000  O 
  O20      1.0000 0.96675  0.33349  0.84267  Biso   1.000  O 
  O21      1.0000 0.77568  0.12558  0.48226  Biso   1.000  O 
  O22      1.0000 0.78318  0.11522  0.98285  Biso   1.000  O 
  O23      1.0000 0.72716  0.37956  0.02377  Biso   1.000  O 
  O24      1.0000 0.72955  0.37004  0.51889  Biso   1.000  O 
  Hf13     1.0000 0.64119  0.52412  0.28866  Biso   1.000  Hf
  Hf14     1.0000 0.64220  0.72483  0.78906  Biso   1.000  Hf
  Hf15     1.0000 0.86201  0.77054  0.20318  Biso   1.000  Hf
  Hf16     1.0000 0.86324  0.97362  0.70629  Biso   1.000  Hf
  O25      1.0000 0.53567  0.66745  0.15195  Biso   1.000  O 
  O26      1.0000 0.53741  0.58660  0.64681  Biso   1.000  O 
  O27      1.0000 0.96708  0.91420  0.33886  Biso   1.000  O 
  O28      1.0000 0.96894  0.82995  0.83868  Biso   1.000  O 
  O29      1.0000 0.77889  0.62849  0.47574  Biso   1.000  O 
  O30      1.0000 0.77983  0.61800  0.97397  Biso   1.000  O 
  O31      1.0000 0.72383  0.87955  0.02031  Biso   1.000  O 
  O32      1.0000 0.72504  0.87091  0.51959  Biso   1.000  O 
  Cr1      1.0000 0.39003  0.22146  0.75841  Biso   1.000  Cr
