data_image0
_cell_length_a       10.2259
_cell_length_b       5.16336
_cell_length_c       10.4724
_cell_angle_alpha    90
_cell_angle_beta     80
_cell_angle_gamma    90

_symmetry_space_group_name_H-M    "P 1"
_symmetry_int_tables_number       1

loop_
  _symmetry_equiv_pos_as_xyz
  'x, y, z'

loop_
  _atom_site_label
  _atom_site_occupancy
  _atom_site_fract_x
  _atom_site_fract_y
  _atom_site_fract_z
  _atom_site_thermal_displace_type
  _atom_site_B_iso_or_equiv
  _atom_site_type_symbol
  Hf1      1.0000 0.13602  0.04357  0.14474  Biso   1.000  Hf
  Hf2      1.0000 0.13041  0.44818  0.39413  Biso   1.000  Hf
  Hf3      1.0000 0.35871  0.54664  0.10824  Biso   1.000  Hf
  Hf4      1.0000 0.36013  0.92814  0.34294  Biso   1.000  Hf
  O1       1.0000 0.03139  0.33926  0.07624  Biso   1.000  O 
  O2       1.0000 0.03006  0.16291  0.32332  Biso   1.000  O 
  O3       1.0000 0.46377  0.85678  0.15805  Biso   1.000  O 
  O4       1.0000 0.49218  0.70190  0.42583  Biso   1.000  O 
  O5       1.0000 0.27806  0.25699  0.24691  Biso   1.000  O 
  O6       1.0000 0.27090  0.19699  0.48796  Biso   1.000  O 
  O7       1.0000 0.22215  0.76122  0.00731  Biso   1.000  O 
  O8       1.0000 0.20753  0.74805  0.25282  Biso   1.000  O 
  Hf5      1.0000 0.14307  0.03532  0.64715  Biso   1.000  Hf
  Hf6      1.0000 0.14413  0.45635  0.89654  Biso   1.000  Hf
  Hf7      1.0000 0.37313  0.53670  0.61661  Biso   1.000  Hf
  Hf8      1.0000 0.36738  0.95438  0.85720  Biso   1.000  Hf
  O9       1.0000 0.03623  0.32767  0.57812  Biso   1.000  O 
  O10      1.0000 0.04074  0.16474  0.82417  Biso   1.000  O 
  O11      1.0000 0.47215  0.83583  0.67630  Biso   1.000  O 
  O12      1.0000 0.46948  0.65612  0.91903  Biso   1.000  O 
  O13      1.0000 0.28116  0.25383  0.74337  Biso   1.000  O 
  O14      1.0000 0.28117  0.24008  0.99324  Biso   1.000  O 
  O15      1.0000 0.24801  0.69572  0.49694  Biso   1.000  O 
  O16      1.0000 0.22736  0.74561  0.75886  Biso   1.000  O 
  Hf9      1.0000 0.63954  0.04983  0.14255  Biso   1.000  Hf
  Hf10     1.0000 0.64972  0.45542  0.39868  Biso   1.000  Hf
  Hf11     1.0000 0.85982  0.54662  0.10233  Biso   1.000  Hf
  Hf12     1.0000 0.86118  0.95390  0.35170  Biso   1.000  Hf
  O17      1.0000 0.53660  0.34886  0.08145  Biso   1.000  O 
  O18      1.0000 0.53066  0.18060  0.32575  Biso   1.000  O 
  O19      1.0000 0.96233  0.84024  0.16592  Biso   1.000  O 
  O20      1.0000 0.96430  0.66630  0.42029  Biso   1.000  O 
  O21      1.0000 0.77601  0.25906  0.23931  Biso   1.000  O 
  O22      1.0000 0.78322  0.23638  0.49108  Biso   1.000  O 
  O23      1.0000 0.72374  0.76405  0.00877  Biso   1.000  O 
  O24      1.0000 0.72396  0.74534  0.25837  Biso   1.000  O 
  Hf13     1.0000 0.64580  0.03748  0.64803  Biso   1.000  Hf
  Hf14     1.0000 0.64254  0.45583  0.89622  Biso   1.000  Hf
  Hf15     1.0000 0.86557  0.53835  0.60499  Biso   1.000  Hf
  Hf16     1.0000 0.86783  0.95448  0.85258  Biso   1.000  Hf
  O25      1.0000 0.54490  0.33068  0.58184  Biso   1.000  O 
  O26      1.0000 0.54139  0.15892  0.83244  Biso   1.000  O 
  O27      1.0000 0.97318  0.82811  0.66880  Biso   1.000  O 
  O28      1.0000 0.97101  0.66171  0.91769  Biso   1.000  O 
  O29      1.0000 0.78096  0.25394  0.74065  Biso   1.000  O 
  O30      1.0000 0.78187  0.23931  0.98834  Biso   1.000  O 
  O31      1.0000 0.72974  0.75365  0.51188  Biso   1.000  O 
  O32      1.0000 0.73200  0.73940  0.75998  Biso   1.000  O 
  Cr1      1.0000 0.38909  0.43437  0.37790  Biso   1.000  Cr
