data_image0
_cell_length_a       9.99357
_cell_length_b       10.2133
_cell_length_c       10.4255
_cell_angle_alpha    90
_cell_angle_beta     90
_cell_angle_gamma    90

_symmetry_space_group_name_H-M    "P 1"
_symmetry_int_tables_number       1

loop_
  _symmetry_equiv_pos_as_xyz
  'x, y, z'

loop_
  _atom_site_label
  _atom_site_occupancy
  _atom_site_fract_x
  _atom_site_fract_y
  _atom_site_fract_z
  _atom_site_thermal_displace_type
  _atom_site_B_iso_or_equiv
  _atom_site_type_symbol
  Cr1      1.0000 0.13240  0.02503  0.17759  Biso   1.000  Cr
  Hf1      1.0000 0.14019  0.23032  0.41965  Biso   1.000  Hf
  Hf2      1.0000 0.35911  0.26843  0.17179  Biso   1.000  Hf
  Hf3      1.0000 0.36154  0.48043  0.42140  Biso   1.000  Hf
  Hf4      1.0000 0.63879  0.02177  0.07761  Biso   1.000  Hf
  Hf5      1.0000 0.63833  0.22948  0.32859  Biso   1.000  Hf
  Hf6      1.0000 0.86344  0.26935  0.08060  Biso   1.000  Hf
  Hf7      1.0000 0.86111  0.47988  0.32866  Biso   1.000  Hf
  O1       1.0000 0.03578  0.15881  0.08877  Biso   1.000  O 
  O2       1.0000 0.03829  0.08487  0.32374  Biso   1.000  O 
  O3       1.0000 0.46587  0.41608  0.08595  Biso   1.000  O 
  O4       1.0000 0.46456  0.33182  0.33609  Biso   1.000  O 
  O5       1.0000 0.27210  0.12185  0.29239  Biso   1.000  O 
  O6       1.0000 0.26974  0.11943  0.05267  Biso   1.000  O 
  O7       1.0000 0.22381  0.37522  0.29494  Biso   1.000  O 
  O8       1.0000 0.22379  0.37401  0.04536  Biso   1.000  O 
  O9       1.0000 0.53337  0.16668  0.16553  Biso   1.000  O 
  O10      1.0000 0.53302  0.08382  0.41452  Biso   1.000  O 
  O11      1.0000 0.96771  0.41578  0.16593  Biso   1.000  O 
  O12      1.0000 0.96649  0.33331  0.41439  Biso   1.000  O 
  O13      1.0000 0.77805  0.12371  0.45338  Biso   1.000  O 
  O14      1.0000 0.77656  0.12615  0.20462  Biso   1.000  O 
  O15      1.0000 0.72335  0.37403  0.45594  Biso   1.000  O 
  O16      1.0000 0.72402  0.37611  0.20564  Biso   1.000  O 
  Hf8      1.0000 0.13924  0.02198  0.67105  Biso   1.000  Hf
  Hf9      1.0000 0.13940  0.22595  0.92479  Biso   1.000  Hf
  Hf10     1.0000 0.36131  0.27238  0.67202  Biso   1.000  Hf
  Hf11     1.0000 0.36150  0.47950  0.92190  Biso   1.000  Hf
  Hf12     1.0000 0.63795  0.02148  0.57756  Biso   1.000  Hf
  Hf13     1.0000 0.63935  0.23026  0.82901  Biso   1.000  Hf
  Hf14     1.0000 0.86149  0.27149  0.57828  Biso   1.000  Hf
  Hf15     1.0000 0.86260  0.47929  0.83035  Biso   1.000  Hf
  O17      1.0000 0.03207  0.16269  0.57838  Biso   1.000  O 
  O18      1.0000 0.03242  0.08623  0.83170  Biso   1.000  O 
  O19      1.0000 0.46613  0.41846  0.58544  Biso   1.000  O 
  O20      1.0000 0.46715  0.33473  0.83498  Biso   1.000  O 
  O21      1.0000 0.27731  0.12453  0.79716  Biso   1.000  O 
  O22      1.0000 0.27724  0.12787  0.54457  Biso   1.000  O 
  O23      1.0000 0.22348  0.37398  0.79571  Biso   1.000  O 
  O24      1.0000 0.22309  0.37695  0.54451  Biso   1.000  O 
  O25      1.0000 0.53388  0.16767  0.66544  Biso   1.000  O 
  O26      1.0000 0.53194  0.08652  0.91717  Biso   1.000  O 
  O27      1.0000 0.96785  0.41484  0.66709  Biso   1.000  O 
  O28      1.0000 0.96859  0.33284  0.91859  Biso   1.000  O 
  O29      1.0000 0.77734  0.12509  0.95462  Biso   1.000  O 
  O30      1.0000 0.77669  0.12699  0.70417  Biso   1.000  O 
  O31      1.0000 0.72503  0.37495  0.95639  Biso   1.000  O 
  O32      1.0000 0.72401  0.37737  0.70592  Biso   1.000  O 
  Hf16     1.0000 0.13979  0.52121  0.17147  Biso   1.000  Hf
  Hf17     1.0000 0.13897  0.73103  0.41993  Biso   1.000  Hf
  Hf18     1.0000 0.35693  0.77563  0.17070  Biso   1.000  Hf
  Hf19     1.0000 0.35881  0.98024  0.41892  Biso   1.000  Hf
  Hf20     1.0000 0.63809  0.52182  0.07966  Biso   1.000  Hf
  Hf21     1.0000 0.63795  0.72978  0.32750  Biso   1.000  Hf
  Hf22     1.0000 0.86505  0.77257  0.07817  Biso   1.000  Hf
  Hf23     1.0000 0.86368  0.98073  0.32701  Biso   1.000  Hf
  O33      1.0000 0.03414  0.66630  0.08506  Biso   1.000  O 
  O34      1.0000 0.03372  0.58430  0.33413  Biso   1.000  O 
  O35      1.0000 0.46848  0.91561  0.08433  Biso   1.000  O 
  O36      1.0000 0.46484  0.83497  0.33399  Biso   1.000  O 
  O37      1.0000 0.27659  0.62630  0.29487  Biso   1.000  O 
  O38      1.0000 0.27693  0.62622  0.04491  Biso   1.000  O 
  O39      1.0000 0.21873  0.87982  0.29092  Biso   1.000  O 
  O40      1.0000 0.22100  0.87743  0.04548  Biso   1.000  O 
  O41      1.0000 0.53291  0.66865  0.16480  Biso   1.000  O 
  O42      1.0000 0.53451  0.58385  0.41486  Biso   1.000  O 
  O43      1.0000 0.98112  0.92189  0.16420  Biso   1.000  O 
  O44      1.0000 0.96666  0.83553  0.41438  Biso   1.000  O 
  O45      1.0000 0.77674  0.62451  0.45532  Biso   1.000  O 
  O46      1.0000 0.77702  0.62689  0.20540  Biso   1.000  O 
  O47      1.0000 0.72334  0.87470  0.45387  Biso   1.000  O 
  O48      1.0000 0.73141  0.87728  0.20423  Biso   1.000  O 
  Hf24     1.0000 0.13941  0.52214  0.67195  Biso   1.000  Hf
  Hf25     1.0000 0.14073  0.73164  0.92194  Biso   1.000  Hf
  Hf26     1.0000 0.36194  0.77233  0.67103  Biso   1.000  Hf
  Hf27     1.0000 0.35930  0.97917  0.92422  Biso   1.000  Hf
  Hf28     1.0000 0.63950  0.52199  0.57968  Biso   1.000  Hf
  Hf29     1.0000 0.63924  0.73033  0.82969  Biso   1.000  Hf
  Hf30     1.0000 0.86091  0.77169  0.57821  Biso   1.000  Hf
  Hf31     1.0000 0.86126  0.98010  0.82758  Biso   1.000  Hf
  O49      1.0000 0.03344  0.66665  0.58332  Biso   1.000  O 
  O50      1.0000 0.03434  0.58468  0.83529  Biso   1.000  O 
  O51      1.0000 0.46577  0.91777  0.58393  Biso   1.000  O 
  O52      1.0000 0.46615  0.83446  0.83556  Biso   1.000  O 
  O53      1.0000 0.27762  0.62470  0.79493  Biso   1.000  O 
  O54      1.0000 0.27710  0.62761  0.54463  Biso   1.000  O 
  O55      1.0000 0.22352  0.87487  0.79413  Biso   1.000  O 
  O56      1.0000 0.22299  0.87734  0.54354  Biso   1.000  O 
  O57      1.0000 0.53477  0.66836  0.66522  Biso   1.000  O 
  O58      1.0000 0.53506  0.58346  0.91500  Biso   1.000  O 
  O59      1.0000 0.96734  0.91623  0.66522  Biso   1.000  O 
  O60      1.0000 0.96738  0.83539  0.91539  Biso   1.000  O 
  O61      1.0000 0.77866  0.62656  0.95698  Biso   1.000  O 
  O62      1.0000 0.77784  0.62676  0.70635  Biso   1.000  O 
  O63      1.0000 0.72428  0.87561  0.95492  Biso   1.000  O 
  O64      1.0000 0.72331  0.87702  0.70460  Biso   1.000  O 
