data_image0
_cell_length_a       10.0551
_cell_length_b       10.2306
_cell_length_c       5.19387
_cell_angle_alpha    90
_cell_angle_beta     80
_cell_angle_gamma    90

_symmetry_space_group_name_H-M    "P 1"
_symmetry_int_tables_number       1

loop_
  _symmetry_equiv_pos_as_xyz
  'x, y, z'

loop_
  _atom_site_label
  _atom_site_occupancy
  _atom_site_fract_x
  _atom_site_fract_y
  _atom_site_fract_z
  _atom_site_thermal_displace_type
  _atom_site_B_iso_or_equiv
  _atom_site_type_symbol
  Cr1      1.0000 0.13266  0.02458  0.29950  Biso   1.000  Cr
  Hf1      1.0000 0.13881  0.22562  0.79148  Biso   1.000  Hf
  Hf2      1.0000 0.35854  0.26924  0.21093  Biso   1.000  Hf
  Hf3      1.0000 0.35973  0.47938  0.71006  Biso   1.000  Hf
  O1       1.0000 0.03740  0.15677  0.15599  Biso   1.000  O 
  O2       1.0000 0.03754  0.08303  0.62956  Biso   1.000  O 
  O3       1.0000 0.46225  0.42146  0.33607  Biso   1.000  O 
  O4       1.0000 0.45913  0.32692  0.83699  Biso   1.000  O 
  O5       1.0000 0.27186  0.12456  0.47804  Biso   1.000  O 
  O6       1.0000 0.26981  0.11802  0.99515  Biso   1.000  O 
  O7       1.0000 0.22239  0.37836  0.01946  Biso   1.000  O 
  O8       1.0000 0.22278  0.36968  0.52066  Biso   1.000  O 
  Hf4      1.0000 0.14030  0.52182  0.29308  Biso   1.000  Hf
  Hf5      1.0000 0.13892  0.73203  0.79191  Biso   1.000  Hf
  Hf6      1.0000 0.35729  0.77651  0.20962  Biso   1.000  Hf
  Hf7      1.0000 0.35580  0.97932  0.71030  Biso   1.000  Hf
  O9       1.0000 0.03670  0.66895  0.16177  Biso   1.000  O 
  O10      1.0000 0.03608  0.58044  0.66455  Biso   1.000  O 
  O11      1.0000 0.46472  0.92007  0.34001  Biso   1.000  O 
  O12      1.0000 0.45946  0.82936  0.83612  Biso   1.000  O 
  O13      1.0000 0.27696  0.63171  0.48353  Biso   1.000  O 
  O14      1.0000 0.27541  0.62241  0.98346  Biso   1.000  O 
  O15      1.0000 0.21794  0.88498  0.02425  Biso   1.000  O 
  O16      1.0000 0.21858  0.87550  0.51426  Biso   1.000  O 
  Hf8      1.0000 0.63706  0.02134  0.29236  Biso   1.000  Hf
  Hf9      1.0000 0.63667  0.22889  0.79242  Biso   1.000  Hf
  Hf10     1.0000 0.86303  0.26926  0.20993  Biso   1.000  Hf
  Hf11     1.0000 0.86067  0.47873  0.71081  Biso   1.000  Hf
  O17      1.0000 0.53711  0.17207  0.16543  Biso   1.000  O 
  O18      1.0000 0.53316  0.07932  0.66594  Biso   1.000  O 
  O19      1.0000 0.96623  0.41666  0.34171  Biso   1.000  O 
  O20      1.0000 0.96366  0.32740  0.84227  Biso   1.000  O 
  O21      1.0000 0.77545  0.12881  0.48127  Biso   1.000  O 
  O22      1.0000 0.77617  0.12079  0.97987  Biso   1.000  O 
  O23      1.0000 0.72502  0.37902  0.01995  Biso   1.000  O 
  O24      1.0000 0.72323  0.37059  0.51927  Biso   1.000  O 
  Hf12     1.0000 0.63840  0.52261  0.29253  Biso   1.000  Hf
  Hf13     1.0000 0.63733  0.72992  0.79554  Biso   1.000  Hf
  Hf14     1.0000 0.86479  0.77324  0.20801  Biso   1.000  Hf
  Hf15     1.0000 0.86301  0.98052  0.70395  Biso   1.000  Hf
  O25      1.0000 0.53610  0.67256  0.16448  Biso   1.000  O 
  O26      1.0000 0.53678  0.57817  0.66709  Biso   1.000  O 
  O27      1.0000 0.97785  0.92304  0.33047  Biso   1.000  O 
  O28      1.0000 0.96301  0.83185  0.83697  Biso   1.000  O 
  O29      1.0000 0.77759  0.63008  0.48381  Biso   1.000  O 
  O30      1.0000 0.77658  0.62254  0.98497  Biso   1.000  O 
  O31      1.0000 0.72457  0.87980  0.01820  Biso   1.000  O 
  O32      1.0000 0.72923  0.87243  0.51696  Biso   1.000  O 
