data_image0
_cell_length_a       10.0722
_cell_length_b       10.2795
_cell_length_c       10.549
_cell_angle_alpha    90
_cell_angle_beta     90
_cell_angle_gamma    90

_symmetry_space_group_name_H-M    "P 1"
_symmetry_int_tables_number       1

loop_
  _symmetry_equiv_pos_as_xyz
  'x, y, z'

loop_
  _atom_site_label
  _atom_site_occupancy
  _atom_site_fract_x
  _atom_site_fract_y
  _atom_site_fract_z
  _atom_site_thermal_displace_type
  _atom_site_B_iso_or_equiv
  _atom_site_type_symbol
  Hf1      1.0000 0.13720  0.02012  0.17185  Biso   1.000  Hf
  Hf2      1.0000 0.13062  0.22766  0.42772  Biso   1.000  Hf
  Hf3      1.0000 0.33711  0.27325  0.18908  Biso   1.000  Hf
  Hf4      1.0000 0.35730  0.47940  0.42208  Biso   1.000  Hf
  Hf5      1.0000 0.63940  0.00649  0.07990  Biso   1.000  Hf
  Hf6      1.0000 0.63002  0.21915  0.33212  Biso   1.000  Hf
  Hf7      1.0000 0.86886  0.27262  0.07535  Biso   1.000  Hf
  Hf8      1.0000 0.85462  0.47836  0.32750  Biso   1.000  Hf
  O1       1.0000 0.03552  0.16385  0.08147  Biso   1.000  O 
  O2       1.0000 0.02580  0.08848  0.33093  Biso   1.000  O 
  O3       1.0000 0.43731  0.45283  0.10739  Biso   1.000  O 
  O4       1.0000 0.46013  0.33188  0.33400  Biso   1.000  O 
  O5       1.0000 0.26386  0.12633  0.30257  Biso   1.000  O 
  O6       1.0000 0.28013  0.12587  0.04744  Biso   1.000  O 
  O7       1.0000 0.21122  0.37742  0.30345  Biso   1.000  O 
  O8       1.0000 0.21766  0.37604  0.04819  Biso   1.000  O 
  O9       1.0000 0.51450  0.10769  0.21175  Biso   1.000  O 
  O10      1.0000 0.52267  0.09469  0.44056  Biso   1.000  O 
  O11      1.0000 0.96576  0.41434  0.16980  Biso   1.000  O 
  O12      1.0000 0.96274  0.33798  0.41907  Biso   1.000  O 
  O13      1.0000 0.77042  0.12206  0.45240  Biso   1.000  O 
  O14      1.0000 0.77040  0.12946  0.20060  Biso   1.000  O 
  O15      1.0000 0.71902  0.37385  0.45485  Biso   1.000  O 
  O16      1.0000 0.71873  0.37966  0.20604  Biso   1.000  O 
  Hf9      1.0000 0.13359  0.02083  0.67282  Biso   1.000  Hf
  Hf10     1.0000 0.13324  0.22829  0.92135  Biso   1.000  Hf
  Hf11     1.0000 0.35516  0.27385  0.67361  Biso   1.000  Hf
  Hf12     1.0000 0.34683  0.48733  0.92527  Biso   1.000  Hf
  Hf13     1.0000 0.63506  0.01748  0.58006  Biso   1.000  Hf
  Hf14     1.0000 0.64092  0.22676  0.80738  Biso   1.000  Hf
  Hf15     1.0000 0.85702  0.27337  0.57466  Biso   1.000  Hf
  Hf16     1.0000 0.85711  0.48146  0.82767  Biso   1.000  Hf
  O17      1.0000 0.02435  0.16202  0.58236  Biso   1.000  O 
  O18      1.0000 0.02722  0.08524  0.83192  Biso   1.000  O 
  O19      1.0000 0.46336  0.41272  0.57859  Biso   1.000  O 
  O20      1.0000 0.46230  0.34434  0.82609  Biso   1.000  O 
  O21      1.0000 0.27052  0.12479  0.79608  Biso   1.000  O 
  O22      1.0000 0.26864  0.12553  0.54864  Biso   1.000  O 
  O23      1.0000 0.21676  0.37470  0.79765  Biso   1.000  O 
  O24      1.0000 0.21907  0.37605  0.54860  Biso   1.000  O 
  O25      1.0000 0.52491  0.16219  0.66854  Biso   1.000  O 
  O26      1.0000 0.53080  0.06491  0.90081  Biso   1.000  O 
  O27      1.0000 0.96269  0.41350  0.66779  Biso   1.000  O 
  O28      1.0000 0.96506  0.33569  0.91596  Biso   1.000  O 
  O29      1.0000 0.77008  0.12425  0.94893  Biso   1.000  O 
  O30      1.0000 0.77532  0.12271  0.69747  Biso   1.000  O 
  O31      1.0000 0.73198  0.38599  0.95225  Biso   1.000  O 
  O32      1.0000 0.72070  0.37632  0.70085  Biso   1.000  O 
  Hf17     1.0000 0.13490  0.52480  0.17215  Biso   1.000  Hf
  Hf18     1.0000 0.13200  0.72957  0.42157  Biso   1.000  Hf
  Hf19     1.0000 0.35606  0.77317  0.17346  Biso   1.000  Hf
  Hf20     1.0000 0.35688  0.98049  0.42436  Biso   1.000  Hf
  Hf21     1.0000 0.63647  0.53424  0.08193  Biso   1.000  Hf
  Hf22     1.0000 0.63376  0.73154  0.33109  Biso   1.000  Hf
  Hf23     1.0000 0.86098  0.77052  0.07871  Biso   1.000  Hf
  Hf24     1.0000 0.85685  0.98038  0.32806  Biso   1.000  Hf
  O33      1.0000 0.02935  0.66368  0.08065  Biso   1.000  O 
  O34      1.0000 0.02590  0.58861  0.33059  Biso   1.000  O 
  O35      1.0000 0.46542  0.90350  0.07412  Biso   1.000  O 
  O36      1.0000 0.46303  0.83912  0.33389  Biso   1.000  O 
  O37      1.0000 0.26980  0.62655  0.29533  Biso   1.000  O 
  O38      1.0000 0.26964  0.63286  0.04288  Biso   1.000  O 
  O39      1.0000 0.21940  0.87611  0.29573  Biso   1.000  O 
  O40      1.0000 0.21953  0.87839  0.04640  Biso   1.000  O 
  O41      1.0000 0.53328  0.67565  0.16912  Biso   1.000  O 
  O42      1.0000 0.52686  0.58675  0.41629  Biso   1.000  O 
  O43      1.0000 0.96354  0.91576  0.16776  Biso   1.000  O 
  O44      1.0000 0.96101  0.83729  0.41834  Biso   1.000  O 
  O45      1.0000 0.77026  0.62437  0.45463  Biso   1.000  O 
  O46      1.0000 0.77418  0.62870  0.20623  Biso   1.000  O 
  O47      1.0000 0.71790  0.87472  0.45688  Biso   1.000  O 
  O48      1.0000 0.72321  0.87417  0.20696  Biso   1.000  O 
  Hf25     1.0000 0.13223  0.52089  0.67156  Biso   1.000  Hf
  Hf26     1.0000 0.12732  0.73276  0.92054  Biso   1.000  Hf
  Hf27     1.0000 0.35385  0.76892  0.67043  Biso   1.000  Hf
  Hf28     1.0000 0.35224  0.97547  0.91850  Biso   1.000  Hf
  Hf29     1.0000 0.63310  0.52117  0.57574  Biso   1.000  Hf
  Hf30     1.0000 0.62941  0.72766  0.82657  Biso   1.000  Hf
  Hf31     1.0000 0.85597  0.77090  0.57924  Biso   1.000  Hf
  Hf32     1.0000 0.85261  0.97915  0.82976  Biso   1.000  Hf
  O49      1.0000 0.02642  0.66394  0.58152  Biso   1.000  O 
  O50      1.0000 0.02565  0.58814  0.83163  Biso   1.000  O 
  O51      1.0000 0.46175  0.90973  0.58299  Biso   1.000  O 
  O52      1.0000 0.45511  0.82764  0.83091  Biso   1.000  O 
  O53      1.0000 0.26662  0.62497  0.79460  Biso   1.000  O 
  O54      1.0000 0.26893  0.62486  0.54414  Biso   1.000  O 
  O55      1.0000 0.21482  0.87385  0.79404  Biso   1.000  O 
  O56      1.0000 0.21801  0.87635  0.54478  Biso   1.000  O 
  O57      1.0000 0.52489  0.66122  0.66674  Biso   1.000  O 
  O58      1.0000 0.52254  0.58514  0.91969  Biso   1.000  O 
  O59      1.0000 0.96058  0.91266  0.66885  Biso   1.000  O 
  O60      1.0000 0.95717  0.83822  0.91947  Biso   1.000  O 
  O61      1.0000 0.76563  0.62911  0.95378  Biso   1.000  O 
  O62      1.0000 0.76892  0.62513  0.70373  Biso   1.000  O 
  O63      1.0000 0.71448  0.87181  0.95624  Biso   1.000  O 
  O64      1.0000 0.71742  0.87350  0.70756  Biso   1.000  O 
  Cs1      1.0000 0.55399  0.26109  0.04126  Biso   1.000  Cs
