data_image0
_cell_length_a       5.11548
_cell_length_b       10.1762
_cell_length_c       10.16
_cell_angle_alpha    90
_cell_angle_beta     90
_cell_angle_gamma    90

_symmetry_space_group_name_H-M    "P 1"
_symmetry_int_tables_number       1

loop_
  _symmetry_equiv_pos_as_xyz
  'x, y, z'

loop_
  _atom_site_label
  _atom_site_occupancy
  _atom_site_fract_x
  _atom_site_fract_y
  _atom_site_fract_z
  _atom_site_thermal_displace_type
  _atom_site_B_iso_or_equiv
  _atom_site_type_symbol
  Cs1      1.0000 0.24900  0.01583  0.13902  Biso   1.000  Cs
  Hf1      1.0000 0.17473  0.01355  0.63163  Biso   1.000  Hf
  Hf2      1.0000 0.29971  0.51455  0.13246  Biso   1.000  Hf
  Hf3      1.0000 0.15973  0.53107  0.62750  Biso   1.000  Hf
  Hf4      1.0000 0.21705  0.26583  0.38518  Biso   1.000  Hf
  Hf5      1.0000 0.16622  0.28734  0.86432  Biso   1.000  Hf
  Hf6      1.0000 0.21514  0.75776  0.37492  Biso   1.000  Hf
  Hf7      1.0000 0.19234  0.78938  0.88734  Biso   1.000  Hf
  Hf8      1.0000 0.77248  0.27024  0.12076  Biso   1.000  Hf
  Hf9      1.0000 0.65830  0.25492  0.63193  Biso   1.000  Hf
  Hf10     1.0000 0.80872  0.73887  0.11783  Biso   1.000  Hf
  Hf11     1.0000 0.67165  0.77492  0.63082  Biso   1.000  Hf
  Hf12     1.0000 0.70860  0.03453  0.37803  Biso   1.000  Hf
  Hf13     1.0000 0.66878  0.03116  0.88364  Biso   1.000  Hf
  Hf14     1.0000 0.72211  0.52909  0.38537  Biso   1.000  Hf
  Hf15     1.0000 0.63072  0.53249  0.87034  Biso   1.000  Hf
  O1       1.0000 0.06123  0.12808  0.00671  Biso   1.000  O 
  O2       1.0000 0.94745  0.16757  0.50828  Biso   1.000  O 
  O3       1.0000 0.94782  0.65690  0.99486  Biso   1.000  O 
  O4       1.0000 0.93831  0.67386  0.50017  Biso   1.000  O 
  O5       1.0000 0.95174  0.14466  0.26676  Biso   1.000  O 
  O6       1.0000 0.88174  0.12646  0.75796  Biso   1.000  O 
  O7       1.0000 0.01124  0.61420  0.25007  Biso   1.000  O 
  O8       1.0000 0.86153  0.61610  0.73269  Biso   1.000  O 
  O9       1.0000 0.11709  0.35596  0.20542  Biso   1.000  O 
  O10      1.0000 0.96725  0.36779  0.70339  Biso   1.000  O 
  O11      1.0000 0.92273  0.86342  0.27241  Biso   1.000  O 
  O12      1.0000 0.96065  0.86838  0.74837  Biso   1.000  O 
  O13      1.0000 0.84211  0.39129  0.95229  Biso   1.000  O 
  O14      1.0000 0.04164  0.43295  0.45641  Biso   1.000  O 
  O15      1.0000 0.90093  0.90200  0.99113  Biso   1.000  O 
  O16      1.0000 0.85617  0.92792  0.52874  Biso   1.000  O 
  O17      1.0000 0.50497  0.18528  0.26096  Biso   1.000  O 
  O18      1.0000 0.37517  0.15751  0.74283  Biso   1.000  O 
  O19      1.0000 0.49400  0.66782  0.25059  Biso   1.000  O 
  O20      1.0000 0.37006  0.66284  0.75191  Biso   1.000  O 
  O21      1.0000 0.46826  0.17803  0.98323  Biso   1.000  O 
  O22      1.0000 0.43017  0.11837  0.50347  Biso   1.000  O 
  O23      1.0000 0.56694  0.61914  0.00302  Biso   1.000  O 
  O24      1.0000 0.44797  0.62056  0.50153  Biso   1.000  O 
  O25      1.0000 0.34213  0.41878  0.98787  Biso   1.000  O 
  O26      1.0000 0.53477  0.36598  0.47405  Biso   1.000  O 
  O27      1.0000 0.54037  0.86111  0.01398  Biso   1.000  O 
  O28      1.0000 0.35301  0.85929  0.53206  Biso   1.000  O 
  O29      1.0000 0.62695  0.43124  0.21817  Biso   1.000  O 
  O30      1.0000 0.44357  0.40872  0.73754  Biso   1.000  O 
  O31      1.0000 0.42673  0.92422  0.30055  Biso   1.000  O 
  O32      1.0000 0.45411  0.91247  0.76407  Biso   1.000  O 
