data_image0
_cell_length_a       10.254
_cell_length_b       5.17522
_cell_length_c       10.7573
_cell_angle_alpha    90
_cell_angle_beta     80
_cell_angle_gamma    90

_symmetry_space_group_name_H-M    "P 1"
_symmetry_int_tables_number       1

loop_
  _symmetry_equiv_pos_as_xyz
  'x, y, z'

loop_
  _atom_site_label
  _atom_site_occupancy
  _atom_site_fract_x
  _atom_site_fract_y
  _atom_site_fract_z
  _atom_site_thermal_displace_type
  _atom_site_B_iso_or_equiv
  _atom_site_type_symbol
  Hf1      1.0000 0.12693  0.04812  0.14888  Biso   1.000  Hf
  Hf2      1.0000 0.13570  0.45392  0.39187  Biso   1.000  Hf
  Hf3      1.0000 0.34440  0.57165  0.07949  Biso   1.000  Hf
  Hf4      1.0000 0.37004  0.91775  0.37377  Biso   1.000  Hf
  O1       1.0000 0.02506  0.31559  0.06593  Biso   1.000  O 
  O2       1.0000 0.02547  0.16420  0.32862  Biso   1.000  O 
  O3       1.0000 0.46276  0.86670  0.18003  Biso   1.000  O 
  O4       1.0000 0.48504  0.68018  0.45643  Biso   1.000  O 
  O5       1.0000 0.23946  0.30686  0.21843  Biso   1.000  O 
  O6       1.0000 0.27979  0.21881  0.48142  Biso   1.000  O 
  O7       1.0000 0.21016  0.78814  0.00597  Biso   1.000  O 
  O8       1.0000 0.22451  0.77500  0.26503  Biso   1.000  O 
  Hf5      1.0000 0.14680  0.02790  0.64019  Biso   1.000  Hf
  Hf6      1.0000 0.14293  0.43688  0.88753  Biso   1.000  Hf
  Hf7      1.0000 0.37165  0.52848  0.61378  Biso   1.000  Hf
  Hf8      1.0000 0.36721  0.95364  0.84903  Biso   1.000  Hf
  O9       1.0000 0.04028  0.30706  0.57190  Biso   1.000  O 
  O10      1.0000 0.04090  0.16021  0.81638  Biso   1.000  O 
  O11      1.0000 0.47666  0.80172  0.68485  Biso   1.000  O 
  O12      1.0000 0.48115  0.68762  0.92110  Biso   1.000  O 
  O13      1.0000 0.28194  0.23157  0.73173  Biso   1.000  O 
  O14      1.0000 0.28724  0.25151  0.97218  Biso   1.000  O 
  O15      1.0000 0.23189  0.72589  0.51651  Biso   1.000  O 
  O16      1.0000 0.23334  0.72432  0.76013  Biso   1.000  O 
  Hf9      1.0000 0.65131  0.01718  0.15289  Biso   1.000  Hf
  Hf10     1.0000 0.65873  0.43048  0.41198  Biso   1.000  Hf
  Hf11     1.0000 0.85703  0.52988  0.10467  Biso   1.000  Hf
  Hf12     1.0000 0.85660  0.93670  0.35641  Biso   1.000  Hf
  O17      1.0000 0.51664  0.32334  0.05051  Biso   1.000  O 
  O18      1.0000 0.58008  0.07941  0.35474  Biso   1.000  O 
  O19      1.0000 0.96132  0.80573  0.18199  Biso   1.000  O 
  O20      1.0000 0.96984  0.66632  0.42995  Biso   1.000  O 
  O21      1.0000 0.78887  0.23956  0.24116  Biso   1.000  O 
  O22      1.0000 0.78860  0.22095  0.49812  Biso   1.000  O 
  O23      1.0000 0.71904  0.74871  0.01466  Biso   1.000  O 
  O24      1.0000 0.72310  0.71011  0.25899  Biso   1.000  O 
  Hf13     1.0000 0.65025  0.02500  0.64901  Biso   1.000  Hf
  Hf14     1.0000 0.64769  0.43430  0.89410  Biso   1.000  Hf
  Hf15     1.0000 0.87162  0.52580  0.60893  Biso   1.000  Hf
  Hf16     1.0000 0.86818  0.93406  0.85507  Biso   1.000  Hf
  O25      1.0000 0.54170  0.30252  0.57945  Biso   1.000  O 
  O26      1.0000 0.53964  0.17745  0.81272  Biso   1.000  O 
  O27      1.0000 0.97645  0.80141  0.67884  Biso   1.000  O 
  O28      1.0000 0.97674  0.65888  0.92585  Biso   1.000  O 
  O29      1.0000 0.78617  0.23941  0.74265  Biso   1.000  O 
  O30      1.0000 0.78582  0.21369  0.99057  Biso   1.000  O 
  O31      1.0000 0.73335  0.73230  0.51727  Biso   1.000  O 
  O32      1.0000 0.73424  0.73103  0.76228  Biso   1.000  O 
  Cs1      1.0000 0.45407  0.41167  0.27402  Biso   1.000  Cs
