data_image0
_cell_length_a       10.16
_cell_length_b       10.1762
_cell_length_c       5.11546
_cell_angle_alpha    90
_cell_angle_beta     90
_cell_angle_gamma    90

_symmetry_space_group_name_H-M    "P 1"
_symmetry_int_tables_number       1

loop_
  _symmetry_equiv_pos_as_xyz
  'x, y, z'

loop_
  _atom_site_label
  _atom_site_occupancy
  _atom_site_fract_x
  _atom_site_fract_y
  _atom_site_fract_z
  _atom_site_thermal_displace_type
  _atom_site_B_iso_or_equiv
  _atom_site_type_symbol
  Cs1      1.0000 0.13203  0.01263  0.26434  Biso   1.000  Cs
  Hf1      1.0000 0.14276  0.51160  0.30107  Biso   1.000  Hf
  Hf2      1.0000 0.66314  0.99093  0.22108  Biso   1.000  Hf
  Hf3      1.0000 0.64132  0.50887  0.21832  Biso   1.000  Hf
  Hf4      1.0000 0.10814  0.27156  0.77806  Biso   1.000  Hf
  Hf5      1.0000 0.12177  0.74020  0.80156  Biso   1.000  Hf
  Hf6      1.0000 0.62084  0.23664  0.72377  Biso   1.000  Hf
  Hf7      1.0000 0.63890  0.75637  0.72329  Biso   1.000  Hf
  Hf8      1.0000 0.38793  0.25317  0.25440  Biso   1.000  Hf
  Hf9      1.0000 0.39625  0.74508  0.23836  Biso   1.000  Hf
  Hf10     1.0000 0.86821  0.25668  0.25866  Biso   1.000  Hf
  Hf11     1.0000 0.90929  0.75768  0.27419  Biso   1.000  Hf
  Hf12     1.0000 0.35779  0.02611  0.75033  Biso   1.000  Hf
  Hf13     1.0000 0.38332  0.52012  0.75166  Biso   1.000  Hf
  Hf14     1.0000 0.90082  0.00308  0.74303  Biso   1.000  Hf
  Hf15     1.0000 0.86992  0.50499  0.71659  Biso   1.000  Hf
  O1       1.0000 0.00973  0.12821  0.05859  Biso   1.000  O 
  O2       1.0000 0.01872  0.61947  0.04608  Biso   1.000  O 
  O3       1.0000 0.51489  0.14839  0.00217  Biso   1.000  O 
  O4       1.0000 0.49699  0.66224  0.97698  Biso   1.000  O 
  O5       1.0000 0.97394  0.14544  0.57683  Biso   1.000  O 
  O6       1.0000 0.00978  0.62292  0.55005  Biso   1.000  O 
  O7       1.0000 0.49418  0.10314  0.48474  Biso   1.000  O 
  O8       1.0000 0.51062  0.60514  0.48907  Biso   1.000  O 
  O9       1.0000 0.99129  0.38484  0.44514  Biso   1.000  O 
  O10      1.0000 0.03058  0.86407  0.51843  Biso   1.000  O 
  O11      1.0000 0.47110  0.35243  0.57923  Biso   1.000  O 
  O12      1.0000 0.55281  0.84183  0.39156  Biso   1.000  O 
  O13      1.0000 0.94022  0.36256  0.94082  Biso   1.000  O 
  O14      1.0000 0.99645  0.87188  0.99058  Biso   1.000  O 
  O15      1.0000 0.47039  0.41618  0.08317  Biso   1.000  O 
  O16      1.0000 0.53744  0.91441  0.89162  Biso   1.000  O 
  O17      1.0000 0.25258  0.17946  0.52953  Biso   1.000  O 
  O18      1.0000 0.26071  0.66191  0.50466  Biso   1.000  O 
  O19      1.0000 0.73603  0.13305  0.45656  Biso   1.000  O 
  O20      1.0000 0.76426  0.63760  0.43925  Biso   1.000  O 
  O21      1.0000 0.24385  0.14211  0.97723  Biso   1.000  O 
  O22      1.0000 0.27225  0.60463  0.02414  Biso   1.000  O 
  O23      1.0000 0.73523  0.10539  0.96481  Biso   1.000  O 
  O24      1.0000 0.72903  0.59542  0.92883  Biso   1.000  O 
  O25      1.0000 0.21491  0.34905  0.13139  Biso   1.000  O 
  O26      1.0000 0.27735  0.85988  0.93002  Biso   1.000  O 
  O27      1.0000 0.71651  0.34146  0.03926  Biso   1.000  O 
  O28      1.0000 0.78039  0.83994  0.02472  Biso   1.000  O 
  O29      1.0000 0.21560  0.42774  0.63985  Biso   1.000  O 
  O30      1.0000 0.32215  0.91576  0.43659  Biso   1.000  O 
  O31      1.0000 0.73821  0.38477  0.51762  Biso   1.000  O 
  O32      1.0000 0.78333  0.88724  0.51796  Biso   1.000  O 
