data_image0
_cell_length_a       5.03777
_cell_length_b       10.5973
_cell_length_c       10.2755
_cell_angle_alpha    90
_cell_angle_beta     90
_cell_angle_gamma    90

_symmetry_space_group_name_H-M    "P 1"
_symmetry_int_tables_number       1

loop_
  _symmetry_equiv_pos_as_xyz
  'x, y, z'

loop_
  _atom_site_label
  _atom_site_occupancy
  _atom_site_fract_x
  _atom_site_fract_y
  _atom_site_fract_z
  _atom_site_thermal_displace_type
  _atom_site_B_iso_or_equiv
  _atom_site_type_symbol
  Hf1      1.0000 0.20708  0.00552  0.10682  Biso   1.000  Hf
  Hf2      1.0000 0.18433  0.25248  0.41332  Biso   1.000  Hf
  Hf3      1.0000 0.59395  0.28401  0.17475  Biso   1.000  Hf
  Hf4      1.0000 0.67139  0.51204  0.38987  Biso   1.000  Hf
  O1       1.0000 0.87588  0.19681  0.27999  Biso   1.000  O 
  O2       1.0000 0.04663  0.07440  0.45787  Biso   1.000  O 
  O3       1.0000 0.84969  0.45415  0.22019  Biso   1.000  O 
  O4       1.0000 0.87681  0.35932  0.46479  Biso   1.000  O 
  O5       1.0000 0.39336  0.12949  0.25896  Biso   1.000  O 
  O6       1.0000 0.51895  0.16581  0.50364  Biso   1.000  O 
  O7       1.0000 0.39876  0.41377  0.51468  Biso   1.000  O 
  O8       1.0000 0.34613  0.39275  0.27622  Biso   1.000  O 
  Hf5      1.0000 0.19406  0.03468  0.61277  Biso   1.000  Hf
  Hf6      1.0000 0.20815  0.25643  0.82616  Biso   1.000  Hf
  Hf7      1.0000 0.69039  0.31160  0.63358  Biso   1.000  Hf
  Hf8      1.0000 0.65406  0.52558  0.85693  Biso   1.000  Hf
  O9       1.0000 0.06489  0.21434  0.64804  Biso   1.000  O 
  O10      1.0000 0.01628  0.11387  0.93008  Biso   1.000  O 
  O11      1.0000 0.82171  0.49804  0.66453  Biso   1.000  O 
  O12      1.0000 0.82556  0.34105  0.82777  Biso   1.000  O 
  O13      1.0000 0.50710  0.14505  0.74919  Biso   1.000  O 
  O14      1.0000 0.51121  0.15314  0.01737  Biso   1.000  O 
  O15      1.0000 0.51854  0.41038  0.02217  Biso   1.000  O 
  O16      1.0000 0.35859  0.41600  0.75420  Biso   1.000  O 
  Hf9      1.0000 0.20885  0.54478  0.14185  Biso   1.000  Hf
  Hf10     1.0000 0.19338  0.76390  0.37690  Biso   1.000  Hf
  Hf11     1.0000 0.66677  0.77680  0.13062  Biso   1.000  Hf
  Hf12     1.0000 0.73030  0.02339  0.35556  Biso   1.000  Hf
  O17      1.0000 0.00638  0.70259  0.20088  Biso   1.000  O 
  O18      1.0000 0.00374  0.60372  0.44513  Biso   1.000  O 
  O19      1.0000 0.84872  0.95676  0.18463  Biso   1.000  O 
  O20      1.0000 0.85068  0.84432  0.43987  Biso   1.000  O 
  O21      1.0000 0.47833  0.64198  0.26178  Biso   1.000  O 
  O22      1.0000 0.45757  0.66713  0.50555  Biso   1.000  O 
  O23      1.0000 0.38666  0.91416  0.48862  Biso   1.000  O 
  O24      1.0000 0.39348  0.88304  0.24118  Biso   1.000  O 
  Hf13     1.0000 0.19181  0.55521  0.62342  Biso   1.000  Hf
  Hf14     1.0000 0.15589  0.78160  0.86876  Biso   1.000  Hf
  Hf15     1.0000 0.65843  0.79922  0.61499  Biso   1.000  Hf
  Hf16     1.0000 0.63940  0.01160  0.85734  Biso   1.000  Hf
  O25      1.0000 0.98192  0.72083  0.69607  Biso   1.000  O 
  O26      1.0000 0.96088  0.61054  0.94966  Biso   1.000  O 
  O27      1.0000 0.85768  0.96079  0.69891  Biso   1.000  O 
  O28      1.0000 0.83057  0.86328  0.95262  Biso   1.000  O 
  O29      1.0000 0.44345  0.65770  0.75860  Biso   1.000  O 
  O30      1.0000 0.45182  0.65541  0.01793  Biso   1.000  O 
  O31      1.0000 0.35305  0.94954  0.98436  Biso   1.000  O 
  O32      1.0000 0.38125  0.89480  0.73865  Biso   1.000  O 
  Cs1      1.0000 0.06400  0.28294  0.06029  Biso   1.000  Cs
