data_image0
_cell_length_a       10.0031
_cell_length_b       10.455
_cell_length_c       10.1099
_cell_angle_alpha    90
_cell_angle_beta     90
_cell_angle_gamma    90

_symmetry_space_group_name_H-M    "P 1"
_symmetry_int_tables_number       1

loop_
  _symmetry_equiv_pos_as_xyz
  'x, y, z'

loop_
  _atom_site_label
  _atom_site_occupancy
  _atom_site_fract_x
  _atom_site_fract_y
  _atom_site_fract_z
  _atom_site_thermal_displace_type
  _atom_site_B_iso_or_equiv
  _atom_site_type_symbol
  Hf1      1.0000 0.12948  0.01310  0.12814  Biso   1.000  Hf
  Hf2      1.0000 0.12512  0.23155  0.38317  Biso   1.000  Hf
  Hf3      1.0000 0.37314  0.27147  0.12216  Biso   1.000  Hf
  Hf4      1.0000 0.36156  0.48139  0.37969  Biso   1.000  Hf
  O1       1.0000 0.00904  0.17060  0.22035  Biso   1.000  O 
  O2       1.0000 0.04085  0.05161  0.43238  Biso   1.000  O 
  O3       1.0000 0.46776  0.43464  0.20718  Biso   1.000  O 
  O4       1.0000 0.45697  0.31749  0.44956  Biso   1.000  O 
  O5       1.0000 0.26246  0.12108  0.24040  Biso   1.000  O 
  O6       1.0000 0.27088  0.13225  0.49028  Biso   1.000  O 
  O7       1.0000 0.22195  0.38340  0.50437  Biso   1.000  O 
  O8       1.0000 0.22489  0.36780  0.25482  Biso   1.000  O 
  Hf5      1.0000 0.12686  0.00441  0.61311  Biso   1.000  Hf
  Hf6      1.0000 0.11986  0.20147  0.81839  Biso   1.000  Hf
  Hf7      1.0000 0.36157  0.26688  0.62520  Biso   1.000  Hf
  Hf8      1.0000 0.36970  0.49213  0.86830  Biso   1.000  Hf
  O9       1.0000 0.04572  0.18593  0.63380  Biso   1.000  O 
  O10      1.0000 0.02196  0.06957  0.94841  Biso   1.000  O 
  O11      1.0000 0.45512  0.43550  0.68905  Biso   1.000  O 
  O12      1.0000 0.47301  0.32520  0.94814  Biso   1.000  O 
  O13      1.0000 0.27556  0.10820  0.72806  Biso   1.000  O 
  O14      1.0000 0.26371  0.15035  0.98259  Biso   1.000  O 
  O15      1.0000 0.27729  0.42394  0.02265  Biso   1.000  O 
  O16      1.0000 0.22377  0.36529  0.75606  Biso   1.000  O 
  Hf9      1.0000 0.14044  0.53804  0.13773  Biso   1.000  Hf
  Hf10     1.0000 0.13281  0.73799  0.38149  Biso   1.000  Hf
  Hf11     1.0000 0.36650  0.77269  0.12804  Biso   1.000  Hf
  Hf12     1.0000 0.36155  0.98866  0.37460  Biso   1.000  Hf
  O17      1.0000 0.03323  0.69003  0.20196  Biso   1.000  O 
  O18      1.0000 0.03891  0.57080  0.44030  Biso   1.000  O 
  O19      1.0000 0.46165  0.93822  0.19913  Biso   1.000  O 
  O20      1.0000 0.46289  0.82088  0.44853  Biso   1.000  O 
  O21      1.0000 0.27516  0.62534  0.25817  Biso   1.000  O 
  O22      1.0000 0.26619  0.63410  0.50653  Biso   1.000  O 
  O23      1.0000 0.23296  0.87998  0.49785  Biso   1.000  O 
  O24      1.0000 0.22576  0.87005  0.25009  Biso   1.000  O 
  Hf13     1.0000 0.13000  0.52084  0.62552  Biso   1.000  Hf
  Hf14     1.0000 0.12147  0.74429  0.87430  Biso   1.000  Hf
  Hf15     1.0000 0.36350  0.76920  0.62957  Biso   1.000  Hf
  Hf16     1.0000 0.36054  0.99221  0.87638  Biso   1.000  Hf
  O25      1.0000 0.02925  0.68899  0.69697  Biso   1.000  O 
  O26      1.0000 0.02403  0.56466  0.94528  Biso   1.000  O 
  O27      1.0000 0.46467  0.93177  0.70152  Biso   1.000  O 
  O28      1.0000 0.45683  0.82608  0.95142  Biso   1.000  O 
  O29      1.0000 0.26080  0.62040  0.75631  Biso   1.000  O 
  O30      1.0000 0.25558  0.65546  0.00940  Biso   1.000  O 
  O31      1.0000 0.23244  0.89481  0.00070  Biso   1.000  O 
  O32      1.0000 0.22733  0.86663  0.75113  Biso   1.000  O 
  Hf17     1.0000 0.63009  0.01548  0.12847  Biso   1.000  Hf
  Hf18     1.0000 0.62512  0.23285  0.39061  Biso   1.000  Hf
  Hf19     1.0000 0.83565  0.26210  0.16146  Biso   1.000  Hf
  Hf20     1.0000 0.86535  0.48715  0.38705  Biso   1.000  Hf
  O33      1.0000 0.53514  0.18618  0.20058  Biso   1.000  O 
  O34      1.0000 0.52996  0.06774  0.45251  Biso   1.000  O 
  O35      1.0000 0.95639  0.43834  0.20810  Biso   1.000  O 
  O36      1.0000 0.95078  0.31534  0.43813  Biso   1.000  O 
  O37      1.0000 0.75325  0.11302  0.26456  Biso   1.000  O 
  O38      1.0000 0.76858  0.13370  0.50747  Biso   1.000  O 
  O39      1.0000 0.72075  0.38252  0.50758  Biso   1.000  O 
  O40      1.0000 0.71438  0.37296  0.26570  Biso   1.000  O 
  Hf21     1.0000 0.63101  0.01893  0.63043  Biso   1.000  Hf
  Hf22     1.0000 0.63592  0.23881  0.87797  Biso   1.000  Hf
  Hf23     1.0000 0.86087  0.27594  0.63012  Biso   1.000  Hf
  Hf24     1.0000 0.85595  0.49156  0.85986  Biso   1.000  Hf
  O41      1.0000 0.53274  0.18638  0.69878  Biso   1.000  O 
  O42      1.0000 0.53081  0.07379  0.94893  Biso   1.000  O 
  O43      1.0000 0.94202  0.46072  0.65824  Biso   1.000  O 
  O44      1.0000 0.93305  0.30032  0.82460  Biso   1.000  O 
  O45      1.0000 0.76521  0.11885  0.75522  Biso   1.000  O 
  O46      1.0000 0.77431  0.13470  0.01400  Biso   1.000  O 
  O47      1.0000 0.75438  0.38189  0.00885  Biso   1.000  O 
  O48      1.0000 0.70780  0.38207  0.75365  Biso   1.000  O 
  Hf25     1.0000 0.63363  0.51872  0.13028  Biso   1.000  Hf
  Hf26     1.0000 0.62881  0.73578  0.37811  Biso   1.000  Hf
  Hf27     1.0000 0.86047  0.76440  0.12955  Biso   1.000  Hf
  Hf28     1.0000 0.86343  0.98308  0.37779  Biso   1.000  Hf
  O49      1.0000 0.53556  0.68613  0.19597  Biso   1.000  O 
  O50      1.0000 0.52855  0.57052  0.44800  Biso   1.000  O 
  O51      1.0000 0.95850  0.93102  0.19571  Biso   1.000  O 
  O52      1.0000 0.96410  0.81851  0.45499  Biso   1.000  O 
  O53      1.0000 0.76753  0.61787  0.25434  Biso   1.000  O 
  O54      1.0000 0.76331  0.63755  0.50357  Biso   1.000  O 
  O55      1.0000 0.72717  0.88552  0.50336  Biso   1.000  O 
  O56      1.0000 0.72702  0.86673  0.25324  Biso   1.000  O 
  Hf29     1.0000 0.62591  0.52118  0.62560  Biso   1.000  Hf
  Hf30     1.0000 0.62435  0.74133  0.88065  Biso   1.000  Hf
  Hf31     1.0000 0.85911  0.77106  0.62972  Biso   1.000  Hf
  Hf32     1.0000 0.85402  0.98634  0.88175  Biso   1.000  Hf
  O57      1.0000 0.52468  0.68159  0.70590  Biso   1.000  O 
  O58      1.0000 0.52630  0.57614  0.95353  Biso   1.000  O 
  O59      1.0000 0.95866  0.93716  0.70339  Biso   1.000  O 
  O60      1.0000 0.95390  0.81966  0.95101  Biso   1.000  O 
  O61      1.0000 0.76036  0.62631  0.75170  Biso   1.000  O 
  O62      1.0000 0.76831  0.63386  0.00127  Biso   1.000  O 
  O63      1.0000 0.72821  0.88238  0.00488  Biso   1.000  O 
  O64      1.0000 0.72370  0.87016  0.75426  Biso   1.000  O 
  Cs1      1.0000 0.06621  0.31066  0.03271  Biso   1.000  Cs
