data_image0
_cell_length_a       10.1038
_cell_length_b       10.258
_cell_length_c       10.1097
_cell_angle_alpha    90
_cell_angle_beta     90
_cell_angle_gamma    90

_symmetry_space_group_name_H-M    "P 1"
_symmetry_int_tables_number       1

loop_
  _symmetry_equiv_pos_as_xyz
  'x, y, z'

loop_
  _atom_site_label
  _atom_site_occupancy
  _atom_site_fract_x
  _atom_site_fract_y
  _atom_site_fract_z
  _atom_site_thermal_displace_type
  _atom_site_B_iso_or_equiv
  _atom_site_type_symbol
  Cs1      1.0000 0.12513  0.96968  0.14239  Biso   1.000  Cs
  Hf1      1.0000 0.11933  0.99359  0.61285  Biso   1.000  Hf
  Hf2      1.0000 0.14451  0.51124  0.11502  Biso   1.000  Hf
  Hf3      1.0000 0.12280  0.52166  0.63860  Biso   1.000  Hf
  Hf4      1.0000 0.61889  0.00551  0.12325  Biso   1.000  Hf
  Hf5      1.0000 0.61355  0.01589  0.62088  Biso   1.000  Hf
  Hf6      1.0000 0.62119  0.50490  0.11578  Biso   1.000  Hf
  Hf7      1.0000 0.62691  0.50102  0.61855  Biso   1.000  Hf
  Hf8      1.0000 0.12628  0.24724  0.38435  Biso   1.000  Hf
  Hf9      1.0000 0.10692  0.23998  0.89266  Biso   1.000  Hf
  Hf10     1.0000 0.14567  0.73762  0.38760  Biso   1.000  Hf
  Hf11     1.0000 0.10416  0.75734  0.87388  Biso   1.000  Hf
  Hf12     1.0000 0.62074  0.25799  0.36787  Biso   1.000  Hf
  Hf13     1.0000 0.60575  0.24651  0.87194  Biso   1.000  Hf
  Hf14     1.0000 0.65730  0.73533  0.37218  Biso   1.000  Hf
  Hf15     1.0000 0.60616  0.74118  0.86361  Biso   1.000  Hf
  Hf16     1.0000 0.36110  0.23664  0.13322  Biso   1.000  Hf
  Hf17     1.0000 0.36502  0.25366  0.63186  Biso   1.000  Hf
  Hf18     1.0000 0.40705  0.76672  0.15784  Biso   1.000  Hf
  Hf19     1.0000 0.38757  0.74457  0.62327  Biso   1.000  Hf
  Hf20     1.0000 0.87385  0.24139  0.11883  Biso   1.000  Hf
  Hf21     1.0000 0.89032  0.27419  0.63347  Biso   1.000  Hf
  Hf22     1.0000 0.86338  0.74864  0.10118  Biso   1.000  Hf
  Hf23     1.0000 0.86625  0.73975  0.62551  Biso   1.000  Hf
  Hf24     1.0000 0.37921  0.01542  0.38618  Biso   1.000  Hf
  Hf25     1.0000 0.34741  0.01455  0.87562  Biso   1.000  Hf
  Hf26     1.0000 0.36835  0.48531  0.35576  Biso   1.000  Hf
  Hf27     1.0000 0.35686  0.51432  0.87664  Biso   1.000  Hf
  Hf28     1.0000 0.85446  0.00878  0.37730  Biso   1.000  Hf
  Hf29     1.0000 0.85479  0.01596  0.84837  Biso   1.000  Hf
  Hf30     1.0000 0.87414  0.47796  0.36292  Biso   1.000  Hf
  Hf31     1.0000 0.87518  0.48882  0.89030  Biso   1.000  Hf
  O1       1.0000 0.95888  0.13814  0.98286  Biso   1.000  O 
  O2       1.0000 0.98245  0.14531  0.49755  Biso   1.000  O 
  O3       1.0000 0.00032  0.62279  0.01683  Biso   1.000  O 
  O4       1.0000 0.02142  0.66106  0.52709  Biso   1.000  O 
  O5       1.0000 0.50473  0.16014  0.00244  Biso   1.000  O 
  O6       1.0000 0.48950  0.16222  0.49804  Biso   1.000  O 
  O7       1.0000 0.49665  0.65385  0.00567  Biso   1.000  O 
  O8       1.0000 0.53506  0.66618  0.51221  Biso   1.000  O 
  O9       1.0000 0.99149  0.10056  0.24498  Biso   1.000  O 
  O10      1.0000 0.99605  0.12662  0.74474  Biso   1.000  O 
  O11      1.0000 0.04061  0.56218  0.28671  Biso   1.000  O 
  O12      1.0000 0.98523  0.62013  0.76576  Biso   1.000  O 
  O13      1.0000 0.49631  0.11631  0.25338  Biso   1.000  O 
  O14      1.0000 0.48836  0.10116  0.75493  Biso   1.000  O 
  O15      1.0000 0.52118  0.61667  0.25696  Biso   1.000  O 
  O16      1.0000 0.49117  0.59670  0.74599  Biso   1.000  O 
  O17      1.0000 0.97727  0.32577  0.27057  Biso   1.000  O 
  O18      1.0000 0.01915  0.37573  0.76287  Biso   1.000  O 
  O19      1.0000 0.02078  0.76556  0.23213  Biso   1.000  O 
  O20      1.0000 0.97549  0.87982  0.71140  Biso   1.000  O 
  O21      1.0000 0.49112  0.36807  0.21961  Biso   1.000  O 
  O22      1.0000 0.52943  0.34169  0.70962  Biso   1.000  O 
  O23      1.0000 0.54457  0.86949  0.27322  Biso   1.000  O 
  O24      1.0000 0.45335  0.84516  0.78839  Biso   1.000  O 
  O25      1.0000 0.01833  0.37841  0.01797  Biso   1.000  O 
  O26      1.0000 0.01366  0.40001  0.51100  Biso   1.000  O 
  O27      1.0000 0.93804  0.86040  0.95916  Biso   1.000  O 
  O28      1.0000 0.02987  0.90643  0.44686  Biso   1.000  O 
  O29      1.0000 0.50906  0.41005  0.95980  Biso   1.000  O 
  O30      1.0000 0.52662  0.41887  0.46124  Biso   1.000  O 
  O31      1.0000 0.46015  0.92729  0.04581  Biso   1.000  O 
  O32      1.0000 0.48745  0.91124  0.53697  Biso   1.000  O 
  O33      1.0000 0.25435  0.13810  0.27281  Biso   1.000  O 
  O34      1.0000 0.24911  0.16723  0.76613  Biso   1.000  O 
  O35      1.0000 0.27449  0.62571  0.23370  Biso   1.000  O 
  O36      1.0000 0.23684  0.66389  0.74270  Biso   1.000  O 
  O37      1.0000 0.74276  0.14351  0.23773  Biso   1.000  O 
  O38      1.0000 0.74422  0.15547  0.73252  Biso   1.000  O 
  O39      1.0000 0.77292  0.63074  0.24275  Biso   1.000  O 
  O40      1.0000 0.72884  0.65281  0.73445  Biso   1.000  O 
  O41      1.0000 0.25144  0.12262  0.00673  Biso   1.000  O 
  O42      1.0000 0.24031  0.10359  0.51579  Biso   1.000  O 
  O43      1.0000 0.21387  0.61107  0.97286  Biso   1.000  O 
  O44      1.0000 0.27044  0.60091  0.49445  Biso   1.000  O 
  O45      1.0000 0.71717  0.09053  0.98393  Biso   1.000  O 
  O46      1.0000 0.71938  0.10512  0.47941  Biso   1.000  O 
  O47      1.0000 0.72769  0.60015  0.98493  Biso   1.000  O 
  O48      1.0000 0.77288  0.59940  0.49318  Biso   1.000  O 
  O49      1.0000 0.24763  0.36988  0.99273  Biso   1.000  O 
  O50      1.0000 0.27226  0.34777  0.47931  Biso   1.000  O 
  O51      1.0000 0.22419  0.82398  0.05066  Biso   1.000  O 
  O52      1.0000 0.23465  0.84357  0.55204  Biso   1.000  O 
  O53      1.0000 0.74880  0.34514  0.97884  Biso   1.000  O 
  O54      1.0000 0.76503  0.34521  0.48578  Biso   1.000  O 
  O55      1.0000 0.69905  0.83952  0.02181  Biso   1.000  O 
  O56      1.0000 0.76245  0.86183  0.49795  Biso   1.000  O 
  O57      1.0000 0.23462  0.37623  0.24190  Biso   1.000  O 
  O58      1.0000 0.27623  0.41711  0.72271  Biso   1.000  O 
  O59      1.0000 0.29664  0.86191  0.30704  Biso   1.000  O 
  O60      1.0000 0.19990  0.92452  0.80587  Biso   1.000  O 
  O61      1.0000 0.74123  0.39022  0.23393  Biso   1.000  O 
  O62      1.0000 0.77535  0.41420  0.72998  Biso   1.000  O 
  O63      1.0000 0.79527  0.89579  0.23503  Biso   1.000  O 
  O64      1.0000 0.71952  0.90016  0.76238  Biso   1.000  O 
