data_image0
_cell_length_a       10.184
_cell_length_b       5.17535
_cell_length_c       10.456
_cell_angle_alpha    90
_cell_angle_beta     80
_cell_angle_gamma    90

_symmetry_space_group_name_H-M    "P 1"
_symmetry_int_tables_number       1

loop_
  _symmetry_equiv_pos_as_xyz
  'x, y, z'

loop_
  _atom_site_label
  _atom_site_occupancy
  _atom_site_fract_x
  _atom_site_fract_y
  _atom_site_fract_z
  _atom_site_thermal_displace_type
  _atom_site_B_iso_or_equiv
  _atom_site_type_symbol
  Cs1      1.0000 0.10391  0.99756  0.11617  Biso   1.000  Cs
  Hf1      1.0000 0.12708  0.04019  0.64638  Biso   1.000  Hf
  Hf2      1.0000 0.63534  0.03548  0.14980  Biso   1.000  Hf
  Hf3      1.0000 0.62573  0.04037  0.64938  Biso   1.000  Hf
  Hf4      1.0000 0.12820  0.44301  0.39327  Biso   1.000  Hf
  Hf5      1.0000 0.11982  0.46128  0.89384  Biso   1.000  Hf
  Hf6      1.0000 0.62195  0.45401  0.40127  Biso   1.000  Hf
  Hf7      1.0000 0.62153  0.45547  0.89774  Biso   1.000  Hf
  Hf8      1.0000 0.36215  0.52105  0.10941  Biso   1.000  Hf
  Hf9      1.0000 0.34489  0.53921  0.60351  Biso   1.000  Hf
  Hf10     1.0000 0.84633  0.53182  0.10552  Biso   1.000  Hf
  Hf11     1.0000 0.84984  0.54058  0.60651  Biso   1.000  Hf
  Hf12     1.0000 0.34508  0.95228  0.35229  Biso   1.000  Hf
  Hf13     1.0000 0.34802  0.95249  0.85177  Biso   1.000  Hf
  Hf14     1.0000 0.84095  0.96114  0.36913  Biso   1.000  Hf
  Hf15     1.0000 0.84013  0.95561  0.85668  Biso   1.000  Hf
  O1       1.0000 0.03899  0.43585  0.08964  Biso   1.000  O 
  O2       1.0000 0.02351  0.34040  0.58539  Biso   1.000  O 
  O3       1.0000 0.54029  0.33446  0.08007  Biso   1.000  O 
  O4       1.0000 0.52008  0.33467  0.58479  Biso   1.000  O 
  O5       1.0000 0.01818  0.15461  0.34139  Biso   1.000  O 
  O6       1.0000 0.02032  0.15747  0.83769  Biso   1.000  O 
  O7       1.0000 0.52813  0.15179  0.33343  Biso   1.000  O 
  O8       1.0000 0.52453  0.15186  0.83351  Biso   1.000  O 
  O9       1.0000 0.46102  0.82876  0.16982  Biso   1.000  O 
  O10      1.0000 0.44726  0.83649  0.66949  Biso   1.000  O 
  O11      1.0000 0.90522  0.89143  0.17077  Biso   1.000  O 
  O12      1.0000 0.94613  0.84265  0.67185  Biso   1.000  O 
  O13      1.0000 0.45085  0.65515  0.42191  Biso   1.000  O 
  O14      1.0000 0.45112  0.65175  0.91736  Biso   1.000  O 
  O15      1.0000 0.94963  0.65658  0.41848  Biso   1.000  O 
  O16      1.0000 0.94216  0.66241  0.92159  Biso   1.000  O 
  O17      1.0000 0.27730  0.24590  0.24558  Biso   1.000  O 
  O18      1.0000 0.26100  0.25608  0.74027  Biso   1.000  O 
  O19      1.0000 0.76332  0.26899  0.24806  Biso   1.000  O 
  O20      1.0000 0.76266  0.25790  0.74424  Biso   1.000  O 
  O21      1.0000 0.26240  0.23750  0.49260  Biso   1.000  O 
  O22      1.0000 0.25929  0.23995  0.98347  Biso   1.000  O 
  O23      1.0000 0.76018  0.24231  0.49799  Biso   1.000  O 
  O24      1.0000 0.75897  0.23568  0.99577  Biso   1.000  O 
  O25      1.0000 0.22968  0.73247  0.99895  Biso   1.000  O 
  O26      1.0000 0.20849  0.75705  0.51126  Biso   1.000  O 
  O27      1.0000 0.72040  0.75759  0.00905  Biso   1.000  O 
  O28      1.0000 0.70803  0.75468  0.51638  Biso   1.000  O 
  O29      1.0000 0.22784  0.70511  0.26262  Biso   1.000  O 
  O30      1.0000 0.20485  0.74039  0.76003  Biso   1.000  O 
  O31      1.0000 0.70976  0.74247  0.26591  Biso   1.000  O 
  O32      1.0000 0.70767  0.73884  0.76201  Biso   1.000  O 
