data_image0
_cell_length_a       5.10821
_cell_length_b       10.3977
_cell_length_c       10.6528
_cell_angle_alpha    90
_cell_angle_beta     80
_cell_angle_gamma    90

_symmetry_space_group_name_H-M    "P 1"
_symmetry_int_tables_number       1

loop_
  _symmetry_equiv_pos_as_xyz
  'x, y, z'

loop_
  _atom_site_label
  _atom_site_occupancy
  _atom_site_fract_x
  _atom_site_fract_y
  _atom_site_fract_z
  _atom_site_thermal_displace_type
  _atom_site_B_iso_or_equiv
  _atom_site_type_symbol
  Hf1      1.0000 0.27777  0.01101  0.14592  Biso   1.000  Hf
  Hf2      1.0000 0.30173  0.23274  0.41128  Biso   1.000  Hf
  Hf3      1.0000 0.68582  0.27722  0.08036  Biso   1.000  Hf
  Hf4      1.0000 0.72146  0.48415  0.35476  Biso   1.000  Hf
  O1       1.0000 0.04545  0.15324  0.05547  Biso   1.000  O 
  O2       1.0000 0.11546  0.03443  0.37129  Biso   1.000  O 
  O3       1.0000 0.91856  0.42984  0.16050  Biso   1.000  O 
  O4       1.0000 0.96742  0.36910  0.45181  Biso   1.000  O 
  O5       1.0000 0.47700  0.14489  0.22590  Biso   1.000  O 
  O6       1.0000 0.57376  0.11335  0.48934  Biso   1.000  O 
  O7       1.0000 0.41957  0.38569  0.00469  Biso   1.000  O 
  O8       1.0000 0.44154  0.38104  0.25837  Biso   1.000  O 
  Hf5      1.0000 0.28710  0.01760  0.63890  Biso   1.000  Hf
  Hf6      1.0000 0.27531  0.21749  0.88659  Biso   1.000  Hf
  Hf7      1.0000 0.74058  0.27525  0.61166  Biso   1.000  Hf
  Hf8      1.0000 0.72125  0.47880  0.85509  Biso   1.000  Hf
  O9       1.0000 0.08787  0.17176  0.58564  Biso   1.000  O 
  O10      1.0000 0.07441  0.07772  0.81498  Biso   1.000  O 
  O11      1.0000 0.93978  0.41326  0.68593  Biso   1.000  O 
  O12      1.0000 0.93473  0.33060  0.91401  Biso   1.000  O 
  O13      1.0000 0.55827  0.12311  0.73529  Biso   1.000  O 
  O14      1.0000 0.55808  0.11721  0.97842  Biso   1.000  O 
  O15      1.0000 0.46748  0.37366  0.51548  Biso   1.000  O 
  O16      1.0000 0.45720  0.36796  0.75989  Biso   1.000  O 
  Hf9      1.0000 0.26474  0.52590  0.14720  Biso   1.000  Hf
  Hf10     1.0000 0.27821  0.72243  0.39768  Biso   1.000  Hf
  Hf11     1.0000 0.70681  0.77223  0.10590  Biso   1.000  Hf
  Hf12     1.0000 0.73416  0.95441  0.36944  Biso   1.000  Hf
  O17      1.0000 0.05883  0.67699  0.08025  Biso   1.000  O 
  O18      1.0000 0.06512  0.58723  0.32276  Biso   1.000  O 
  O19      1.0000 0.90711  0.91978  0.18206  Biso   1.000  O 
  O20      1.0000 0.91058  0.80519  0.42527  Biso   1.000  O 
  O21      1.0000 0.54999  0.63159  0.24338  Biso   1.000  O 
  O22      1.0000 0.54143  0.61445  0.49310  Biso   1.000  O 
  O23      1.0000 0.43500  0.88103  0.01122  Biso   1.000  O 
  O24      1.0000 0.44041  0.86575  0.26052  Biso   1.000  O 
  Hf13     1.0000 0.27674  0.51663  0.64878  Biso   1.000  Hf
  Hf14     1.0000 0.27325  0.72599  0.89768  Biso   1.000  Hf
  Hf15     1.0000 0.71968  0.76064  0.61006  Biso   1.000  Hf
  Hf16     1.0000 0.71872  0.97303  0.84921  Biso   1.000  Hf
  O25      1.0000 0.06640  0.65822  0.58050  Biso   1.000  O 
  O26      1.0000 0.06839  0.58380  0.82947  Biso   1.000  O 
  O27      1.0000 0.92591  0.90960  0.66759  Biso   1.000  O 
  O28      1.0000 0.93467  0.83436  0.92371  Biso   1.000  O 
  O29      1.0000 0.55043  0.62218  0.74252  Biso   1.000  O 
  O30      1.0000 0.55686  0.62062  0.99174  Biso   1.000  O 
  O31      1.0000 0.44696  0.86746  0.51498  Biso   1.000  O 
  O32      1.0000 0.44544  0.86539  0.76144  Biso   1.000  O 
  Cs1      1.0000 0.90114  0.21483  0.28333  Biso   1.000  Cs
