data_image0
_cell_length_a       10.0427
_cell_length_b       5.31542
_cell_length_c       10.2271
_cell_angle_alpha    90
_cell_angle_beta     90
_cell_angle_gamma    90

_symmetry_space_group_name_H-M    "P 1"
_symmetry_int_tables_number       1

loop_
  _symmetry_equiv_pos_as_xyz
  'x, y, z'

loop_
  _atom_site_label
  _atom_site_occupancy
  _atom_site_fract_x
  _atom_site_fract_y
  _atom_site_fract_z
  _atom_site_thermal_displace_type
  _atom_site_B_iso_or_equiv
  _atom_site_type_symbol
  Hf1      1.0000 0.14111  0.11853  0.14874  Biso   1.000  Hf
  Hf2      1.0000 0.12949  0.51325  0.38765  Biso   1.000  Hf
  Hf3      1.0000 0.37047  0.58409  0.13174  Biso   1.000  Hf
  Hf4      1.0000 0.36163  0.00592  0.37956  Biso   1.000  Hf
  O1       1.0000 0.02676  0.41297  0.21326  Biso   1.000  O 
  O2       1.0000 0.05499  0.15763  0.42306  Biso   1.000  O 
  O3       1.0000 0.47093  0.90380  0.21487  Biso   1.000  O 
  O4       1.0000 0.45468  0.67438  0.45505  Biso   1.000  O 
  O5       1.0000 0.27646  0.29672  0.26248  Biso   1.000  O 
  O6       1.0000 0.27285  0.30048  0.50640  Biso   1.000  O 
  O7       1.0000 0.22447  0.80122  0.50385  Biso   1.000  O 
  O8       1.0000 0.22484  0.78245  0.25527  Biso   1.000  O 
  Hf5      1.0000 0.12616  0.07221  0.61359  Biso   1.000  Hf
  Hf6      1.0000 0.11083  0.47032  0.82684  Biso   1.000  Hf
  Hf7      1.0000 0.35585  0.58193  0.63023  Biso   1.000  Hf
  Hf8      1.0000 0.39108  0.06199  0.85923  Biso   1.000  Hf
  O9       1.0000 0.04835  0.43471  0.63380  Biso   1.000  O 
  O10      1.0000 0.00540  0.28853  0.96316  Biso   1.000  O 
  O11      1.0000 0.46350  0.89467  0.68987  Biso   1.000  O 
  O12      1.0000 0.47359  0.74655  0.95105  Biso   1.000  O 
  O13      1.0000 0.26444  0.27583  0.74865  Biso   1.000  O 
  O14      1.0000 0.24322  0.36263  0.01699  Biso   1.000  O 
  O15      1.0000 0.28480  0.89366  0.02095  Biso   1.000  O 
  O16      1.0000 0.22300  0.78252  0.75567  Biso   1.000  O 
  Hf9      1.0000 0.64365  0.07349  0.13852  Biso   1.000  Hf
  Hf10     1.0000 0.62021  0.51045  0.38659  Biso   1.000  Hf
  Hf11     1.0000 0.84293  0.57648  0.16541  Biso   1.000  Hf
  Hf12     1.0000 0.86776  0.01203  0.39320  Biso   1.000  Hf
  O17      1.0000 0.53480  0.40313  0.20665  Biso   1.000  O 
  O18      1.0000 0.52907  0.18082  0.45567  Biso   1.000  O 
  O19      1.0000 0.95794  0.91451  0.21350  Biso   1.000  O 
  O20      1.0000 0.94735  0.65925  0.43239  Biso   1.000  O 
  O21      1.0000 0.76634  0.27516  0.27177  Biso   1.000  O 
  O22      1.0000 0.75985  0.32574  0.51081  Biso   1.000  O 
  O23      1.0000 0.71433  0.80890  0.50848  Biso   1.000  O 
  O24      1.0000 0.71770  0.78581  0.26864  Biso   1.000  O 
  Hf13     1.0000 0.63445  0.09241  0.62457  Biso   1.000  Hf
  Hf14     1.0000 0.62351  0.55553  0.87235  Biso   1.000  Hf
  Hf15     1.0000 0.86107  0.60699  0.62302  Biso   1.000  Hf
  Hf16     1.0000 0.86215  0.04897  0.84560  Biso   1.000  Hf
  O25      1.0000 0.51314  0.38375  0.71698  Biso   1.000  O 
  O26      1.0000 0.53890  0.24056  0.95901  Biso   1.000  O 
  O27      1.0000 0.92768  0.98065  0.62265  Biso   1.000  O 
  O28      1.0000 0.93851  0.69017  0.80855  Biso   1.000  O 
  O29      1.0000 0.76179  0.31819  0.75600  Biso   1.000  O 
  O30      1.0000 0.74856  0.35975  0.02762  Biso   1.000  O 
  O31      1.0000 0.77145  0.84274  0.01967  Biso   1.000  O 
  O32      1.0000 0.71020  0.82867  0.75683  Biso   1.000  O 
  Cs1      1.0000 0.06516  0.69311  0.01091  Biso   1.000  Cs
