data_image0
_cell_length_a       10.0132
_cell_length_b       5.21336
_cell_length_c       10.0967
_cell_angle_alpha    90
_cell_angle_beta     90
_cell_angle_gamma    90

_symmetry_space_group_name_H-M    "P 1"
_symmetry_int_tables_number       1

loop_
  _symmetry_equiv_pos_as_xyz
  'x, y, z'

loop_
  _atom_site_label
  _atom_site_occupancy
  _atom_site_fract_x
  _atom_site_fract_y
  _atom_site_fract_z
  _atom_site_thermal_displace_type
  _atom_site_B_iso_or_equiv
  _atom_site_type_symbol
  Cs1      1.0000 0.11056  0.01439  0.11712  Biso   1.000  Cs
  Hf1      1.0000 0.13543  0.04597  0.63587  Biso   1.000  Hf
  Hf2      1.0000 0.63635  0.02689  0.12740  Biso   1.000  Hf
  Hf3      1.0000 0.63469  0.03844  0.62580  Biso   1.000  Hf
  Hf4      1.0000 0.13854  0.47105  0.38558  Biso   1.000  Hf
  Hf5      1.0000 0.14017  0.47582  0.86827  Biso   1.000  Hf
  Hf6      1.0000 0.63094  0.46895  0.37702  Biso   1.000  Hf
  Hf7      1.0000 0.64036  0.46511  0.87551  Biso   1.000  Hf
  Hf8      1.0000 0.36822  0.52457  0.13424  Biso   1.000  Hf
  Hf9      1.0000 0.36904  0.53854  0.62805  Biso   1.000  Hf
  Hf10     1.0000 0.85541  0.52448  0.12597  Biso   1.000  Hf
  Hf11     1.0000 0.86839  0.53721  0.61968  Biso   1.000  Hf
  Hf12     1.0000 0.36255  0.96961  0.37945  Biso   1.000  Hf
  Hf13     1.0000 0.37401  0.96539  0.87732  Biso   1.000  Hf
  Hf14     1.0000 0.86222  0.97815  0.38662  Biso   1.000  Hf
  Hf15     1.0000 0.86636  0.96221  0.86482  Biso   1.000  Hf
  O1       1.0000 0.02788  0.42803  0.20832  Biso   1.000  O 
  O2       1.0000 0.04991  0.40615  0.67218  Biso   1.000  O 
  O3       1.0000 0.54418  0.36854  0.19219  Biso   1.000  O 
  O4       1.0000 0.54084  0.37226  0.69592  Biso   1.000  O 
  O5       1.0000 0.03849  0.13247  0.44342  Biso   1.000  O 
  O6       1.0000 0.04657  0.13183  0.87014  Biso   1.000  O 
  O7       1.0000 0.53789  0.13503  0.44703  Biso   1.000  O 
  O8       1.0000 0.54406  0.13334  0.94745  Biso   1.000  O 
  O9       1.0000 0.46909  0.86278  0.19876  Biso   1.000  O 
  O10      1.0000 0.46794  0.87062  0.69842  Biso   1.000  O 
  O11      1.0000 0.92984  0.89444  0.19129  Biso   1.000  O 
  O12      1.0000 0.95454  0.87934  0.67611  Biso   1.000  O 
  O13      1.0000 0.46616  0.63490  0.45077  Biso   1.000  O 
  O14      1.0000 0.47396  0.63131  0.94461  Biso   1.000  O 
  O15      1.0000 0.96153  0.64066  0.43891  Biso   1.000  O 
  O16      1.0000 0.97377  0.64165  0.94792  Biso   1.000  O 
  O17      1.0000 0.28601  0.25276  0.26324  Biso   1.000  O 
  O18      1.0000 0.28324  0.25061  0.75506  Biso   1.000  O 
  O19      1.0000 0.76800  0.23700  0.25316  Biso   1.000  O 
  O20      1.0000 0.77465  0.23878  0.74702  Biso   1.000  O 
  O21      1.0000 0.27254  0.26380  0.50905  Biso   1.000  O 
  O22      1.0000 0.26418  0.24483  0.00313  Biso   1.000  O 
  O23      1.0000 0.76947  0.27106  0.49955  Biso   1.000  O 
  O24      1.0000 0.78449  0.25689  0.99736  Biso   1.000  O 
  O25      1.0000 0.22863  0.77253  0.50804  Biso   1.000  O 
  O26      1.0000 0.25160  0.73546  0.99599  Biso   1.000  O 
  O27      1.0000 0.72715  0.76737  0.50161  Biso   1.000  O 
  O28      1.0000 0.73235  0.75890  0.99981  Biso   1.000  O 
  O29      1.0000 0.24660  0.71480  0.26513  Biso   1.000  O 
  O30      1.0000 0.23280  0.75025  0.75161  Biso   1.000  O 
  O31      1.0000 0.73078  0.73835  0.25265  Biso   1.000  O 
  O32      1.0000 0.73270  0.73548  0.74980  Biso   1.000  O 
