data_image0
_cell_length_a       9.97018
_cell_length_b       10.3944
_cell_length_c       10.0499
_cell_angle_alpha    90
_cell_angle_beta     90
_cell_angle_gamma    90

_symmetry_space_group_name_H-M    "P 1"
_symmetry_int_tables_number       1

loop_
  _symmetry_equiv_pos_as_xyz
  'x, y, z'

loop_
  _atom_site_label
  _atom_site_occupancy
  _atom_site_fract_x
  _atom_site_fract_y
  _atom_site_fract_z
  _atom_site_thermal_displace_type
  _atom_site_B_iso_or_equiv
  _atom_site_type_symbol
  Cs1      1.0000 0.10994  0.01060  0.11342  Biso   1.000  Cs
  Hf1      1.0000 0.13304  0.02063  0.63751  Biso   1.000  Hf
  Hf2      1.0000 0.13520  0.51585  0.12737  Biso   1.000  Hf
  Hf3      1.0000 0.13695  0.51821  0.62704  Biso   1.000  Hf
  Hf4      1.0000 0.63757  0.01440  0.12620  Biso   1.000  Hf
  Hf5      1.0000 0.63475  0.01762  0.62522  Biso   1.000  Hf
  Hf6      1.0000 0.63281  0.51468  0.12739  Biso   1.000  Hf
  Hf7      1.0000 0.63535  0.51633  0.62653  Biso   1.000  Hf
  Hf8      1.0000 0.13946  0.23253  0.38462  Biso   1.000  Hf
  Hf9      1.0000 0.13604  0.23852  0.86513  Biso   1.000  Hf
  Hf10     1.0000 0.13660  0.73431  0.37909  Biso   1.000  Hf
  Hf11     1.0000 0.14033  0.73109  0.87751  Biso   1.000  Hf
  Hf12     1.0000 0.63273  0.23256  0.37477  Biso   1.000  Hf
  Hf13     1.0000 0.63909  0.23243  0.87619  Biso   1.000  Hf
  Hf14     1.0000 0.63325  0.73381  0.37787  Biso   1.000  Hf
  Hf15     1.0000 0.63794  0.73163  0.87514  Biso   1.000  Hf
  Hf16     1.0000 0.36426  0.26643  0.13130  Biso   1.000  Hf
  Hf17     1.0000 0.37054  0.26670  0.62725  Biso   1.000  Hf
  Hf18     1.0000 0.36999  0.76360  0.12980  Biso   1.000  Hf
  Hf19     1.0000 0.36714  0.76790  0.62698  Biso   1.000  Hf
  Hf20     1.0000 0.85905  0.26823  0.12735  Biso   1.000  Hf
  Hf21     1.0000 0.86857  0.27028  0.62190  Biso   1.000  Hf
  Hf22     1.0000 0.86246  0.75905  0.12372  Biso   1.000  Hf
  Hf23     1.0000 0.86857  0.76229  0.62165  Biso   1.000  Hf
  Hf24     1.0000 0.36577  0.48369  0.37749  Biso   1.000  Hf
  Hf25     1.0000 0.37030  0.48205  0.87834  Biso   1.000  Hf
  Hf26     1.0000 0.36354  0.98408  0.37789  Biso   1.000  Hf
  Hf27     1.0000 0.37412  0.98361  0.87490  Biso   1.000  Hf
  Hf28     1.0000 0.86738  0.48447  0.37577  Biso   1.000  Hf
  Hf29     1.0000 0.86975  0.48153  0.87584  Biso   1.000  Hf
  Hf30     1.0000 0.86480  0.98597  0.38804  Biso   1.000  Hf
  Hf31     1.0000 0.86806  0.98037  0.86342  Biso   1.000  Hf
  O1       1.0000 0.02877  0.20309  0.20808  Biso   1.000  O 
  O2       1.0000 0.05123  0.20289  0.66784  Biso   1.000  O 
  O3       1.0000 0.03876  0.68931  0.19280  Biso   1.000  O 
  O4       1.0000 0.03976  0.68682  0.69590  Biso   1.000  O 
  O5       1.0000 0.54260  0.18613  0.18843  Biso   1.000  O 
  O6       1.0000 0.54191  0.18548  0.69470  Biso   1.000  O 
  O7       1.0000 0.53942  0.68224  0.19713  Biso   1.000  O 
  O8       1.0000 0.53839  0.68382  0.69552  Biso   1.000  O 
  O9       1.0000 0.03938  0.06407  0.44235  Biso   1.000  O 
  O10      1.0000 0.04956  0.06155  0.86237  Biso   1.000  O 
  O11      1.0000 0.03699  0.56586  0.44696  Biso   1.000  O 
  O12      1.0000 0.03922  0.56622  0.94438  Biso   1.000  O 
  O13      1.0000 0.53764  0.06592  0.44545  Biso   1.000  O 
  O14      1.0000 0.54387  0.06484  0.94425  Biso   1.000  O 
  O15      1.0000 0.53662  0.56595  0.44556  Biso   1.000  O 
  O16      1.0000 0.54011  0.56444  0.94702  Biso   1.000  O 
  O17      1.0000 0.46350  0.43280  0.19617  Biso   1.000  O 
  O18      1.0000 0.46781  0.43404  0.69689  Biso   1.000  O 
  O19      1.0000 0.47018  0.93310  0.19679  Biso   1.000  O 
  O20      1.0000 0.46764  0.93401  0.69632  Biso   1.000  O 
  O21      1.0000 0.95967  0.43852  0.19024  Biso   1.000  O 
  O22      1.0000 0.96656  0.43710  0.69657  Biso   1.000  O 
  O23      1.0000 0.94115  0.93769  0.19786  Biso   1.000  O 
  O24      1.0000 0.95401  0.93480  0.67200  Biso   1.000  O 
  O25      1.0000 0.46497  0.31583  0.44487  Biso   1.000  O 
  O26      1.0000 0.46578  0.31187  0.94343  Biso   1.000  O 
  O27      1.0000 0.46649  0.81676  0.44989  Biso   1.000  O 
  O28      1.0000 0.47186  0.81561  0.94513  Biso   1.000  O 
  O29      1.0000 0.96344  0.31953  0.44100  Biso   1.000  O 
  O30      1.0000 0.96745  0.31180  0.94471  Biso   1.000  O 
  O31      1.0000 0.96167  0.81287  0.43848  Biso   1.000  O 
  O32      1.0000 0.97433  0.82285  0.94893  Biso   1.000  O 
  O33      1.0000 0.28741  0.13322  0.26434  Biso   1.000  O 
  O34      1.0000 0.28378  0.12418  0.75389  Biso   1.000  O 
  O35      1.0000 0.27077  0.61397  0.25115  Biso   1.000  O 
  O36      1.0000 0.27410  0.61803  0.75183  Biso   1.000  O 
  O37      1.0000 0.77019  0.11699  0.25285  Biso   1.000  O 
  O38      1.0000 0.77466  0.11950  0.74692  Biso   1.000  O 
  O39      1.0000 0.77095  0.61653  0.24872  Biso   1.000  O 
  O40      1.0000 0.77373  0.61592  0.74956  Biso   1.000  O 
  O41      1.0000 0.27265  0.12859  0.50912  Biso   1.000  O 
  O42      1.0000 0.26238  0.12918  0.00108  Biso   1.000  O 
  O43      1.0000 0.27251  0.63258  0.50194  Biso   1.000  O 
  O44      1.0000 0.27180  0.62921  0.00222  Biso   1.000  O 
  O45      1.0000 0.77074  0.13412  0.50067  Biso   1.000  O 
  O46      1.0000 0.78397  0.12770  0.99814  Biso   1.000  O 
  O47      1.0000 0.77011  0.63159  0.49818  Biso   1.000  O 
  O48      1.0000 0.77495  0.62918  0.99845  Biso   1.000  O 
  O49      1.0000 0.23255  0.38295  0.50268  Biso   1.000  O 
  O50      1.0000 0.22951  0.38075  0.00162  Biso   1.000  O 
  O51      1.0000 0.22723  0.88349  0.50679  Biso   1.000  O 
  O52      1.0000 0.24883  0.87275  0.99634  Biso   1.000  O 
  O53      1.0000 0.73074  0.38308  0.50004  Biso   1.000  O 
  O54      1.0000 0.72735  0.38021  0.00002  Biso   1.000  O 
  O55      1.0000 0.72746  0.88091  0.50152  Biso   1.000  O 
  O56      1.0000 0.73403  0.87769  0.99968  Biso   1.000  O 
  O57      1.0000 0.22649  0.37122  0.25291  Biso   1.000  O 
  O58      1.0000 0.23410  0.37210  0.74979  Biso   1.000  O 
  O59      1.0000 0.24742  0.85456  0.26243  Biso   1.000  O 
  O60      1.0000 0.23253  0.86925  0.75296  Biso   1.000  O 
  O61      1.0000 0.72772  0.36924  0.25128  Biso   1.000  O 
  O62      1.0000 0.73308  0.36799  0.75066  Biso   1.000  O 
  O63      1.0000 0.73461  0.86611  0.25131  Biso   1.000  O 
  O64      1.0000 0.73276  0.86564  0.74942  Biso   1.000  O 
