data_image0
_cell_length_a       10.1233
_cell_length_b       5.15301
_cell_length_c       10.7705
_cell_angle_alpha    90
_cell_angle_beta     90
_cell_angle_gamma    90

_symmetry_space_group_name_H-M    "P 1"
_symmetry_int_tables_number       1

loop_
  _symmetry_equiv_pos_as_xyz
  'x, y, z'

loop_
  _atom_site_label
  _atom_site_occupancy
  _atom_site_fract_x
  _atom_site_fract_y
  _atom_site_fract_z
  _atom_site_thermal_displace_type
  _atom_site_B_iso_or_equiv
  _atom_site_type_symbol
  Hf1      1.0000 0.13288  0.04901  0.17378  Biso   1.000  Hf
  Hf2      1.0000 0.12545  0.46226  0.42462  Biso   1.000  Hf
  Hf3      1.0000 0.34299  0.55749  0.19018  Biso   1.000  Hf
  Hf4      1.0000 0.34927  0.96412  0.42697  Biso   1.000  Hf
  Hf5      1.0000 0.62935  0.04678  0.10435  Biso   1.000  Hf
  Hf6      1.0000 0.62964  0.46578  0.33726  Biso   1.000  Hf
  Hf7      1.0000 0.87093  0.55205  0.07389  Biso   1.000  Hf
  Hf8      1.0000 0.85366  0.96709  0.32962  Biso   1.000  Hf
  O1       1.0000 0.03084  0.31218  0.07287  Biso   1.000  O 
  O2       1.0000 0.01999  0.19593  0.32576  Biso   1.000  O 
  O3       1.0000 0.43152  0.89411  0.11971  Biso   1.000  O 
  O4       1.0000 0.45625  0.68049  0.34075  Biso   1.000  O 
  O5       1.0000 0.26131  0.25657  0.29975  Biso   1.000  O 
  O6       1.0000 0.27746  0.27161  0.04427  Biso   1.000  O 
  O7       1.0000 0.21093  0.75766  0.30448  Biso   1.000  O 
  O8       1.0000 0.21313  0.75961  0.05151  Biso   1.000  O 
  O9       1.0000 0.51436  0.32056  0.19845  Biso   1.000  O 
  O10      1.0000 0.51925  0.18348  0.42581  Biso   1.000  O 
  O11      1.0000 0.96643  0.81918  0.18062  Biso   1.000  O 
  O12      1.0000 0.96077  0.69588  0.42661  Biso   1.000  O 
  O13      1.0000 0.76565  0.25366  0.44898  Biso   1.000  O 
  O14      1.0000 0.77045  0.26532  0.20305  Biso   1.000  O 
  O15      1.0000 0.71743  0.75212  0.46167  Biso   1.000  O 
  O16      1.0000 0.71298  0.76068  0.21985  Biso   1.000  O 
  Hf9      1.0000 0.12658  0.05830  0.67430  Biso   1.000  Hf
  Hf10     1.0000 0.12074  0.49980  0.92021  Biso   1.000  Hf
  Hf11     1.0000 0.34264  0.55876  0.66984  Biso   1.000  Hf
  Hf12     1.0000 0.33094  0.00843  0.93167  Biso   1.000  Hf
  Hf13     1.0000 0.62797  0.03981  0.56934  Biso   1.000  Hf
  Hf14     1.0000 0.62417  0.45724  0.78609  Biso   1.000  Hf
  Hf15     1.0000 0.85796  0.56284  0.58009  Biso   1.000  Hf
  Hf16     1.0000 0.84974  0.01015  0.83388  Biso   1.000  Hf
  O17      1.0000 0.01867  0.33012  0.57718  Biso   1.000  O 
  O18      1.0000 0.01863  0.21903  0.82417  Biso   1.000  O 
  O19      1.0000 0.45943  0.81235  0.57139  Biso   1.000  O 
  O20      1.0000 0.45569  0.69765  0.80365  Biso   1.000  O 
  O21      1.0000 0.25976  0.27613  0.79601  Biso   1.000  O 
  O22      1.0000 0.26006  0.25771  0.54516  Biso   1.000  O 
  O23      1.0000 0.20944  0.77695  0.79974  Biso   1.000  O 
  O24      1.0000 0.21015  0.76315  0.55012  Biso   1.000  O 
  O25      1.0000 0.50633  0.29978  0.66207  Biso   1.000  O 
  O26      1.0000 0.51691  0.15523  0.92629  Biso   1.000  O 
  O27      1.0000 0.95810  0.83826  0.67548  Biso   1.000  O 
  O28      1.0000 0.95922  0.72516  0.92169  Biso   1.000  O 
  O29      1.0000 0.76553  0.35600  0.91997  Biso   1.000  O 
  O30      1.0000 0.76388  0.25234  0.68417  Biso   1.000  O 
  O31      1.0000 0.74768  0.89483  0.98854  Biso   1.000  O 
  O32      1.0000 0.71570  0.76625  0.71010  Biso   1.000  O 
  Cs1      1.0000 0.56645  0.56819  0.00962  Biso   1.000  Cs
