data_image0
_cell_length_a       10.2638
_cell_length_b       10.4006
_cell_length_c       5.32683
_cell_angle_alpha    90
_cell_angle_beta     80
_cell_angle_gamma    90

_symmetry_space_group_name_H-M    "P 1"
_symmetry_int_tables_number       1

loop_
  _symmetry_equiv_pos_as_xyz
  'x, y, z'

loop_
  _atom_site_label
  _atom_site_occupancy
  _atom_site_fract_x
  _atom_site_fract_y
  _atom_site_fract_z
  _atom_site_thermal_displace_type
  _atom_site_B_iso_or_equiv
  _atom_site_type_symbol
  Hf1      1.0000 0.13076  0.02347  0.28041  Biso   1.000  Hf
  Hf2      1.0000 0.12960  0.22467  0.77166  Biso   1.000  Hf
  Hf3      1.0000 0.34285  0.28896  0.16661  Biso   1.000  Hf
  Hf4      1.0000 0.35271  0.48979  0.71082  Biso   1.000  Hf
  O1       1.0000 0.02869  0.16378  0.14111  Biso   1.000  O 
  O2       1.0000 0.02678  0.07899  0.64796  Biso   1.000  O 
  O3       1.0000 0.45515  0.42892  0.35532  Biso   1.000  O 
  O4       1.0000 0.47480  0.38273  0.89531  Biso   1.000  O 
  O5       1.0000 0.24807  0.14084  0.43965  Biso   1.000  O 
  O6       1.0000 0.27318  0.11467  0.94991  Biso   1.000  O 
  O7       1.0000 0.20288  0.38600  0.00504  Biso   1.000  O 
  O8       1.0000 0.21934  0.37775  0.50418  Biso   1.000  O 
  Hf5      1.0000 0.12849  0.52449  0.29664  Biso   1.000  Hf
  Hf6      1.0000 0.12875  0.72694  0.79827  Biso   1.000  Hf
  Hf7      1.0000 0.34998  0.77019  0.22364  Biso   1.000  Hf
  Hf8      1.0000 0.36062  0.95743  0.73031  Biso   1.000  Hf
  O9       1.0000 0.01965  0.66268  0.15326  Biso   1.000  O 
  O10      1.0000 0.02530  0.58524  0.65338  Biso   1.000  O 
  O11      1.0000 0.45434  0.91764  0.35594  Biso   1.000  O 
  O12      1.0000 0.45652  0.81853  0.85867  Biso   1.000  O 
  O13      1.0000 0.26432  0.63169  0.48674  Biso   1.000  O 
  O14      1.0000 0.26787  0.62342  0.98875  Biso   1.000  O 
  O15      1.0000 0.21335  0.87701  0.03949  Biso   1.000  O 
  O16      1.0000 0.21930  0.87067  0.54041  Biso   1.000  O 
  Hf9      1.0000 0.64791  0.01050  0.29995  Biso   1.000  Hf
  Hf10     1.0000 0.66350  0.21972  0.81865  Biso   1.000  Hf
  Hf11     1.0000 0.85967  0.27136  0.22135  Biso   1.000  Hf
  Hf12     1.0000 0.85702  0.47379  0.71072  Biso   1.000  Hf
  O17      1.0000 0.52604  0.16383  0.12327  Biso   1.000  O 
  O18      1.0000 0.57680  0.03531  0.69412  Biso   1.000  O 
  O19      1.0000 0.96232  0.41321  0.35266  Biso   1.000  O 
  O20      1.0000 0.96108  0.32949  0.84449  Biso   1.000  O 
  O21      1.0000 0.78528  0.12471  0.48553  Biso   1.000  O 
  O22      1.0000 0.78739  0.11199  0.99645  Biso   1.000  O 
  O23      1.0000 0.72150  0.37518  0.04095  Biso   1.000  O 
  O24      1.0000 0.72023  0.36741  0.53472  Biso   1.000  O 
  Hf13     1.0000 0.62756  0.52335  0.29411  Biso   1.000  Hf
  Hf14     1.0000 0.63477  0.72066  0.79298  Biso   1.000  Hf
  Hf15     1.0000 0.84946  0.76554  0.20824  Biso   1.000  Hf
  Hf16     1.0000 0.84763  0.96893  0.70724  Biso   1.000  Hf
  O25      1.0000 0.52461  0.66766  0.15654  Biso   1.000  O 
  O26      1.0000 0.52437  0.59596  0.63987  Biso   1.000  O 
  O27      1.0000 0.95225  0.90695  0.35245  Biso   1.000  O 
  O28      1.0000 0.95940  0.83189  0.85098  Biso   1.000  O 
  O29      1.0000 0.76951  0.62078  0.48021  Biso   1.000  O 
  O30      1.0000 0.76917  0.61348  0.97683  Biso   1.000  O 
  O31      1.0000 0.71178  0.87344  0.02214  Biso   1.000  O 
  O32      1.0000 0.71737  0.85795  0.51056  Biso   1.000  O 
  Cs1      1.0000 0.45089  0.21613  0.57581  Biso   1.000  Cs
