data_image0
_cell_length_a       10.2406
_cell_length_b       10.5262
_cell_length_c       5.10589
_cell_angle_alpha    90
_cell_angle_beta     90
_cell_angle_gamma    90

_symmetry_space_group_name_H-M    "P 1"
_symmetry_int_tables_number       1

loop_
  _symmetry_equiv_pos_as_xyz
  'x, y, z'

loop_
  _atom_site_label
  _atom_site_occupancy
  _atom_site_fract_x
  _atom_site_fract_y
  _atom_site_fract_z
  _atom_site_thermal_displace_type
  _atom_site_B_iso_or_equiv
  _atom_site_type_symbol
  Hf1      1.0000 0.11279  0.95236  0.27907  Biso   1.000  Hf
  Hf2      1.0000 0.17810  0.19396  0.84982  Biso   1.000  Hf
  Hf3      1.0000 0.40519  0.26690  0.25889  Biso   1.000  Hf
  Hf4      1.0000 0.33470  0.46275  0.75134  Biso   1.000  Hf
  O1       1.0000 0.97469  0.03342  0.31275  Biso   1.000  O 
  O2       1.0000 0.00891  0.10424  0.84030  Biso   1.000  O 
  O3       1.0000 0.43617  0.44897  0.41244  Biso   1.000  O 
  O4       1.0000 0.49669  0.33442  0.92965  Biso   1.000  O 
  O5       1.0000 0.23502  0.04405  0.61001  Biso   1.000  O 
  O6       1.0000 0.26152  0.13302  0.12287  Biso   1.000  O 
  O7       1.0000 0.24103  0.38699  0.07306  Biso   1.000  O 
  O8       1.0000 0.28030  0.29325  0.58033  Biso   1.000  O 
  Hf5      1.0000 0.07919  0.51664  0.17841  Biso   1.000  Hf
  Hf6      1.0000 0.10807  0.71311  0.71124  Biso   1.000  Hf
  Hf7      1.0000 0.36946  0.76207  0.15866  Biso   1.000  Hf
  Hf8      1.0000 0.36205  0.97061  0.71273  Biso   1.000  Hf
  O9       1.0000 0.97070  0.63328  0.43760  Biso   1.000  O 
  O10      1.0000 0.97806  0.58816  0.93021  Biso   1.000  O 
  O11      1.0000 0.45261  0.91560  0.37912  Biso   1.000  O 
  O12      1.0000 0.50100  0.83036  0.89015  Biso   1.000  O 
  O13      1.0000 0.18880  0.54406  0.52950  Biso   1.000  O 
  O14      1.0000 0.21877  0.63959  0.00672  Biso   1.000  O 
  O15      1.0000 0.25468  0.85383  0.96610  Biso   1.000  O 
  O16      1.0000 0.23166  0.80688  0.45105  Biso   1.000  O 
  Hf9      1.0000 0.60730  0.97985  0.15919  Biso   1.000  Hf
  Hf10     1.0000 0.62300  0.20926  0.73053  Biso   1.000  Hf
  Hf11     1.0000 0.79386  0.26469  0.21505  Biso   1.000  Hf
  Hf12     1.0000 0.86207  0.47392  0.71139  Biso   1.000  Hf
  O17      1.0000 0.46999  0.14230  0.53314  Biso   1.000  O 
  O18      1.0000 0.52503  0.07576  0.99059  Biso   1.000  O 
  O19      1.0000 0.89730  0.42247  0.32964  Biso   1.000  O 
  O20      1.0000 0.02685  0.35677  0.86803  Biso   1.000  O 
  O21      1.0000 0.73594  0.09712  0.44448  Biso   1.000  O 
  O22      1.0000 0.76004  0.09356  0.93134  Biso   1.000  O 
  O23      1.0000 0.74238  0.35436  0.92697  Biso   1.000  O 
  O24      1.0000 0.62498  0.31326  0.36090  Biso   1.000  O 
  Hf13     1.0000 0.58440  0.51469  0.18794  Biso   1.000  Hf
  Hf14     1.0000 0.63034  0.70857  0.69949  Biso   1.000  Hf
  Hf15     1.0000 0.86084  0.75338  0.20283  Biso   1.000  Hf
  Hf16     1.0000 0.89098  0.98732  0.65589  Biso   1.000  Hf
  O25      1.0000 0.50846  0.67802  0.38280  Biso   1.000  O 
  O26      1.0000 0.48263  0.58443  0.90125  Biso   1.000  O 
  O27      1.0000 0.98480  0.85166  0.55547  Biso   1.000  O 
  O28      1.0000 0.00828  0.84030  0.03653  Biso   1.000  O 
  O29      1.0000 0.70981  0.55811  0.50048  Biso   1.000  O 
  O30      1.0000 0.73672  0.60418  0.98791  Biso   1.000  O 
  O31      1.0000 0.75603  0.84506  0.92216  Biso   1.000  O 
  O32      1.0000 0.71624  0.84078  0.42632  Biso   1.000  O 
  Cs1      1.0000 0.05686  0.24769  0.38154  Biso   1.000  Cs
