data_image0
_cell_length_a       10.1425
_cell_length_b       10.3921
_cell_length_c       5.31097
_cell_angle_alpha    90
_cell_angle_beta     90
_cell_angle_gamma    90

_symmetry_space_group_name_H-M    "P 1"
_symmetry_int_tables_number       1

loop_
  _symmetry_equiv_pos_as_xyz
  'x, y, z'

loop_
  _atom_site_label
  _atom_site_occupancy
  _atom_site_fract_x
  _atom_site_fract_y
  _atom_site_fract_z
  _atom_site_thermal_displace_type
  _atom_site_B_iso_or_equiv
  _atom_site_type_symbol
  Hf1      1.0000 0.14085  0.02280  0.34632  Biso   1.000  Hf
  Hf2      1.0000 0.13587  0.23254  0.84814  Biso   1.000  Hf
  Hf3      1.0000 0.33981  0.27894  0.36686  Biso   1.000  Hf
  Hf4      1.0000 0.34907  0.49365  0.85150  Biso   1.000  Hf
  Hf5      1.0000 0.64226  0.00465  0.14445  Biso   1.000  Hf
  Hf6      1.0000 0.63322  0.20602  0.59503  Biso   1.000  Hf
  Hf7      1.0000 0.87527  0.27669  0.16346  Biso   1.000  Hf
  Hf8      1.0000 0.85910  0.48549  0.66941  Biso   1.000  Hf
  O1       1.0000 0.03497  0.16000  0.16047  Biso   1.000  O 
  O2       1.0000 0.03016  0.09275  0.65842  Biso   1.000  O 
  O3       1.0000 0.43051  0.45646  0.21465  Biso   1.000  O 
  O4       1.0000 0.45894  0.33616  0.65241  Biso   1.000  O 
  O5       1.0000 0.26831  0.12940  0.59949  Biso   1.000  O 
  O6       1.0000 0.27820  0.12547  0.09476  Biso   1.000  O 
  O7       1.0000 0.21419  0.38135  0.60464  Biso   1.000  O 
  O8       1.0000 0.21374  0.37720  0.09646  Biso   1.000  O 
  O9       1.0000 0.51385  0.10720  0.37983  Biso   1.000  O 
  O10      1.0000 0.52861  0.07834  0.84094  Biso   1.000  O 
  O11      1.0000 0.96993  0.41304  0.35617  Biso   1.000  O 
  O12      1.0000 0.96968  0.33956  0.83823  Biso   1.000  O 
  O13      1.0000 0.76983  0.13263  0.87705  Biso   1.000  O 
  O14      1.0000 0.77947  0.12028  0.37549  Biso   1.000  O 
  O15      1.0000 0.75831  0.41624  0.97036  Biso   1.000  O 
  O16      1.0000 0.72300  0.37467  0.44976  Biso   1.000  O 
  Hf9      1.0000 0.13465  0.52585  0.34617  Biso   1.000  Hf
  Hf10     1.0000 0.12666  0.73762  0.84292  Biso   1.000  Hf
  Hf11     1.0000 0.35228  0.77414  0.34627  Biso   1.000  Hf
  Hf12     1.0000 0.34808  0.98059  0.84567  Biso   1.000  Hf
  Hf13     1.0000 0.63388  0.53973  0.17224  Biso   1.000  Hf
  Hf14     1.0000 0.62948  0.73813  0.66053  Biso   1.000  Hf
  Hf15     1.0000 0.85916  0.77260  0.15966  Biso   1.000  Hf
  Hf16     1.0000 0.85475  0.98493  0.65321  Biso   1.000  Hf
  O17      1.0000 0.02394  0.66170  0.16175  Biso   1.000  O 
  O18      1.0000 0.02548  0.59592  0.66178  Biso   1.000  O 
  O19      1.0000 0.46255  0.89539  0.13965  Biso   1.000  O 
  O20      1.0000 0.45629  0.84021  0.65877  Biso   1.000  O 
  O21      1.0000 0.26598  0.63071  0.58994  Biso   1.000  O 
  O22      1.0000 0.26415  0.63250  0.08273  Biso   1.000  O 
  O23      1.0000 0.21524  0.87872  0.59285  Biso   1.000  O 
  O24      1.0000 0.21491  0.87784  0.09610  Biso   1.000  O 
  O25      1.0000 0.52878  0.67638  0.34335  Biso   1.000  O 
  O26      1.0000 0.52616  0.58939  0.84160  Biso   1.000  O 
  O27      1.0000 0.96282  0.91450  0.34154  Biso   1.000  O 
  O28      1.0000 0.95969  0.84689  0.84431  Biso   1.000  O 
  O29      1.0000 0.76175  0.64678  0.91603  Biso   1.000  O 
  O30      1.0000 0.77016  0.62831  0.41883  Biso   1.000  O 
  O31      1.0000 0.71811  0.88277  0.90460  Biso   1.000  O 
  O32      1.0000 0.72087  0.87348  0.41005  Biso   1.000  O 
  Cs1      1.0000 0.56336  0.27974  0.06202  Biso   1.000  Cs
