data_image0
_cell_length_a       4.9928
_cell_length_b       10.4286
_cell_length_c       10.1027
_cell_angle_alpha    90
_cell_angle_beta     90
_cell_angle_gamma    90

_symmetry_space_group_name_H-M    "P 1"
_symmetry_int_tables_number       1

loop_
  _symmetry_equiv_pos_as_xyz
  'x, y, z'

loop_
  _atom_site_label
  _atom_site_occupancy
  _atom_site_fract_x
  _atom_site_fract_y
  _atom_site_fract_z
  _atom_site_thermal_displace_type
  _atom_site_B_iso_or_equiv
  _atom_site_type_symbol
  Cs1      1.0000 0.22675  0.00812  0.11450  Biso   1.000  Cs
  Hf1      1.0000 0.27120  0.02246  0.63816  Biso   1.000  Hf
  Hf2      1.0000 0.26875  0.51408  0.12874  Biso   1.000  Hf
  Hf3      1.0000 0.27944  0.51885  0.62814  Biso   1.000  Hf
  Hf4      1.0000 0.27662  0.23273  0.38496  Biso   1.000  Hf
  Hf5      1.0000 0.28739  0.23811  0.86592  Biso   1.000  Hf
  Hf6      1.0000 0.27444  0.73453  0.38091  Biso   1.000  Hf
  Hf7      1.0000 0.29287  0.73048  0.87674  Biso   1.000  Hf
  Hf8      1.0000 0.71438  0.26739  0.13369  Biso   1.000  Hf
  Hf9      1.0000 0.74894  0.27139  0.62366  Biso   1.000  Hf
  Hf10     1.0000 0.73358  0.75486  0.12646  Biso   1.000  Hf
  Hf11     1.0000 0.74317  0.76423  0.62251  Biso   1.000  Hf
  Hf12     1.0000 0.73593  0.48492  0.37773  Biso   1.000  Hf
  Hf13     1.0000 0.75200  0.48075  0.87873  Biso   1.000  Hf
  Hf14     1.0000 0.72617  0.98721  0.39048  Biso   1.000  Hf
  Hf15     1.0000 0.75469  0.98150  0.86228  Biso   1.000  Hf
  O1       1.0000 0.07247  0.20697  0.20279  Biso   1.000  O 
  O2       1.0000 0.11457  0.20456  0.66900  Biso   1.000  O 
  O3       1.0000 0.08578  0.68865  0.19594  Biso   1.000  O 
  O4       1.0000 0.08665  0.68697  0.69755  Biso   1.000  O 
  O5       1.0000 0.08056  0.06519  0.44400  Biso   1.000  O 
  O6       1.0000 0.12192  0.06031  0.86115  Biso   1.000  O 
  O7       1.0000 0.07684  0.56702  0.44855  Biso   1.000  O 
  O8       1.0000 0.08813  0.56680  0.94820  Biso   1.000  O 
  O9       1.0000 0.92045  0.43716  0.19284  Biso   1.000  O 
  O10      1.0000 0.94431  0.43755  0.69968  Biso   1.000  O 
  O11      1.0000 0.88258  0.93830  0.19792  Biso   1.000  O 
  O12      1.0000 0.91934  0.93438  0.67527  Biso   1.000  O 
  O13      1.0000 0.93029  0.32061  0.44209  Biso   1.000  O 
  O14      1.0000 0.94422  0.30881  0.94418  Biso   1.000  O 
  O15      1.0000 0.93272  0.81473  0.44411  Biso   1.000  O 
  O16      1.0000 0.97341  0.82491  0.95122  Biso   1.000  O 
  O17      1.0000 0.57212  0.13321  0.26805  Biso   1.000  O 
  O18      1.0000 0.58176  0.12727  0.75059  Biso   1.000  O 
  O19      1.0000 0.54320  0.61251  0.24978  Biso   1.000  O 
  O20      1.0000 0.55805  0.61694  0.75157  Biso   1.000  O 
  O21      1.0000 0.54671  0.13126  0.51033  Biso   1.000  O 
  O22      1.0000 0.56785  0.12804  0.99880  Biso   1.000  O 
  O23      1.0000 0.54665  0.63236  0.50032  Biso   1.000  O 
  O24      1.0000 0.54192  0.62490  0.00093  Biso   1.000  O 
  O25      1.0000 0.46895  0.38448  0.50337  Biso   1.000  O 
  O26      1.0000 0.45462  0.37872  0.00257  Biso   1.000  O 
  O27      1.0000 0.45315  0.88316  0.50823  Biso   1.000  O 
  O28      1.0000 0.51478  0.86822  0.99387  Biso   1.000  O 
  O29      1.0000 0.45220  0.37273  0.25518  Biso   1.000  O 
  O30      1.0000 0.47790  0.37319  0.75121  Biso   1.000  O 
  O31      1.0000 0.51061  0.85234  0.26466  Biso   1.000  O 
  O32      1.0000 0.47584  0.86798  0.75174  Biso   1.000  O 
