data_image0
_cell_length_a       10.1034
_cell_length_b       5.13844
_cell_length_c       10.1031
_cell_angle_alpha    90
_cell_angle_beta     90
_cell_angle_gamma    90

_symmetry_space_group_name_H-M    "P 1"
_symmetry_int_tables_number       1

loop_
  _symmetry_equiv_pos_as_xyz
  'x, y, z'

loop_
  _atom_site_label
  _atom_site_occupancy
  _atom_site_fract_x
  _atom_site_fract_y
  _atom_site_fract_z
  _atom_site_thermal_displace_type
  _atom_site_B_iso_or_equiv
  _atom_site_type_symbol
  Cs1      1.0000 0.12882  0.02085  0.12887  Biso   1.000  Cs
  Hf1      1.0000 0.11961  0.03231  0.62433  Biso   1.000  Hf
  Hf2      1.0000 0.62427  0.01183  0.12090  Biso   1.000  Hf
  Hf3      1.0000 0.62248  0.02802  0.62370  Biso   1.000  Hf
  Hf4      1.0000 0.12742  0.52481  0.38379  Biso   1.000  Hf
  Hf5      1.0000 0.13226  0.53674  0.87176  Biso   1.000  Hf
  Hf6      1.0000 0.62917  0.51613  0.37330  Biso   1.000  Hf
  Hf7      1.0000 0.63311  0.53615  0.87345  Biso   1.000  Hf
  Hf8      1.0000 0.38896  0.51413  0.12294  Biso   1.000  Hf
  Hf9      1.0000 0.37722  0.52627  0.62459  Biso   1.000  Hf
  Hf10     1.0000 0.87695  0.50659  0.12896  Biso   1.000  Hf
  Hf11     1.0000 0.87743  0.52623  0.62971  Biso   1.000  Hf
  Hf12     1.0000 0.37762  0.03738  0.37816  Biso   1.000  Hf
  Hf13     1.0000 0.37997  0.02436  0.86450  Biso   1.000  Hf
  Hf14     1.0000 0.87428  0.00451  0.37141  Biso   1.000  Hf
  Hf15     1.0000 0.88202  0.01822  0.87348  Biso   1.000  Hf
  O1       1.0000 0.01585  0.26495  0.01309  Biso   1.000  O 
  O2       1.0000 0.01493  0.33846  0.52296  Biso   1.000  O 
  O3       1.0000 0.52631  0.31755  0.01268  Biso   1.000  O 
  O4       1.0000 0.50429  0.32097  0.50209  Biso   1.000  O 
  O5       1.0000 0.98772  0.25545  0.27629  Biso   1.000  O 
  O6       1.0000 0.00127  0.23366  0.76573  Biso   1.000  O 
  O7       1.0000 0.50499  0.21758  0.25321  Biso   1.000  O 
  O8       1.0000 0.50204  0.23232  0.75311  Biso   1.000  O 
  O9       1.0000 0.99745  0.71467  0.25507  Biso   1.000  O 
  O10      1.0000 0.01270  0.73683  0.73562  Biso   1.000  O 
  O11      1.0000 0.50750  0.72311  0.25148  Biso   1.000  O 
  O12      1.0000 0.50652  0.73061  0.74942  Biso   1.000  O 
  O13      1.0000 0.98650  0.76190  0.98092  Biso   1.000  O 
  O14      1.0000 0.01017  0.83772  0.49244  Biso   1.000  O 
  O15      1.0000 0.50121  0.81765  0.00263  Biso   1.000  O 
  O16      1.0000 0.50918  0.82344  0.50173  Biso   1.000  O 
  O17      1.0000 0.27023  0.35177  0.26723  Biso   1.000  O 
  O18      1.0000 0.24845  0.31713  0.74188  Biso   1.000  O 
  O19      1.0000 0.74442  0.29702  0.24702  Biso   1.000  O 
  O20      1.0000 0.74983  0.32186  0.74832  Biso   1.000  O 
  O21      1.0000 0.27665  0.28387  0.98567  Biso   1.000  O 
  O22      1.0000 0.25439  0.22779  0.50335  Biso   1.000  O 
  O23      1.0000 0.76804  0.20262  0.00089  Biso   1.000  O 
  O24      1.0000 0.75434  0.22221  0.50154  Biso   1.000  O 
  O25      1.0000 0.26041  0.74418  0.99028  Biso   1.000  O 
  O26      1.0000 0.25796  0.73328  0.50037  Biso   1.000  O 
  O27      1.0000 0.74321  0.70723  0.00692  Biso   1.000  O 
  O28      1.0000 0.75584  0.72061  0.50074  Biso   1.000  O 
  O29      1.0000 0.26050  0.81843  0.25237  Biso   1.000  O 
  O30      1.0000 0.25703  0.81443  0.74787  Biso   1.000  O 
  O31      1.0000 0.75581  0.79423  0.25041  Biso   1.000  O 
  O32      1.0000 0.75809  0.82008  0.75131  Biso   1.000  O 
