data_image0
_cell_length_a       10.0628
_cell_length_b       10.3797
_cell_length_c       5.23025
_cell_angle_alpha    90
_cell_angle_beta     90
_cell_angle_gamma    90

_symmetry_space_group_name_H-M    "P 1"
_symmetry_int_tables_number       1

loop_
  _symmetry_equiv_pos_as_xyz
  'x, y, z'

loop_
  _atom_site_label
  _atom_site_occupancy
  _atom_site_fract_x
  _atom_site_fract_y
  _atom_site_fract_z
  _atom_site_thermal_displace_type
  _atom_site_B_iso_or_equiv
  _atom_site_type_symbol
  Cs1      1.0000 0.11646  0.01312  0.28178  Biso   1.000  Cs
  Hf1      1.0000 0.13354  0.52022  0.33537  Biso   1.000  Hf
  Hf2      1.0000 0.12895  0.23554  0.83123  Biso   1.000  Hf
  Hf3      1.0000 0.13035  0.72777  0.83113  Biso   1.000  Hf
  Hf4      1.0000 0.35509  0.26942  0.34921  Biso   1.000  Hf
  Hf5      1.0000 0.35794  0.76727  0.33160  Biso   1.000  Hf
  Hf6      1.0000 0.35258  0.47986  0.83963  Biso   1.000  Hf
  Hf7      1.0000 0.35433  0.97839  0.82312  Biso   1.000  Hf
  Hf8      1.0000 0.63617  0.02142  0.16957  Biso   1.000  Hf
  Hf9      1.0000 0.63153  0.51942  0.15653  Biso   1.000  Hf
  Hf10     1.0000 0.63173  0.23218  0.66143  Biso   1.000  Hf
  Hf11     1.0000 0.63066  0.73060  0.65537  Biso   1.000  Hf
  Hf12     1.0000 0.85256  0.27737  0.16014  Biso   1.000  Hf
  Hf13     1.0000 0.85361  0.76250  0.15437  Biso   1.000  Hf
  Hf14     1.0000 0.85351  0.48210  0.65446  Biso   1.000  Hf
  Hf15     1.0000 0.84580  0.98626  0.68994  Biso   1.000  Hf
  O1       1.0000 0.03935  0.21490  0.19938  Biso   1.000  O 
  O2       1.0000 0.03398  0.67681  0.18015  Biso   1.000  O 
  O3       1.0000 0.02031  0.08228  0.73508  Biso   1.000  O 
  O4       1.0000 0.02768  0.57889  0.67084  Biso   1.000  O 
  O5       1.0000 0.46381  0.41407  0.16776  Biso   1.000  O 
  O6       1.0000 0.46427  0.91670  0.16599  Biso   1.000  O 
  O7       1.0000 0.46128  0.33748  0.66549  Biso   1.000  O 
  O8       1.0000 0.46531  0.83885  0.65314  Biso   1.000  O 
  O9       1.0000 0.27935  0.13419  0.61224  Biso   1.000  O 
  O10      1.0000 0.27071  0.62136  0.58159  Biso   1.000  O 
  O11      1.0000 0.27231  0.12056  0.08741  Biso   1.000  O 
  O12      1.0000 0.26909  0.61632  0.08396  Biso   1.000  O 
  O13      1.0000 0.21551  0.37687  0.58268  Biso   1.000  O 
  O14      1.0000 0.22238  0.86232  0.57720  Biso   1.000  O 
  O15      1.0000 0.22475  0.37322  0.08306  Biso   1.000  O 
  O16      1.0000 0.24502  0.85394  0.04680  Biso   1.000  O 
  O17      1.0000 0.52945  0.16710  0.33528  Biso   1.000  O 
  O18      1.0000 0.52936  0.66445  0.33129  Biso   1.000  O 
  O19      1.0000 0.53197  0.08542  0.83418  Biso   1.000  O 
  O20      1.0000 0.52327  0.58782  0.83315  Biso   1.000  O 
  O21      1.0000 0.95207  0.43406  0.30892  Biso   1.000  O 
  O22      1.0000 0.93762  0.92041  0.35065  Biso   1.000  O 
  O23      1.0000 0.95160  0.33285  0.81226  Biso   1.000  O 
  O24      1.0000 0.95649  0.83400  0.83912  Biso   1.000  O 
  O25      1.0000 0.76772  0.12973  0.92978  Biso   1.000  O 
  O26      1.0000 0.76703  0.62605  0.90964  Biso   1.000  O 
  O27      1.0000 0.77356  0.12906  0.42627  Biso   1.000  O 
  O28      1.0000 0.76824  0.62659  0.41043  Biso   1.000  O 
  O29      1.0000 0.71278  0.37968  0.90900  Biso   1.000  O 
  O30      1.0000 0.71239  0.87637  0.92150  Biso   1.000  O 
  O31      1.0000 0.71714  0.37696  0.41090  Biso   1.000  O 
  O32      1.0000 0.72034  0.87548  0.41761  Biso   1.000  O 
