data_image0
_cell_length_a       10.1125
_cell_length_b       10.3753
_cell_length_c       10.1125
_cell_angle_alpha    90
_cell_angle_beta     90
_cell_angle_gamma    90

_symmetry_space_group_name_H-M    "P 1"
_symmetry_int_tables_number       1

loop_
  _symmetry_equiv_pos_as_xyz
  'x, y, z'

loop_
  _atom_site_label
  _atom_site_occupancy
  _atom_site_fract_x
  _atom_site_fract_y
  _atom_site_fract_z
  _atom_site_thermal_displace_type
  _atom_site_B_iso_or_equiv
  _atom_site_type_symbol
  Hf1      1.0000 0.12489  0.96000  0.12494  Biso   1.000  Hf
  Hf2      1.0000 0.12486  0.25001  0.40015  Biso   1.000  Hf
  Hf3      1.0000 0.40015  0.25003  0.12489  Biso   1.000  Hf
  Hf4      1.0000 0.37666  0.01380  0.37668  Biso   1.000  Hf
  O1       1.0000 0.95993  0.17426  0.95995  Biso   1.000  O 
  O2       1.0000 0.00385  0.07326  0.24614  Biso   1.000  O 
  O3       1.0000 0.95993  0.32582  0.28985  Biso   1.000  O 
  O4       1.0000 0.00374  0.42684  0.00377  Biso   1.000  O 
  O5       1.0000 0.28984  0.17426  0.28986  Biso   1.000  O 
  O6       1.0000 0.24615  0.07326  0.00386  Biso   1.000  O 
  O7       1.0000 0.28983  0.32579  0.95995  Biso   1.000  O 
  O8       1.0000 0.24601  0.42684  0.24603  Biso   1.000  O 
  Hf5      1.0000 0.12487  0.99019  0.62493  Biso   1.000  Hf
  Hf6      1.0000 0.12488  0.25004  0.84963  Biso   1.000  Hf
  Hf7      1.0000 0.37642  0.25004  0.62490  Biso   1.000  Hf
  Hf8      1.0000 0.37651  0.00256  0.87333  Biso   1.000  Hf
  O9       1.0000 0.99224  0.14319  0.49985  Biso   1.000  O 
  O10      1.0000 0.00423  0.10145  0.74021  Biso   1.000  O 
  O11      1.0000 0.99223  0.35688  0.74998  Biso   1.000  O 
  O12      1.0000 0.00420  0.39860  0.50961  Biso   1.000  O 
  O13      1.0000 0.25754  0.14319  0.75000  Biso   1.000  O 
  O14      1.0000 0.24557  0.10145  0.50962  Biso   1.000  O 
  O15      1.0000 0.25753  0.35686  0.49981  Biso   1.000  O 
  O16      1.0000 0.24556  0.39861  0.74019  Biso   1.000  O 
  Hf9      1.0000 0.12488  0.54012  0.12490  Biso   1.000  Hf
  Hf10     1.0000 0.12487  0.75003  0.38543  Biso   1.000  Hf
  Hf11     1.0000 0.38540  0.75005  0.12491  Biso   1.000  Hf
  Hf12     1.0000 0.37645  0.49750  0.37648  Biso   1.000  Hf
  O17      1.0000 0.01009  0.66937  0.01012  Biso   1.000  O 
  O18      1.0000 0.99043  0.59337  0.25933  Biso   1.000  O 
  O19      1.0000 0.01011  0.83073  0.23968  Biso   1.000  O 
  O20      1.0000 0.99043  0.90673  0.99050  Biso   1.000  O 
  O21      1.0000 0.23963  0.66935  0.23966  Biso   1.000  O 
  O22      1.0000 0.25927  0.59333  0.99045  Biso   1.000  O 
  O23      1.0000 0.23963  0.83073  0.01017  Biso   1.000  O 
  O24      1.0000 0.25932  0.90670  0.25937  Biso   1.000  O 
  Hf13     1.0000 0.12488  0.50987  0.62490  Biso   1.000  Hf
  Hf14     1.0000 0.12488  0.75002  0.86439  Biso   1.000  Hf
  Hf15     1.0000 0.37833  0.75003  0.62490  Biso   1.000  Hf
  Hf16     1.0000 0.37665  0.48628  0.87315  Biso   1.000  Hf
  O25      1.0000 0.00074  0.64894  0.50938  Biso   1.000  O 
  O26      1.0000 0.00322  0.60363  0.75903  Biso   1.000  O 
  O27      1.0000 0.00073  0.85111  0.74045  Biso   1.000  O 
  O28      1.0000 0.00320  0.89642  0.49080  Biso   1.000  O 
  O29      1.0000 0.24900  0.64894  0.74042  Biso   1.000  O 
  O30      1.0000 0.24654  0.60363  0.49076  Biso   1.000  O 
  O31      1.0000 0.24899  0.85112  0.50941  Biso   1.000  O 
  O32      1.0000 0.24653  0.89642  0.75907  Biso   1.000  O 
  Hf17     1.0000 0.62489  0.99021  0.12491  Biso   1.000  Hf
  Hf18     1.0000 0.62489  0.25004  0.37644  Biso   1.000  Hf
  Hf19     1.0000 0.84963  0.25007  0.12489  Biso   1.000  Hf
  Hf20     1.0000 0.87333  0.00258  0.37651  Biso   1.000  Hf
  O33      1.0000 0.49984  0.14317  0.99225  Biso   1.000  O 
  O34      1.0000 0.50961  0.10146  0.24558  Biso   1.000  O 
  O35      1.0000 0.49980  0.35687  0.25755  Biso   1.000  O 
  O36      1.0000 0.50959  0.39862  0.00423  Biso   1.000  O 
  O37      1.0000 0.75000  0.14321  0.25756  Biso   1.000  O 
  O38      1.0000 0.74022  0.10148  0.00423  Biso   1.000  O 
  O39      1.0000 0.74995  0.35687  0.99225  Biso   1.000  O 
  O40      1.0000 0.74017  0.39863  0.24558  Biso   1.000  O 
  Hf21     1.0000 0.62487  0.99867  0.62491  Biso   1.000  Hf
  Hf22     1.0000 0.62489  0.25003  0.87335  Biso   1.000  Hf
  Hf23     1.0000 0.87333  0.25004  0.62490  Biso   1.000  Hf
  Hf24     1.0000 0.87315  0.01377  0.87315  Biso   1.000  Hf
  O41      1.0000 0.49842  0.15156  0.49842  Biso   1.000  O 
  O42      1.0000 0.50282  0.10064  0.74698  Biso   1.000  O 
  O43      1.0000 0.49841  0.34851  0.75138  Biso   1.000  O 
  O44      1.0000 0.50279  0.39942  0.50282  Biso   1.000  O 
  O45      1.0000 0.75137  0.15154  0.75139  Biso   1.000  O 
  O46      1.0000 0.74697  0.10064  0.50282  Biso   1.000  O 
  O47      1.0000 0.75136  0.34852  0.49843  Biso   1.000  O 
  O48      1.0000 0.74697  0.39942  0.74699  Biso   1.000  O 
  Hf25     1.0000 0.62488  0.50989  0.12491  Biso   1.000  Hf
  Hf26     1.0000 0.62486  0.75004  0.37836  Biso   1.000  Hf
  Hf27     1.0000 0.86435  0.75006  0.12491  Biso   1.000  Hf
  Hf28     1.0000 0.87313  0.48630  0.37667  Biso   1.000  Hf
  O49      1.0000 0.50933  0.64895  0.00076  Biso   1.000  O 
  O50      1.0000 0.49073  0.60364  0.24657  Biso   1.000  O 
  O51      1.0000 0.50936  0.85113  0.24904  Biso   1.000  O 
  O52      1.0000 0.49074  0.89644  0.00324  Biso   1.000  O 
  O53      1.0000 0.74039  0.64896  0.24904  Biso   1.000  O 
  O54      1.0000 0.75900  0.60366  0.00324  Biso   1.000  O 
  O55      1.0000 0.74039  0.85114  0.00077  Biso   1.000  O 
  O56      1.0000 0.75902  0.89645  0.24657  Biso   1.000  O 
  Hf29     1.0000 0.62488  0.50139  0.62490  Biso   1.000  Hf
  Hf30     1.0000 0.62486  0.75002  0.87146  Biso   1.000  Hf
  Hf31     1.0000 0.87142  0.75004  0.62491  Biso   1.000  Hf
  Hf32     1.0000 0.87330  0.49751  0.87333  Biso   1.000  Hf
  O57      1.0000 0.49817  0.64953  0.49820  Biso   1.000  O 
  O58      1.0000 0.50117  0.59944  0.74862  Biso   1.000  O 
  O59      1.0000 0.49817  0.85052  0.75161  Biso   1.000  O 
  O60      1.0000 0.50115  0.90061  0.50119  Biso   1.000  O 
  O61      1.0000 0.75158  0.64953  0.75161  Biso   1.000  O 
  O62      1.0000 0.74859  0.59945  0.50119  Biso   1.000  O 
  O63      1.0000 0.75157  0.85053  0.49820  Biso   1.000  O 
  O64      1.0000 0.74858  0.90061  0.74862  Biso   1.000  O 
  Cs1      1.0000 0.12489  0.25004  0.12490  Biso   1.000  Cs
