data_image0
_cell_length_a       10.1393
_cell_length_b       10.3217
_cell_length_c       10.4358
_cell_angle_alpha    90
_cell_angle_beta     80
_cell_angle_gamma    90

_symmetry_space_group_name_H-M    "P 1"
_symmetry_int_tables_number       1

loop_
  _symmetry_equiv_pos_as_xyz
  'x, y, z'

loop_
  _atom_site_label
  _atom_site_occupancy
  _atom_site_fract_x
  _atom_site_fract_y
  _atom_site_fract_z
  _atom_site_thermal_displace_type
  _atom_site_B_iso_or_equiv
  _atom_site_type_symbol
  Cs1      1.0000 0.10801  0.99948  0.11445  Biso   1.000  Cs
  Hf1      1.0000 0.12931  0.02121  0.64733  Biso   1.000  Hf
  Hf2      1.0000 0.13489  0.52097  0.14493  Biso   1.000  Hf
  Hf3      1.0000 0.12859  0.52096  0.64557  Biso   1.000  Hf
  Hf4      1.0000 0.63941  0.02132  0.14772  Biso   1.000  Hf
  Hf5      1.0000 0.63015  0.02239  0.64874  Biso   1.000  Hf
  Hf6      1.0000 0.63192  0.51722  0.14880  Biso   1.000  Hf
  Hf7      1.0000 0.62694  0.51974  0.64749  Biso   1.000  Hf
  Hf8      1.0000 0.13154  0.22335  0.39204  Biso   1.000  Hf
  Hf9      1.0000 0.12562  0.23388  0.89497  Biso   1.000  Hf
  Hf10     1.0000 0.13090  0.72787  0.39638  Biso   1.000  Hf
  Hf11     1.0000 0.12472  0.72602  0.89553  Biso   1.000  Hf
  Hf12     1.0000 0.62874  0.22991  0.39886  Biso   1.000  Hf
  Hf13     1.0000 0.62511  0.22919  0.89963  Biso   1.000  Hf
  Hf14     1.0000 0.62629  0.72609  0.39933  Biso   1.000  Hf
  Hf15     1.0000 0.62517  0.72828  0.89533  Biso   1.000  Hf
  Hf16     1.0000 0.35613  0.26618  0.10610  Biso   1.000  Hf
  Hf17     1.0000 0.35004  0.27030  0.60406  Biso   1.000  Hf
  Hf18     1.0000 0.36621  0.76645  0.10863  Biso   1.000  Hf
  Hf19     1.0000 0.34922  0.77178  0.60455  Biso   1.000  Hf
  Hf20     1.0000 0.85326  0.27483  0.10746  Biso   1.000  Hf
  Hf21     1.0000 0.85310  0.27174  0.60570  Biso   1.000  Hf
  Hf22     1.0000 0.85066  0.76176  0.10244  Biso   1.000  Hf
  Hf23     1.0000 0.85094  0.77039  0.60566  Biso   1.000  Hf
  Hf24     1.0000 0.35042  0.47619  0.35436  Biso   1.000  Hf
  Hf25     1.0000 0.34898  0.47753  0.85634  Biso   1.000  Hf
  Hf26     1.0000 0.35101  0.98023  0.35231  Biso   1.000  Hf
  Hf27     1.0000 0.35227  0.97958  0.85116  Biso   1.000  Hf
  Hf28     1.0000 0.85508  0.47927  0.35647  Biso   1.000  Hf
  Hf29     1.0000 0.84722  0.47763  0.85527  Biso   1.000  Hf
  Hf30     1.0000 0.84410  0.98129  0.36656  Biso   1.000  Hf
  Hf31     1.0000 0.84633  0.97893  0.85770  Biso   1.000  Hf
  O1       1.0000 0.03923  0.20007  0.08887  Biso   1.000  O 
  O2       1.0000 0.02696  0.16997  0.58275  Biso   1.000  O 
  O3       1.0000 0.03716  0.68324  0.08727  Biso   1.000  O 
  O4       1.0000 0.02590  0.67084  0.58395  Biso   1.000  O 
  O5       1.0000 0.53684  0.16964  0.08142  Biso   1.000  O 
  O6       1.0000 0.52559  0.17015  0.58391  Biso   1.000  O 
  O7       1.0000 0.53964  0.66859  0.08023  Biso   1.000  O 
  O8       1.0000 0.52422  0.66891  0.58391  Biso   1.000  O 
  O9       1.0000 0.02177  0.07740  0.33919  Biso   1.000  O 
  O10      1.0000 0.02526  0.07974  0.83743  Biso   1.000  O 
  O11      1.0000 0.03048  0.57862  0.33207  Biso   1.000  O 
  O12      1.0000 0.02256  0.57874  0.83433  Biso   1.000  O 
  O13      1.0000 0.53357  0.07712  0.33360  Biso   1.000  O 
  O14      1.0000 0.52826  0.07881  0.83262  Biso   1.000  O 
  O15      1.0000 0.52618  0.57830  0.33221  Biso   1.000  O 
  O16      1.0000 0.52383  0.57755  0.83349  Biso   1.000  O 
  O17      1.0000 0.45853  0.41672  0.17056  Biso   1.000  O 
  O18      1.0000 0.45174  0.41953  0.67046  Biso   1.000  O 
  O19      1.0000 0.46364  0.91925  0.16860  Biso   1.000  O 
  O20      1.0000 0.45239  0.92048  0.66915  Biso   1.000  O 
  O21      1.0000 0.95351  0.43041  0.16558  Biso   1.000  O 
  O22      1.0000 0.95267  0.42135  0.67044  Biso   1.000  O 
  O23      1.0000 0.90695  0.93924  0.17061  Biso   1.000  O 
  O24      1.0000 0.95066  0.91998  0.67253  Biso   1.000  O 
  O25      1.0000 0.45436  0.32865  0.41991  Biso   1.000  O 
  O26      1.0000 0.45028  0.32881  0.92104  Biso   1.000  O 
  O27      1.0000 0.45445  0.82942  0.42176  Biso   1.000  O 
  O28      1.0000 0.45364  0.82842  0.91842  Biso   1.000  O 
  O29      1.0000 0.95501  0.32894  0.41870  Biso   1.000  O 
  O30      1.0000 0.94621  0.32912  0.92007  Biso   1.000  O 
  O31      1.0000 0.95321  0.82874  0.41733  Biso   1.000  O 
  O32      1.0000 0.95134  0.83259  0.92631  Biso   1.000  O 
  O33      1.0000 0.28124  0.13407  0.24842  Biso   1.000  O 
  O34      1.0000 0.26501  0.12931  0.73960  Biso   1.000  O 
  O35      1.0000 0.27259  0.62196  0.23925  Biso   1.000  O 
  O36      1.0000 0.26366  0.62839  0.74132  Biso   1.000  O 
  O37      1.0000 0.76893  0.13565  0.24654  Biso   1.000  O 
  O38      1.0000 0.76730  0.12980  0.74434  Biso   1.000  O 
  O39      1.0000 0.76735  0.62801  0.24281  Biso   1.000  O 
  O40      1.0000 0.76421  0.62902  0.74177  Biso   1.000  O 
  O41      1.0000 0.26647  0.11960  0.49326  Biso   1.000  O 
  O42      1.0000 0.27035  0.12736  0.97951  Biso   1.000  O 
  O43      1.0000 0.26637  0.62029  0.49116  Biso   1.000  O 
  O44      1.0000 0.25877  0.61910  0.99227  Biso   1.000  O 
  O45      1.0000 0.76501  0.12243  0.49677  Biso   1.000  O 
  O46      1.0000 0.76341  0.12091  0.99559  Biso   1.000  O 
  O47      1.0000 0.76613  0.62027  0.49255  Biso   1.000  O 
  O48      1.0000 0.76192  0.61898  0.99222  Biso   1.000  O 
  O49      1.0000 0.22439  0.38107  0.00726  Biso   1.000  O 
  O50      1.0000 0.21319  0.37879  0.50918  Biso   1.000  O 
  O51      1.0000 0.23119  0.86802  0.00146  Biso   1.000  O 
  O52      1.0000 0.21212  0.87958  0.51192  Biso   1.000  O 
  O53      1.0000 0.72117  0.38032  0.00958  Biso   1.000  O 
  O54      1.0000 0.71467  0.37918  0.51175  Biso   1.000  O 
  O55      1.0000 0.72142  0.87749  0.00802  Biso   1.000  O 
  O56      1.0000 0.71148  0.87843  0.51464  Biso   1.000  O 
  O57      1.0000 0.21379  0.37054  0.25753  Biso   1.000  O 
  O58      1.0000 0.21095  0.37148  0.75954  Biso   1.000  O 
  O59      1.0000 0.23142  0.85598  0.26351  Biso   1.000  O 
  O60      1.0000 0.21029  0.87012  0.76130  Biso   1.000  O 
  O61      1.0000 0.71661  0.37283  0.26221  Biso   1.000  O 
  O62      1.0000 0.71170  0.37038  0.76135  Biso   1.000  O 
  O63      1.0000 0.71087  0.86821  0.26434  Biso   1.000  O 
  O64      1.0000 0.71172  0.87045  0.76126  Biso   1.000  O 
