data_image0
_cell_length_a       5.01286
_cell_length_b       10.406
_cell_length_c       10.0571
_cell_angle_alpha    90
_cell_angle_beta     90
_cell_angle_gamma    90

_symmetry_space_group_name_H-M    "P 1"
_symmetry_int_tables_number       1

loop_
  _symmetry_equiv_pos_as_xyz
  'x, y, z'

loop_
  _atom_site_label
  _atom_site_occupancy
  _atom_site_fract_x
  _atom_site_fract_y
  _atom_site_fract_z
  _atom_site_thermal_displace_type
  _atom_site_B_iso_or_equiv
  _atom_site_type_symbol
  Hf1      1.0000 0.26093  0.01717  0.11810  Biso   1.000  Hf
  Hf2      1.0000 0.26060  0.23345  0.38583  Biso   1.000  Hf
  Hf3      1.0000 0.68125  0.26193  0.12585  Biso   1.000  Hf
  Hf4      1.0000 0.73772  0.48731  0.37622  Biso   1.000  Hf
  O1       1.0000 0.00210  0.17017  0.22595  Biso   1.000  O 
  O2       1.0000 0.06974  0.06843  0.45500  Biso   1.000  O 
  O3       1.0000 0.92358  0.43356  0.19218  Biso   1.000  O 
  O4       1.0000 0.93266  0.32459  0.45088  Biso   1.000  O 
  O5       1.0000 0.50187  0.11677  0.25192  Biso   1.000  O 
  O6       1.0000 0.54636  0.13835  0.49900  Biso   1.000  O 
  O7       1.0000 0.46488  0.38758  0.50140  Biso   1.000  O 
  O8       1.0000 0.44357  0.37392  0.25527  Biso   1.000  O 
  Hf5      1.0000 0.27474  0.01863  0.62639  Biso   1.000  Hf
  Hf6      1.0000 0.27809  0.23441  0.86836  Biso   1.000  Hf
  Hf7      1.0000 0.73728  0.27214  0.62704  Biso   1.000  Hf
  Hf8      1.0000 0.74097  0.49145  0.87533  Biso   1.000  Hf
  O9       1.0000 0.07787  0.18782  0.69190  Biso   1.000  O 
  O10      1.0000 0.08536  0.06761  0.93549  Biso   1.000  O 
  O11      1.0000 0.93763  0.43859  0.69779  Biso   1.000  O 
  O12      1.0000 0.93175  0.32141  0.94303  Biso   1.000  O 
  O13      1.0000 0.54872  0.12093  0.74628  Biso   1.000  O 
  O14      1.0000 0.57113  0.13072  0.99235  Biso   1.000  O 
  O15      1.0000 0.46401  0.39819  0.99835  Biso   1.000  O 
  O16      1.0000 0.46849  0.37306  0.74978  Biso   1.000  O 
  Hf9      1.0000 0.26838  0.52976  0.12765  Biso   1.000  Hf
  Hf10     1.0000 0.27372  0.74017  0.37712  Biso   1.000  Hf
  Hf11     1.0000 0.73095  0.76851  0.12600  Biso   1.000  Hf
  Hf12     1.0000 0.74081  0.99156  0.37002  Biso   1.000  Hf
  O17      1.0000 0.07230  0.68743  0.19832  Biso   1.000  O 
  O18      1.0000 0.07359  0.57183  0.44534  Biso   1.000  O 
  O19      1.0000 0.92814  0.93378  0.19145  Biso   1.000  O 
  O20      1.0000 0.93388  0.82240  0.44291  Biso   1.000  O 
  O21      1.0000 0.54622  0.62242  0.25067  Biso   1.000  O 
  O22      1.0000 0.54360  0.63757  0.49929  Biso   1.000  O 
  O23      1.0000 0.46985  0.88949  0.49735  Biso   1.000  O 
  O24      1.0000 0.46208  0.86980  0.24817  Biso   1.000  O 
  Hf13     1.0000 0.27339  0.52101  0.62583  Biso   1.000  Hf
  Hf14     1.0000 0.27084  0.74144  0.87369  Biso   1.000  Hf
  Hf15     1.0000 0.74059  0.77113  0.62284  Biso   1.000  Hf
  Hf16     1.0000 0.74022  0.98568  0.87341  Biso   1.000  Hf
  O25      1.0000 0.07585  0.68814  0.69426  Biso   1.000  O 
  O26      1.0000 0.07148  0.57688  0.94759  Biso   1.000  O 
  O27      1.0000 0.94055  0.93500  0.69536  Biso   1.000  O 
  O28      1.0000 0.93331  0.82191  0.94686  Biso   1.000  O 
  O29      1.0000 0.54410  0.62224  0.74936  Biso   1.000  O 
  O30      1.0000 0.53910  0.64292  0.99964  Biso   1.000  O 
  O31      1.0000 0.45997  0.88827  0.99865  Biso   1.000  O 
  O32      1.0000 0.47052  0.87081  0.74777  Biso   1.000  O 
  Cu1      1.0000 0.16917  0.28431  0.10636  Biso   1.000  Cu
