data_image0
_cell_length_a       10.0989
_cell_length_b       10.2237
_cell_length_c       5.21813
_cell_angle_alpha    90
_cell_angle_beta     80
_cell_angle_gamma    90

_symmetry_space_group_name_H-M    "P 1"
_symmetry_int_tables_number       1

loop_
  _symmetry_equiv_pos_as_xyz
  'x, y, z'

loop_
  _atom_site_label
  _atom_site_occupancy
  _atom_site_fract_x
  _atom_site_fract_y
  _atom_site_fract_z
  _atom_site_thermal_displace_type
  _atom_site_B_iso_or_equiv
  _atom_site_type_symbol
  Cu1      1.0000 0.12057  0.00689  0.33465  Biso   1.000  Cu
  Hf1      1.0000 0.13938  0.22200  0.78206  Biso   1.000  Hf
  Hf2      1.0000 0.35866  0.26762  0.19752  Biso   1.000  Hf
  Hf3      1.0000 0.36077  0.47643  0.70807  Biso   1.000  Hf
  O1       1.0000 0.04147  0.15492  0.13919  Biso   1.000  O 
  O2       1.0000 0.03046  0.07688  0.64854  Biso   1.000  O 
  O3       1.0000 0.46555  0.41512  0.34254  Biso   1.000  O 
  O4       1.0000 0.46808  0.33603  0.84772  Biso   1.000  O 
  O5       1.0000 0.26034  0.11413  0.44419  Biso   1.000  O 
  O6       1.0000 0.29240  0.13755  0.92468  Biso   1.000  O 
  O7       1.0000 0.22517  0.38300  0.01312  Biso   1.000  O 
  O8       1.0000 0.22661  0.36526  0.51490  Biso   1.000  O 
  Hf4      1.0000 0.14271  0.52068  0.29376  Biso   1.000  Hf
  Hf5      1.0000 0.13789  0.72666  0.80040  Biso   1.000  Hf
  Hf6      1.0000 0.36192  0.77550  0.21399  Biso   1.000  Hf
  Hf7      1.0000 0.36247  0.97909  0.70871  Biso   1.000  Hf
  O9       1.0000 0.03857  0.66766  0.16520  Biso   1.000  O 
  O10      1.0000 0.03734  0.57822  0.66558  Biso   1.000  O 
  O11      1.0000 0.47084  0.91621  0.34636  Biso   1.000  O 
  O12      1.0000 0.46116  0.82952  0.84623  Biso   1.000  O 
  O13      1.0000 0.27805  0.62771  0.48412  Biso   1.000  O 
  O14      1.0000 0.27517  0.62118  0.98585  Biso   1.000  O 
  O15      1.0000 0.22735  0.89490  0.03766  Biso   1.000  O 
  O16      1.0000 0.22460  0.86615  0.53167  Biso   1.000  O 
  Hf8      1.0000 0.63628  0.02189  0.29278  Biso   1.000  Hf
  Hf9      1.0000 0.63716  0.22732  0.79383  Biso   1.000  Hf
  Hf10     1.0000 0.86792  0.26602  0.21024  Biso   1.000  Hf
  Hf11     1.0000 0.86216  0.47435  0.71258  Biso   1.000  Hf
  O17      1.0000 0.53486  0.16773  0.15751  Biso   1.000  O 
  O18      1.0000 0.53483  0.07969  0.65805  Biso   1.000  O 
  O19      1.0000 0.97007  0.41276  0.34778  Biso   1.000  O 
  O20      1.0000 0.96457  0.32618  0.84797  Biso   1.000  O 
  O21      1.0000 0.77616  0.12638  0.48204  Biso   1.000  O 
  O22      1.0000 0.77209  0.11662  0.98358  Biso   1.000  O 
  O23      1.0000 0.73024  0.37787  0.02253  Biso   1.000  O 
  O24      1.0000 0.72610  0.36851  0.52132  Biso   1.000  O 
  Hf12     1.0000 0.63906  0.51885  0.29289  Biso   1.000  Hf
  Hf13     1.0000 0.63653  0.72518  0.79650  Biso   1.000  Hf
  Hf14     1.0000 0.86425  0.76841  0.20995  Biso   1.000  Hf
  Hf15     1.0000 0.86002  0.97403  0.71439  Biso   1.000  Hf
  O25      1.0000 0.53793  0.66804  0.15847  Biso   1.000  O 
  O26      1.0000 0.53496  0.58047  0.65818  Biso   1.000  O 
  O27      1.0000 0.96808  0.91786  0.34624  Biso   1.000  O 
  O28      1.0000 0.96330  0.82762  0.84779  Biso   1.000  O 
  O29      1.0000 0.77823  0.62587  0.48458  Biso   1.000  O 
  O30      1.0000 0.77511  0.61707  0.98511  Biso   1.000  O 
  O31      1.0000 0.72721  0.87851  0.02141  Biso   1.000  O 
  O32      1.0000 0.72866  0.86848  0.52096  Biso   1.000  O 
