data_image0
_cell_length_a       5.09234
_cell_length_b       10.2881
_cell_length_c       10.5232
_cell_angle_alpha    90
_cell_angle_beta     80
_cell_angle_gamma    90

_symmetry_space_group_name_H-M    "P 1"
_symmetry_int_tables_number       1

loop_
  _symmetry_equiv_pos_as_xyz
  'x, y, z'

loop_
  _atom_site_label
  _atom_site_occupancy
  _atom_site_fract_x
  _atom_site_fract_y
  _atom_site_fract_z
  _atom_site_thermal_displace_type
  _atom_site_B_iso_or_equiv
  _atom_site_type_symbol
  Hf1      1.0000 0.27373  0.02037  0.14459  Biso   1.000  Hf
  Hf2      1.0000 0.31358  0.23131  0.40048  Biso   1.000  Hf
  Hf3      1.0000 0.70756  0.27442  0.10211  Biso   1.000  Hf
  Hf4      1.0000 0.72208  0.47588  0.34884  Biso   1.000  Hf
  O1       1.0000 0.06038  0.16818  0.08090  Biso   1.000  O 
  O2       1.0000 0.08051  0.07579  0.33430  Biso   1.000  O 
  O3       1.0000 0.91938  0.42534  0.16456  Biso   1.000  O 
  O4       1.0000 0.96873  0.34649  0.43271  Biso   1.000  O 
  O5       1.0000 0.54636  0.12234  0.23780  Biso   1.000  O 
  O6       1.0000 0.57493  0.11520  0.49308  Biso   1.000  O 
  O7       1.0000 0.43616  0.38163  0.00734  Biso   1.000  O 
  O8       1.0000 0.42020  0.37506  0.25464  Biso   1.000  O 
  Hf5      1.0000 0.28829  0.01851  0.64684  Biso   1.000  Hf
  Hf6      1.0000 0.28712  0.22637  0.89566  Biso   1.000  Hf
  Hf7      1.0000 0.74105  0.27019  0.60945  Biso   1.000  Hf
  Hf8      1.0000 0.73374  0.47650  0.85453  Biso   1.000  Hf
  O9       1.0000 0.08935  0.16608  0.57900  Biso   1.000  O 
  O10      1.0000 0.08065  0.08022  0.82796  Biso   1.000  O 
  O11      1.0000 0.94672  0.41337  0.67604  Biso   1.000  O 
  O12      1.0000 0.94110  0.32993  0.92031  Biso   1.000  O 
  O13      1.0000 0.56428  0.12647  0.74105  Biso   1.000  O 
  O14      1.0000 0.56130  0.11872  0.98850  Biso   1.000  O 
  O15      1.0000 0.47040  0.37513  0.51317  Biso   1.000  O 
  O16      1.0000 0.46179  0.36883  0.75989  Biso   1.000  O 
  Hf9      1.0000 0.27163  0.52355  0.14510  Biso   1.000  Hf
  Hf10     1.0000 0.27808  0.72298  0.39630  Biso   1.000  Hf
  Hf11     1.0000 0.71523  0.77126  0.10410  Biso   1.000  Hf
  Hf12     1.0000 0.71936  0.96728  0.35616  Biso   1.000  Hf
  O17      1.0000 0.06259  0.67102  0.07774  Biso   1.000  O 
  O18      1.0000 0.06400  0.58476  0.32587  Biso   1.000  O 
  O19      1.0000 0.92486  0.91582  0.17393  Biso   1.000  O 
  O20      1.0000 0.93185  0.82821  0.42309  Biso   1.000  O 
  O21      1.0000 0.55039  0.62859  0.24071  Biso   1.000  O 
  O22      1.0000 0.55357  0.61785  0.49009  Biso   1.000  O 
  O23      1.0000 0.44102  0.88007  0.01068  Biso   1.000  O 
  O24      1.0000 0.44215  0.86830  0.26079  Biso   1.000  O 
  Hf13     1.0000 0.28889  0.51967  0.64627  Biso   1.000  Hf
  Hf14     1.0000 0.28629  0.72618  0.89566  Biso   1.000  Hf
  Hf15     1.0000 0.72855  0.76782  0.60460  Biso   1.000  Hf
  Hf16     1.0000 0.73118  0.97576  0.85328  Biso   1.000  Hf
  O25      1.0000 0.07189  0.66197  0.57863  Biso   1.000  O 
  O26      1.0000 0.08029  0.58144  0.82791  Biso   1.000  O 
  O27      1.0000 0.93792  0.91405  0.67111  Biso   1.000  O 
  O28      1.0000 0.94213  0.83184  0.92088  Biso   1.000  O 
  O29      1.0000 0.56229  0.62557  0.73998  Biso   1.000  O 
  O30      1.0000 0.56485  0.61994  0.98904  Biso   1.000  O 
  O31      1.0000 0.44934  0.87427  0.51085  Biso   1.000  O 
  O32      1.0000 0.45665  0.86866  0.75973  Biso   1.000  O 
  Cu1      1.0000 0.85698  0.22320  0.31747  Biso   1.000  Cu
