data_image0
_cell_length_a       10.098
_cell_length_b       10.2546
_cell_length_c       10.4425
_cell_angle_alpha    90
_cell_angle_beta     80
_cell_angle_gamma    90

_symmetry_space_group_name_H-M    "P 1"
_symmetry_int_tables_number       1

loop_
  _symmetry_equiv_pos_as_xyz
  'x, y, z'

loop_
  _atom_site_label
  _atom_site_occupancy
  _atom_site_fract_x
  _atom_site_fract_y
  _atom_site_fract_z
  _atom_site_thermal_displace_type
  _atom_site_B_iso_or_equiv
  _atom_site_type_symbol
  Cu1      1.0000 0.12230  0.00843  0.16897  Biso   1.000  Cu
  Hf1      1.0000 0.13771  0.22694  0.39087  Biso   1.000  Hf
  Hf2      1.0000 0.35799  0.26738  0.10012  Biso   1.000  Hf
  Hf3      1.0000 0.36047  0.47631  0.35328  Biso   1.000  Hf
  O1       1.0000 0.04257  0.16478  0.08086  Biso   1.000  O 
  O2       1.0000 0.03326  0.07601  0.32662  Biso   1.000  O 
  O3       1.0000 0.46408  0.41730  0.16988  Biso   1.000  O 
  O4       1.0000 0.46189  0.32918  0.42056  Biso   1.000  O 
  O5       1.0000 0.26450  0.11719  0.23072  Biso   1.000  O 
  O6       1.0000 0.27306  0.11999  0.48469  Biso   1.000  O 
  O7       1.0000 0.22518  0.38389  0.00840  Biso   1.000  O 
  O8       1.0000 0.22436  0.36676  0.25778  Biso   1.000  O 
  Hf4      1.0000 0.13221  0.01772  0.64435  Biso   1.000  Hf
  Hf5      1.0000 0.13441  0.22069  0.89786  Biso   1.000  Hf
  Hf6      1.0000 0.35649  0.26884  0.60387  Biso   1.000  Hf
  Hf7      1.0000 0.35513  0.47610  0.85588  Biso   1.000  Hf
  O9       1.0000 0.02888  0.16007  0.57132  Biso   1.000  O 
  O10      1.0000 0.02756  0.07922  0.82681  Biso   1.000  O 
  O11      1.0000 0.45990  0.41615  0.67099  Biso   1.000  O 
  O12      1.0000 0.46243  0.33351  0.92263  Biso   1.000  O 
  O13      1.0000 0.26905  0.12399  0.73421  Biso   1.000  O 
  O14      1.0000 0.28588  0.13333  0.97338  Biso   1.000  O 
  O15      1.0000 0.21862  0.37553  0.50833  Biso   1.000  O 
  O16      1.0000 0.21965  0.36675  0.76036  Biso   1.000  O 
  Hf8      1.0000 0.13981  0.52186  0.14565  Biso   1.000  Hf
  Hf9      1.0000 0.13698  0.72438  0.39864  Biso   1.000  Hf
  Hf10     1.0000 0.35939  0.77485  0.10592  Biso   1.000  Hf
  Hf11     1.0000 0.36050  0.97542  0.35279  Biso   1.000  Hf
  O17      1.0000 0.03803  0.67094  0.08150  Biso   1.000  O 
  O18      1.0000 0.03534  0.57740  0.33162  Biso   1.000  O 
  O19      1.0000 0.46801  0.91679  0.17167  Biso   1.000  O 
  O20      1.0000 0.46346  0.82880  0.42067  Biso   1.000  O 
  O21      1.0000 0.27679  0.62715  0.24148  Biso   1.000  O 
  O22      1.0000 0.27505  0.61752  0.49244  Biso   1.000  O 
  O23      1.0000 0.22342  0.89508  0.01936  Biso   1.000  O 
  O24      1.0000 0.22293  0.86481  0.26330  Biso   1.000  O 
  Hf12     1.0000 0.13660  0.51777  0.64771  Biso   1.000  Hf
  Hf13     1.0000 0.13360  0.72795  0.89831  Biso   1.000  Hf
  Hf14     1.0000 0.35909  0.76941  0.60689  Biso   1.000  Hf
  Hf15     1.0000 0.35633  0.98074  0.85740  Biso   1.000  Hf
  O25      1.0000 0.03195  0.66429  0.58251  Biso   1.000  O 
  O26      1.0000 0.03196  0.57859  0.83284  Biso   1.000  O 
  O27      1.0000 0.46150  0.91717  0.67130  Biso   1.000  O 
  O28      1.0000 0.45392  0.82818  0.92273  Biso   1.000  O 
  O29      1.0000 0.27236  0.62687  0.74210  Biso   1.000  O 
  O30      1.0000 0.26969  0.62159  0.99233  Biso   1.000  O 
  O31      1.0000 0.22238  0.87577  0.51155  Biso   1.000  O 
  O32      1.0000 0.21961  0.86876  0.76365  Biso   1.000  O 
  Hf16     1.0000 0.63714  0.02245  0.14533  Biso   1.000  Hf
  Hf17     1.0000 0.63626  0.22704  0.39578  Biso   1.000  Hf
  Hf18     1.0000 0.86709  0.26698  0.10539  Biso   1.000  Hf
  Hf19     1.0000 0.85942  0.47656  0.35409  Biso   1.000  Hf
  O33      1.0000 0.53564  0.16927  0.07970  Biso   1.000  O 
  O34      1.0000 0.53108  0.08085  0.32925  Biso   1.000  O 
  O35      1.0000 0.96522  0.41912  0.17025  Biso   1.000  O 
  O36      1.0000 0.96132  0.32693  0.41856  Biso   1.000  O 
  O37      1.0000 0.77446  0.12662  0.24174  Biso   1.000  O 
  O38      1.0000 0.77271  0.11781  0.49080  Biso   1.000  O 
  O39      1.0000 0.72800  0.37914  0.01016  Biso   1.000  O 
  O40      1.0000 0.72364  0.36860  0.25989  Biso   1.000  O 
  Hf20     1.0000 0.63255  0.01885  0.64739  Biso   1.000  Hf
  Hf21     1.0000 0.63311  0.22679  0.89771  Biso   1.000  Hf
  Hf22     1.0000 0.85683  0.26850  0.60437  Biso   1.000  Hf
  Hf23     1.0000 0.85745  0.47397  0.85719  Biso   1.000  Hf
  O41      1.0000 0.53148  0.16681  0.58020  Biso   1.000  O 
  O42      1.0000 0.53215  0.07765  0.83092  Biso   1.000  O 
  O43      1.0000 0.96265  0.41222  0.67313  Biso   1.000  O 
  O44      1.0000 0.96027  0.32680  0.92507  Biso   1.000  O 
  O45      1.0000 0.77205  0.12672  0.74064  Biso   1.000  O 
  O46      1.0000 0.76931  0.11725  0.99222  Biso   1.000  O 
  O47      1.0000 0.72069  0.37609  0.51064  Biso   1.000  O 
  O48      1.0000 0.71960  0.36869  0.76099  Biso   1.000  O 
  Hf24     1.0000 0.63784  0.51960  0.14544  Biso   1.000  Hf
  Hf25     1.0000 0.63754  0.72566  0.39655  Biso   1.000  Hf
  Hf26     1.0000 0.86309  0.76999  0.10304  Biso   1.000  Hf
  Hf27     1.0000 0.85782  0.97464  0.35682  Biso   1.000  Hf
  O49      1.0000 0.53628  0.66948  0.08027  Biso   1.000  O 
  O50      1.0000 0.53547  0.57801  0.33099  Biso   1.000  O 
  O51      1.0000 0.96533  0.92135  0.17186  Biso   1.000  O 
  O52      1.0000 0.96277  0.82846  0.42228  Biso   1.000  O 
  O53      1.0000 0.77667  0.62784  0.24062  Biso   1.000  O 
  O54      1.0000 0.77442  0.61782  0.49170  Biso   1.000  O 
  O55      1.0000 0.72559  0.87993  0.00982  Biso   1.000  O 
  O56      1.0000 0.72730  0.86971  0.25936  Biso   1.000  O 
  Hf28     1.0000 0.63495  0.51837  0.64768  Biso   1.000  Hf
  Hf29     1.0000 0.63101  0.72586  0.89850  Biso   1.000  Hf
  Hf30     1.0000 0.85732  0.76731  0.60663  Biso   1.000  Hf
  Hf31     1.0000 0.85696  0.97567  0.85529  Biso   1.000  Hf
  O57      1.0000 0.53357  0.66655  0.58046  Biso   1.000  O 
  O58      1.0000 0.52960  0.57995  0.83005  Biso   1.000  O 
  O59      1.0000 0.96121  0.91381  0.67199  Biso   1.000  O 
  O60      1.0000 0.95828  0.82773  0.92244  Biso   1.000  O 
  O61      1.0000 0.77252  0.62531  0.74316  Biso   1.000  O 
  O62      1.0000 0.77040  0.61785  0.99237  Biso   1.000  O 
  O63      1.0000 0.72056  0.87557  0.51082  Biso   1.000  O 
  O64      1.0000 0.71882  0.86765  0.76141  Biso   1.000  O 
