data_image0
_cell_length_a       9.92599
_cell_length_b       10.3379
_cell_length_c       5.00137
_cell_angle_alpha    90
_cell_angle_beta     90
_cell_angle_gamma    90

_symmetry_space_group_name_H-M    "P 1"
_symmetry_int_tables_number       1

loop_
  _symmetry_equiv_pos_as_xyz
  'x, y, z'

loop_
  _atom_site_label
  _atom_site_occupancy
  _atom_site_fract_x
  _atom_site_fract_y
  _atom_site_fract_z
  _atom_site_thermal_displace_type
  _atom_site_B_iso_or_equiv
  _atom_site_type_symbol
  Cu1      1.0000 0.11861  0.02502  0.20350  Biso   1.000  Cu
  Hf1      1.0000 0.14701  0.23063  0.75037  Biso   1.000  Hf
  Hf2      1.0000 0.36957  0.26567  0.26141  Biso   1.000  Hf
  Hf3      1.0000 0.37486  0.48316  0.75605  Biso   1.000  Hf
  O1       1.0000 0.04587  0.17308  0.37183  Biso   1.000  O 
  O2       1.0000 0.04647  0.06301  0.84370  Biso   1.000  O 
  O3       1.0000 0.46834  0.43331  0.39261  Biso   1.000  O 
  O4       1.0000 0.47128  0.31274  0.88830  Biso   1.000  O 
  O5       1.0000 0.29675  0.13201  0.53633  Biso   1.000  O 
  O6       1.0000 0.25688  0.12530  0.03295  Biso   1.000  O 
  O7       1.0000 0.23092  0.38031  0.00217  Biso   1.000  O 
  O8       1.0000 0.23208  0.37020  0.50085  Biso   1.000  O 
  Hf4      1.0000 0.13920  0.51597  0.25507  Biso   1.000  Hf
  Hf5      1.0000 0.14302  0.73196  0.75964  Biso   1.000  Hf
  Hf6      1.0000 0.36799  0.76859  0.26741  Biso   1.000  Hf
  Hf7      1.0000 0.36760  0.98198  0.76519  Biso   1.000  Hf
  O9       1.0000 0.04148  0.68315  0.39182  Biso   1.000  O 
  O10      1.0000 0.04450  0.56187  0.89482  Biso   1.000  O 
  O11      1.0000 0.47374  0.93310  0.40465  Biso   1.000  O 
  O12      1.0000 0.47217  0.81622  0.90457  Biso   1.000  O 
  O13      1.0000 0.27577  0.61427  0.50474  Biso   1.000  O 
  O14      1.0000 0.27198  0.63434  0.00624  Biso   1.000  O 
  O15      1.0000 0.21907  0.88631  0.03589  Biso   1.000  O 
  O16      1.0000 0.24675  0.86011  0.53674  Biso   1.000  O 
  Hf8      1.0000 0.63446  0.01550  0.24535  Biso   1.000  Hf
  Hf9      1.0000 0.64078  0.23089  0.74909  Biso   1.000  Hf
  Hf10     1.0000 0.86752  0.26386  0.24349  Biso   1.000  Hf
  Hf11     1.0000 0.87447  0.48117  0.74902  Biso   1.000  Hf
  O17      1.0000 0.54683  0.18741  0.38002  Biso   1.000  O 
  O18      1.0000 0.54149  0.06559  0.89282  Biso   1.000  O 
  O19      1.0000 0.97078  0.42593  0.38697  Biso   1.000  O 
  O20      1.0000 0.97278  0.31214  0.88060  Biso   1.000  O 
  O21      1.0000 0.77601  0.11590  0.48905  Biso   1.000  O 
  O22      1.0000 0.78253  0.12883  0.98763  Biso   1.000  O 
  O23      1.0000 0.73028  0.38088  0.00044  Biso   1.000  O 
  O24      1.0000 0.73533  0.36685  0.49887  Biso   1.000  O 
  Hf12     1.0000 0.63795  0.51688  0.25495  Biso   1.000  Hf
  Hf13     1.0000 0.64163  0.73367  0.75176  Biso   1.000  Hf
  Hf14     1.0000 0.87482  0.76521  0.23770  Biso   1.000  Hf
  Hf15     1.0000 0.87502  0.98275  0.73614  Biso   1.000  Hf
  O25      1.0000 0.54033  0.68357  0.39758  Biso   1.000  O 
  O26      1.0000 0.54680  0.56426  0.89230  Biso   1.000  O 
  O27      1.0000 0.97610  0.93825  0.35616  Biso   1.000  O 
  O28      1.0000 0.96969  0.81326  0.86984  Biso   1.000  O 
  O29      1.0000 0.77777  0.61549  0.49668  Biso   1.000  O 
  O30      1.0000 0.78041  0.63081  0.99699  Biso   1.000  O 
  O31      1.0000 0.73910  0.88054  0.98857  Biso   1.000  O 
  O32      1.0000 0.74354  0.86558  0.48757  Biso   1.000  O 
