data_image0
_cell_length_a       4.96189
_cell_length_b       10.3427
_cell_length_c       9.9979
_cell_angle_alpha    90
_cell_angle_beta     90
_cell_angle_gamma    90

_symmetry_space_group_name_H-M    "P 1"
_symmetry_int_tables_number       1

loop_
  _symmetry_equiv_pos_as_xyz
  'x, y, z'

loop_
  _atom_site_label
  _atom_site_occupancy
  _atom_site_fract_x
  _atom_site_fract_y
  _atom_site_fract_z
  _atom_site_thermal_displace_type
  _atom_site_B_iso_or_equiv
  _atom_site_type_symbol
  Cu1      1.0000 0.24084  0.02723  0.09973  Biso   1.000  Cu
  Hf1      1.0000 0.29657  0.22521  0.37397  Biso   1.000  Hf
  Hf2      1.0000 0.73286  0.26249  0.12637  Biso   1.000  Hf
  Hf3      1.0000 0.75418  0.47953  0.37673  Biso   1.000  Hf
  O1       1.0000 0.09929  0.17659  0.18250  Biso   1.000  O 
  O2       1.0000 0.10002  0.06247  0.44609  Biso   1.000  O 
  O3       1.0000 0.94233  0.42430  0.19526  Biso   1.000  O 
  O4       1.0000 0.95228  0.31092  0.44198  Biso   1.000  O 
  O5       1.0000 0.58406  0.12358  0.25562  Biso   1.000  O 
  O6       1.0000 0.56698  0.12773  0.50259  Biso   1.000  O 
  O7       1.0000 0.48374  0.37730  0.49969  Biso   1.000  O 
  O8       1.0000 0.46811  0.36652  0.24971  Biso   1.000  O 
  Hf4      1.0000 0.29322  0.01266  0.62836  Biso   1.000  Hf
  Hf5      1.0000 0.30198  0.23177  0.87562  Biso   1.000  Hf
  Hf6      1.0000 0.75935  0.26314  0.62471  Biso   1.000  Hf
  Hf7      1.0000 0.76635  0.48078  0.87475  Biso   1.000  Hf
  O9       1.0000 0.10509  0.18385  0.69279  Biso   1.000  O 
  O10      1.0000 0.10088  0.06190  0.92439  Biso   1.000  O 
  O11      1.0000 0.95478  0.43167  0.69293  Biso   1.000  O 
  O12      1.0000 0.95517  0.30847  0.93962  Biso   1.000  O 
  O13      1.0000 0.57371  0.11610  0.75243  Biso   1.000  O 
  O14      1.0000 0.51263  0.12726  0.00606  Biso   1.000  O 
  O15      1.0000 0.45314  0.38157  0.00070  Biso   1.000  O 
  O16      1.0000 0.48676  0.36586  0.74945  Biso   1.000  O 
  Hf8      1.0000 0.27667  0.51538  0.12984  Biso   1.000  Hf
  Hf9      1.0000 0.29668  0.73322  0.37713  Biso   1.000  Hf
  Hf10     1.0000 0.74600  0.76394  0.12521  Biso   1.000  Hf
  Hf11     1.0000 0.75450  0.98303  0.37341  Biso   1.000  Hf
  O17      1.0000 0.08573  0.68403  0.19779  Biso   1.000  O 
  O18      1.0000 0.09790  0.56189  0.44391  Biso   1.000  O 
  O19      1.0000 0.96656  0.93772  0.18547  Biso   1.000  O 
  O20      1.0000 0.95980  0.81496  0.44843  Biso   1.000  O 
  O21      1.0000 0.55972  0.60997  0.24876  Biso   1.000  O 
  O22      1.0000 0.56799  0.62956  0.50034  Biso   1.000  O 
  O23      1.0000 0.48528  0.88045  0.50410  Biso   1.000  O 
  O24      1.0000 0.52231  0.85533  0.26037  Biso   1.000  O 
  Hf12     1.0000 0.29621  0.51416  0.62508  Biso   1.000  Hf
  Hf13     1.0000 0.29641  0.72892  0.87954  Biso   1.000  Hf
  Hf14     1.0000 0.76032  0.76460  0.62653  Biso   1.000  Hf
  Hf15     1.0000 0.74579  0.97764  0.87849  Biso   1.000  Hf
  O25      1.0000 0.09904  0.68020  0.69771  Biso   1.000  O 
  O26      1.0000 0.10612  0.56025  0.94958  Biso   1.000  O 
  O27      1.0000 0.94617  0.93235  0.69392  Biso   1.000  O 
  O28      1.0000 0.94515  0.81044  0.93823  Biso   1.000  O 
  O29      1.0000 0.56811  0.61496  0.75134  Biso   1.000  O 
  O30      1.0000 0.53182  0.63474  0.00091  Biso   1.000  O 
  O31      1.0000 0.42638  0.88666  0.01169  Biso   1.000  O 
  O32      1.0000 0.48070  0.86424  0.75427  Biso   1.000  O 
