data_image0
_cell_length_a       10.0213
_cell_length_b       10.4036
_cell_length_c       5.03447
_cell_angle_alpha    90
_cell_angle_beta     90
_cell_angle_gamma    90

_symmetry_space_group_name_H-M    "P 1"
_symmetry_int_tables_number       1

loop_
  _symmetry_equiv_pos_as_xyz
  'x, y, z'

loop_
  _atom_site_label
  _atom_site_occupancy
  _atom_site_fract_x
  _atom_site_fract_y
  _atom_site_fract_z
  _atom_site_thermal_displace_type
  _atom_site_B_iso_or_equiv
  _atom_site_type_symbol
  Hf1      1.0000 0.13781  0.01775  0.25938  Biso   1.000  Hf
  Hf2      1.0000 0.13986  0.22643  0.78517  Biso   1.000  Hf
  Hf3      1.0000 0.36990  0.26639  0.24949  Biso   1.000  Hf
  Hf4      1.0000 0.37452  0.48626  0.74590  Biso   1.000  Hf
  O1       1.0000 0.00897  0.16007  0.47000  Biso   1.000  O 
  O2       1.0000 0.03940  0.06196  0.92173  Biso   1.000  O 
  O3       1.0000 0.46892  0.43348  0.38849  Biso   1.000  O 
  O4       1.0000 0.46905  0.31683  0.88502  Biso   1.000  O 
  O5       1.0000 0.26940  0.11922  0.50897  Biso   1.000  O 
  O6       1.0000 0.28576  0.12346  0.00083  Biso   1.000  O 
  O7       1.0000 0.23869  0.38951  0.00029  Biso   1.000  O 
  O8       1.0000 0.23397  0.36833  0.50736  Biso   1.000  O 
  Hf5      1.0000 0.13873  0.52960  0.24456  Biso   1.000  Hf
  Hf6      1.0000 0.13873  0.73764  0.74927  Biso   1.000  Hf
  Hf7      1.0000 0.37111  0.76749  0.24854  Biso   1.000  Hf
  Hf8      1.0000 0.37241  0.98191  0.75119  Biso   1.000  Hf
  O9       1.0000 0.03834  0.68504  0.38972  Biso   1.000  O 
  O10      1.0000 0.04125  0.56927  0.88689  Biso   1.000  O 
  O11      1.0000 0.46772  0.93365  0.38555  Biso   1.000  O 
  O12      1.0000 0.47387  0.81735  0.89085  Biso   1.000  O 
  O13      1.0000 0.27612  0.62053  0.49534  Biso   1.000  O 
  O14      1.0000 0.27643  0.63711  0.99343  Biso   1.000  O 
  O15      1.0000 0.23183  0.88143  0.00153  Biso   1.000  O 
  O16      1.0000 0.23667  0.86781  0.50031  Biso   1.000  O 
  Hf9      1.0000 0.63352  0.01241  0.23865  Biso   1.000  Hf
  Hf10     1.0000 0.63401  0.23163  0.74255  Biso   1.000  Hf
  Hf11     1.0000 0.85315  0.26229  0.24371  Biso   1.000  Hf
  Hf12     1.0000 0.87217  0.48204  0.74902  Biso   1.000  Hf
  O17      1.0000 0.53677  0.18273  0.38160  Biso   1.000  O 
  O18      1.0000 0.54243  0.06459  0.87970  Biso   1.000  O 
  O19      1.0000 0.96960  0.43048  0.38019  Biso   1.000  O 
  O20      1.0000 0.96482  0.31893  0.88619  Biso   1.000  O 
  O21      1.0000 0.76290  0.11249  0.48703  Biso   1.000  O 
  O22      1.0000 0.77366  0.13383  0.98549  Biso   1.000  O 
  O23      1.0000 0.73142  0.38202  0.99579  Biso   1.000  O 
  O24      1.0000 0.73180  0.36765  0.49627  Biso   1.000  O 
  Hf13     1.0000 0.63666  0.51780  0.24841  Biso   1.000  Hf
  Hf14     1.0000 0.64220  0.73450  0.74595  Biso   1.000  Hf
  Hf15     1.0000 0.86867  0.76667  0.24265  Biso   1.000  Hf
  Hf16     1.0000 0.87762  0.98777  0.73460  Biso   1.000  Hf
  O25      1.0000 0.53976  0.68382  0.39021  Biso   1.000  O 
  O26      1.0000 0.54128  0.56825  0.89024  Biso   1.000  O 
  O27      1.0000 0.97207  0.92542  0.39148  Biso   1.000  O 
  O28      1.0000 0.96995  0.81749  0.88488  Biso   1.000  O 
  O29      1.0000 0.77539  0.61572  0.49285  Biso   1.000  O 
  O30      1.0000 0.77608  0.63219  0.99298  Biso   1.000  O 
  O31      1.0000 0.73990  0.88450  0.98753  Biso   1.000  O 
  O32      1.0000 0.73446  0.86569  0.48845  Biso   1.000  O 
  Cu1      1.0000 0.09961  0.28790  0.27624  Biso   1.000  Cu
