data_image0
_cell_length_a       10.1834
_cell_length_b       5.14893
_cell_length_c       10.5124
_cell_angle_alpha    90
_cell_angle_beta     80
_cell_angle_gamma    90

_symmetry_space_group_name_H-M    "P 1"
_symmetry_int_tables_number       1

loop_
  _symmetry_equiv_pos_as_xyz
  'x, y, z'

loop_
  _atom_site_label
  _atom_site_occupancy
  _atom_site_fract_x
  _atom_site_fract_y
  _atom_site_fract_z
  _atom_site_thermal_displace_type
  _atom_site_B_iso_or_equiv
  _atom_site_type_symbol
  Hf1      1.0000 0.13447  0.04398  0.14186  Biso   1.000  Hf
  Hf2      1.0000 0.14168  0.45369  0.39373  Biso   1.000  Hf
  Hf3      1.0000 0.35541  0.54755  0.10204  Biso   1.000  Hf
  Hf4      1.0000 0.35777  0.93094  0.34982  Biso   1.000  Hf
  O1       1.0000 0.03137  0.34171  0.07766  Biso   1.000  O 
  O2       1.0000 0.03384  0.16516  0.32776  Biso   1.000  O 
  O3       1.0000 0.46226  0.85015  0.16686  Biso   1.000  O 
  O4       1.0000 0.48061  0.68276  0.43249  Biso   1.000  O 
  O5       1.0000 0.26917  0.24692  0.23621  Biso   1.000  O 
  O6       1.0000 0.28125  0.23092  0.48944  Biso   1.000  O 
  O7       1.0000 0.21968  0.76294  0.00602  Biso   1.000  O 
  O8       1.0000 0.20954  0.74816  0.25411  Biso   1.000  O 
  Hf5      1.0000 0.14420  0.03817  0.64449  Biso   1.000  Hf
  Hf6      1.0000 0.14253  0.45242  0.89437  Biso   1.000  Hf
  Hf7      1.0000 0.36563  0.53806  0.60837  Biso   1.000  Hf
  Hf8      1.0000 0.36592  0.95228  0.85412  Biso   1.000  Hf
  O9       1.0000 0.04050  0.33009  0.57797  Biso   1.000  O 
  O10      1.0000 0.04036  0.15959  0.82706  Biso   1.000  O 
  O11      1.0000 0.47097  0.82608  0.67506  Biso   1.000  O 
  O12      1.0000 0.47118  0.66226  0.92122  Biso   1.000  O 
  O13      1.0000 0.28138  0.25123  0.73958  Biso   1.000  O 
  O14      1.0000 0.28081  0.24038  0.98726  Biso   1.000  O 
  O15      1.0000 0.22866  0.74556  0.51075  Biso   1.000  O 
  O16      1.0000 0.22904  0.73744  0.75848  Biso   1.000  O 
  Hf9      1.0000 0.63940  0.04380  0.14683  Biso   1.000  Hf
  Hf10     1.0000 0.65316  0.45427  0.40301  Biso   1.000  Hf
  Hf11     1.0000 0.85813  0.54464  0.10492  Biso   1.000  Hf
  Hf12     1.0000 0.86486  0.95273  0.35431  Biso   1.000  Hf
  O17      1.0000 0.53319  0.34144  0.08221  Biso   1.000  O 
  O18      1.0000 0.54104  0.15016  0.33502  Biso   1.000  O 
  O19      1.0000 0.95996  0.83978  0.16951  Biso   1.000  O 
  O20      1.0000 0.96743  0.66168  0.42195  Biso   1.000  O 
  O21      1.0000 0.77756  0.25905  0.24243  Biso   1.000  O 
  O22      1.0000 0.78295  0.23463  0.49370  Biso   1.000  O 
  O23      1.0000 0.72123  0.76087  0.01195  Biso   1.000  O 
  O24      1.0000 0.72293  0.74141  0.26224  Biso   1.000  O 
  Hf13     1.0000 0.64361  0.03797  0.64878  Biso   1.000  Hf
  Hf14     1.0000 0.64330  0.45287  0.89740  Biso   1.000  Hf
  Hf15     1.0000 0.86847  0.53875  0.60641  Biso   1.000  Hf
  Hf16     1.0000 0.86636  0.95256  0.85430  Biso   1.000  Hf
  O25      1.0000 0.53981  0.32778  0.58037  Biso   1.000  O 
  O26      1.0000 0.53975  0.16187  0.82992  Biso   1.000  O 
  O27      1.0000 0.97057  0.83119  0.67127  Biso   1.000  O 
  O28      1.0000 0.96923  0.65912  0.91943  Biso   1.000  O 
  O29      1.0000 0.78103  0.25347  0.74178  Biso   1.000  O 
  O30      1.0000 0.78132  0.23652  0.99079  Biso   1.000  O 
  O31      1.0000 0.72995  0.75105  0.51353  Biso   1.000  O 
  O32      1.0000 0.72968  0.73814  0.76169  Biso   1.000  O 
  Cu1      1.0000 0.42324  0.43185  0.31987  Biso   1.000  Cu
