data_image0
_cell_length_a       10.1025
_cell_length_b       5.11151
_cell_length_c       10.4519
_cell_angle_alpha    90
_cell_angle_beta     80
_cell_angle_gamma    90

_symmetry_space_group_name_H-M    "P 1"
_symmetry_int_tables_number       1

loop_
  _symmetry_equiv_pos_as_xyz
  'x, y, z'

loop_
  _atom_site_label
  _atom_site_occupancy
  _atom_site_fract_x
  _atom_site_fract_y
  _atom_site_fract_z
  _atom_site_thermal_displace_type
  _atom_site_B_iso_or_equiv
  _atom_site_type_symbol
  Cu1      1.0000 0.12340  0.01613  0.16793  Biso   1.000  Cu
  Hf1      1.0000 0.13770  0.44362  0.39284  Biso   1.000  Hf
  Hf2      1.0000 0.35617  0.54411  0.10197  Biso   1.000  Hf
  Hf3      1.0000 0.36200  0.94615  0.35163  Biso   1.000  Hf
  O1       1.0000 0.04482  0.33279  0.08170  Biso   1.000  O 
  O2       1.0000 0.03351  0.14723  0.32524  Biso   1.000  O 
  O3       1.0000 0.46971  0.82514  0.17329  Biso   1.000  O 
  O4       1.0000 0.46456  0.65916  0.42305  Biso   1.000  O 
  O5       1.0000 0.26540  0.23097  0.23044  Biso   1.000  O 
  O6       1.0000 0.27374  0.23302  0.48565  Biso   1.000  O 
  O7       1.0000 0.22459  0.80566  0.02101  Biso   1.000  O 
  O8       1.0000 0.22601  0.72120  0.26221  Biso   1.000  O 
  Hf4      1.0000 0.13346  0.02709  0.64507  Biso   1.000  Hf
  Hf5      1.0000 0.13341  0.43940  0.89764  Biso   1.000  Hf
  Hf6      1.0000 0.35829  0.53416  0.60626  Biso   1.000  Hf
  Hf7      1.0000 0.35640  0.95879  0.85888  Biso   1.000  Hf
  O9       1.0000 0.02752  0.30649  0.57181  Biso   1.000  O 
  O10      1.0000 0.02795  0.15478  0.82738  Biso   1.000  O 
  O11      1.0000 0.46234  0.82493  0.67365  Biso   1.000  O 
  O12      1.0000 0.46125  0.66989  0.92646  Biso   1.000  O 
  O13      1.0000 0.26866  0.24283  0.73410  Biso   1.000  O 
  O14      1.0000 0.28625  0.27493  0.97183  Biso   1.000  O 
  O15      1.0000 0.22082  0.74293  0.51045  Biso   1.000  O 
  O16      1.0000 0.22134  0.73026  0.76504  Biso   1.000  O 
  Hf8      1.0000 0.63558  0.04122  0.14477  Biso   1.000  Hf
  Hf9      1.0000 0.63673  0.44815  0.39595  Biso   1.000  Hf
  Hf10     1.0000 0.86840  0.53039  0.10429  Biso   1.000  Hf
  Hf11     1.0000 0.85852  0.94504  0.35582  Biso   1.000  Hf
  O17      1.0000 0.53416  0.33486  0.07815  Biso   1.000  O 
  O18      1.0000 0.53076  0.16066  0.32813  Biso   1.000  O 
  O19      1.0000 0.96735  0.83924  0.17187  Biso   1.000  O 
  O20      1.0000 0.96325  0.65159  0.42127  Biso   1.000  O 
  O21      1.0000 0.77476  0.24935  0.24111  Biso   1.000  O 
  O22      1.0000 0.77282  0.22981  0.49082  Biso   1.000  O 
  O23      1.0000 0.72921  0.75921  0.01074  Biso   1.000  O 
  O24      1.0000 0.72887  0.73407  0.25962  Biso   1.000  O 
  Hf12     1.0000 0.63214  0.03162  0.64820  Biso   1.000  Hf
  Hf13     1.0000 0.63134  0.44891  0.89922  Biso   1.000  Hf
  Hf14     1.0000 0.85700  0.52841  0.60574  Biso   1.000  Hf
  Hf15     1.0000 0.85879  0.94178  0.85690  Biso   1.000  Hf
  O25      1.0000 0.53155  0.32457  0.57816  Biso   1.000  O 
  O26      1.0000 0.52989  0.15983  0.82784  Biso   1.000  O 
  O27      1.0000 0.96494  0.80979  0.67541  Biso   1.000  O 
  O28      1.0000 0.96057  0.64919  0.92701  Biso   1.000  O 
  O29      1.0000 0.77232  0.24504  0.74179  Biso   1.000  O 
  O30      1.0000 0.76974  0.22871  0.99238  Biso   1.000  O 
  O31      1.0000 0.72140  0.74473  0.51134  Biso   1.000  O 
  O32      1.0000 0.72039  0.73140  0.76190  Biso   1.000  O 
