data_image0
_cell_length_a       10.0567
_cell_length_b       10.2715
_cell_length_c       5.25528
_cell_angle_alpha    90
_cell_angle_beta     90
_cell_angle_gamma    90

_symmetry_space_group_name_H-M    "P 1"
_symmetry_int_tables_number       1

loop_
  _symmetry_equiv_pos_as_xyz
  'x, y, z'

loop_
  _atom_site_label
  _atom_site_occupancy
  _atom_site_fract_x
  _atom_site_fract_y
  _atom_site_fract_z
  _atom_site_thermal_displace_type
  _atom_site_B_iso_or_equiv
  _atom_site_type_symbol
  Hf1      1.0000 0.13707  0.02055  0.34695  Biso   1.000  Hf
  Hf2      1.0000 0.13083  0.22821  0.85134  Biso   1.000  Hf
  Hf3      1.0000 0.34958  0.27001  0.36487  Biso   1.000  Hf
  Hf4      1.0000 0.35461  0.48192  0.84677  Biso   1.000  Hf
  Hf5      1.0000 0.64116  0.02230  0.14924  Biso   1.000  Hf
  Hf6      1.0000 0.63775  0.22585  0.66293  Biso   1.000  Hf
  Hf7      1.0000 0.85905  0.26885  0.15446  Biso   1.000  Hf
  Hf8      1.0000 0.86000  0.48041  0.65456  Biso   1.000  Hf
  O1       1.0000 0.03298  0.16505  0.17093  Biso   1.000  O 
  O2       1.0000 0.03064  0.08384  0.66771  Biso   1.000  O 
  O3       1.0000 0.46357  0.42237  0.18339  Biso   1.000  O 
  O4       1.0000 0.46331  0.33559  0.67489  Biso   1.000  O 
  O5       1.0000 0.27019  0.12509  0.60044  Biso   1.000  O 
  O6       1.0000 0.27664  0.12471  0.09835  Biso   1.000  O 
  O7       1.0000 0.21775  0.37500  0.60019  Biso   1.000  O 
  O8       1.0000 0.22401  0.37568  0.09810  Biso   1.000  O 
  O9       1.0000 0.51944  0.15237  0.36156  Biso   1.000  O 
  O10      1.0000 0.52844  0.07629  0.82788  Biso   1.000  O 
  O11      1.0000 0.96446  0.41461  0.33455  Biso   1.000  O 
  O12      1.0000 0.96263  0.33563  0.83460  Biso   1.000  O 
  O13      1.0000 0.78280  0.11947  0.89877  Biso   1.000  O 
  O14      1.0000 0.77441  0.12563  0.40823  Biso   1.000  O 
  O15      1.0000 0.72471  0.38345  0.90479  Biso   1.000  O 
  O16      1.0000 0.71959  0.37736  0.40846  Biso   1.000  O 
  Hf9      1.0000 0.13555  0.52121  0.34333  Biso   1.000  Hf
  Hf10     1.0000 0.13369  0.72996  0.84459  Biso   1.000  Hf
  Hf11     1.0000 0.35964  0.77215  0.34683  Biso   1.000  Hf
  Hf12     1.0000 0.35574  0.97751  0.85061  Biso   1.000  Hf
  Hf13     1.0000 0.64192  0.53076  0.15733  Biso   1.000  Hf
  Hf14     1.0000 0.63542  0.73210  0.65675  Biso   1.000  Hf
  Hf15     1.0000 0.86276  0.77281  0.15646  Biso   1.000  Hf
  Hf16     1.0000 0.85869  0.97817  0.65451  Biso   1.000  Hf
  O17      1.0000 0.03308  0.66449  0.16599  Biso   1.000  O 
  O18      1.0000 0.03022  0.58571  0.66634  Biso   1.000  O 
  O19      1.0000 0.46768  0.91257  0.16835  Biso   1.000  O 
  O20      1.0000 0.46229  0.83353  0.66980  Biso   1.000  O 
  O21      1.0000 0.27275  0.62359  0.59133  Biso   1.000  O 
  O22      1.0000 0.27637  0.62509  0.09181  Biso   1.000  O 
  O23      1.0000 0.22067  0.87384  0.59439  Biso   1.000  O 
  O24      1.0000 0.22308  0.87463  0.09541  Biso   1.000  O 
  O25      1.0000 0.53203  0.66741  0.33530  Biso   1.000  O 
  O26      1.0000 0.52728  0.58701  0.83604  Biso   1.000  O 
  O27      1.0000 0.96721  0.91525  0.33152  Biso   1.000  O 
  O28      1.0000 0.96283  0.83475  0.83375  Biso   1.000  O 
  O29      1.0000 0.77122  0.62837  0.90778  Biso   1.000  O 
  O30      1.0000 0.77593  0.62830  0.40873  Biso   1.000  O 
  O31      1.0000 0.71898  0.87521  0.91044  Biso   1.000  O 
  O32      1.0000 0.72328  0.87547  0.40945  Biso   1.000  O 
  Cu1      1.0000 0.57869  0.27718  0.11716  Biso   1.000  Cu
