data_image0
_cell_length_a       10.0085
_cell_length_b       10.1842
_cell_length_c       5.01805
_cell_angle_alpha    90
_cell_angle_beta     90
_cell_angle_gamma    90

_symmetry_space_group_name_H-M    "P 1"
_symmetry_int_tables_number       1

loop_
  _symmetry_equiv_pos_as_xyz
  'x, y, z'

loop_
  _atom_site_label
  _atom_site_occupancy
  _atom_site_fract_x
  _atom_site_fract_y
  _atom_site_fract_z
  _atom_site_thermal_displace_type
  _atom_site_B_iso_or_equiv
  _atom_site_type_symbol
  Cu1      1.0000 0.12534  0.02339  0.23350  Biso   1.000  Cu
  Hf1      1.0000 0.11217  0.24118  0.75041  Biso   1.000  Hf
  Hf2      1.0000 0.37917  0.25379  0.25640  Biso   1.000  Hf
  Hf3      1.0000 0.35462  0.98589  0.69076  Biso   1.000  Hf
  O1       1.0000 0.01535  0.13739  0.03295  Biso   1.000  O 
  O2       1.0000 0.98234  0.09968  0.52814  Biso   1.000  O 
  O3       1.0000 0.00221  0.34318  0.47484  Biso   1.000  O 
  O4       1.0000 0.97031  0.38145  0.98124  Biso   1.000  O 
  O5       1.0000 0.22961  0.13787  0.46034  Biso   1.000  O 
  O6       1.0000 0.24423  0.09617  0.95840  Biso   1.000  O 
  O7       1.0000 0.22820  0.33879  0.05833  Biso   1.000  O 
  O8       1.0000 0.24254  0.38684  0.55028  Biso   1.000  O 
  Hf4      1.0000 0.12024  0.48405  0.26424  Biso   1.000  Hf
  Hf5      1.0000 0.10852  0.72713  0.77094  Biso   1.000  Hf
  Hf6      1.0000 0.36253  0.74233  0.23575  Biso   1.000  Hf
  Hf7      1.0000 0.37145  0.51018  0.74020  Biso   1.000  Hf
  O9       1.0000 0.00247  0.64099  0.03432  Biso   1.000  O 
  O10      1.0000 0.99193  0.58884  0.52816  Biso   1.000  O 
  O11      1.0000 0.97967  0.83616  0.56629  Biso   1.000  O 
  O12      1.0000 0.03460  0.89512  0.04982  Biso   1.000  O 
  O13      1.0000 0.23812  0.63967  0.49238  Biso   1.000  O 
  O14      1.0000 0.25041  0.59038  0.00399  Biso   1.000  O 
  O15      1.0000 0.27091  0.82773  0.89492  Biso   1.000  O 
  O16      1.0000 0.23779  0.89737  0.40029  Biso   1.000  O 
  Hf8      1.0000 0.61988  0.00802  0.24045  Biso   1.000  Hf
  Hf9      1.0000 0.61672  0.24093  0.74106  Biso   1.000  Hf
  Hf10     1.0000 0.86848  0.24746  0.24837  Biso   1.000  Hf
  Hf11     1.0000 0.88330  0.98488  0.77863  Biso   1.000  Hf
  O17      1.0000 0.52079  0.16844  0.03155  Biso   1.000  O 
  O18      1.0000 0.48461  0.10742  0.50672  Biso   1.000  O 
  O19      1.0000 0.49479  0.36256  0.52871  Biso   1.000  O 
  O20      1.0000 0.47683  0.41319  0.04312  Biso   1.000  O 
  O21      1.0000 0.73181  0.14946  0.47180  Biso   1.000  O 
  O22      1.0000 0.74098  0.10283  0.98252  Biso   1.000  O 
  O23      1.0000 0.73926  0.36142  0.00748  Biso   1.000  O 
  O24      1.0000 0.74803  0.39437  0.49933  Biso   1.000  O 
  Hf12     1.0000 0.62362  0.50460  0.25339  Biso   1.000  Hf
  Hf13     1.0000 0.61258  0.76415  0.74113  Biso   1.000  Hf
  Hf14     1.0000 0.87414  0.74703  0.27887  Biso   1.000  Hf
  Hf15     1.0000 0.85165  0.50169  0.76835  Biso   1.000  Hf
  O25      1.0000 0.48316  0.65704  0.98525  Biso   1.000  O 
  O26      1.0000 0.49136  0.61231  0.48823  Biso   1.000  O 
  O27      1.0000 0.49495  0.85734  0.44114  Biso   1.000  O 
  O28      1.0000 0.51062  0.91864  0.92677  Biso   1.000  O 
  O29      1.0000 0.74122  0.64714  0.50841  Biso   1.000  O 
  O30      1.0000 0.75002  0.60918  0.00961  Biso   1.000  O 
  O31      1.0000 0.77166  0.85570  0.01031  Biso   1.000  O 
  O32      1.0000 0.74273  0.90069  0.51275  Biso   1.000  O 
