data_image0
_cell_length_a       5.07603
_cell_length_b       10.3452
_cell_length_c       10.068
_cell_angle_alpha    90
_cell_angle_beta     90
_cell_angle_gamma    90

_symmetry_space_group_name_H-M    "P 1"
_symmetry_int_tables_number       1

loop_
  _symmetry_equiv_pos_as_xyz
  'x, y, z'

loop_
  _atom_site_label
  _atom_site_occupancy
  _atom_site_fract_x
  _atom_site_fract_y
  _atom_site_fract_z
  _atom_site_thermal_displace_type
  _atom_site_B_iso_or_equiv
  _atom_site_type_symbol
  Hf1      1.0000 0.20816  0.96333  0.14600  Biso   1.000  Hf
  Hf2      1.0000 0.23355  0.23066  0.38619  Biso   1.000  Hf
  Hf3      1.0000 0.62262  0.25787  0.11797  Biso   1.000  Hf
  Hf4      1.0000 0.75916  0.99595  0.39725  Biso   1.000  Hf
  O1       1.0000 0.89465  0.15031  0.00245  Biso   1.000  O 
  O2       1.0000 0.07378  0.05671  0.28387  Biso   1.000  O 
  O3       1.0000 0.91067  0.30818  0.26841  Biso   1.000  O 
  O4       1.0000 0.93554  0.39282  0.01051  Biso   1.000  O 
  O5       1.0000 0.54848  0.11901  0.25732  Biso   1.000  O 
  O6       1.0000 0.44841  0.06987  0.99197  Biso   1.000  O 
  O7       1.0000 0.46420  0.34010  0.97106  Biso   1.000  O 
  O8       1.0000 0.43232  0.39319  0.24472  Biso   1.000  O 
  Hf5      1.0000 0.23063  0.00212  0.63919  Biso   1.000  Hf
  Hf6      1.0000 0.18800  0.21836  0.88729  Biso   1.000  Hf
  Hf7      1.0000 0.72385  0.24639  0.63399  Biso   1.000  Hf
  Hf8      1.0000 0.65957  0.96526  0.89479  Biso   1.000  Hf
  O9       1.0000 0.97776  0.13591  0.51503  Biso   1.000  O 
  O10      1.0000 0.94988  0.08949  0.75843  Biso   1.000  O 
  O11      1.0000 0.00941  0.34327  0.75413  Biso   1.000  O 
  O12      1.0000 0.01316  0.38200  0.49867  Biso   1.000  O 
  O13      1.0000 0.43441  0.16271  0.73899  Biso   1.000  O 
  O14      1.0000 0.47710  0.09063  0.50479  Biso   1.000  O 
  O15      1.0000 0.51378  0.33315  0.48646  Biso   1.000  O 
  O16      1.0000 0.53558  0.41289  0.72135  Biso   1.000  O 
  Hf9      1.0000 0.22338  0.50911  0.10818  Biso   1.000  Hf
  Hf10     1.0000 0.23203  0.73662  0.38006  Biso   1.000  Hf
  Hf11     1.0000 0.70587  0.73354  0.12261  Biso   1.000  Hf
  Hf12     1.0000 0.74104  0.46851  0.37252  Biso   1.000  Hf
  O17      1.0000 0.00833  0.61533  0.98769  Biso   1.000  O 
  O18      1.0000 0.90659  0.56742  0.22183  Biso   1.000  O 
  O19      1.0000 0.00707  0.81044  0.23529  Biso   1.000  O 
  O20      1.0000 0.91639  0.89733  0.00677  Biso   1.000  O 
  O21      1.0000 0.41862  0.63928  0.23461  Biso   1.000  O 
  O22      1.0000 0.51473  0.57631  0.99298  Biso   1.000  O 
  O23      1.0000 0.42528  0.84591  0.00354  Biso   1.000  O 
  O24      1.0000 0.50170  0.87445  0.25428  Biso   1.000  O 
  Hf13     1.0000 0.23408  0.49530  0.62542  Biso   1.000  Hf
  Hf14     1.0000 0.17514  0.74631  0.85713  Biso   1.000  Hf
  Hf15     1.0000 0.71953  0.72513  0.60473  Biso   1.000  Hf
  Hf16     1.0000 0.75850  0.47454  0.87685  Biso   1.000  Hf
  O25      1.0000 0.97273  0.62460  0.48321  Biso   1.000  O 
  O26      1.0000 0.94943  0.59435  0.73696  Biso   1.000  O 
  O27      1.0000 0.87664  0.84023  0.75379  Biso   1.000  O 
  O28      1.0000 0.94609  0.87790  0.49988  Biso   1.000  O 
  O29      1.0000 0.42303  0.66017  0.72718  Biso   1.000  O 
  O30      1.0000 0.47908  0.58735  0.48628  Biso   1.000  O 
  O31      1.0000 0.45588  0.84226  0.50659  Biso   1.000  O 
  O32      1.0000 0.35733  0.91021  0.77128  Biso   1.000  O 
  Cu1      1.0000 0.11091  0.19686  0.14791  Biso   1.000  Cu
