data_image0
_cell_length_a       10.0951
_cell_length_b       10.1804
_cell_length_c       10.0153
_cell_angle_alpha    90
_cell_angle_beta     90
_cell_angle_gamma    90

_symmetry_space_group_name_H-M    "P 1"
_symmetry_int_tables_number       1

loop_
  _symmetry_equiv_pos_as_xyz
  'x, y, z'

loop_
  _atom_site_label
  _atom_site_occupancy
  _atom_site_fract_x
  _atom_site_fract_y
  _atom_site_fract_z
  _atom_site_thermal_displace_type
  _atom_site_B_iso_or_equiv
  _atom_site_type_symbol
  Cu1      1.0000 0.11578  0.95682  0.13795  Biso   1.000  Cu
  Hf1      1.0000 0.14022  0.25155  0.36399  Biso   1.000  Hf
  Hf2      1.0000 0.35503  0.26758  0.12345  Biso   1.000  Hf
  Hf3      1.0000 0.38872  0.99479  0.37163  Biso   1.000  Hf
  O1       1.0000 0.00978  0.15893  0.99343  Biso   1.000  O 
  O2       1.0000 0.04734  0.07707  0.25962  Biso   1.000  O 
  O3       1.0000 0.00409  0.34476  0.24623  Biso   1.000  O 
  O4       1.0000 0.02301  0.40335  0.99738  Biso   1.000  O 
  O5       1.0000 0.30077  0.15952  0.28547  Biso   1.000  O 
  O6       1.0000 0.22761  0.12028  0.02490  Biso   1.000  O 
  O7       1.0000 0.27158  0.36415  0.99627  Biso   1.000  O 
  O8       1.0000 0.24568  0.40555  0.24572  Biso   1.000  O 
  Hf4      1.0000 0.16248  0.00398  0.63371  Biso   1.000  Hf
  Hf5      1.0000 0.14803  0.24604  0.88785  Biso   1.000  Hf
  Hf6      1.0000 0.41330  0.24119  0.63150  Biso   1.000  Hf
  Hf7      1.0000 0.38723  0.01142  0.89993  Biso   1.000  Hf
  O9       1.0000 0.06788  0.15171  0.51840  Biso   1.000  O 
  O10      1.0000 0.02763  0.10269  0.75572  Biso   1.000  O 
  O11      1.0000 0.05169  0.35535  0.74742  Biso   1.000  O 
  O12      1.0000 0.02553  0.39509  0.49752  Biso   1.000  O 
  O13      1.0000 0.27721  0.14383  0.76882  Biso   1.000  O 
  O14      1.0000 0.32277  0.08456  0.53619  Biso   1.000  O 
  O15      1.0000 0.27908  0.33897  0.49759  Biso   1.000  O 
  O16      1.0000 0.30597  0.39091  0.73890  Biso   1.000  O 
  Hf8      1.0000 0.11703  0.51039  0.11712  Biso   1.000  Hf
  Hf9      1.0000 0.13961  0.75278  0.38453  Biso   1.000  Hf
  Hf10     1.0000 0.36654  0.74198  0.11683  Biso   1.000  Hf
  Hf11     1.0000 0.39102  0.48774  0.37848  Biso   1.000  Hf
  O17      1.0000 0.04099  0.65776  0.98291  Biso   1.000  O 
  O18      1.0000 0.95452  0.58532  0.21700  Biso   1.000  O 
  O19      1.0000 0.99126  0.83026  0.26303  Biso   1.000  O 
  O20      1.0000 0.96519  0.91807  0.03487  Biso   1.000  O 
  O21      1.0000 0.20517  0.66475  0.21652  Biso   1.000  O 
  O22      1.0000 0.29335  0.60729  0.97845  Biso   1.000  O 
  O23      1.0000 0.21363  0.86315  0.00804  Biso   1.000  O 
  O24      1.0000 0.24967  0.90401  0.25303  Biso   1.000  O 
  Hf12     1.0000 0.16824  0.48048  0.62207  Biso   1.000  Hf
  Hf13     1.0000 0.17412  0.73930  0.85492  Biso   1.000  Hf
  Hf14     1.0000 0.41895  0.76125  0.62341  Biso   1.000  Hf
  Hf15     1.0000 0.42222  0.49984  0.86125  Biso   1.000  Hf
  O25      1.0000 0.98507  0.65270  0.47354  Biso   1.000  O 
  O26      1.0000 0.04214  0.60985  0.73026  Biso   1.000  O 
  O27      1.0000 0.04723  0.85999  0.75778  Biso   1.000  O 
  O28      1.0000 0.03055  0.90106  0.50620  Biso   1.000  O 
  O29      1.0000 0.28906  0.63663  0.72346  Biso   1.000  O 
  O30      1.0000 0.23515  0.58732  0.46491  Biso   1.000  O 
  O31      1.0000 0.27607  0.84611  0.50091  Biso   1.000  O 
  O32      1.0000 0.29946  0.88812  0.75725  Biso   1.000  O 
  Hf16     1.0000 0.60472  0.97904  0.12323  Biso   1.000  Hf
  Hf17     1.0000 0.64007  0.25443  0.36896  Biso   1.000  Hf
  Hf18     1.0000 0.85932  0.26693  0.12203  Biso   1.000  Hf
  Hf19     1.0000 0.88960  0.99241  0.36733  Biso   1.000  Hf
  O33      1.0000 0.48129  0.13712  0.02480  Biso   1.000  O 
  O34      1.0000 0.54983  0.08874  0.28076  Biso   1.000  O 
  O35      1.0000 0.50276  0.34646  0.24992  Biso   1.000  O 
  O36      1.0000 0.52102  0.38731  0.99840  Biso   1.000  O 
  O37      1.0000 0.80056  0.15894  0.28272  Biso   1.000  O 
  O38      1.0000 0.73018  0.10840  0.02327  Biso   1.000  O 
  O39      1.0000 0.76837  0.35535  0.99892  Biso   1.000  O 
  O40      1.0000 0.74632  0.40588  0.24779  Biso   1.000  O 
  Hf20     1.0000 0.66275  0.00293  0.63377  Biso   1.000  Hf
  Hf21     1.0000 0.64483  0.23485  0.89318  Biso   1.000  Hf
  Hf22     1.0000 0.91181  0.24055  0.62981  Biso   1.000  Hf
  Hf23     1.0000 0.90399  0.00966  0.89227  Biso   1.000  Hf
  O41      1.0000 0.57213  0.15837  0.53244  Biso   1.000  O 
  O42      1.0000 0.52570  0.09609  0.77111  Biso   1.000  O 
  O43      1.0000 0.55330  0.35008  0.75223  Biso   1.000  O 
  O44      1.0000 0.52397  0.39612  0.50133  Biso   1.000  O 
  O45      1.0000 0.77813  0.14727  0.76838  Biso   1.000  O 
  O46      1.0000 0.82218  0.08423  0.53204  Biso   1.000  O 
  O47      1.0000 0.77994  0.34100  0.49824  Biso   1.000  O 
  O48      1.0000 0.80877  0.39452  0.73734  Biso   1.000  O 
  Hf24     1.0000 0.61809  0.50559  0.11614  Biso   1.000  Hf
  Hf25     1.0000 0.63949  0.75622  0.38061  Biso   1.000  Hf
  Hf26     1.0000 0.86568  0.74772  0.11928  Biso   1.000  Hf
  Hf27     1.0000 0.88917  0.48894  0.38045  Biso   1.000  Hf
  O49      1.0000 0.54312  0.64089  0.98103  Biso   1.000  O 
  O50      1.0000 0.45330  0.58502  0.21423  Biso   1.000  O 
  O51      1.0000 0.49260  0.84180  0.24903  Biso   1.000  O 
  O52      1.0000 0.51033  0.88602  0.99878  Biso   1.000  O 
  O53      1.0000 0.70291  0.66335  0.21504  Biso   1.000  O 
  O54      1.0000 0.79259  0.60113  0.98086  Biso   1.000  O 
  O55      1.0000 0.77079  0.85295  0.99634  Biso   1.000  O 
  O56      1.0000 0.74948  0.90153  0.25076  Biso   1.000  O 
  Hf28     1.0000 0.66830  0.48125  0.62389  Biso   1.000  Hf
  Hf29     1.0000 0.67116  0.74069  0.85863  Biso   1.000  Hf
  Hf30     1.0000 0.91680  0.76818  0.62864  Biso   1.000  Hf
  Hf31     1.0000 0.92108  0.50620  0.85859  Biso   1.000  Hf
  O57      1.0000 0.48528  0.65318  0.46730  Biso   1.000  O 
  O58      1.0000 0.53821  0.60197  0.72857  Biso   1.000  O 
  O59      1.0000 0.55718  0.84811  0.73639  Biso   1.000  O 
  O60      1.0000 0.53006  0.90373  0.49820  Biso   1.000  O 
  O61      1.0000 0.78844  0.64050  0.72694  Biso   1.000  O 
  O62      1.0000 0.73393  0.58895  0.46607  Biso   1.000  O 
  O63      1.0000 0.77596  0.84526  0.49999  Biso   1.000  O 
  O64      1.0000 0.79857  0.89479  0.75166  Biso   1.000  O 
