data_image0
_cell_length_a       9.98636
_cell_length_b       10.3868
_cell_length_c       10.0302
_cell_angle_alpha    90
_cell_angle_beta     90
_cell_angle_gamma    90

_symmetry_space_group_name_H-M    "P 1"
_symmetry_int_tables_number       1

loop_
  _symmetry_equiv_pos_as_xyz
  'x, y, z'

loop_
  _atom_site_label
  _atom_site_occupancy
  _atom_site_fract_x
  _atom_site_fract_y
  _atom_site_fract_z
  _atom_site_thermal_displace_type
  _atom_site_B_iso_or_equiv
  _atom_site_type_symbol
  Hf1      1.0000 0.13436  0.02123  0.12052  Biso   1.000  Hf
  Hf2      1.0000 0.13490  0.23201  0.38600  Biso   1.000  Hf
  Hf3      1.0000 0.36565  0.26614  0.12302  Biso   1.000  Hf
  Hf4      1.0000 0.36762  0.48543  0.37637  Biso   1.000  Hf
  O1       1.0000 0.00699  0.16833  0.22637  Biso   1.000  O 
  O2       1.0000 0.03721  0.06590  0.45478  Biso   1.000  O 
  O3       1.0000 0.46255  0.43497  0.19474  Biso   1.000  O 
  O4       1.0000 0.46350  0.31806  0.44496  Biso   1.000  O 
  O5       1.0000 0.26605  0.12056  0.25168  Biso   1.000  O 
  O6       1.0000 0.27306  0.13294  0.50196  Biso   1.000  O 
  O7       1.0000 0.23156  0.38404  0.50146  Biso   1.000  O 
  O8       1.0000 0.22684  0.37158  0.25246  Biso   1.000  O 
  Hf5      1.0000 0.13562  0.01656  0.62940  Biso   1.000  Hf
  Hf6      1.0000 0.13983  0.23172  0.87245  Biso   1.000  Hf
  Hf7      1.0000 0.36824  0.26900  0.62691  Biso   1.000  Hf
  Hf8      1.0000 0.36989  0.48827  0.87329  Biso   1.000  Hf
  O9       1.0000 0.03709  0.18463  0.69488  Biso   1.000  O 
  O10      1.0000 0.03925  0.06524  0.94056  Biso   1.000  O 
  O11      1.0000 0.46711  0.43619  0.69388  Biso   1.000  O 
  O12      1.0000 0.46572  0.31872  0.94177  Biso   1.000  O 
  O13      1.0000 0.27365  0.11882  0.74814  Biso   1.000  O 
  O14      1.0000 0.28734  0.12807  0.99304  Biso   1.000  O 
  O15      1.0000 0.23511  0.39250  0.99889  Biso   1.000  O 
  O16      1.0000 0.23262  0.37017  0.74978  Biso   1.000  O 
  Hf9      1.0000 0.13655  0.53017  0.12587  Biso   1.000  Hf
  Hf10     1.0000 0.13584  0.73729  0.37801  Biso   1.000  Hf
  Hf11     1.0000 0.36629  0.76910  0.12668  Biso   1.000  Hf
  Hf12     1.0000 0.36516  0.98521  0.37591  Biso   1.000  Hf
  O17      1.0000 0.03545  0.68588  0.19789  Biso   1.000  O 
  O18      1.0000 0.03715  0.56840  0.44431  Biso   1.000  O 
  O19      1.0000 0.46248  0.93584  0.19500  Biso   1.000  O 
  O20      1.0000 0.46562  0.81762  0.44334  Biso   1.000  O 
  O21      1.0000 0.27354  0.62271  0.25075  Biso   1.000  O 
  O22      1.0000 0.27170  0.63386  0.49983  Biso   1.000  O 
  O23      1.0000 0.23143  0.88395  0.50073  Biso   1.000  O 
  O24      1.0000 0.22979  0.87019  0.25037  Biso   1.000  O 
  Hf13     1.0000 0.13475  0.51794  0.62635  Biso   1.000  Hf
  Hf14     1.0000 0.13449  0.73809  0.87404  Biso   1.000  Hf
  Hf15     1.0000 0.36938  0.76748  0.62462  Biso   1.000  Hf
  Hf16     1.0000 0.37017  0.98299  0.87438  Biso   1.000  Hf
  O25      1.0000 0.03807  0.68646  0.69255  Biso   1.000  O 
  O26      1.0000 0.03705  0.57122  0.94587  Biso   1.000  O 
  O27      1.0000 0.46773  0.93477  0.69186  Biso   1.000  O 
  O28      1.0000 0.46827  0.81881  0.94704  Biso   1.000  O 
  O29      1.0000 0.27119  0.61959  0.74925  Biso   1.000  O 
  O30      1.0000 0.27174  0.63925  0.99917  Biso   1.000  O 
  O31      1.0000 0.23040  0.88454  0.99979  Biso   1.000  O 
  O32      1.0000 0.23415  0.86834  0.74949  Biso   1.000  O 
  Hf17     1.0000 0.63033  0.01368  0.12277  Biso   1.000  Hf
  Hf18     1.0000 0.63084  0.23300  0.37702  Biso   1.000  Hf
  Hf19     1.0000 0.84692  0.26367  0.12733  Biso   1.000  Hf
  Hf20     1.0000 0.86829  0.48461  0.37602  Biso   1.000  Hf
  O33      1.0000 0.53367  0.18395  0.19297  Biso   1.000  O 
  O34      1.0000 0.53508  0.06714  0.44482  Biso   1.000  O 
  O35      1.0000 0.96480  0.43096  0.19068  Biso   1.000  O 
  O36      1.0000 0.96744  0.32116  0.45008  Biso   1.000  O 
  O37      1.0000 0.75877  0.11483  0.24908  Biso   1.000  O 
  O38      1.0000 0.77196  0.13638  0.49738  Biso   1.000  O 
  O39      1.0000 0.73134  0.38472  0.49970  Biso   1.000  O 
  O40      1.0000 0.72616  0.36917  0.25211  Biso   1.000  O 
  Hf21     1.0000 0.63686  0.01763  0.62358  Biso   1.000  Hf
  Hf22     1.0000 0.63357  0.23501  0.87259  Biso   1.000  Hf
  Hf23     1.0000 0.86740  0.26861  0.62675  Biso   1.000  Hf
  Hf24     1.0000 0.86807  0.48469  0.87769  Biso   1.000  Hf
  O41      1.0000 0.53908  0.18630  0.69155  Biso   1.000  O 
  O42      1.0000 0.54194  0.06593  0.93900  Biso   1.000  O 
  O43      1.0000 0.96622  0.43592  0.69785  Biso   1.000  O 
  O44      1.0000 0.96299  0.31700  0.94483  Biso   1.000  O 
  O45      1.0000 0.77275  0.11885  0.74801  Biso   1.000  O 
  O46      1.0000 0.77099  0.13373  0.99839  Biso   1.000  O 
  O47      1.0000 0.72594  0.38099  0.00084  Biso   1.000  O 
  O48      1.0000 0.73137  0.37014  0.75005  Biso   1.000  O 
  Hf25     1.0000 0.63202  0.51845  0.12675  Biso   1.000  Hf
  Hf26     1.0000 0.63606  0.73581  0.37530  Biso   1.000  Hf
  Hf27     1.0000 0.86534  0.76671  0.12510  Biso   1.000  Hf
  Hf28     1.0000 0.87206  0.98871  0.37013  Biso   1.000  Hf
  O49      1.0000 0.53712  0.68566  0.19480  Biso   1.000  O 
  O50      1.0000 0.53724  0.56796  0.44465  Biso   1.000  O 
  O51      1.0000 0.96521  0.93225  0.19074  Biso   1.000  O 
  O52      1.0000 0.96564  0.81936  0.44343  Biso   1.000  O 
  O53      1.0000 0.77150  0.61717  0.24952  Biso   1.000  O 
  O54      1.0000 0.77208  0.63458  0.49899  Biso   1.000  O 
  O55      1.0000 0.73359  0.88653  0.49671  Biso   1.000  O 
  O56      1.0000 0.73042  0.86732  0.24774  Biso   1.000  O 
  Hf29     1.0000 0.63732  0.51854  0.62556  Biso   1.000  Hf
  Hf30     1.0000 0.63709  0.73573  0.87528  Biso   1.000  Hf
  Hf31     1.0000 0.86807  0.76894  0.62410  Biso   1.000  Hf
  Hf32     1.0000 0.86760  0.98484  0.87467  Biso   1.000  Hf
  O57      1.0000 0.53777  0.68506  0.69547  Biso   1.000  O 
  O58      1.0000 0.53739  0.56985  0.94546  Biso   1.000  O 
  O59      1.0000 0.96729  0.93324  0.69729  Biso   1.000  O 
  O60      1.0000 0.96431  0.81724  0.94401  Biso   1.000  O 
  O61      1.0000 0.77307  0.61954  0.74961  Biso   1.000  O 
  O62      1.0000 0.77120  0.63419  0.99985  Biso   1.000  O 
  O63      1.0000 0.73148  0.88391  0.99860  Biso   1.000  O 
  O64      1.0000 0.73176  0.86922  0.74799  Biso   1.000  O 
  Cu1      1.0000 0.09694  0.28648  0.11400  Biso   1.000  Cu
