data_image0
_cell_length_a       10.0525
_cell_length_b       10.2702
_cell_length_c       10.1113
_cell_angle_alpha    90
_cell_angle_beta     90
_cell_angle_gamma    90

_symmetry_space_group_name_H-M    "P 1"
_symmetry_int_tables_number       1

loop_
  _symmetry_equiv_pos_as_xyz
  'x, y, z'

loop_
  _atom_site_label
  _atom_site_occupancy
  _atom_site_fract_x
  _atom_site_fract_y
  _atom_site_fract_z
  _atom_site_thermal_displace_type
  _atom_site_B_iso_or_equiv
  _atom_site_type_symbol
  Hf1      1.0000 0.14079  0.96678  0.15152  Biso   1.000  Hf
  Hf2      1.0000 0.11347  0.25403  0.33817  Biso   1.000  Hf
  Hf3      1.0000 0.37953  0.23724  0.11753  Biso   1.000  Hf
  Hf4      1.0000 0.40122  0.00362  0.37450  Biso   1.000  Hf
  O1       1.0000 0.00152  0.14469  0.96142  Biso   1.000  O 
  O2       1.0000 0.99418  0.09938  0.22712  Biso   1.000  O 
  O3       1.0000 0.96793  0.36619  0.24061  Biso   1.000  O 
  O4       1.0000 0.00313  0.39272  0.98133  Biso   1.000  O 
  O5       1.0000 0.25702  0.12314  0.27050  Biso   1.000  O 
  O6       1.0000 0.27384  0.06631  0.02692  Biso   1.000  O 
  O7       1.0000 0.26574  0.30799  0.95870  Biso   1.000  O 
  O8       1.0000 0.24211  0.38944  0.22492  Biso   1.000  O 
  Hf5      1.0000 0.14211  0.97228  0.64209  Biso   1.000  Hf
  Hf6      1.0000 0.11259  0.25346  0.82968  Biso   1.000  Hf
  Hf7      1.0000 0.37198  0.23068  0.61079  Biso   1.000  Hf
  Hf8      1.0000 0.40214  0.99939  0.87391  Biso   1.000  Hf
  O9       1.0000 0.01577  0.13920  0.47147  Biso   1.000  O 
  O10      1.0000 0.00240  0.10157  0.72260  Biso   1.000  O 
  O11      1.0000 0.97882  0.35974  0.72798  Biso   1.000  O 
  O12      1.0000 0.00619  0.39078  0.48354  Biso   1.000  O 
  O13      1.0000 0.25497  0.12834  0.75930  Biso   1.000  O 
  O14      1.0000 0.28313  0.06175  0.52754  Biso   1.000  O 
  O15      1.0000 0.26629  0.31253  0.46148  Biso   1.000  O 
  O16      1.0000 0.23887  0.38076  0.71721  Biso   1.000  O 
  Hf9      1.0000 0.10267  0.50328  0.12731  Biso   1.000  Hf
  Hf10     1.0000 0.13152  0.72887  0.38765  Biso   1.000  Hf
  Hf11     1.0000 0.38772  0.75138  0.15443  Biso   1.000  Hf
  Hf12     1.0000 0.36166  0.47994  0.36763  Biso   1.000  Hf
  O17      1.0000 0.98502  0.65229  0.01726  Biso   1.000  O 
  O18      1.0000 0.00540  0.60221  0.26887  Biso   1.000  O 
  O19      1.0000 0.00855  0.84633  0.26533  Biso   1.000  O 
  O20      1.0000 0.99917  0.90309  0.01466  Biso   1.000  O 
  O21      1.0000 0.25184  0.63193  0.24517  Biso   1.000  O 
  O22      1.0000 0.22664  0.56112  0.97869  Biso   1.000  O 
  O23      1.0000 0.23213  0.81427  0.04330  Biso   1.000  O 
  O24      1.0000 0.26122  0.87471  0.28928  Biso   1.000  O 
  Hf13     1.0000 0.10251  0.50451  0.62708  Biso   1.000  Hf
  Hf14     1.0000 0.13212  0.72825  0.88813  Biso   1.000  Hf
  Hf15     1.0000 0.38775  0.74792  0.65235  Biso   1.000  Hf
  Hf16     1.0000 0.36171  0.47384  0.86255  Biso   1.000  Hf
  O25      1.0000 0.98745  0.64447  0.51575  Biso   1.000  O 
  O26      1.0000 0.00277  0.60051  0.76953  Biso   1.000  O 
  O27      1.0000 0.00948  0.84550  0.76460  Biso   1.000  O 
  O28      1.0000 0.00049  0.89284  0.51528  Biso   1.000  O 
  O29      1.0000 0.25151  0.62824  0.74481  Biso   1.000  O 
  O30      1.0000 0.22456  0.56651  0.48091  Biso   1.000  O 
  O31      1.0000 0.23333  0.81122  0.54288  Biso   1.000  O 
  O32      1.0000 0.25924  0.87742  0.78509  Biso   1.000  O 
  Hf17     1.0000 0.64144  0.01801  0.11232  Biso   1.000  Hf
  Hf18     1.0000 0.63308  0.26438  0.36633  Biso   1.000  Hf
  Hf19     1.0000 0.88040  0.25025  0.09885  Biso   1.000  Hf
  Hf20     1.0000 0.89373  0.99092  0.37758  Biso   1.000  Hf
  O33      1.0000 0.51578  0.13983  0.98617  Biso   1.000  O 
  O34      1.0000 0.50206  0.10481  0.23456  Biso   1.000  O 
  O35      1.0000 0.48902  0.35145  0.24395  Biso   1.000  O 
  O36      1.0000 0.49558  0.38433  0.99443  Biso   1.000  O 
  O37      1.0000 0.73442  0.18088  0.21555  Biso   1.000  O 
  O38      1.0000 0.76051  0.10636  0.97067  Biso   1.000  O 
  O39      1.0000 0.74149  0.36765  0.00920  Biso   1.000  O 
  O40      1.0000 0.71911  0.43160  0.27461  Biso   1.000  O 
  Hf21     1.0000 0.64483  0.01443  0.61105  Biso   1.000  Hf
  Hf22     1.0000 0.63370  0.25636  0.86115  Biso   1.000  Hf
  Hf23     1.0000 0.89092  0.23973  0.59135  Biso   1.000  Hf
  Hf24     1.0000 0.89384  0.98716  0.87595  Biso   1.000  Hf
  O41      1.0000 0.51546  0.14405  0.48700  Biso   1.000  O 
  O42      1.0000 0.50678  0.09899  0.73680  Biso   1.000  O 
  O43      1.0000 0.48826  0.34463  0.74121  Biso   1.000  O 
  O44      1.0000 0.49908  0.38930  0.49305  Biso   1.000  O 
  O45      1.0000 0.74122  0.17676  0.71283  Biso   1.000  O 
  O46      1.0000 0.76280  0.11127  0.47037  Biso   1.000  O 
  O47      1.0000 0.75120  0.36193  0.50819  Biso   1.000  O 
  O48      1.0000 0.72299  0.42503  0.77562  Biso   1.000  O 
  Hf25     1.0000 0.60281  0.49409  0.12318  Biso   1.000  Hf
  Hf26     1.0000 0.61261  0.74035  0.40118  Biso   1.000  Hf
  Hf27     1.0000 0.86332  0.76838  0.13354  Biso   1.000  Hf
  Hf28     1.0000 0.86412  0.51336  0.38389  Biso   1.000  Hf
  O49      1.0000 0.48093  0.63918  0.01679  Biso   1.000  O 
  O50      1.0000 0.50364  0.60583  0.26690  Biso   1.000  O 
  O51      1.0000 0.51626  0.85887  0.26772  Biso   1.000  O 
  O52      1.0000 0.49251  0.89426  0.01669  Biso   1.000  O 
  O53      1.0000 0.76671  0.67963  0.28516  Biso   1.000  O 
  O54      1.0000 0.73459  0.61831  0.02868  Biso   1.000  O 
  O55      1.0000 0.75471  0.85752  0.98887  Biso   1.000  O 
  O56      1.0000 0.77207  0.93051  0.22639  Biso   1.000  O 
  Hf29     1.0000 0.60820  0.49059  0.62457  Biso   1.000  Hf
  Hf30     1.0000 0.61331  0.73792  0.90027  Biso   1.000  Hf
  Hf31     1.0000 0.86696  0.76300  0.63326  Biso   1.000  Hf
  Hf32     1.0000 0.86171  0.51382  0.88823  Biso   1.000  Hf
  O57      1.0000 0.48293  0.63431  0.51656  Biso   1.000  O 
  O58      1.0000 0.50382  0.59972  0.76663  Biso   1.000  O 
  O59      1.0000 0.51374  0.85308  0.76922  Biso   1.000  O 
  O60      1.0000 0.49757  0.88746  0.51774  Biso   1.000  O 
  O61      1.0000 0.76432  0.67495  0.78351  Biso   1.000  O 
  O62      1.0000 0.73814  0.61206  0.52729  Biso   1.000  O 
  O63      1.0000 0.75080  0.86219  0.48998  Biso   1.000  O 
  O64      1.0000 0.77275  0.92527  0.72676  Biso   1.000  O 
  Cu1      1.0000 0.13906  0.20712  0.07276  Biso   1.000  Cu
