data_image0
_cell_length_a       10.0819
_cell_length_b       10.2529
_cell_length_c       10.4054
_cell_angle_alpha    90
_cell_angle_beta     80
_cell_angle_gamma    90

_symmetry_space_group_name_H-M    "P 1"
_symmetry_int_tables_number       1

loop_
  _symmetry_equiv_pos_as_xyz
  'x, y, z'

loop_
  _atom_site_label
  _atom_site_occupancy
  _atom_site_fract_x
  _atom_site_fract_y
  _atom_site_fract_z
  _atom_site_thermal_displace_type
  _atom_site_B_iso_or_equiv
  _atom_site_type_symbol
  Fe1      1.0000 0.13803  0.02305  0.15179  Biso   1.000  Fe
  Hf1      1.0000 0.13752  0.22934  0.39329  Biso   1.000  Hf
  Hf2      1.0000 0.35870  0.27011  0.10566  Biso   1.000  Hf
  Hf3      1.0000 0.36028  0.48048  0.35481  Biso   1.000  Hf
  O1       1.0000 0.03720  0.16121  0.08304  Biso   1.000  O 
  O2       1.0000 0.04037  0.08364  0.31356  Biso   1.000  O 
  O3       1.0000 0.46240  0.42101  0.16859  Biso   1.000  O 
  O4       1.0000 0.46104  0.33080  0.41984  Biso   1.000  O 
  O5       1.0000 0.27137  0.12401  0.23747  Biso   1.000  O 
  O6       1.0000 0.27468  0.12276  0.49047  Biso   1.000  O 
  O7       1.0000 0.22251  0.37867  0.01066  Biso   1.000  O 
  O8       1.0000 0.22316  0.37119  0.25994  Biso   1.000  O 
  Hf4      1.0000 0.13552  0.02245  0.64616  Biso   1.000  Hf
  Hf5      1.0000 0.13264  0.22615  0.90131  Biso   1.000  Hf
  Hf6      1.0000 0.35720  0.27297  0.60590  Biso   1.000  Hf
  Hf7      1.0000 0.35492  0.47992  0.85550  Biso   1.000  Hf
  O9       1.0000 0.03055  0.16519  0.57386  Biso   1.000  O 
  O10      1.0000 0.02956  0.08395  0.82754  Biso   1.000  O 
  O11      1.0000 0.45943  0.42253  0.66937  Biso   1.000  O 
  O12      1.0000 0.45441  0.32669  0.91886  Biso   1.000  O 
  O13      1.0000 0.27325  0.13016  0.74485  Biso   1.000  O 
  O14      1.0000 0.26811  0.11366  0.00305  Biso   1.000  O 
  O15      1.0000 0.21989  0.37992  0.50976  Biso   1.000  O 
  O16      1.0000 0.21834  0.37121  0.76104  Biso   1.000  O 
  Hf8      1.0000 0.13880  0.52201  0.14647  Biso   1.000  Hf
  Hf9      1.0000 0.13628  0.73127  0.39502  Biso   1.000  Hf
  Hf10     1.0000 0.35635  0.77588  0.10470  Biso   1.000  Hf
  Hf11     1.0000 0.35677  0.97942  0.35209  Biso   1.000  Hf
  O17      1.0000 0.03621  0.66965  0.08111  Biso   1.000  O 
  O18      1.0000 0.03461  0.58097  0.33135  Biso   1.000  O 
  O19      1.0000 0.46424  0.91920  0.16963  Biso   1.000  O 
  O20      1.0000 0.46153  0.83043  0.41761  Biso   1.000  O 
  O21      1.0000 0.27542  0.63272  0.24181  Biso   1.000  O 
  O22      1.0000 0.27421  0.62230  0.49117  Biso   1.000  O 
  O23      1.0000 0.21833  0.88492  0.01270  Biso   1.000  O 
  O24      1.0000 0.21624  0.87723  0.25501  Biso   1.000  O 
  Hf12     1.0000 0.13560  0.52256  0.64665  Biso   1.000  Hf
  Hf13     1.0000 0.13422  0.73174  0.89724  Biso   1.000  Hf
  Hf14     1.0000 0.35834  0.77263  0.60409  Biso   1.000  Hf
  Hf15     1.0000 0.35361  0.98000  0.85774  Biso   1.000  Hf
  O25      1.0000 0.03248  0.67066  0.58030  Biso   1.000  O 
  O26      1.0000 0.03197  0.58195  0.83224  Biso   1.000  O 
  O27      1.0000 0.45870  0.92205  0.66992  Biso   1.000  O 
  O28      1.0000 0.45537  0.82975  0.91909  Biso   1.000  O 
  O29      1.0000 0.27313  0.63075  0.74157  Biso   1.000  O 
  O30      1.0000 0.27122  0.62373  0.99198  Biso   1.000  O 
  O31      1.0000 0.22026  0.88032  0.50823  Biso   1.000  O 
  O32      1.0000 0.21841  0.87236  0.75978  Biso   1.000  O 
  Hf16     1.0000 0.63800  0.02234  0.14562  Biso   1.000  Hf
  Hf17     1.0000 0.63632  0.22934  0.39606  Biso   1.000  Hf
  Hf18     1.0000 0.86453  0.26843  0.10587  Biso   1.000  Hf
  Hf19     1.0000 0.85882  0.47994  0.35400  Biso   1.000  Hf
  O33      1.0000 0.53536  0.17122  0.08232  Biso   1.000  O 
  O34      1.0000 0.53283  0.08124  0.33096  Biso   1.000  O 
  O35      1.0000 0.96404  0.42022  0.16950  Biso   1.000  O 
  O36      1.0000 0.96166  0.33034  0.41826  Biso   1.000  O 
  O37      1.0000 0.77430  0.12958  0.24118  Biso   1.000  O 
  O38      1.0000 0.77566  0.12142  0.48926  Biso   1.000  O 
  O39      1.0000 0.72384  0.37885  0.00977  Biso   1.000  O 
  O40      1.0000 0.72268  0.37107  0.25948  Biso   1.000  O 
  Hf20     1.0000 0.63450  0.02179  0.64647  Biso   1.000  Hf
  Hf21     1.0000 0.63351  0.23052  0.89708  Biso   1.000  Hf
  Hf22     1.0000 0.85746  0.27225  0.60392  Biso   1.000  Hf
  Hf23     1.0000 0.85677  0.47974  0.85651  Biso   1.000  Hf
  O41      1.0000 0.53373  0.17225  0.58260  Biso   1.000  O 
  O42      1.0000 0.53086  0.07973  0.83434  Biso   1.000  O 
  O43      1.0000 0.96120  0.41857  0.67123  Biso   1.000  O 
  O44      1.0000 0.96049  0.33049  0.92295  Biso   1.000  O 
  O45      1.0000 0.77164  0.13052  0.74094  Biso   1.000  O 
  O46      1.0000 0.77099  0.12310  0.99136  Biso   1.000  O 
  O47      1.0000 0.72060  0.38023  0.51009  Biso   1.000  O 
  O48      1.0000 0.71894  0.37231  0.76053  Biso   1.000  O 
  Hf24     1.0000 0.63860  0.52267  0.14571  Biso   1.000  Hf
  Hf25     1.0000 0.63815  0.73097  0.39577  Biso   1.000  Hf
  Hf26     1.0000 0.86564  0.77527  0.10376  Biso   1.000  Hf
  Hf27     1.0000 0.86340  0.98191  0.35040  Biso   1.000  Hf
  O49      1.0000 0.53437  0.67118  0.08205  Biso   1.000  O 
  O50      1.0000 0.53627  0.57993  0.33245  Biso   1.000  O 
  O51      1.0000 0.97631  0.92614  0.16439  Biso   1.000  O 
  O52      1.0000 0.96200  0.83333  0.41883  Biso   1.000  O 
  O53      1.0000 0.77659  0.63171  0.24067  Biso   1.000  O 
  O54      1.0000 0.77455  0.62208  0.49136  Biso   1.000  O 
  O55      1.0000 0.72299  0.87940  0.00960  Biso   1.000  O 
  O56      1.0000 0.72956  0.87394  0.25795  Biso   1.000  O 
  Hf28     1.0000 0.63548  0.52267  0.64713  Biso   1.000  Hf
  Hf29     1.0000 0.63291  0.72977  0.89857  Biso   1.000  Hf
  Hf30     1.0000 0.85697  0.77265  0.60476  Biso   1.000  Hf
  Hf31     1.0000 0.85516  0.98072  0.85447  Biso   1.000  Hf
  O57      1.0000 0.53424  0.67260  0.58188  Biso   1.000  O 
  O58      1.0000 0.53199  0.57922  0.83351  Biso   1.000  O 
  O59      1.0000 0.96042  0.92020  0.66968  Biso   1.000  O 
  O60      1.0000 0.95890  0.83243  0.91912  Biso   1.000  O 
  O61      1.0000 0.77302  0.63022  0.74252  Biso   1.000  O 
  O62      1.0000 0.77299  0.62410  0.99265  Biso   1.000  O 
  O63      1.0000 0.72043  0.88067  0.50910  Biso   1.000  O 
  O64      1.0000 0.71808  0.87193  0.76022  Biso   1.000  O 
