data_image0
_cell_length_a       4.99638
_cell_length_b       9.99511
_cell_length_c       10.1241
_cell_angle_alpha    90
_cell_angle_beta     90
_cell_angle_gamma    90

_symmetry_space_group_name_H-M    "P 1"
_symmetry_int_tables_number       1

loop_
  _symmetry_equiv_pos_as_xyz
  'x, y, z'

loop_
  _atom_site_label
  _atom_site_occupancy
  _atom_site_fract_x
  _atom_site_fract_y
  _atom_site_fract_z
  _atom_site_thermal_displace_type
  _atom_site_B_iso_or_equiv
  _atom_site_type_symbol
  Fe1      1.0000 0.27024  0.00729  0.13878  Biso   1.000  Fe
  Hf1      1.0000 0.24388  0.24474  0.37282  Biso   1.000  Hf
  Hf2      1.0000 0.73769  0.24737  0.12204  Biso   1.000  Hf
  Hf3      1.0000 0.72254  0.99339  0.37526  Biso   1.000  Hf
  O1       1.0000 0.92503  0.14436  0.96892  Biso   1.000  O 
  O2       1.0000 0.02657  0.10398  0.22105  Biso   1.000  O 
  O3       1.0000 0.96377  0.35176  0.26902  Biso   1.000  O 
  O4       1.0000 0.98933  0.39107  0.01774  Biso   1.000  O 
  O5       1.0000 0.52095  0.13220  0.26644  Biso   1.000  O 
  O6       1.0000 0.44941  0.10433  0.02480  Biso   1.000  O 
  O7       1.0000 0.49388  0.34983  0.98171  Biso   1.000  O 
  O8       1.0000 0.47669  0.38140  0.23352  Biso   1.000  O 
  Hf4      1.0000 0.22914  0.99323  0.62389  Biso   1.000  Hf
  Hf5      1.0000 0.22498  0.24092  0.87329  Biso   1.000  Hf
  Hf6      1.0000 0.73795  0.24720  0.62302  Biso   1.000  Hf
  Hf7      1.0000 0.74751  0.99422  0.87031  Biso   1.000  Hf
  O9       1.0000 0.98198  0.12598  0.47352  Biso   1.000  O 
  O10      1.0000 0.99190  0.11447  0.72457  Biso   1.000  O 
  O11      1.0000 0.98162  0.36366  0.76758  Biso   1.000  O 
  O12      1.0000 0.99291  0.37492  0.51716  Biso   1.000  O 
  O13      1.0000 0.49432  0.12505  0.77161  Biso   1.000  O 
  O14      1.0000 0.48661  0.11677  0.51833  Biso   1.000  O 
  O15      1.0000 0.49699  0.36429  0.48099  Biso   1.000  O 
  O16      1.0000 0.48779  0.37570  0.73173  Biso   1.000  O 
  Hf8      1.0000 0.24673  0.49980  0.12268  Biso   1.000  Hf
  Hf9      1.0000 0.22544  0.74333  0.37379  Biso   1.000  Hf
  Hf10     1.0000 0.75243  0.75194  0.12466  Biso   1.000  Hf
  Hf11     1.0000 0.73681  0.49524  0.37359  Biso   1.000  Hf
  O17      1.0000 0.97765  0.63628  0.98268  Biso   1.000  O 
  O18      1.0000 0.99830  0.60802  0.23408  Biso   1.000  O 
  O19      1.0000 0.93333  0.84953  0.28124  Biso   1.000  O 
  O20      1.0000 0.05674  0.89884  0.03425  Biso   1.000  O 
  O21      1.0000 0.50873  0.63882  0.26840  Biso   1.000  O 
  O22      1.0000 0.49656  0.61226  0.01813  Biso   1.000  O 
  O23      1.0000 0.56092  0.84283  0.97083  Biso   1.000  O 
  O24      1.0000 0.44803  0.88766  0.22263  Biso   1.000  O 
  Hf12     1.0000 0.23449  0.49574  0.62720  Biso   1.000  Hf
  Hf13     1.0000 0.24838  0.75062  0.88148  Biso   1.000  Hf
  Hf14     1.0000 0.73211  0.74113  0.62669  Biso   1.000  Hf
  Hf15     1.0000 0.73491  0.49460  0.87567  Biso   1.000  Hf
  O25      1.0000 0.97722  0.62531  0.48341  Biso   1.000  O 
  O26      1.0000 0.97667  0.61220  0.73300  Biso   1.000  O 
  O27      1.0000 0.98493  0.86422  0.77527  Biso   1.000  O 
  O28      1.0000 0.97160  0.87542  0.52442  Biso   1.000  O 
  O29      1.0000 0.48306  0.62546  0.76967  Biso   1.000  O 
  O30      1.0000 0.48147  0.61499  0.51788  Biso   1.000  O 
  O31      1.0000 0.47528  0.86624  0.47714  Biso   1.000  O 
  O32      1.0000 0.48399  0.87551  0.72775  Biso   1.000  O 
