data_image0
_cell_length_a       9.98828
_cell_length_b       10.1648
_cell_length_c       5.20817
_cell_angle_alpha    90
_cell_angle_beta     90
_cell_angle_gamma    90

_symmetry_space_group_name_H-M    "P 1"
_symmetry_int_tables_number       1

loop_
  _symmetry_equiv_pos_as_xyz
  'x, y, z'

loop_
  _atom_site_label
  _atom_site_occupancy
  _atom_site_fract_x
  _atom_site_fract_y
  _atom_site_fract_z
  _atom_site_thermal_displace_type
  _atom_site_B_iso_or_equiv
  _atom_site_type_symbol
  Fe1      1.0000 0.11400  0.01394  0.38534  Biso   1.000  Fe
  Hf1      1.0000 0.14335  0.22706  0.83446  Biso   1.000  Hf
  Hf2      1.0000 0.35948  0.26965  0.33432  Biso   1.000  Hf
  Hf3      1.0000 0.36009  0.48012  0.84346  Biso   1.000  Hf
  Hf4      1.0000 0.63575  0.02158  0.15391  Biso   1.000  Hf
  Hf5      1.0000 0.63687  0.23000  0.65848  Biso   1.000  Hf
  Hf6      1.0000 0.87011  0.26543  0.16824  Biso   1.000  Hf
  Hf7      1.0000 0.86496  0.47667  0.66696  Biso   1.000  Hf
  O1       1.0000 0.05128  0.14538  0.17583  Biso   1.000  O 
  O2       1.0000 0.02804  0.08306  0.65731  Biso   1.000  O 
  O3       1.0000 0.46903  0.41882  0.17178  Biso   1.000  O 
  O4       1.0000 0.46599  0.33320  0.66976  Biso   1.000  O 
  O5       1.0000 0.26163  0.11635  0.54846  Biso   1.000  O 
  O6       1.0000 0.30568  0.14923  0.03571  Biso   1.000  O 
  O7       1.0000 0.22532  0.37361  0.59164  Biso   1.000  O 
  O8       1.0000 0.22290  0.38195  0.08920  Biso   1.000  O 
  O9       1.0000 0.53653  0.17034  0.32494  Biso   1.000  O 
  O10      1.0000 0.53355  0.07861  0.81581  Biso   1.000  O 
  O11      1.0000 0.97430  0.40928  0.34571  Biso   1.000  O 
  O12      1.0000 0.96784  0.32795  0.84749  Biso   1.000  O 
  O13      1.0000 0.77553  0.12185  0.91470  Biso   1.000  O 
  O14      1.0000 0.77771  0.12460  0.41098  Biso   1.000  O 
  O15      1.0000 0.72547  0.37154  0.91964  Biso   1.000  O 
  O16      1.0000 0.72933  0.37446  0.41532  Biso   1.000  O 
  Hf8      1.0000 0.14376  0.52318  0.34625  Biso   1.000  Hf
  Hf9      1.0000 0.14082  0.73434  0.84587  Biso   1.000  Hf
  Hf10     1.0000 0.36191  0.77972  0.33666  Biso   1.000  Hf
  Hf11     1.0000 0.36187  0.98377  0.83702  Biso   1.000  Hf
  Hf12     1.0000 0.64342  0.52018  0.16160  Biso   1.000  Hf
  Hf13     1.0000 0.63817  0.72795  0.65622  Biso   1.000  Hf
  Hf14     1.0000 0.86754  0.76895  0.16053  Biso   1.000  Hf
  Hf15     1.0000 0.86199  0.97706  0.66232  Biso   1.000  Hf
  O17      1.0000 0.03921  0.66575  0.17051  Biso   1.000  O 
  O18      1.0000 0.03572  0.58453  0.67512  Biso   1.000  O 
  O19      1.0000 0.47549  0.91883  0.16381  Biso   1.000  O 
  O20      1.0000 0.46553  0.83412  0.66613  Biso   1.000  O 
  O21      1.0000 0.27857  0.62837  0.58969  Biso   1.000  O 
  O22      1.0000 0.28355  0.63145  0.08961  Biso   1.000  O 
  O23      1.0000 0.21688  0.87980  0.58096  Biso   1.000  O 
  O24      1.0000 0.22841  0.88881  0.08781  Biso   1.000  O 
  O25      1.0000 0.53726  0.66991  0.32540  Biso   1.000  O 
  O26      1.0000 0.53516  0.58161  0.82795  Biso   1.000  O 
  O27      1.0000 0.97831  0.91515  0.34129  Biso   1.000  O 
  O28      1.0000 0.96722  0.83549  0.83920  Biso   1.000  O 
  O29      1.0000 0.77761  0.62276  0.91610  Biso   1.000  O 
  O30      1.0000 0.78077  0.62416  0.41643  Biso   1.000  O 
  O31      1.0000 0.72393  0.87157  0.91071  Biso   1.000  O 
  O32      1.0000 0.73187  0.87561  0.41090  Biso   1.000  O 
