data_image0
_cell_length_a       9.93238
_cell_length_b       10.3404
_cell_length_c       9.96801
_cell_angle_alpha    90
_cell_angle_beta     90
_cell_angle_gamma    90

_symmetry_space_group_name_H-M    "P 1"
_symmetry_int_tables_number       1

loop_
  _symmetry_equiv_pos_as_xyz
  'x, y, z'

loop_
  _atom_site_label
  _atom_site_occupancy
  _atom_site_fract_x
  _atom_site_fract_y
  _atom_site_fract_z
  _atom_site_thermal_displace_type
  _atom_site_B_iso_or_equiv
  _atom_site_type_symbol
  Fe1      1.0000 0.13457  0.02351  0.11823  Biso   1.000  Fe
  Hf1      1.0000 0.13255  0.23063  0.37257  Biso   1.000  Hf
  Hf2      1.0000 0.36493  0.26486  0.12574  Biso   1.000  Hf
  Hf3      1.0000 0.36678  0.48380  0.37635  Biso   1.000  Hf
  O1       1.0000 0.03687  0.17530  0.19297  Biso   1.000  O 
  O2       1.0000 0.03675  0.06717  0.45114  Biso   1.000  O 
  O3       1.0000 0.46306  0.43422  0.19281  Biso   1.000  O 
  O4       1.0000 0.46469  0.31698  0.44449  Biso   1.000  O 
  O5       1.0000 0.25965  0.11034  0.24187  Biso   1.000  O 
  O6       1.0000 0.27300  0.13333  0.49638  Biso   1.000  O 
  O7       1.0000 0.22953  0.38228  0.49989  Biso   1.000  O 
  O8       1.0000 0.23093  0.36608  0.25028  Biso   1.000  O 
  Hf4      1.0000 0.13691  0.01721  0.62775  Biso   1.000  Hf
  Hf5      1.0000 0.13631  0.23328  0.88022  Biso   1.000  Hf
  Hf6      1.0000 0.36662  0.26761  0.62589  Biso   1.000  Hf
  Hf7      1.0000 0.36680  0.48470  0.87604  Biso   1.000  Hf
  O9       1.0000 0.03496  0.18132  0.70347  Biso   1.000  O 
  O10      1.0000 0.04002  0.06484  0.96190  Biso   1.000  O 
  O11      1.0000 0.46366  0.43563  0.69374  Biso   1.000  O 
  O12      1.0000 0.46156  0.31330  0.94275  Biso   1.000  O 
  O13      1.0000 0.27306  0.11939  0.75170  Biso   1.000  O 
  O14      1.0000 0.26585  0.12616  0.00507  Biso   1.000  O 
  O15      1.0000 0.22775  0.38129  0.00058  Biso   1.000  O 
  O16      1.0000 0.22919  0.36788  0.75114  Biso   1.000  O 
  Hf8      1.0000 0.13437  0.51600  0.12701  Biso   1.000  Hf
  Hf9      1.0000 0.13424  0.73482  0.37594  Biso   1.000  Hf
  Hf10     1.0000 0.36172  0.76877  0.12752  Biso   1.000  Hf
  Hf11     1.0000 0.36258  0.98327  0.37312  Biso   1.000  Hf
  O17      1.0000 0.03646  0.68224  0.19426  Biso   1.000  O 
  O18      1.0000 0.03670  0.56583  0.44383  Biso   1.000  O 
  O19      1.0000 0.46457  0.93306  0.19519  Biso   1.000  O 
  O20      1.0000 0.46310  0.81649  0.44317  Biso   1.000  O 
  O21      1.0000 0.27094  0.61823  0.25034  Biso   1.000  O 
  O22      1.0000 0.27151  0.63278  0.50009  Biso   1.000  O 
  O23      1.0000 0.22918  0.88271  0.50158  Biso   1.000  O 
  O24      1.0000 0.22694  0.86960  0.25032  Biso   1.000  O 
  Hf12     1.0000 0.13496  0.51686  0.62592  Biso   1.000  Hf
  Hf13     1.0000 0.13441  0.73485  0.87755  Biso   1.000  Hf
  Hf14     1.0000 0.36673  0.76756  0.62663  Biso   1.000  Hf
  Hf15     1.0000 0.36316  0.98334  0.88010  Biso   1.000  Hf
  O25      1.0000 0.03718  0.68523  0.69407  Biso   1.000  O 
  O26      1.0000 0.03759  0.56562  0.94538  Biso   1.000  O 
  O27      1.0000 0.46302  0.93531  0.69531  Biso   1.000  O 
  O28      1.0000 0.46036  0.81555  0.94379  Biso   1.000  O 
  O29      1.0000 0.27138  0.61881  0.75051  Biso   1.000  O 
  O30      1.0000 0.26931  0.63284  0.00034  Biso   1.000  O 
  O31      1.0000 0.22037  0.88729  0.00773  Biso   1.000  O 
  O32      1.0000 0.22977  0.86858  0.75284  Biso   1.000  O 
  Hf16     1.0000 0.63435  0.01659  0.12528  Biso   1.000  Hf
  Hf17     1.0000 0.63457  0.23347  0.37673  Biso   1.000  Hf
  Hf18     1.0000 0.86734  0.26403  0.12538  Biso   1.000  Hf
  Hf19     1.0000 0.86602  0.48359  0.37593  Biso   1.000  Hf
  O33      1.0000 0.53311  0.18298  0.19672  Biso   1.000  O 
  O34      1.0000 0.53676  0.06559  0.44296  Biso   1.000  O 
  O35      1.0000 0.96621  0.42961  0.19562  Biso   1.000  O 
  O36      1.0000 0.96421  0.31443  0.44400  Biso   1.000  O 
  O37      1.0000 0.76978  0.11812  0.24843  Biso   1.000  O 
  O38      1.0000 0.77277  0.13264  0.49844  Biso   1.000  O 
  O39      1.0000 0.73023  0.38264  0.50013  Biso   1.000  O 
  O40      1.0000 0.72983  0.36722  0.24932  Biso   1.000  O 
  Hf20     1.0000 0.63486  0.01598  0.62412  Biso   1.000  Hf
  Hf21     1.0000 0.63468  0.23395  0.87482  Biso   1.000  Hf
  Hf22     1.0000 0.86721  0.26576  0.62652  Biso   1.000  Hf
  Hf23     1.0000 0.86667  0.48449  0.87580  Biso   1.000  Hf
  O41      1.0000 0.53844  0.18566  0.69209  Biso   1.000  O 
  O42      1.0000 0.53661  0.06669  0.94550  Biso   1.000  O 
  O43      1.0000 0.96415  0.43431  0.69332  Biso   1.000  O 
  O44      1.0000 0.96477  0.31536  0.94350  Biso   1.000  O 
  O45      1.0000 0.77119  0.11741  0.74946  Biso   1.000  O 
  O46      1.0000 0.77173  0.13334  0.99848  Biso   1.000  O 
  O47      1.0000 0.73064  0.38230  0.99971  Biso   1.000  O 
  O48      1.0000 0.73028  0.36828  0.74946  Biso   1.000  O 
  Hf24     1.0000 0.63414  0.51737  0.12649  Biso   1.000  Hf
  Hf25     1.0000 0.63518  0.73536  0.37375  Biso   1.000  Hf
  Hf26     1.0000 0.87123  0.76910  0.12332  Biso   1.000  Hf
  Hf27     1.0000 0.87050  0.98658  0.37127  Biso   1.000  Hf
  O49      1.0000 0.53633  0.68599  0.19278  Biso   1.000  O 
  O50      1.0000 0.53789  0.56702  0.44288  Biso   1.000  O 
  O51      1.0000 0.97721  0.93803  0.18674  Biso   1.000  O 
  O52      1.0000 0.96409  0.81734  0.44234  Biso   1.000  O 
  O53      1.0000 0.77199  0.61789  0.24930  Biso   1.000  O 
  O54      1.0000 0.77118  0.63353  0.49943  Biso   1.000  O 
  O55      1.0000 0.73106  0.88427  0.49676  Biso   1.000  O 
  O56      1.0000 0.73654  0.86895  0.24655  Biso   1.000  O 
  Hf28     1.0000 0.63498  0.51757  0.62552  Biso   1.000  Hf
  Hf29     1.0000 0.63437  0.73477  0.87632  Biso   1.000  Hf
  Hf30     1.0000 0.86663  0.76788  0.62532  Biso   1.000  Hf
  Hf31     1.0000 0.86768  0.98551  0.87687  Biso   1.000  Hf
  O57      1.0000 0.53752  0.68555  0.69381  Biso   1.000  O 
  O58      1.0000 0.53875  0.56503  0.94275  Biso   1.000  O 
  O59      1.0000 0.96554  0.93483  0.69646  Biso   1.000  O 
  O60      1.0000 0.96171  0.81543  0.93928  Biso   1.000  O 
  O61      1.0000 0.77140  0.61882  0.74982  Biso   1.000  O 
  O62      1.0000 0.77276  0.63406  0.99990  Biso   1.000  O 
  O63      1.0000 0.72954  0.88422  0.99771  Biso   1.000  O 
  O64      1.0000 0.73012  0.86870  0.74892  Biso   1.000  O 
