data_image0
_cell_length_a       10.1299
_cell_length_b       5.18489
_cell_length_c       10.3902
_cell_angle_alpha    90
_cell_angle_beta     80
_cell_angle_gamma    90

_symmetry_space_group_name_H-M    "P 1"
_symmetry_int_tables_number       1

loop_
  _symmetry_equiv_pos_as_xyz
  'x, y, z'

loop_
  _atom_site_label
  _atom_site_occupancy
  _atom_site_fract_x
  _atom_site_fract_y
  _atom_site_fract_z
  _atom_site_thermal_displace_type
  _atom_site_B_iso_or_equiv
  _atom_site_type_symbol
  Hf1      1.0000 0.13400  0.04847  0.14233  Biso   1.000  Hf
  Hf2      1.0000 0.14518  0.45346  0.39018  Biso   1.000  Hf
  Hf3      1.0000 0.35019  0.55212  0.10285  Biso   1.000  Hf
  Hf4      1.0000 0.35948  0.91108  0.34585  Biso   1.000  Hf
  O1       1.0000 0.03204  0.35150  0.07993  Biso   1.000  O 
  O2       1.0000 0.03545  0.16026  0.32926  Biso   1.000  O 
  O3       1.0000 0.45655  0.86559  0.15582  Biso   1.000  O 
  O4       1.0000 0.47496  0.64471  0.42089  Biso   1.000  O 
  O5       1.0000 0.27541  0.24474  0.23487  Biso   1.000  O 
  O6       1.0000 0.29655  0.24681  0.47364  Biso   1.000  O 
  O7       1.0000 0.21605  0.77083  0.00292  Biso   1.000  O 
  O8       1.0000 0.20444  0.74637  0.25003  Biso   1.000  O 
  Hf5      1.0000 0.14215  0.02931  0.64431  Biso   1.000  Hf
  Hf6      1.0000 0.14101  0.44439  0.89292  Biso   1.000  Hf
  Hf7      1.0000 0.36633  0.53155  0.60627  Biso   1.000  Hf
  Hf8      1.0000 0.36443  0.94326  0.85385  Biso   1.000  Hf
  O9       1.0000 0.04651  0.33035  0.57956  Biso   1.000  O 
  O10      1.0000 0.04144  0.13886  0.83170  Biso   1.000  O 
  O11      1.0000 0.46786  0.83155  0.66890  Biso   1.000  O 
  O12      1.0000 0.46701  0.63662  0.91646  Biso   1.000  O 
  O13      1.0000 0.28073  0.24163  0.73606  Biso   1.000  O 
  O14      1.0000 0.28018  0.23143  0.98585  Biso   1.000  O 
  O15      1.0000 0.22630  0.75071  0.50944  Biso   1.000  O 
  O16      1.0000 0.22756  0.72638  0.75609  Biso   1.000  O 
  Hf9      1.0000 0.63642  0.04039  0.15237  Biso   1.000  Hf
  Hf10     1.0000 0.64929  0.44224  0.40125  Biso   1.000  Hf
  Hf11     1.0000 0.85621  0.54345  0.10611  Biso   1.000  Hf
  Hf12     1.0000 0.86305  0.94801  0.35513  Biso   1.000  Hf
  O17      1.0000 0.52902  0.37007  0.11632  Biso   1.000  O 
  O18      1.0000 0.54699  0.11197  0.34759  Biso   1.000  O 
  O19      1.0000 0.95738  0.84769  0.16455  Biso   1.000  O 
  O20      1.0000 0.96636  0.65463  0.41994  Biso   1.000  O 
  O21      1.0000 0.77901  0.25568  0.24345  Biso   1.000  O 
  O22      1.0000 0.78453  0.22646  0.49602  Biso   1.000  O 
  O23      1.0000 0.71864  0.76349  0.01270  Biso   1.000  O 
  O24      1.0000 0.72322  0.73517  0.26195  Biso   1.000  O 
  Hf13     1.0000 0.64498  0.03120  0.64913  Biso   1.000  Hf
  Hf14     1.0000 0.64287  0.44887  0.89968  Biso   1.000  Hf
  Hf15     1.0000 0.86792  0.52973  0.60491  Biso   1.000  Hf
  Hf16     1.0000 0.86273  0.94319  0.85669  Biso   1.000  Hf
  O25      1.0000 0.54256  0.33271  0.58875  Biso   1.000  O 
  O26      1.0000 0.54304  0.13989  0.84030  Biso   1.000  O 
  O27      1.0000 0.96640  0.83092  0.66961  Biso   1.000  O 
  O28      1.0000 0.96382  0.63743  0.91460  Biso   1.000  O 
  O29      1.0000 0.78187  0.24652  0.74446  Biso   1.000  O 
  O30      1.0000 0.77399  0.22469  0.99470  Biso   1.000  O 
  O31      1.0000 0.72803  0.74484  0.51373  Biso   1.000  O 
  O32      1.0000 0.72702  0.72462  0.76224  Biso   1.000  O 
  Fe1      1.0000 0.41690  0.37870  0.31334  Biso   1.000  Fe
