data_image0
_cell_length_a       10.0726
_cell_length_b       10.1787
_cell_length_c       5.22091
_cell_angle_alpha    90
_cell_angle_beta     80
_cell_angle_gamma    90

_symmetry_space_group_name_H-M    "P 1"
_symmetry_int_tables_number       1

loop_
  _symmetry_equiv_pos_as_xyz
  'x, y, z'

loop_
  _atom_site_label
  _atom_site_occupancy
  _atom_site_fract_x
  _atom_site_fract_y
  _atom_site_fract_z
  _atom_site_thermal_displace_type
  _atom_site_B_iso_or_equiv
  _atom_site_type_symbol
  Fe1      1.0000 0.11538  0.01055  0.33661  Biso   1.000  Fe
  Hf1      1.0000 0.14101  0.22261  0.77993  Biso   1.000  Hf
  Hf2      1.0000 0.35980  0.26783  0.20045  Biso   1.000  Hf
  Hf3      1.0000 0.36208  0.47890  0.71019  Biso   1.000  Hf
  O1       1.0000 0.04943  0.14315  0.15402  Biso   1.000  O 
  O2       1.0000 0.02778  0.08039  0.64123  Biso   1.000  O 
  O3       1.0000 0.46681  0.41616  0.34440  Biso   1.000  O 
  O4       1.0000 0.46951  0.33955  0.85058  Biso   1.000  O 
  O5       1.0000 0.26013  0.11750  0.44292  Biso   1.000  O 
  O6       1.0000 0.29381  0.14098  0.92428  Biso   1.000  O 
  O7       1.0000 0.22736  0.38285  0.01547  Biso   1.000  O 
  O8       1.0000 0.22794  0.36745  0.51928  Biso   1.000  O 
  Hf4      1.0000 0.14617  0.52222  0.29486  Biso   1.000  Hf
  Hf5      1.0000 0.14150  0.73195  0.79763  Biso   1.000  Hf
  Hf6      1.0000 0.36345  0.77976  0.20721  Biso   1.000  Hf
  Hf7      1.0000 0.36538  0.98290  0.70382  Biso   1.000  Hf
  O9       1.0000 0.04159  0.66548  0.15934  Biso   1.000  O 
  O10      1.0000 0.03906  0.58163  0.66448  Biso   1.000  O 
  O11      1.0000 0.47356  0.91832  0.34359  Biso   1.000  O 
  O12      1.0000 0.46289  0.83182  0.84187  Biso   1.000  O 
  O13      1.0000 0.28033  0.63370  0.48386  Biso   1.000  O 
  O14      1.0000 0.27663  0.62423  0.98533  Biso   1.000  O 
  O15      1.0000 0.22878  0.89710  0.02722  Biso   1.000  O 
  O16      1.0000 0.21899  0.87626  0.51740  Biso   1.000  O 
  Hf8      1.0000 0.63541  0.02135  0.29353  Biso   1.000  Hf
  Hf9      1.0000 0.63677  0.22858  0.79588  Biso   1.000  Hf
  Hf10     1.0000 0.87096  0.26518  0.21573  Biso   1.000  Hf
  Hf11     1.0000 0.86498  0.47510  0.71629  Biso   1.000  Hf
  O17      1.0000 0.53746  0.16867  0.15705  Biso   1.000  O 
  O18      1.0000 0.53402  0.08118  0.65795  Biso   1.000  O 
  O19      1.0000 0.97534  0.40883  0.35518  Biso   1.000  O 
  O20      1.0000 0.96674  0.32605  0.85932  Biso   1.000  O 
  O21      1.0000 0.77676  0.12546  0.48195  Biso   1.000  O 
  O22      1.0000 0.77329  0.11782  0.98640  Biso   1.000  O 
  O23      1.0000 0.73454  0.37640  0.02619  Biso   1.000  O 
  O24      1.0000 0.72944  0.36832  0.52335  Biso   1.000  O 
  Hf12     1.0000 0.64092  0.51959  0.29298  Biso   1.000  Hf
  Hf13     1.0000 0.63807  0.72677  0.79683  Biso   1.000  Hf
  Hf14     1.0000 0.86766  0.76783  0.21236  Biso   1.000  Hf
  Hf15     1.0000 0.86384  0.97506  0.71490  Biso   1.000  Hf
  O25      1.0000 0.54013  0.66917  0.15743  Biso   1.000  O 
  O26      1.0000 0.53729  0.58195  0.65702  Biso   1.000  O 
  O27      1.0000 0.97825  0.91313  0.34958  Biso   1.000  O 
  O28      1.0000 0.96599  0.83097  0.85234  Biso   1.000  O 
  O29      1.0000 0.78146  0.62511  0.48539  Biso   1.000  O 
  O30      1.0000 0.77619  0.61845  0.98649  Biso   1.000  O 
  O31      1.0000 0.73168  0.87807  0.02142  Biso   1.000  O 
  O32      1.0000 0.73223  0.86847  0.52163  Biso   1.000  O 
