data_image0
_cell_length_a       9.90519
_cell_length_b       10.3688
_cell_length_c       4.98466
_cell_angle_alpha    90
_cell_angle_beta     90
_cell_angle_gamma    90

_symmetry_space_group_name_H-M    "P 1"
_symmetry_int_tables_number       1

loop_
  _symmetry_equiv_pos_as_xyz
  'x, y, z'

loop_
  _atom_site_label
  _atom_site_occupancy
  _atom_site_fract_x
  _atom_site_fract_y
  _atom_site_fract_z
  _atom_site_thermal_displace_type
  _atom_site_B_iso_or_equiv
  _atom_site_type_symbol
  Fe1      1.0000 0.12575  0.03678  0.21462  Biso   1.000  Fe
  Hf1      1.0000 0.13570  0.22728  0.74012  Biso   1.000  Hf
  Hf2      1.0000 0.36502  0.26119  0.24681  Biso   1.000  Hf
  Hf3      1.0000 0.36864  0.47918  0.75154  Biso   1.000  Hf
  O1       1.0000 0.03678  0.17977  0.37432  Biso   1.000  O 
  O2       1.0000 0.04105  0.05951  0.90379  Biso   1.000  O 
  O3       1.0000 0.46330  0.42988  0.38599  Biso   1.000  O 
  O4       1.0000 0.46544  0.30974  0.88725  Biso   1.000  O 
  O5       1.0000 0.25780  0.10005  0.48383  Biso   1.000  O 
  O6       1.0000 0.26763  0.12712  0.99593  Biso   1.000  O 
  O7       1.0000 0.23179  0.37596  0.99499  Biso   1.000  O 
  O8       1.0000 0.23163  0.35893  0.49590  Biso   1.000  O 
  Hf4      1.0000 0.13312  0.51283  0.25239  Biso   1.000  Hf
  Hf5      1.0000 0.13484  0.72840  0.76485  Biso   1.000  Hf
  Hf6      1.0000 0.36173  0.76540  0.26349  Biso   1.000  Hf
  Hf7      1.0000 0.35505  0.97622  0.76129  Biso   1.000  Hf
  O9       1.0000 0.03573  0.68247  0.39328  Biso   1.000  O 
  O10      1.0000 0.03511  0.55917  0.89731  Biso   1.000  O 
  O11      1.0000 0.46725  0.92865  0.41114  Biso   1.000  O 
  O12      1.0000 0.46601  0.81521  0.90788  Biso   1.000  O 
  O13      1.0000 0.26742  0.60609  0.50355  Biso   1.000  O 
  O14      1.0000 0.26681  0.63393  0.00459  Biso   1.000  O 
  O15      1.0000 0.21518  0.89258  0.04409  Biso   1.000  O 
  O16      1.0000 0.24464  0.84641  0.54421  Biso   1.000  O 
  Hf8      1.0000 0.63217  0.01325  0.24348  Biso   1.000  Hf
  Hf9      1.0000 0.63564  0.22798  0.74874  Biso   1.000  Hf
  Hf10     1.0000 0.86389  0.26450  0.24349  Biso   1.000  Hf
  Hf11     1.0000 0.86594  0.47979  0.74841  Biso   1.000  Hf
  O17      1.0000 0.53328  0.18026  0.39354  Biso   1.000  O 
  O18      1.0000 0.53615  0.06379  0.89778  Biso   1.000  O 
  O19      1.0000 0.96427  0.42853  0.38840  Biso   1.000  O 
  O20      1.0000 0.96480  0.30787  0.87626  Biso   1.000  O 
  O21      1.0000 0.77162  0.11321  0.48773  Biso   1.000  O 
  O22      1.0000 0.77618  0.12691  0.98706  Biso   1.000  O 
  O23      1.0000 0.73262  0.37686  0.99784  Biso   1.000  O 
  O24      1.0000 0.72832  0.36393  0.49627  Biso   1.000  O 
  Hf12     1.0000 0.63194  0.51659  0.25377  Biso   1.000  Hf
  Hf13     1.0000 0.63426  0.73223  0.75178  Biso   1.000  Hf
  Hf14     1.0000 0.87154  0.76563  0.24050  Biso   1.000  Hf
  Hf15     1.0000 0.86562  0.98278  0.73943  Biso   1.000  Hf
  O25      1.0000 0.53338  0.68132  0.39896  Biso   1.000  O 
  O26      1.0000 0.53944  0.56214  0.89017  Biso   1.000  O 
  O27      1.0000 0.98848  0.94194  0.37750  Biso   1.000  O 
  O28      1.0000 0.96213  0.81350  0.87597  Biso   1.000  O 
  O29      1.0000 0.77121  0.61414  0.49880  Biso   1.000  O 
  O30      1.0000 0.76558  0.63621  0.00066  Biso   1.000  O 
  O31      1.0000 0.73218  0.88001  0.98961  Biso   1.000  O 
  O32      1.0000 0.74003  0.86406  0.48861  Biso   1.000  O 
