data_image0
_cell_length_a       10.0988
_cell_length_b       10.4747
_cell_length_c       5.04051
_cell_angle_alpha    90
_cell_angle_beta     90
_cell_angle_gamma    90

_symmetry_space_group_name_H-M    "P 1"
_symmetry_int_tables_number       1

loop_
  _symmetry_equiv_pos_as_xyz
  'x, y, z'

loop_
  _atom_site_label
  _atom_site_occupancy
  _atom_site_fract_x
  _atom_site_fract_y
  _atom_site_fract_z
  _atom_site_thermal_displace_type
  _atom_site_B_iso_or_equiv
  _atom_site_type_symbol
  Hf1      1.0000 0.04142  0.96193  0.28262  Biso   1.000  Hf
  Hf2      1.0000 0.11827  0.27419  0.80201  Biso   1.000  Hf
  Hf3      1.0000 0.34650  0.23703  0.28338  Biso   1.000  Hf
  Hf4      1.0000 0.34247  0.01752  0.78002  Biso   1.000  Hf
  O1       1.0000 0.95560  0.17716  0.96719  Biso   1.000  O 
  O2       1.0000 0.95540  0.07236  0.46281  Biso   1.000  O 
  O3       1.0000 0.00110  0.32273  0.46463  Biso   1.000  O 
  O4       1.0000 0.00538  0.42527  0.95758  Biso   1.000  O 
  O5       1.0000 0.20815  0.13827  0.53234  Biso   1.000  O 
  O6       1.0000 0.21117  0.11155  0.03952  Biso   1.000  O 
  O7       1.0000 0.26958  0.37724  0.02125  Biso   1.000  O 
  O8       1.0000 0.25101  0.38482  0.53539  Biso   1.000  O 
  Hf5      1.0000 0.12080  0.47453  0.27838  Biso   1.000  Hf
  Hf6      1.0000 0.08317  0.72280  0.70695  Biso   1.000  Hf
  Hf7      1.0000 0.30722  0.76433  0.20674  Biso   1.000  Hf
  Hf8      1.0000 0.34887  0.51787  0.78101  Biso   1.000  Hf
  O9       1.0000 0.93370  0.67205  0.96451  Biso   1.000  O 
  O10      1.0000 0.99026  0.56737  0.51565  Biso   1.000  O 
  O11      1.0000 0.94918  0.81271  0.46899  Biso   1.000  O 
  O12      1.0000 0.89991  0.92038  0.01027  Biso   1.000  O 
  O13      1.0000 0.23307  0.63269  0.49102  Biso   1.000  O 
  O14      1.0000 0.19666  0.60976  0.99727  Biso   1.000  O 
  O15      1.0000 0.15516  0.85489  0.99550  Biso   1.000  O 
  O16      1.0000 0.19333  0.87849  0.50503  Biso   1.000  O 
  Hf9      1.0000 0.53844  0.98405  0.28763  Biso   1.000  Hf
  Hf10     1.0000 0.60458  0.26719  0.78228  Biso   1.000  Hf
  Hf11     1.0000 0.83687  0.23628  0.29057  Biso   1.000  Hf
  Hf12     1.0000 0.84298  0.01708  0.78306  Biso   1.000  Hf
  O17      1.0000 0.44651  0.17772  0.94135  Biso   1.000  O 
  O18      1.0000 0.45313  0.07691  0.45937  Biso   1.000  O 
  O19      1.0000 0.51100  0.32457  0.43557  Biso   1.000  O 
  O20      1.0000 0.51170  0.42709  0.94135  Biso   1.000  O 
  O21      1.0000 0.70962  0.13528  0.53799  Biso   1.000  O 
  O22      1.0000 0.71233  0.11575  0.03433  Biso   1.000  O 
  O23      1.0000 0.75033  0.36382  0.02653  Biso   1.000  O 
  O24      1.0000 0.74641  0.38652  0.52859  Biso   1.000  O 
  Hf13     1.0000 0.61750  0.48381  0.27592  Biso   1.000  Hf
  Hf14     1.0000 0.58343  0.73071  0.70118  Biso   1.000  Hf
  Hf15     1.0000 0.80288  0.76462  0.20182  Biso   1.000  Hf
  Hf16     1.0000 0.84763  0.51276  0.78339  Biso   1.000  Hf
  O25      1.0000 0.43651  0.67668  0.96131  Biso   1.000  O 
  O26      1.0000 0.48783  0.57664  0.50307  Biso   1.000  O 
  O27      1.0000 0.45303  0.82389  0.46393  Biso   1.000  O 
  O28      1.0000 0.39850  0.92738  0.01516  Biso   1.000  O 
  O29      1.0000 0.73236  0.63543  0.49123  Biso   1.000  O 
  O30      1.0000 0.69628  0.61081  0.99362  Biso   1.000  O 
  O31      1.0000 0.65241  0.86053  0.99378  Biso   1.000  O 
  O32      1.0000 0.69058  0.88604  0.49821  Biso   1.000  O 
  Fe1      1.0000 0.08270  0.18980  0.26240  Biso   1.000  Fe
