data_image0
_cell_length_a       9.98056
_cell_length_b       10.451
_cell_length_c       5.02069
_cell_angle_alpha    90
_cell_angle_beta     90
_cell_angle_gamma    90

_symmetry_space_group_name_H-M    "P 1"
_symmetry_int_tables_number       1

loop_
  _symmetry_equiv_pos_as_xyz
  'x, y, z'

loop_
  _atom_site_label
  _atom_site_occupancy
  _atom_site_fract_x
  _atom_site_fract_y
  _atom_site_fract_z
  _atom_site_thermal_displace_type
  _atom_site_B_iso_or_equiv
  _atom_site_type_symbol
  Hf1      1.0000 0.13490  0.02179  0.24670  Biso   1.000  Hf
  Hf2      1.0000 0.13954  0.22448  0.76195  Biso   1.000  Hf
  Hf3      1.0000 0.36260  0.26309  0.24279  Biso   1.000  Hf
  Hf4      1.0000 0.36459  0.48453  0.74556  Biso   1.000  Hf
  O1       1.0000 0.01857  0.17712  0.42536  Biso   1.000  O 
  O2       1.0000 0.03469  0.06364  0.89373  Biso   1.000  O 
  O3       1.0000 0.46080  0.43288  0.38974  Biso   1.000  O 
  O4       1.0000 0.46044  0.31702  0.88503  Biso   1.000  O 
  O5       1.0000 0.27007  0.11485  0.49785  Biso   1.000  O 
  O6       1.0000 0.28586  0.12200  0.98685  Biso   1.000  O 
  O7       1.0000 0.22654  0.38975  0.99960  Biso   1.000  O 
  O8       1.0000 0.22311  0.36296  0.49340  Biso   1.000  O 
  Hf5      1.0000 0.13189  0.53438  0.24574  Biso   1.000  Hf
  Hf6      1.0000 0.13080  0.74076  0.75100  Biso   1.000  Hf
  Hf7      1.0000 0.36531  0.76718  0.25023  Biso   1.000  Hf
  Hf8      1.0000 0.36440  0.97965  0.74740  Biso   1.000  Hf
  O9       1.0000 0.03077  0.68934  0.39676  Biso   1.000  O 
  O10      1.0000 0.02964  0.57392  0.89150  Biso   1.000  O 
  O11      1.0000 0.46350  0.93164  0.38387  Biso   1.000  O 
  O12      1.0000 0.46255  0.81528  0.88888  Biso   1.000  O 
  O13      1.0000 0.27066  0.62163  0.50077  Biso   1.000  O 
  O14      1.0000 0.26729  0.63867  0.99421  Biso   1.000  O 
  O15      1.0000 0.22828  0.88138  0.00001  Biso   1.000  O 
  O16      1.0000 0.22861  0.86812  0.49665  Biso   1.000  O 
  Hf9      1.0000 0.63290  0.01449  0.24585  Biso   1.000  Hf
  Hf10     1.0000 0.62692  0.23117  0.74773  Biso   1.000  Hf
  Hf11     1.0000 0.85164  0.26398  0.25685  Biso   1.000  Hf
  Hf12     1.0000 0.86385  0.48409  0.75577  Biso   1.000  Hf
  O17      1.0000 0.53373  0.18143  0.38509  Biso   1.000  O 
  O18      1.0000 0.53821  0.06346  0.88094  Biso   1.000  O 
  O19      1.0000 0.96369  0.43373  0.40178  Biso   1.000  O 
  O20      1.0000 0.97081  0.31769  0.92192  Biso   1.000  O 
  O21      1.0000 0.76369  0.11472  0.49870  Biso   1.000  O 
  O22      1.0000 0.76813  0.13408  0.99511  Biso   1.000  O 
  O23      1.0000 0.72867  0.38153  0.00113  Biso   1.000  O 
  O24      1.0000 0.72509  0.36823  0.50616  Biso   1.000  O 
  Hf13     1.0000 0.63122  0.51580  0.25334  Biso   1.000  Hf
  Hf14     1.0000 0.63169  0.73328  0.75005  Biso   1.000  Hf
  Hf15     1.0000 0.86271  0.76842  0.25025  Biso   1.000  Hf
  Hf16     1.0000 0.86274  0.98414  0.74718  Biso   1.000  Hf
  O25      1.0000 0.53477  0.68224  0.38873  Biso   1.000  O 
  O26      1.0000 0.53051  0.56635  0.88943  Biso   1.000  O 
  O27      1.0000 0.96265  0.93394  0.39091  Biso   1.000  O 
  O28      1.0000 0.95947  0.81840  0.89176  Biso   1.000  O 
  O29      1.0000 0.76856  0.61569  0.50269  Biso   1.000  O 
  O30      1.0000 0.76800  0.63128  0.00209  Biso   1.000  O 
  O31      1.0000 0.72605  0.88408  0.99645  Biso   1.000  O 
  O32      1.0000 0.72713  0.86600  0.49770  Biso   1.000  O 
  Fe1      1.0000 0.09835  0.30914  0.21939  Biso   1.000  Fe
