data_image0
_cell_length_a       9.98359
_cell_length_b       5.21665
_cell_length_c       10.0434
_cell_angle_alpha    90
_cell_angle_beta     90
_cell_angle_gamma    90

_symmetry_space_group_name_H-M    "P 1"
_symmetry_int_tables_number       1

loop_
  _symmetry_equiv_pos_as_xyz
  'x, y, z'

loop_
  _atom_site_label
  _atom_site_occupancy
  _atom_site_fract_x
  _atom_site_fract_y
  _atom_site_fract_z
  _atom_site_thermal_displace_type
  _atom_site_B_iso_or_equiv
  _atom_site_type_symbol
  Hf1      1.0000 0.13205  0.08809  0.11749  Biso   1.000  Hf
  Hf2      1.0000 0.13298  0.46619  0.38503  Biso   1.000  Hf
  Hf3      1.0000 0.36102  0.53017  0.12236  Biso   1.000  Hf
  Hf4      1.0000 0.36280  0.96614  0.37389  Biso   1.000  Hf
  O1       1.0000 0.01574  0.36701  0.21638  Biso   1.000  O 
  O2       1.0000 0.03213  0.13405  0.45109  Biso   1.000  O 
  O3       1.0000 0.45827  0.86521  0.19449  Biso   1.000  O 
  O4       1.0000 0.46034  0.63073  0.44349  Biso   1.000  O 
  O5       1.0000 0.26873  0.24040  0.25349  Biso   1.000  O 
  O6       1.0000 0.26905  0.26275  0.50139  Biso   1.000  O 
  O7       1.0000 0.22794  0.76687  0.49973  Biso   1.000  O 
  O8       1.0000 0.21957  0.72833  0.24760  Biso   1.000  O 
  Hf5      1.0000 0.13125  0.03093  0.62777  Biso   1.000  Hf
  Hf6      1.0000 0.13710  0.46475  0.87266  Biso   1.000  Hf
  Hf7      1.0000 0.36573  0.53194  0.62458  Biso   1.000  Hf
  Hf8      1.0000 0.36507  0.96378  0.87287  Biso   1.000  Hf
  O9       1.0000 0.03344  0.36640  0.69270  Biso   1.000  O 
  O10      1.0000 0.03195  0.13814  0.93707  Biso   1.000  O 
  O11      1.0000 0.46463  0.86525  0.69273  Biso   1.000  O 
  O12      1.0000 0.46190  0.63408  0.94395  Biso   1.000  O 
  O13      1.0000 0.26929  0.23215  0.74696  Biso   1.000  O 
  O14      1.0000 0.28257  0.25669  0.99026  Biso   1.000  O 
  O15      1.0000 0.22432  0.77861  0.99921  Biso   1.000  O 
  O16      1.0000 0.23064  0.73396  0.74788  Biso   1.000  O 
  Hf9      1.0000 0.62847  0.03072  0.12527  Biso   1.000  Hf
  Hf10     1.0000 0.62867  0.46339  0.37583  Biso   1.000  Hf
  Hf11     1.0000 0.84964  0.53247  0.12831  Biso   1.000  Hf
  Hf12     1.0000 0.86446  0.96924  0.37496  Biso   1.000  Hf
  O17      1.0000 0.53176  0.36143  0.19464  Biso   1.000  O 
  O18      1.0000 0.53113  0.13003  0.44581  Biso   1.000  O 
  O19      1.0000 0.96048  0.87719  0.19347  Biso   1.000  O 
  O20      1.0000 0.96337  0.64050  0.44906  Biso   1.000  O 
  O21      1.0000 0.76191  0.23048  0.25075  Biso   1.000  O 
  O22      1.0000 0.76699  0.26738  0.49902  Biso   1.000  O 
  O23      1.0000 0.72779  0.76669  0.49963  Biso   1.000  O 
  O24      1.0000 0.72178  0.73708  0.25175  Biso   1.000  O 
  Hf13     1.0000 0.63408  0.03125  0.62482  Biso   1.000  Hf
  Hf14     1.0000 0.62904  0.46611  0.87374  Biso   1.000  Hf
  Hf15     1.0000 0.86448  0.53262  0.62521  Biso   1.000  Hf
  Hf16     1.0000 0.86040  0.96711  0.87683  Biso   1.000  Hf
  O25      1.0000 0.53521  0.36723  0.69281  Biso   1.000  O 
  O26      1.0000 0.53660  0.12995  0.94001  Biso   1.000  O 
  O27      1.0000 0.96364  0.86071  0.70247  Biso   1.000  O 
  O28      1.0000 0.96703  0.63497  0.95891  Biso   1.000  O 
  O29      1.0000 0.76949  0.23198  0.74972  Biso   1.000  O 
  O30      1.0000 0.76566  0.26612  0.99960  Biso   1.000  O 
  O31      1.0000 0.72234  0.76662  0.99932  Biso   1.000  O 
  O32      1.0000 0.72927  0.73214  0.75052  Biso   1.000  O 
  Fe1      1.0000 0.09644  0.62455  0.10863  Biso   1.000  Fe
