data_image0
_cell_length_a       5.04051
_cell_length_b       10.4747
_cell_length_c       10.0989
_cell_angle_alpha    90
_cell_angle_beta     90
_cell_angle_gamma    90

_symmetry_space_group_name_H-M    "P 1"
_symmetry_int_tables_number       1

loop_
  _symmetry_equiv_pos_as_xyz
  'x, y, z'

loop_
  _atom_site_label
  _atom_site_occupancy
  _atom_site_fract_x
  _atom_site_fract_y
  _atom_site_fract_z
  _atom_site_thermal_displace_type
  _atom_site_B_iso_or_equiv
  _atom_site_type_symbol
  Hf1      1.0000 0.22694  0.97452  0.13612  Biso   1.000  Hf
  Hf2      1.0000 0.20704  0.26478  0.39364  Biso   1.000  Hf
  Hf3      1.0000 0.69958  0.28471  0.10849  Biso   1.000  Hf
  Hf4      1.0000 0.71181  0.04710  0.40211  Biso   1.000  Hf
  O1       1.0000 0.96858  0.14221  0.02975  Biso   1.000  O 
  O2       1.0000 0.03415  0.09363  0.28695  Biso   1.000  O 
  O3       1.0000 0.03615  0.34024  0.22289  Biso   1.000  O 
  O4       1.0000 0.95698  0.45383  0.96625  Biso   1.000  O 
  O5       1.0000 0.53116  0.19956  0.27736  Biso   1.000  O 
  O6       1.0000 0.46107  0.11399  0.03032  Biso   1.000  O 
  O7       1.0000 0.47123  0.44357  0.94998  Biso   1.000  O 
  O8       1.0000 0.54460  0.44358  0.20944  Biso   1.000  O 
  Hf5      1.0000 0.21604  0.03111  0.63616  Biso   1.000  Hf
  Hf6      1.0000 0.20824  0.29916  0.88273  Biso   1.000  Hf
  Hf7      1.0000 0.71289  0.31293  0.62144  Biso   1.000  Hf
  Hf8      1.0000 0.70871  0.08187  0.90131  Biso   1.000  Hf
  O9       1.0000 0.95676  0.17346  0.52721  Biso   1.000  O 
  O10      1.0000 0.03148  0.13262  0.78761  Biso   1.000  O 
  O11      1.0000 0.05919  0.37563  0.71170  Biso   1.000  O 
  O12      1.0000 0.96985  0.42151  0.47201  Biso   1.000  O 
  O13      1.0000 0.55075  0.23498  0.78520  Biso   1.000  O 
  O14      1.0000 0.46019  0.15240  0.52760  Biso   1.000  O 
  O15      1.0000 0.47166  0.39720  0.47143  Biso   1.000  O 
  O16      1.0000 0.55477  0.47924  0.70177  Biso   1.000  O 
  Hf9      1.0000 0.22583  0.48290  0.09290  Biso   1.000  Hf
  Hf10     1.0000 0.30224  0.79387  0.38885  Biso   1.000  Hf
  Hf11     1.0000 0.80003  0.73432  0.11073  Biso   1.000  Hf
  Hf12     1.0000 0.71797  0.54120  0.36091  Biso   1.000  Hf
  O17      1.0000 0.00435  0.70217  0.96601  Biso   1.000  O 
  O18      1.0000 0.98816  0.58512  0.21549  Biso   1.000  O 
  O19      1.0000 0.03753  0.83254  0.23852  Biso   1.000  O 
  O20      1.0000 0.99303  0.95012  0.98746  Biso   1.000  O 
  O21      1.0000 0.53999  0.69467  0.26270  Biso   1.000  O 
  O22      1.0000 0.50966  0.61460  0.00490  Biso   1.000  O 
  O23      1.0000 0.51409  0.86194  0.02823  Biso   1.000  O 
  O24      1.0000 0.49701  0.94204  0.28122  Biso   1.000  O 
  Hf13     1.0000 0.22221  0.52670  0.59424  Biso   1.000  Hf
  Hf14     1.0000 0.29124  0.82760  0.88326  Biso   1.000  Hf
  Hf15     1.0000 0.79976  0.77649  0.60861  Biso   1.000  Hf
  Hf16     1.0000 0.71429  0.58052  0.85802  Biso   1.000  Hf
  O25      1.0000 0.01031  0.67064  0.46778  Biso   1.000  O 
  O26      1.0000 0.99469  0.62883  0.71599  Biso   1.000  O 
  O27      1.0000 0.03661  0.87772  0.73260  Biso   1.000  O 
  O28      1.0000 0.00607  0.92350  0.49095  Biso   1.000  O 
  O29      1.0000 0.53713  0.73340  0.75829  Biso   1.000  O 
  O30      1.0000 0.50717  0.64997  0.50395  Biso   1.000  O 
  O31      1.0000 0.50971  0.90207  0.52928  Biso   1.000  O 
  O32      1.0000 0.48604  0.98344  0.78082  Biso   1.000  O 
  Fe1      1.0000 0.23765  0.20147  0.15196  Biso   1.000  Fe
