data_image0
_cell_length_a       10.0485
_cell_length_b       10.2407
_cell_length_c       10.4912
_cell_angle_alpha    90
_cell_angle_beta     90
_cell_angle_gamma    90

_symmetry_space_group_name_H-M    "P 1"
_symmetry_int_tables_number       1

loop_
  _symmetry_equiv_pos_as_xyz
  'x, y, z'

loop_
  _atom_site_label
  _atom_site_occupancy
  _atom_site_fract_x
  _atom_site_fract_y
  _atom_site_fract_z
  _atom_site_thermal_displace_type
  _atom_site_B_iso_or_equiv
  _atom_site_type_symbol
  Hf1      1.0000 0.13993  0.02011  0.17129  Biso   1.000  Hf
  Hf2      1.0000 0.13300  0.23266  0.42163  Biso   1.000  Hf
  Hf3      1.0000 0.35615  0.26964  0.17447  Biso   1.000  Hf
  Hf4      1.0000 0.35795  0.48399  0.42303  Biso   1.000  Hf
  Hf5      1.0000 0.63485  0.02265  0.06819  Biso   1.000  Hf
  Hf6      1.0000 0.63079  0.23599  0.33677  Biso   1.000  Hf
  Hf7      1.0000 0.87753  0.27084  0.07206  Biso   1.000  Hf
  Hf8      1.0000 0.85861  0.48387  0.33287  Biso   1.000  Hf
  O1       1.0000 0.04120  0.16256  0.07770  Biso   1.000  O 
  O2       1.0000 0.02571  0.09331  0.32673  Biso   1.000  O 
  O3       1.0000 0.48096  0.40050  0.07966  Biso   1.000  O 
  O4       1.0000 0.45935  0.33879  0.33513  Biso   1.000  O 
  O5       1.0000 0.27015  0.12559  0.29612  Biso   1.000  O 
  O6       1.0000 0.28061  0.12371  0.04300  Biso   1.000  O 
  O7       1.0000 0.21912  0.37579  0.29456  Biso   1.000  O 
  O8       1.0000 0.22833  0.37607  0.04478  Biso   1.000  O 
  O9       1.0000 0.51663  0.14625  0.18115  Biso   1.000  O 
  O10      1.0000 0.52573  0.09098  0.42535  Biso   1.000  O 
  O11      1.0000 0.96463  0.41709  0.16877  Biso   1.000  O 
  O12      1.0000 0.96306  0.34045  0.41938  Biso   1.000  O 
  O13      1.0000 0.77358  0.12651  0.45249  Biso   1.000  O 
  O14      1.0000 0.75710  0.15147  0.19161  Biso   1.000  O 
  O15      1.0000 0.72081  0.37704  0.46463  Biso   1.000  O 
  O16      1.0000 0.71245  0.39899  0.22172  Biso   1.000  O 
  Hf9      1.0000 0.13448  0.02504  0.66979  Biso   1.000  Hf
  Hf10     1.0000 0.13948  0.23231  0.91678  Biso   1.000  Hf
  Hf11     1.0000 0.35925  0.27497  0.67065  Biso   1.000  Hf
  Hf12     1.0000 0.35706  0.48391  0.92050  Biso   1.000  Hf
  Hf13     1.0000 0.63373  0.02674  0.58071  Biso   1.000  Hf
  Hf14     1.0000 0.63237  0.23143  0.83656  Biso   1.000  Hf
  Hf15     1.0000 0.85645  0.27445  0.58238  Biso   1.000  Hf
  Hf16     1.0000 0.85695  0.48496  0.82945  Biso   1.000  Hf
  O17      1.0000 0.02796  0.16782  0.58127  Biso   1.000  O 
  O18      1.0000 0.03100  0.09022  0.83019  Biso   1.000  O 
  O19      1.0000 0.46342  0.42026  0.58410  Biso   1.000  O 
  O20      1.0000 0.46135  0.33982  0.83425  Biso   1.000  O 
  O21      1.0000 0.27330  0.12743  0.79276  Biso   1.000  O 
  O22      1.0000 0.27115  0.13027  0.54452  Biso   1.000  O 
  O23      1.0000 0.22038  0.37849  0.79367  Biso   1.000  O 
  O24      1.0000 0.21984  0.38050  0.54444  Biso   1.000  O 
  O25      1.0000 0.52941  0.17122  0.66803  Biso   1.000  O 
  O26      1.0000 0.52844  0.07311  0.90072  Biso   1.000  O 
  O27      1.0000 0.96187  0.42012  0.66697  Biso   1.000  O 
  O28      1.0000 0.96807  0.34201  0.91193  Biso   1.000  O 
  O29      1.0000 0.78349  0.12382  0.94824  Biso   1.000  O 
  O30      1.0000 0.77186  0.13000  0.70314  Biso   1.000  O 
  O31      1.0000 0.71884  0.37779  0.96736  Biso   1.000  O 
  O32      1.0000 0.71963  0.38105  0.71343  Biso   1.000  O 
  Hf17     1.0000 0.13768  0.52290  0.17223  Biso   1.000  Hf
  Hf18     1.0000 0.13524  0.73254  0.42133  Biso   1.000  Hf
  Hf19     1.0000 0.36026  0.77276  0.17225  Biso   1.000  Hf
  Hf20     1.0000 0.36002  0.98193  0.42375  Biso   1.000  Hf
  Hf21     1.0000 0.64436  0.53249  0.08172  Biso   1.000  Hf
  Hf22     1.0000 0.63741  0.73445  0.32962  Biso   1.000  Hf
  Hf23     1.0000 0.86395  0.77634  0.07852  Biso   1.000  Hf
  Hf24     1.0000 0.85936  0.98257  0.32825  Biso   1.000  Hf
  O33      1.0000 0.03371  0.66539  0.08207  Biso   1.000  O 
  O34      1.0000 0.03082  0.59015  0.33129  Biso   1.000  O 
  O35      1.0000 0.46660  0.91015  0.07912  Biso   1.000  O 
  O36      1.0000 0.46595  0.84034  0.33205  Biso   1.000  O 
  O37      1.0000 0.27350  0.62631  0.29590  Biso   1.000  O 
  O38      1.0000 0.27897  0.62346  0.04624  Biso   1.000  O 
  O39      1.0000 0.22221  0.87566  0.29569  Biso   1.000  O 
  O40      1.0000 0.22233  0.87381  0.04563  Biso   1.000  O 
  O41      1.0000 0.53049  0.66482  0.17092  Biso   1.000  O 
  O42      1.0000 0.52988  0.59103  0.41977  Biso   1.000  O 
  O43      1.0000 0.96682  0.92000  0.16635  Biso   1.000  O 
  O44      1.0000 0.96336  0.84165  0.41546  Biso   1.000  O 
  O45      1.0000 0.77295  0.62794  0.45593  Biso   1.000  O 
  O46      1.0000 0.77917  0.63883  0.20611  Biso   1.000  O 
  O47      1.0000 0.72072  0.87806  0.45577  Biso   1.000  O 
  O48      1.0000 0.72414  0.88594  0.20541  Biso   1.000  O 
  Hf25     1.0000 0.13381  0.52499  0.67066  Biso   1.000  Hf
  Hf26     1.0000 0.13344  0.73339  0.92131  Biso   1.000  Hf
  Hf27     1.0000 0.35757  0.77369  0.67168  Biso   1.000  Hf
  Hf28     1.0000 0.35528  0.98008  0.91911  Biso   1.000  Hf
  Hf29     1.0000 0.63553  0.52497  0.58090  Biso   1.000  Hf
  Hf30     1.0000 0.63421  0.73424  0.82814  Biso   1.000  Hf
  Hf31     1.0000 0.85723  0.77614  0.57878  Biso   1.000  Hf
  Hf32     1.0000 0.85897  0.98357  0.82631  Biso   1.000  Hf
  O49      1.0000 0.02825  0.66879  0.58085  Biso   1.000  O 
  O50      1.0000 0.02757  0.59136  0.83090  Biso   1.000  O 
  O51      1.0000 0.46430  0.91735  0.58507  Biso   1.000  O 
  O52      1.0000 0.45973  0.83317  0.83349  Biso   1.000  O 
  O53      1.0000 0.27152  0.62627  0.79511  Biso   1.000  O 
  O54      1.0000 0.27134  0.63013  0.54525  Biso   1.000  O 
  O55      1.0000 0.21873  0.87674  0.79403  Biso   1.000  O 
  O56      1.0000 0.22097  0.87967  0.54441  Biso   1.000  O 
  O57      1.0000 0.52870  0.66778  0.66851  Biso   1.000  O 
  O58      1.0000 0.52768  0.59159  0.92023  Biso   1.000  O 
  O59      1.0000 0.96508  0.91886  0.66396  Biso   1.000  O 
  O60      1.0000 0.96446  0.84167  0.91640  Biso   1.000  O 
  O61      1.0000 0.77299  0.63029  0.95509  Biso   1.000  O 
  O62      1.0000 0.77307  0.63099  0.70534  Biso   1.000  O 
  O63      1.0000 0.71932  0.87738  0.95393  Biso   1.000  O 
  O64      1.0000 0.72046  0.87964  0.70502  Biso   1.000  O 
  Fe1      1.0000 0.62597  0.27232  0.10208  Biso   1.000  Fe
