data_image0
_cell_length_a       9.9707
_cell_length_b       10.4027
_cell_length_c       10.0197
_cell_angle_alpha    90
_cell_angle_beta     90
_cell_angle_gamma    90

_symmetry_space_group_name_H-M    "P 1"
_symmetry_int_tables_number       1

loop_
  _symmetry_equiv_pos_as_xyz
  'x, y, z'

loop_
  _atom_site_label
  _atom_site_occupancy
  _atom_site_fract_x
  _atom_site_fract_y
  _atom_site_fract_z
  _atom_site_thermal_displace_type
  _atom_site_B_iso_or_equiv
  _atom_site_type_symbol
  Hf1      1.0000 0.13425  0.02420  0.12122  Biso   1.000  Hf
  Hf2      1.0000 0.13265  0.23177  0.38237  Biso   1.000  Hf
  Hf3      1.0000 0.36217  0.26333  0.12139  Biso   1.000  Hf
  Hf4      1.0000 0.36565  0.48429  0.37406  Biso   1.000  Hf
  O1       1.0000 0.01715  0.17733  0.21280  Biso   1.000  O 
  O2       1.0000 0.03402  0.06608  0.44988  Biso   1.000  O 
  O3       1.0000 0.45914  0.43360  0.19364  Biso   1.000  O 
  O4       1.0000 0.46155  0.31712  0.44462  Biso   1.000  O 
  O5       1.0000 0.26699  0.11819  0.25181  Biso   1.000  O 
  O6       1.0000 0.26993  0.13277  0.50093  Biso   1.000  O 
  O7       1.0000 0.22881  0.38417  0.49872  Biso   1.000  O 
  O8       1.0000 0.22032  0.36446  0.24610  Biso   1.000  O 
  Hf5      1.0000 0.13245  0.01648  0.62736  Biso   1.000  Hf
  Hf6      1.0000 0.13955  0.22856  0.87443  Biso   1.000  Hf
  Hf7      1.0000 0.36529  0.26796  0.62583  Biso   1.000  Hf
  Hf8      1.0000 0.36362  0.48605  0.87467  Biso   1.000  Hf
  O9       1.0000 0.03395  0.18330  0.69494  Biso   1.000  O 
  O10      1.0000 0.03571  0.06500  0.94048  Biso   1.000  O 
  O11      1.0000 0.46358  0.43533  0.69522  Biso   1.000  O 
  O12      1.0000 0.46088  0.31749  0.94185  Biso   1.000  O 
  O13      1.0000 0.27127  0.11662  0.74704  Biso   1.000  O 
  O14      1.0000 0.28504  0.12376  0.99219  Biso   1.000  O 
  O15      1.0000 0.22570  0.38917  0.99964  Biso   1.000  O 
  O16      1.0000 0.22954  0.36819  0.74899  Biso   1.000  O 
  Hf9      1.0000 0.13233  0.53446  0.12322  Biso   1.000  Hf
  Hf10     1.0000 0.13298  0.73691  0.37827  Biso   1.000  Hf
  Hf11     1.0000 0.36385  0.76935  0.12698  Biso   1.000  Hf
  Hf12     1.0000 0.36259  0.98429  0.37572  Biso   1.000  Hf
  O17      1.0000 0.03136  0.68924  0.20041  Biso   1.000  O 
  O18      1.0000 0.03322  0.56852  0.44628  Biso   1.000  O 
  O19      1.0000 0.46171  0.93459  0.19483  Biso   1.000  O 
  O20      1.0000 0.46149  0.81568  0.44242  Biso   1.000  O 
  O21      1.0000 0.27144  0.62258  0.25113  Biso   1.000  O 
  O22      1.0000 0.26849  0.63289  0.49966  Biso   1.000  O 
  O23      1.0000 0.22798  0.88359  0.50030  Biso   1.000  O 
  O24      1.0000 0.22704  0.87009  0.25000  Biso   1.000  O 
  Hf13     1.0000 0.13174  0.51683  0.62592  Biso   1.000  Hf
  Hf14     1.0000 0.13034  0.73894  0.87319  Biso   1.000  Hf
  Hf15     1.0000 0.36579  0.76585  0.62397  Biso   1.000  Hf
  Hf16     1.0000 0.36625  0.98048  0.87365  Biso   1.000  Hf
  O25      1.0000 0.03441  0.68516  0.69240  Biso   1.000  O 
  O26      1.0000 0.03123  0.57285  0.94423  Biso   1.000  O 
  O27      1.0000 0.46400  0.93307  0.69127  Biso   1.000  O 
  O28      1.0000 0.46325  0.81711  0.94650  Biso   1.000  O 
  O29      1.0000 0.26783  0.61800  0.74892  Biso   1.000  O 
  O30      1.0000 0.26804  0.63939  0.99715  Biso   1.000  O 
  O31      1.0000 0.22491  0.88420  0.99939  Biso   1.000  O 
  O32      1.0000 0.22990  0.86730  0.74811  Biso   1.000  O 
  Hf17     1.0000 0.63113  0.01518  0.12406  Biso   1.000  Hf
  Hf18     1.0000 0.62949  0.23231  0.37659  Biso   1.000  Hf
  Hf19     1.0000 0.85044  0.26496  0.12888  Biso   1.000  Hf
  Hf20     1.0000 0.86497  0.48458  0.37647  Biso   1.000  Hf
  O33      1.0000 0.53270  0.18198  0.19440  Biso   1.000  O 
  O34      1.0000 0.53370  0.06608  0.44539  Biso   1.000  O 
  O35      1.0000 0.96126  0.43584  0.19487  Biso   1.000  O 
  O36      1.0000 0.96441  0.31961  0.44887  Biso   1.000  O 
  O37      1.0000 0.76239  0.11571  0.25055  Biso   1.000  O 
  O38      1.0000 0.76954  0.13415  0.49866  Biso   1.000  O 
  O39      1.0000 0.72834  0.38343  0.50084  Biso   1.000  O 
  O40      1.0000 0.72285  0.36966  0.25238  Biso   1.000  O 
  Hf21     1.0000 0.63403  0.01699  0.62473  Biso   1.000  Hf
  Hf22     1.0000 0.62968  0.23394  0.87371  Biso   1.000  Hf
  Hf23     1.0000 0.86509  0.26702  0.62633  Biso   1.000  Hf
  Hf24     1.0000 0.86323  0.48474  0.87825  Biso   1.000  Hf
  O41      1.0000 0.53592  0.18558  0.69199  Biso   1.000  O 
  O42      1.0000 0.53898  0.06476  0.93903  Biso   1.000  O 
  O43      1.0000 0.96428  0.43328  0.70145  Biso   1.000  O 
  O44      1.0000 0.96959  0.31654  0.95843  Biso   1.000  O 
  O45      1.0000 0.76964  0.11805  0.74885  Biso   1.000  O 
  O46      1.0000 0.76778  0.13390  0.99885  Biso   1.000  O 
  O47      1.0000 0.72438  0.38411  0.99985  Biso   1.000  O 
  O48      1.0000 0.72999  0.36794  0.75132  Biso   1.000  O 
  Hf25     1.0000 0.63029  0.51725  0.12664  Biso   1.000  Hf
  Hf26     1.0000 0.63224  0.73420  0.37528  Biso   1.000  Hf
  Hf27     1.0000 0.86329  0.76855  0.12606  Biso   1.000  Hf
  Hf28     1.0000 0.86526  0.98511  0.37372  Biso   1.000  Hf
  O49      1.0000 0.53439  0.68385  0.19428  Biso   1.000  O 
  O50      1.0000 0.53265  0.56625  0.44506  Biso   1.000  O 
  O51      1.0000 0.96217  0.93599  0.19245  Biso   1.000  O 
  O52      1.0000 0.96208  0.81843  0.44535  Biso   1.000  O 
  O53      1.0000 0.76803  0.61777  0.25026  Biso   1.000  O 
  O54      1.0000 0.76726  0.63370  0.50024  Biso   1.000  O 
  O55      1.0000 0.72829  0.88415  0.49846  Biso   1.000  O 
  O56      1.0000 0.72718  0.86753  0.24921  Biso   1.000  O 
  Hf29     1.0000 0.63347  0.51664  0.62629  Biso   1.000  Hf
  Hf30     1.0000 0.63205  0.73457  0.87572  Biso   1.000  Hf
  Hf31     1.0000 0.86429  0.76750  0.62515  Biso   1.000  Hf
  Hf32     1.0000 0.86254  0.98424  0.87556  Biso   1.000  Hf
  O57      1.0000 0.53509  0.68426  0.69451  Biso   1.000  O 
  O58      1.0000 0.53277  0.56768  0.94396  Biso   1.000  O 
  O59      1.0000 0.96298  0.93272  0.69703  Biso   1.000  O 
  O60      1.0000 0.95957  0.81721  0.94480  Biso   1.000  O 
  O61      1.0000 0.76973  0.61728  0.75098  Biso   1.000  O 
  O62      1.0000 0.77000  0.63102  0.00065  Biso   1.000  O 
  O63      1.0000 0.72578  0.88397  0.99930  Biso   1.000  O 
  O64      1.0000 0.72799  0.86772  0.74916  Biso   1.000  O 
  Fe1      1.0000 0.09698  0.30855  0.10813  Biso   1.000  Fe
