data_image0
_cell_length_a       5.07128
_cell_length_b       10.3607
_cell_length_c       10.3877
_cell_angle_alpha    90
_cell_angle_beta     80
_cell_angle_gamma    90

_symmetry_space_group_name_H-M    "P 1"
_symmetry_int_tables_number       1

loop_
  _symmetry_equiv_pos_as_xyz
  'x, y, z'

loop_
  _atom_site_label
  _atom_site_occupancy
  _atom_site_fract_x
  _atom_site_fract_y
  _atom_site_fract_z
  _atom_site_thermal_displace_type
  _atom_site_B_iso_or_equiv
  _atom_site_type_symbol
  Hf1      1.0000 0.27157  0.01955  0.15143  Biso   1.000  Hf
  Hf2      1.0000 0.30815  0.22722  0.39508  Biso   1.000  Hf
  Hf3      1.0000 0.70009  0.27784  0.10504  Biso   1.000  Hf
  Hf4      1.0000 0.71874  0.46785  0.34644  Biso   1.000  Hf
  O1       1.0000 0.05193  0.18218  0.11650  Biso   1.000  O 
  O2       1.0000 0.10066  0.05759  0.34805  Biso   1.000  O 
  O3       1.0000 0.90523  0.43580  0.15464  Biso   1.000  O 
  O4       1.0000 0.95513  0.33000  0.41856  Biso   1.000  O 
  O5       1.0000 0.56013  0.12181  0.23647  Biso   1.000  O 
  O6       1.0000 0.60971  0.12411  0.47661  Biso   1.000  O 
  O7       1.0000 0.42987  0.38505  0.00418  Biso   1.000  O 
  O8       1.0000 0.41396  0.37607  0.25187  Biso   1.000  O 
  Hf5      1.0000 0.27736  0.01271  0.64927  Biso   1.000  Hf
  Hf6      1.0000 0.28403  0.22405  0.89487  Biso   1.000  Hf
  Hf7      1.0000 0.74042  0.26535  0.60523  Biso   1.000  Hf
  Hf8      1.0000 0.72939  0.47035  0.85431  Biso   1.000  Hf
  O9       1.0000 0.10093  0.16772  0.58440  Biso   1.000  O 
  O10      1.0000 0.07902  0.06850  0.83947  Biso   1.000  O 
  O11      1.0000 0.93602  0.41503  0.66846  Biso   1.000  O 
  O12      1.0000 0.92794  0.31488  0.91633  Biso   1.000  O 
  O13      1.0000 0.55958  0.12102  0.73845  Biso   1.000  O 
  O14      1.0000 0.54022  0.11304  0.99108  Biso   1.000  O 
  O15      1.0000 0.46341  0.37274  0.51059  Biso   1.000  O 
  O16      1.0000 0.45625  0.36030  0.75764  Biso   1.000  O 
  Hf9      1.0000 0.26405  0.52431  0.14416  Biso   1.000  Hf
  Hf10     1.0000 0.27557  0.71881  0.39659  Biso   1.000  Hf
  Hf11     1.0000 0.70849  0.76908  0.10382  Biso   1.000  Hf
  Hf12     1.0000 0.72173  0.96127  0.35442  Biso   1.000  Hf
  O17      1.0000 0.06690  0.67945  0.08292  Biso   1.000  O 
  O18      1.0000 0.06310  0.57610  0.33127  Biso   1.000  O 
  O19      1.0000 0.91922  0.91879  0.16776  Biso   1.000  O 
  O20      1.0000 0.92279  0.81594  0.42109  Biso   1.000  O 
  O21      1.0000 0.54615  0.62690  0.24110  Biso   1.000  O 
  O22      1.0000 0.55067  0.61333  0.49085  Biso   1.000  O 
  O23      1.0000 0.43668  0.88277  0.01075  Biso   1.000  O 
  O24      1.0000 0.43682  0.86293  0.25916  Biso   1.000  O 
  Hf13     1.0000 0.28657  0.51450  0.64534  Biso   1.000  Hf
  Hf14     1.0000 0.27726  0.72061  0.89623  Biso   1.000  Hf
  Hf15     1.0000 0.72300  0.76226  0.60524  Biso   1.000  Hf
  Hf16     1.0000 0.71818  0.97014  0.85655  Biso   1.000  Hf
  O25      1.0000 0.07465  0.66405  0.58627  Biso   1.000  O 
  O26      1.0000 0.08127  0.56755  0.83453  Biso   1.000  O 
  O27      1.0000 0.92516  0.91499  0.66993  Biso   1.000  O 
  O28      1.0000 0.92531  0.81850  0.91508  Biso   1.000  O 
  O29      1.0000 0.55818  0.61978  0.74145  Biso   1.000  O 
  O30      1.0000 0.55730  0.61213  0.98948  Biso   1.000  O 
  O31      1.0000 0.44462  0.87585  0.51204  Biso   1.000  O 
  O32      1.0000 0.44748  0.86233  0.76008  Biso   1.000  O 
  Fe1      1.0000 0.84269  0.19123  0.31352  Biso   1.000  Fe
