data_image0
_cell_length_a       9.99228
_cell_length_b       10.1859
_cell_length_c       9.99227
_cell_angle_alpha    90
_cell_angle_beta     90
_cell_angle_gamma    90

_symmetry_space_group_name_H-M    "P 1"
_symmetry_int_tables_number       1

loop_
  _symmetry_equiv_pos_as_xyz
  'x, y, z'

loop_
  _atom_site_label
  _atom_site_occupancy
  _atom_site_fract_x
  _atom_site_fract_y
  _atom_site_fract_z
  _atom_site_thermal_displace_type
  _atom_site_B_iso_or_equiv
  _atom_site_type_symbol
  Fe1      1.0000 0.12360  0.02402  0.12479  Biso   1.000  Fe
  Hf1      1.0000 0.12128  0.24963  0.37596  Biso   1.000  Hf
  Hf2      1.0000 0.37451  0.24974  0.12561  Biso   1.000  Hf
  Hf3      1.0000 0.36205  0.99905  0.36585  Biso   1.000  Hf
  O1       1.0000 0.98760  0.14654  0.99925  Biso   1.000  O 
  O2       1.0000 0.00542  0.09265  0.24160  Biso   1.000  O 
  O3       1.0000 0.99903  0.34749  0.24802  Biso   1.000  O 
  O4       1.0000 0.98674  0.39692  0.99873  Biso   1.000  O 
  O5       1.0000 0.24763  0.14678  0.25048  Biso   1.000  O 
  O6       1.0000 0.24171  0.09279  0.00809  Biso   1.000  O 
  O7       1.0000 0.24771  0.34763  0.00226  Biso   1.000  O 
  O8       1.0000 0.24825  0.39716  0.25146  Biso   1.000  O 
  Hf4      1.0000 0.11755  0.00577  0.62480  Biso   1.000  Hf
  Hf5      1.0000 0.11402  0.24949  0.87391  Biso   1.000  Hf
  Hf6      1.0000 0.36950  0.24865  0.62491  Biso   1.000  Hf
  Hf7      1.0000 0.36689  0.99523  0.87296  Biso   1.000  Hf
  O9       1.0000 0.98623  0.14670  0.49114  Biso   1.000  O 
  O10      1.0000 0.99561  0.10480  0.74856  Biso   1.000  O 
  O11      1.0000 0.98976  0.35353  0.74934  Biso   1.000  O 
  O12      1.0000 0.99591  0.39614  0.49854  Biso   1.000  O 
  O13      1.0000 0.24898  0.14679  0.75859  Biso   1.000  O 
  O14      1.0000 0.23959  0.10481  0.50110  Biso   1.000  O 
  O15      1.0000 0.24543  0.35357  0.50076  Biso   1.000  O 
  O16      1.0000 0.23932  0.39622  0.75166  Biso   1.000  O 
  Hf8      1.0000 0.12355  0.49541  0.12501  Biso   1.000  Hf
  Hf9      1.0000 0.11558  0.74604  0.37260  Biso   1.000  Hf
  Hf10     1.0000 0.37091  0.74632  0.12014  Biso   1.000  Hf
  Hf11     1.0000 0.37189  0.50159  0.37622  Biso   1.000  Hf
  O17      1.0000 0.00085  0.64998  0.00092  Biso   1.000  O 
  O18      1.0000 0.99758  0.59649  0.24954  Biso   1.000  O 
  O19      1.0000 0.96710  0.84015  0.27974  Biso   1.000  O 
  O20      1.0000 0.02638  0.90794  0.02546  Biso   1.000  O 
  O21      1.0000 0.24625  0.64990  0.24923  Biso   1.000  O 
  O22      1.0000 0.24945  0.59667  0.00062  Biso   1.000  O 
  O23      1.0000 0.26919  0.83972  0.96945  Biso   1.000  O 
  O24      1.0000 0.22209  0.90788  0.22349  Biso   1.000  O 
  Hf12     1.0000 0.11769  0.49991  0.62504  Biso   1.000  Hf
  Hf13     1.0000 0.11961  0.74609  0.87775  Biso   1.000  Hf
  Hf14     1.0000 0.36569  0.75291  0.62057  Biso   1.000  Hf
  Hf15     1.0000 0.36767  0.50072  0.87202  Biso   1.000  Hf
  O25      1.0000 0.99226  0.64662  0.50129  Biso   1.000  O 
  O26      1.0000 0.99281  0.60320  0.75016  Biso   1.000  O 
  O27      1.0000 0.98585  0.85345  0.77110  Biso   1.000  O 
  O28      1.0000 0.99252  0.89688  0.51725  Biso   1.000  O 
  O29      1.0000 0.24316  0.64681  0.74874  Biso   1.000  O 
  O30      1.0000 0.24264  0.60322  0.50000  Biso   1.000  O 
  O31      1.0000 0.25016  0.85343  0.47819  Biso   1.000  O 
  O32      1.0000 0.24364  0.89716  0.73206  Biso   1.000  O 
  Hf16     1.0000 0.62355  0.00592  0.12494  Biso   1.000  Hf
  Hf17     1.0000 0.62050  0.24870  0.37676  Biso   1.000  Hf
  Hf18     1.0000 0.87251  0.24971  0.12424  Biso   1.000  Hf
  Hf19     1.0000 0.86911  0.99537  0.37662  Biso   1.000  Hf
  O33      1.0000 0.47955  0.14671  0.99192  Biso   1.000  O 
  O34      1.0000 0.49840  0.10496  0.24544  Biso   1.000  O 
  O35      1.0000 0.49765  0.35369  0.25137  Biso   1.000  O 
  O36      1.0000 0.49828  0.39645  0.00181  Biso   1.000  O 
  O37      1.0000 0.75571  0.14678  0.25788  Biso   1.000  O 
  O38      1.0000 0.74872  0.10497  0.00441  Biso   1.000  O 
  O39      1.0000 0.73741  0.35341  0.99858  Biso   1.000  O 
  O40      1.0000 0.74852  0.39622  0.24819  Biso   1.000  O 
  Hf20     1.0000 0.61795  0.99741  0.62484  Biso   1.000  Hf
  Hf21     1.0000 0.61470  0.24857  0.87302  Biso   1.000  Hf
  Hf22     1.0000 0.86579  0.24862  0.62498  Biso   1.000  Hf
  Hf23     1.0000 0.87389  0.99889  0.88378  Biso   1.000  Hf
  O41      1.0000 0.48608  0.14751  0.49182  Biso   1.000  O 
  O42      1.0000 0.49599  0.10386  0.74507  Biso   1.000  O 
  O43      1.0000 0.48951  0.35469  0.75156  Biso   1.000  O 
  O44      1.0000 0.49559  0.39672  0.50144  Biso   1.000  O 
  O45      1.0000 0.74914  0.14744  0.75800  Biso   1.000  O 
  O46      1.0000 0.73926  0.10385  0.50466  Biso   1.000  O 
  O47      1.0000 0.74573  0.35464  0.49835  Biso   1.000  O 
  O48      1.0000 0.73969  0.39664  0.74846  Biso   1.000  O 
  Hf24     1.0000 0.62350  0.50006  0.12495  Biso   1.000  Hf
  Hf25     1.0000 0.61629  0.75298  0.37292  Biso   1.000  Hf
  Hf26     1.0000 0.87598  0.74612  0.13014  Biso   1.000  Hf
  Hf27     1.0000 0.86769  0.50049  0.37786  Biso   1.000  Hf
  O49      1.0000 0.48952  0.64673  0.99802  Biso   1.000  O 
  O50      1.0000 0.49694  0.60336  0.24839  Biso   1.000  O 
  O51      1.0000 0.47602  0.85362  0.25519  Biso   1.000  O 
  O52      1.0000 0.50629  0.89708  0.99783  Biso   1.000  O 
  O53      1.0000 0.74579  0.64670  0.25189  Biso   1.000  O 
  O54      1.0000 0.75005  0.60338  0.00154  Biso   1.000  O 
  O55      1.0000 0.76020  0.85326  0.99429  Biso   1.000  O 
  O56      1.0000 0.72993  0.89698  0.25155  Biso   1.000  O 
  Hf28     1.0000 0.61771  0.50305  0.62492  Biso   1.000  Hf
  Hf29     1.0000 0.61917  0.75283  0.87706  Biso   1.000  Hf
  Hf30     1.0000 0.86975  0.75290  0.62941  Biso   1.000  Hf
  Hf31     1.0000 0.86348  0.50142  0.87366  Biso   1.000  Hf
  O57      1.0000 0.49208  0.64751  0.49775  Biso   1.000  O 
  O58      1.0000 0.49269  0.60489  0.74849  Biso   1.000  O 
  O59      1.0000 0.48927  0.85284  0.75196  Biso   1.000  O 
  O60      1.0000 0.49428  0.89837  0.49958  Biso   1.000  O 
  O61      1.0000 0.74342  0.64743  0.75208  Biso   1.000  O 
  O62      1.0000 0.74273  0.60487  0.50138  Biso   1.000  O 
  O63      1.0000 0.74672  0.85288  0.49754  Biso   1.000  O 
  O64      1.0000 0.74172  0.89829  0.74996  Biso   1.000  O 
