data_image0
_cell_length_a       10.0297
_cell_length_b       10.1978
_cell_length_c       10.4492
_cell_angle_alpha    90
_cell_angle_beta     90
_cell_angle_gamma    90

_symmetry_space_group_name_H-M    "P 1"
_symmetry_int_tables_number       1

loop_
  _symmetry_equiv_pos_as_xyz
  'x, y, z'

loop_
  _atom_site_label
  _atom_site_occupancy
  _atom_site_fract_x
  _atom_site_fract_y
  _atom_site_fract_z
  _atom_site_thermal_displace_type
  _atom_site_B_iso_or_equiv
  _atom_site_type_symbol
  Ga1      1.0000 0.12164  0.01140  0.18500  Biso   1.000  Ga
  Hf1      1.0000 0.13655  0.22840  0.41755  Biso   1.000  Hf
  Hf2      1.0000 0.35724  0.26787  0.17004  Biso   1.000  Hf
  Hf3      1.0000 0.35927  0.47914  0.42149  Biso   1.000  Hf
  Hf4      1.0000 0.63955  0.02141  0.07758  Biso   1.000  Hf
  Hf5      1.0000 0.63720  0.22984  0.32758  Biso   1.000  Hf
  Hf6      1.0000 0.86969  0.26584  0.08114  Biso   1.000  Hf
  Hf7      1.0000 0.86039  0.47943  0.32858  Biso   1.000  Hf
  O1       1.0000 0.04467  0.15646  0.08709  Biso   1.000  O 
  O2       1.0000 0.02775  0.08347  0.33717  Biso   1.000  O 
  O3       1.0000 0.46859  0.41402  0.08366  Biso   1.000  O 
  O4       1.0000 0.46625  0.33520  0.33406  Biso   1.000  O 
  O5       1.0000 0.27065  0.12140  0.28855  Biso   1.000  O 
  O6       1.0000 0.29623  0.14034  0.03035  Biso   1.000  O 
  O7       1.0000 0.22267  0.37441  0.29573  Biso   1.000  O 
  O8       1.0000 0.22276  0.38091  0.04573  Biso   1.000  O 
  O9       1.0000 0.53345  0.16535  0.16590  Biso   1.000  O 
  O10      1.0000 0.52903  0.08523  0.41493  Biso   1.000  O 
  O11      1.0000 0.96962  0.41399  0.16823  Biso   1.000  O 
  O12      1.0000 0.96508  0.33570  0.41718  Biso   1.000  O 
  O13      1.0000 0.77214  0.12438  0.45551  Biso   1.000  O 
  O14      1.0000 0.77634  0.12544  0.20513  Biso   1.000  O 
  O15      1.0000 0.72196  0.37473  0.45535  Biso   1.000  O 
  O16      1.0000 0.72628  0.37475  0.20511  Biso   1.000  O 
  Hf8      1.0000 0.13442  0.02143  0.66933  Biso   1.000  Hf
  Hf9      1.0000 0.13916  0.22559  0.92325  Biso   1.000  Hf
  Hf10     1.0000 0.35724  0.27175  0.67097  Biso   1.000  Hf
  Hf11     1.0000 0.35679  0.47946  0.92256  Biso   1.000  Hf
  Hf12     1.0000 0.63360  0.02129  0.57813  Biso   1.000  Hf
  Hf13     1.0000 0.63606  0.23002  0.82909  Biso   1.000  Hf
  Hf14     1.0000 0.85833  0.27131  0.57879  Biso   1.000  Hf
  Hf15     1.0000 0.86002  0.47810  0.83111  Biso   1.000  Hf
  O17      1.0000 0.02960  0.16551  0.58224  Biso   1.000  O 
  O18      1.0000 0.02851  0.08596  0.83183  Biso   1.000  O 
  O19      1.0000 0.46538  0.41575  0.58357  Biso   1.000  O 
  O20      1.0000 0.46490  0.33670  0.83269  Biso   1.000  O 
  O21      1.0000 0.27156  0.12276  0.78913  Biso   1.000  O 
  O22      1.0000 0.27306  0.12771  0.54122  Biso   1.000  O 
  O23      1.0000 0.22173  0.37375  0.79598  Biso   1.000  O 
  O24      1.0000 0.22108  0.37692  0.54511  Biso   1.000  O 
  O25      1.0000 0.52939  0.16660  0.66559  Biso   1.000  O 
  O26      1.0000 0.53143  0.08347  0.91344  Biso   1.000  O 
  O27      1.0000 0.96578  0.41395  0.66897  Biso   1.000  O 
  O28      1.0000 0.96631  0.33359  0.92068  Biso   1.000  O 
  O29      1.0000 0.77408  0.12369  0.95560  Biso   1.000  O 
  O30      1.0000 0.77244  0.12678  0.70475  Biso   1.000  O 
  O31      1.0000 0.72249  0.37253  0.95668  Biso   1.000  O 
  O32      1.0000 0.72189  0.37688  0.70584  Biso   1.000  O 
  Hf16     1.0000 0.14058  0.52240  0.17175  Biso   1.000  Hf
  Hf17     1.0000 0.13838  0.73001  0.42113  Biso   1.000  Hf
  Hf18     1.0000 0.35907  0.77604  0.17051  Biso   1.000  Hf
  Hf19     1.0000 0.35860  0.98137  0.41801  Biso   1.000  Hf
  Hf20     1.0000 0.64048  0.51959  0.07855  Biso   1.000  Hf
  Hf21     1.0000 0.63729  0.72904  0.32733  Biso   1.000  Hf
  Hf22     1.0000 0.86333  0.77134  0.07911  Biso   1.000  Hf
  Hf23     1.0000 0.85992  0.97862  0.32989  Biso   1.000  Hf
  O33      1.0000 0.03487  0.66548  0.08370  Biso   1.000  O 
  O34      1.0000 0.03203  0.58577  0.33377  Biso   1.000  O 
  O35      1.0000 0.47226  0.91428  0.08211  Biso   1.000  O 
  O36      1.0000 0.46574  0.83629  0.33272  Biso   1.000  O 
  O37      1.0000 0.27631  0.62543  0.29510  Biso   1.000  O 
  O38      1.0000 0.27910  0.62987  0.04498  Biso   1.000  O 
  O39      1.0000 0.21968  0.87535  0.29314  Biso   1.000  O 
  O40      1.0000 0.22478  0.88448  0.04637  Biso   1.000  O 
  O41      1.0000 0.53204  0.66472  0.16616  Biso   1.000  O 
  O42      1.0000 0.53109  0.58586  0.41680  Biso   1.000  O 
  O43      1.0000 0.96618  0.91353  0.16867  Biso   1.000  O 
  O44      1.0000 0.96577  0.83423  0.41778  Biso   1.000  O 
  O45      1.0000 0.77481  0.62400  0.45489  Biso   1.000  O 
  O46      1.0000 0.77627  0.62605  0.20484  Biso   1.000  O 
  O47      1.0000 0.72195  0.87356  0.45532  Biso   1.000  O 
  O48      1.0000 0.72380  0.87584  0.20522  Biso   1.000  O 
  Hf24     1.0000 0.13727  0.52150  0.67266  Biso   1.000  Hf
  Hf25     1.0000 0.13713  0.73317  0.92284  Biso   1.000  Hf
  Hf26     1.0000 0.35971  0.77227  0.67161  Biso   1.000  Hf
  Hf27     1.0000 0.35771  0.98191  0.92293  Biso   1.000  Hf
  Hf28     1.0000 0.63756  0.52124  0.57879  Biso   1.000  Hf
  Hf29     1.0000 0.63689  0.72950  0.82880  Biso   1.000  Hf
  Hf30     1.0000 0.85925  0.77052  0.57918  Biso   1.000  Hf
  Hf31     1.0000 0.86019  0.97991  0.82849  Biso   1.000  Hf
  O49      1.0000 0.03113  0.66467  0.58391  Biso   1.000  O 
  O50      1.0000 0.03090  0.58605  0.83519  Biso   1.000  O 
  O51      1.0000 0.46554  0.91610  0.58254  Biso   1.000  O 
  O52      1.0000 0.46581  0.83601  0.83293  Biso   1.000  O 
  O53      1.0000 0.27391  0.62485  0.79546  Biso   1.000  O 
  O54      1.0000 0.27483  0.62688  0.54542  Biso   1.000  O 
  O55      1.0000 0.22191  0.87441  0.79477  Biso   1.000  O 
  O56      1.0000 0.22286  0.87715  0.54391  Biso   1.000  O 
  O57      1.0000 0.53118  0.66554  0.66633  Biso   1.000  O 
  O58      1.0000 0.52939  0.58530  0.91643  Biso   1.000  O 
  O59      1.0000 0.96617  0.91479  0.66643  Biso   1.000  O 
  O60      1.0000 0.96410  0.83555  0.91683  Biso   1.000  O 
  O61      1.0000 0.77299  0.62313  0.95525  Biso   1.000  O 
  O62      1.0000 0.77487  0.62582  0.70570  Biso   1.000  O 
  O63      1.0000 0.72153  0.87400  0.95471  Biso   1.000  O 
  O64      1.0000 0.72240  0.87656  0.70504  Biso   1.000  O 
