data_image0
_cell_length_a       5.05844
_cell_length_b       10.2071
_cell_length_c       10.4535
_cell_angle_alpha    90
_cell_angle_beta     80
_cell_angle_gamma    90

_symmetry_space_group_name_H-M    "P 1"
_symmetry_int_tables_number       1

loop_
  _symmetry_equiv_pos_as_xyz
  'x, y, z'

loop_
  _atom_site_label
  _atom_site_occupancy
  _atom_site_fract_x
  _atom_site_fract_y
  _atom_site_fract_z
  _atom_site_thermal_displace_type
  _atom_site_B_iso_or_equiv
  _atom_site_type_symbol
  Ga1      1.0000 0.24800  0.01087  0.15822  Biso   1.000  Ga
  Hf1      1.0000 0.27044  0.22504  0.39125  Biso   1.000  Hf
  Hf2      1.0000 0.73034  0.26218  0.10458  Biso   1.000  Hf
  Hf3      1.0000 0.71869  0.47726  0.35414  Biso   1.000  Hf
  O1       1.0000 0.09015  0.15743  0.07844  Biso   1.000  O 
  O2       1.0000 0.05317  0.08117  0.32912  Biso   1.000  O 
  O3       1.0000 0.93814  0.41289  0.17265  Biso   1.000  O 
  O4       1.0000 0.92618  0.33237  0.42215  Biso   1.000  O 
  O5       1.0000 0.53625  0.11976  0.23302  Biso   1.000  O 
  O6       1.0000 0.54186  0.12095  0.48714  Biso   1.000  O 
  O7       1.0000 0.46159  0.38077  0.01085  Biso   1.000  O 
  O8       1.0000 0.45240  0.36704  0.25936  Biso   1.000  O 
  Hf4      1.0000 0.26240  0.01948  0.64505  Biso   1.000  Hf
  Hf5      1.0000 0.27063  0.22370  0.89855  Biso   1.000  Hf
  Hf6      1.0000 0.71144  0.27013  0.60423  Biso   1.000  Hf
  Hf7      1.0000 0.71285  0.47636  0.85844  Biso   1.000  Hf
  O9       1.0000 0.05745  0.16473  0.57656  Biso   1.000  O 
  O10      1.0000 0.05770  0.08131  0.82757  Biso   1.000  O 
  O11      1.0000 0.92458  0.41360  0.67511  Biso   1.000  O 
  O12      1.0000 0.92968  0.33451  0.92805  Biso   1.000  O 
  O13      1.0000 0.53876  0.12586  0.73565  Biso   1.000  O 
  O14      1.0000 0.57151  0.13250  0.97582  Biso   1.000  O 
  O15      1.0000 0.43948  0.37748  0.51017  Biso   1.000  O 
  O16      1.0000 0.44090  0.36931  0.76214  Biso   1.000  O 
  Hf8      1.0000 0.28223  0.52021  0.14543  Biso   1.000  Hf
  Hf9      1.0000 0.27703  0.72698  0.39660  Biso   1.000  Hf
  Hf10     1.0000 0.72118  0.77540  0.10556  Biso   1.000  Hf
  Hf11     1.0000 0.71884  0.97697  0.35290  Biso   1.000  Hf
  O17      1.0000 0.07306  0.66732  0.07976  Biso   1.000  O 
  O18      1.0000 0.07000  0.58036  0.32960  Biso   1.000  O 
  O19      1.0000 0.93857  0.91297  0.17446  Biso   1.000  O 
  O20      1.0000 0.92826  0.83040  0.42278  Biso   1.000  O 
  O21      1.0000 0.55554  0.62678  0.24056  Biso   1.000  O 
  O22      1.0000 0.55015  0.61932  0.49214  Biso   1.000  O 
  O23      1.0000 0.45316  0.89277  0.01456  Biso   1.000  O 
  O24      1.0000 0.44539  0.86782  0.26107  Biso   1.000  O 
  Hf12     1.0000 0.27286  0.51901  0.64838  Biso   1.000  Hf
  Hf13     1.0000 0.26647  0.73033  0.89976  Biso   1.000  Hf
  Hf14     1.0000 0.71727  0.76911  0.60675  Biso   1.000  Hf
  Hf15     1.0000 0.71639  0.97981  0.85655  Biso   1.000  Hf
  O25      1.0000 0.06473  0.66462  0.58087  Biso   1.000  O 
  O26      1.0000 0.05972  0.58334  0.83153  Biso   1.000  O 
  O27      1.0000 0.92813  0.91495  0.67226  Biso   1.000  O 
  O28      1.0000 0.91520  0.83121  0.92455  Biso   1.000  O 
  O29      1.0000 0.54502  0.62692  0.74312  Biso   1.000  O 
  O30      1.0000 0.53726  0.62188  0.99235  Biso   1.000  O 
  O31      1.0000 0.44503  0.87656  0.51094  Biso   1.000  O 
  O32      1.0000 0.44209  0.86964  0.76220  Biso   1.000  O 
