data_image0
_cell_length_a       10.2927
_cell_length_b       5.33759
_cell_length_c       10.2679
_cell_angle_alpha    90
_cell_angle_beta     90
_cell_angle_gamma    90

_symmetry_space_group_name_H-M    "P 1"
_symmetry_int_tables_number       1

loop_
  _symmetry_equiv_pos_as_xyz
  'x, y, z'

loop_
  _atom_site_label
  _atom_site_occupancy
  _atom_site_fract_x
  _atom_site_fract_y
  _atom_site_fract_z
  _atom_site_thermal_displace_type
  _atom_site_B_iso_or_equiv
  _atom_site_type_symbol
  Hf1      1.0000 0.11006  0.84759  0.15304  Biso   1.000  Hf
  Hf2      1.0000 0.10640  0.34692  0.36530  Biso   1.000  Hf
  Hf3      1.0000 0.33998  0.38887  0.14216  Biso   1.000  Hf
  Hf4      1.0000 0.42042  0.90698  0.35691  Biso   1.000  Hf
  O1       1.0000 0.02492  0.98805  0.97273  Biso   1.000  O 
  O2       1.0000 0.01427  0.04291  0.26079  Biso   1.000  O 
  O3       1.0000 0.96353  0.56534  0.24966  Biso   1.000  O 
  O4       1.0000 0.96437  0.81824  0.00531  Biso   1.000  O 
  O5       1.0000 0.26503  0.13180  0.29066  Biso   1.000  O 
  O6       1.0000 0.29485  0.06426  0.03642  Biso   1.000  O 
  O7       1.0000 0.19613  0.58347  0.01636  Biso   1.000  O 
  O8       1.0000 0.23544  0.63898  0.28256  Biso   1.000  O 
  Hf5      1.0000 0.13923  0.69959  0.63751  Biso   1.000  Hf
  Hf6      1.0000 0.13439  0.20330  0.83876  Biso   1.000  Hf
  Hf7      1.0000 0.37039  0.23395  0.62097  Biso   1.000  Hf
  Hf8      1.0000 0.45422  0.73806  0.84879  Biso   1.000  Hf
  O9       1.0000 0.00834  0.12212  0.49646  Biso   1.000  O 
  O10      1.0000 0.05106  0.89280  0.74421  Biso   1.000  O 
  O11      1.0000 0.00316  0.40902  0.73495  Biso   1.000  O 
  O12      1.0000 0.99475  0.60839  0.49850  Biso   1.000  O 
  O13      1.0000 0.28685  0.99358  0.76092  Biso   1.000  O 
  O14      1.0000 0.30749  0.91086  0.52251  Biso   1.000  O 
  O15      1.0000 0.22498  0.40521  0.52645  Biso   1.000  O 
  O16      1.0000 0.25830  0.49205  0.76311  Biso   1.000  O 
  Hf9      1.0000 0.65122  0.97420  0.12611  Biso   1.000  Hf
  Hf10     1.0000 0.59259  0.45192  0.34401  Biso   1.000  Hf
  Hf11     1.0000 0.81594  0.50261  0.10897  Biso   1.000  Hf
  Hf12     1.0000 0.86779  0.82781  0.39133  Biso   1.000  Hf
  O17      1.0000 0.51713  0.05658  0.95217  Biso   1.000  O 
  O18      1.0000 0.49893  0.16417  0.21767  Biso   1.000  O 
  O19      1.0000 0.47511  0.66149  0.21609  Biso   1.000  O 
  O20      1.0000 0.54638  0.55932  0.94412  Biso   1.000  O 
  O21      1.0000 0.73234  0.26684  0.23663  Biso   1.000  O 
  O22      1.0000 0.80900  0.84674  0.98013  Biso   1.000  O 
  O23      1.0000 0.77084  0.36158  0.96945  Biso   1.000  O 
  O24      1.0000 0.72187  0.75177  0.24300  Biso   1.000  O 
  Hf13     1.0000 0.68502  0.79504  0.61823  Biso   1.000  Hf
  Hf14     1.0000 0.62490  0.27249  0.82984  Biso   1.000  Hf
  Hf15     1.0000 0.86334  0.30694  0.59228  Biso   1.000  Hf
  Hf16     1.0000 0.89694  0.66291  0.87064  Biso   1.000  Hf
  O25      1.0000 0.48889  0.22489  0.46212  Biso   1.000  O 
  O26      1.0000 0.53305  0.98885  0.70765  Biso   1.000  O 
  O27      1.0000 0.50517  0.48598  0.70651  Biso   1.000  O 
  O28      1.0000 0.50945  0.72671  0.46163  Biso   1.000  O 
  O29      1.0000 0.77042  0.08782  0.72736  Biso   1.000  O 
  O30      1.0000 0.77603  0.01904  0.48814  Biso   1.000  O 
  O31      1.0000 0.74049  0.52824  0.48136  Biso   1.000  O 
  O32      1.0000 0.75762  0.57057  0.73118  Biso   1.000  O 
  Ga1      1.0000 0.09292  0.30450  0.10858  Biso   1.000  Ga
