data_image0
_cell_length_a       10.0916
_cell_length_b       10.2842
_cell_length_c       5.27137
_cell_angle_alpha    90
_cell_angle_beta     90
_cell_angle_gamma    90

_symmetry_space_group_name_H-M    "P 1"
_symmetry_int_tables_number       1

loop_
  _symmetry_equiv_pos_as_xyz
  'x, y, z'

loop_
  _atom_site_label
  _atom_site_occupancy
  _atom_site_fract_x
  _atom_site_fract_y
  _atom_site_fract_z
  _atom_site_thermal_displace_type
  _atom_site_B_iso_or_equiv
  _atom_site_type_symbol
  Hf1      1.0000 0.13459  0.01849  0.34937  Biso   1.000  Hf
  Hf2      1.0000 0.12438  0.22717  0.85649  Biso   1.000  Hf
  Hf3      1.0000 0.33802  0.27067  0.37968  Biso   1.000  Hf
  Hf4      1.0000 0.34539  0.48282  0.85129  Biso   1.000  Hf
  Hf5      1.0000 0.64150  0.01794  0.14378  Biso   1.000  Hf
  Hf6      1.0000 0.63425  0.22539  0.66881  Biso   1.000  Hf
  Hf7      1.0000 0.86149  0.26887  0.14610  Biso   1.000  Hf
  Hf8      1.0000 0.85502  0.48014  0.64491  Biso   1.000  Hf
  O1       1.0000 0.03301  0.16587  0.17522  Biso   1.000  O 
  O2       1.0000 0.02635  0.08314  0.66754  Biso   1.000  O 
  O3       1.0000 0.46499  0.41383  0.18333  Biso   1.000  O 
  O4       1.0000 0.45658  0.33494  0.68602  Biso   1.000  O 
  O5       1.0000 0.26488  0.12442  0.60687  Biso   1.000  O 
  O6       1.0000 0.27598  0.12436  0.10544  Biso   1.000  O 
  O7       1.0000 0.20895  0.37529  0.61078  Biso   1.000  O 
  O8       1.0000 0.22149  0.37647  0.10839  Biso   1.000  O 
  O9       1.0000 0.51181  0.15837  0.36474  Biso   1.000  O 
  O10      1.0000 0.52318  0.07139  0.81932  Biso   1.000  O 
  O11      1.0000 0.95943  0.41563  0.33008  Biso   1.000  O 
  O12      1.0000 0.95829  0.33487  0.83486  Biso   1.000  O 
  O13      1.0000 0.77858  0.11865  0.89295  Biso   1.000  O 
  O14      1.0000 0.76849  0.12439  0.40039  Biso   1.000  O 
  O15      1.0000 0.72171  0.38986  0.88740  Biso   1.000  O 
  O16      1.0000 0.70864  0.37224  0.38555  Biso   1.000  O 
  Hf9      1.0000 0.13179  0.52278  0.34570  Biso   1.000  Hf
  Hf10     1.0000 0.12560  0.72968  0.84651  Biso   1.000  Hf
  Hf11     1.0000 0.35615  0.77094  0.35190  Biso   1.000  Hf
  Hf12     1.0000 0.34846  0.97601  0.85394  Biso   1.000  Hf
  Hf13     1.0000 0.64521  0.53871  0.14582  Biso   1.000  Hf
  Hf14     1.0000 0.62953  0.73164  0.65309  Biso   1.000  Hf
  Hf15     1.0000 0.86036  0.77260  0.15253  Biso   1.000  Hf
  Hf16     1.0000 0.85414  0.97811  0.64989  Biso   1.000  Hf
  O17      1.0000 0.03117  0.66545  0.16611  Biso   1.000  O 
  O18      1.0000 0.02526  0.58409  0.66879  Biso   1.000  O 
  O19      1.0000 0.46730  0.91291  0.17277  Biso   1.000  O 
  O20      1.0000 0.45567  0.83161  0.67461  Biso   1.000  O 
  O21      1.0000 0.26587  0.62459  0.59628  Biso   1.000  O 
  O22      1.0000 0.27477  0.62434  0.09627  Biso   1.000  O 
  O23      1.0000 0.21488  0.87362  0.59845  Biso   1.000  O 
  O24      1.0000 0.22226  0.87424  0.09918  Biso   1.000  O 
  O25      1.0000 0.52546  0.66364  0.33956  Biso   1.000  O 
  O26      1.0000 0.51847  0.58787  0.83715  Biso   1.000  O 
  O27      1.0000 0.96303  0.91643  0.32816  Biso   1.000  O 
  O28      1.0000 0.95560  0.83476  0.83063  Biso   1.000  O 
  O29      1.0000 0.76752  0.63086  0.89527  Biso   1.000  O 
  O30      1.0000 0.77631  0.62931  0.40456  Biso   1.000  O 
  O31      1.0000 0.71244  0.87772  0.90542  Biso   1.000  O 
  O32      1.0000 0.71877  0.87439  0.40603  Biso   1.000  O 
  Ga1      1.0000 0.58110  0.27652  0.12267  Biso   1.000  Ga
