data_image0
_cell_length_a       4.97655
_cell_length_b       10.3392
_cell_length_c       10.0081
_cell_angle_alpha    90
_cell_angle_beta     90
_cell_angle_gamma    90

_symmetry_space_group_name_H-M    "P 1"
_symmetry_int_tables_number       1

loop_
  _symmetry_equiv_pos_as_xyz
  'x, y, z'

loop_
  _atom_site_label
  _atom_site_occupancy
  _atom_site_fract_x
  _atom_site_fract_y
  _atom_site_fract_z
  _atom_site_thermal_displace_type
  _atom_site_B_iso_or_equiv
  _atom_site_type_symbol
  Ga1      1.0000 0.25102  0.02426  0.11016  Biso   1.000  Ga
  Hf1      1.0000 0.27197  0.22334  0.37244  Biso   1.000  Hf
  Hf2      1.0000 0.72410  0.26049  0.12236  Biso   1.000  Hf
  Hf3      1.0000 0.73472  0.47757  0.37618  Biso   1.000  Hf
  O1       1.0000 0.05533  0.17805  0.19718  Biso   1.000  O 
  O2       1.0000 0.07602  0.06055  0.44860  Biso   1.000  O 
  O3       1.0000 0.93103  0.42809  0.19576  Biso   1.000  O 
  O4       1.0000 0.93560  0.31023  0.44359  Biso   1.000  O 
  O5       1.0000 0.52233  0.10220  0.24027  Biso   1.000  O 
  O6       1.0000 0.55150  0.12743  0.49402  Biso   1.000  O 
  O7       1.0000 0.46351  0.37659  0.49841  Biso   1.000  O 
  O8       1.0000 0.45992  0.35825  0.24762  Biso   1.000  O 
  Hf4      1.0000 0.27648  0.00963  0.62506  Biso   1.000  Hf
  Hf5      1.0000 0.27577  0.22730  0.87302  Biso   1.000  Hf
  Hf6      1.0000 0.73845  0.25978  0.62339  Biso   1.000  Hf
  Hf7      1.0000 0.74028  0.47775  0.87508  Biso   1.000  Hf
  O9       1.0000 0.08065  0.17915  0.69296  Biso   1.000  O 
  O10      1.0000 0.07780  0.06098  0.94374  Biso   1.000  O 
  O11      1.0000 0.93594  0.42769  0.69460  Biso   1.000  O 
  O12      1.0000 0.93876  0.31006  0.94433  Biso   1.000  O 
  O13      1.0000 0.55143  0.11105  0.74580  Biso   1.000  O 
  O14      1.0000 0.54755  0.12711  0.99334  Biso   1.000  O 
  O15      1.0000 0.47003  0.37504  0.99742  Biso   1.000  O 
  O16      1.0000 0.46762  0.36204  0.74794  Biso   1.000  O 
  Hf8      1.0000 0.26632  0.51359  0.12620  Biso   1.000  Hf
  Hf9      1.0000 0.27556  0.72988  0.37785  Biso   1.000  Hf
  Hf10     1.0000 0.73543  0.76489  0.12436  Biso   1.000  Hf
  Hf11     1.0000 0.72942  0.97940  0.36883  Biso   1.000  Hf
  O17      1.0000 0.06910  0.68053  0.19927  Biso   1.000  O 
  O18      1.0000 0.07444  0.56015  0.44636  Biso   1.000  O 
  O19      1.0000 0.95974  0.93048  0.19480  Biso   1.000  O 
  O20      1.0000 0.93980  0.81344  0.45063  Biso   1.000  O 
  O21      1.0000 0.54053  0.60535  0.24879  Biso   1.000  O 
  O22      1.0000 0.54713  0.62785  0.50047  Biso   1.000  O 
  O23      1.0000 0.46603  0.87879  0.50268  Biso   1.000  O 
  O24      1.0000 0.49866  0.84755  0.26004  Biso   1.000  O 
  Hf12     1.0000 0.27551  0.51118  0.62613  Biso   1.000  Hf
  Hf13     1.0000 0.27361  0.72931  0.87993  Biso   1.000  Hf
  Hf14     1.0000 0.73773  0.76260  0.62813  Biso   1.000  Hf
  Hf15     1.0000 0.72545  0.97811  0.87906  Biso   1.000  Hf
  O25      1.0000 0.07625  0.67755  0.69768  Biso   1.000  O 
  O26      1.0000 0.07624  0.56063  0.94878  Biso   1.000  O 
  O27      1.0000 0.93021  0.92862  0.69826  Biso   1.000  O 
  O28      1.0000 0.92534  0.80956  0.94144  Biso   1.000  O 
  O29      1.0000 0.54587  0.61245  0.75117  Biso   1.000  O 
  O30      1.0000 0.53030  0.63546  0.00041  Biso   1.000  O 
  O31      1.0000 0.43970  0.88951  0.01061  Biso   1.000  O 
  O32      1.0000 0.45962  0.86165  0.75330  Biso   1.000  O 
