data_image0
_cell_length_a       10.0344
_cell_length_b       10.1665
_cell_length_c       5.22099
_cell_angle_alpha    90
_cell_angle_beta     90
_cell_angle_gamma    90

_symmetry_space_group_name_H-M    "P 1"
_symmetry_int_tables_number       1

loop_
  _symmetry_equiv_pos_as_xyz
  'x, y, z'

loop_
  _atom_site_label
  _atom_site_occupancy
  _atom_site_fract_x
  _atom_site_fract_y
  _atom_site_fract_z
  _atom_site_thermal_displace_type
  _atom_site_B_iso_or_equiv
  _atom_site_type_symbol
  Ga1      1.0000 0.12170  0.00966  0.36619  Biso   1.000  Ga
  Hf1      1.0000 0.13883  0.22513  0.83552  Biso   1.000  Hf
  Hf2      1.0000 0.35640  0.26820  0.33758  Biso   1.000  Hf
  Hf3      1.0000 0.35780  0.47845  0.84499  Biso   1.000  Hf
  Hf4      1.0000 0.63710  0.02108  0.15427  Biso   1.000  Hf
  Hf5      1.0000 0.63696  0.22981  0.65636  Biso   1.000  Hf
  Hf6      1.0000 0.86959  0.26566  0.16326  Biso   1.000  Hf
  Hf7      1.0000 0.86213  0.47750  0.66316  Biso   1.000  Hf
  O1       1.0000 0.04463  0.15385  0.16752  Biso   1.000  O 
  O2       1.0000 0.02487  0.08493  0.66942  Biso   1.000  O 
  O3       1.0000 0.46974  0.41429  0.16759  Biso   1.000  O 
  O4       1.0000 0.46660  0.33588  0.66574  Biso   1.000  O 
  O5       1.0000 0.26615  0.11666  0.55647  Biso   1.000  O 
  O6       1.0000 0.29903  0.14549  0.04391  Biso   1.000  O 
  O7       1.0000 0.22363  0.37279  0.59272  Biso   1.000  O 
  O8       1.0000 0.22286  0.38222  0.09169  Biso   1.000  O 
  O9       1.0000 0.53277  0.16628  0.32914  Biso   1.000  O 
  O10      1.0000 0.53044  0.08210  0.82237  Biso   1.000  O 
  O11      1.0000 0.97188  0.41058  0.34413  Biso   1.000  O 
  O12      1.0000 0.96711  0.33425  0.84531  Biso   1.000  O 
  O13      1.0000 0.77222  0.12284  0.91264  Biso   1.000  O 
  O14      1.0000 0.77511  0.12522  0.40985  Biso   1.000  O 
  O15      1.0000 0.72371  0.37185  0.91489  Biso   1.000  O 
  O16      1.0000 0.72750  0.37468  0.41243  Biso   1.000  O 
  Hf8      1.0000 0.14168  0.52257  0.34621  Biso   1.000  Hf
  Hf9      1.0000 0.13886  0.73269  0.84655  Biso   1.000  Hf
  Hf10     1.0000 0.36066  0.77683  0.34264  Biso   1.000  Hf
  Hf11     1.0000 0.35768  0.98248  0.83886  Biso   1.000  Hf
  Hf12     1.0000 0.64219  0.51936  0.15816  Biso   1.000  Hf
  Hf13     1.0000 0.63806  0.72814  0.65583  Biso   1.000  Hf
  Hf14     1.0000 0.86425  0.77031  0.16035  Biso   1.000  Hf
  Hf15     1.0000 0.86080  0.97825  0.66019  Biso   1.000  Hf
  O17      1.0000 0.03566  0.66428  0.16896  Biso   1.000  O 
  O18      1.0000 0.03271  0.58674  0.67104  Biso   1.000  O 
  O19      1.0000 0.47305  0.91474  0.16158  Biso   1.000  O 
  O20      1.0000 0.46777  0.83675  0.66440  Biso   1.000  O 
  O21      1.0000 0.27696  0.62478  0.59136  Biso   1.000  O 
  O22      1.0000 0.28066  0.63132  0.09093  Biso   1.000  O 
  O23      1.0000 0.22091  0.87313  0.59066  Biso   1.000  O 
  O24      1.0000 0.22587  0.88805  0.09551  Biso   1.000  O 
  O25      1.0000 0.53327  0.66472  0.33175  Biso   1.000  O 
  O26      1.0000 0.53068  0.58470  0.83324  Biso   1.000  O 
  O27      1.0000 0.96873  0.91215  0.33974  Biso   1.000  O 
  O28      1.0000 0.96569  0.83514  0.83881  Biso   1.000  O 
  O29      1.0000 0.77425  0.62200  0.91117  Biso   1.000  O 
  O30      1.0000 0.77778  0.62485  0.41187  Biso   1.000  O 
  O31      1.0000 0.72235  0.87215  0.91049  Biso   1.000  O 
  O32      1.0000 0.72535  0.87545  0.41066  Biso   1.000  O 
