data_image0
_cell_length_a       10.1199
_cell_length_b       10.236
_cell_length_c       10.4547
_cell_angle_alpha    90
_cell_angle_beta     80
_cell_angle_gamma    90

_symmetry_space_group_name_H-M    "P 1"
_symmetry_int_tables_number       1

loop_
  _symmetry_equiv_pos_as_xyz
  'x, y, z'

loop_
  _atom_site_label
  _atom_site_occupancy
  _atom_site_fract_x
  _atom_site_fract_y
  _atom_site_fract_z
  _atom_site_thermal_displace_type
  _atom_site_B_iso_or_equiv
  _atom_site_type_symbol
  Ga1      1.0000 0.12420  0.01158  0.15733  Biso   1.000  Ga
  Hf1      1.0000 0.13580  0.22561  0.39150  Biso   1.000  Hf
  Hf2      1.0000 0.35755  0.26670  0.10308  Biso   1.000  Hf
  Hf3      1.0000 0.35946  0.47754  0.35367  Biso   1.000  Hf
  O1       1.0000 0.04364  0.15886  0.07902  Biso   1.000  O 
  O2       1.0000 0.03019  0.07926  0.33077  Biso   1.000  O 
  O3       1.0000 0.46528  0.41538  0.17125  Biso   1.000  O 
  O4       1.0000 0.46375  0.33247  0.42158  Biso   1.000  O 
  O5       1.0000 0.26922  0.12191  0.23300  Biso   1.000  O 
  O6       1.0000 0.27286  0.12148  0.48639  Biso   1.000  O 
  O7       1.0000 0.22542  0.38239  0.00894  Biso   1.000  O 
  O8       1.0000 0.22329  0.36887  0.25912  Biso   1.000  O 
  Hf4      1.0000 0.13331  0.02006  0.64441  Biso   1.000  Hf
  Hf5      1.0000 0.13636  0.22359  0.89683  Biso   1.000  Hf
  Hf6      1.0000 0.35642  0.27058  0.60359  Biso   1.000  Hf
  Hf7      1.0000 0.35573  0.47814  0.85581  Biso   1.000  Hf
  O9       1.0000 0.03089  0.16617  0.57746  Biso   1.000  O 
  O10      1.0000 0.02851  0.08147  0.82779  Biso   1.000  O 
  O11      1.0000 0.46164  0.41605  0.67219  Biso   1.000  O 
  O12      1.0000 0.46370  0.33618  0.92340  Biso   1.000  O 
  O13      1.0000 0.27022  0.12618  0.73537  Biso   1.000  O 
  O14      1.0000 0.28593  0.13370  0.97516  Biso   1.000  O 
  O15      1.0000 0.22045  0.37824  0.50915  Biso   1.000  O 
  O16      1.0000 0.22056  0.36943  0.76043  Biso   1.000  O 
  Hf8      1.0000 0.14063  0.52184  0.14568  Biso   1.000  Hf
  Hf9      1.0000 0.13861  0.72768  0.39624  Biso   1.000  Hf
  Hf10     1.0000 0.35919  0.77531  0.10474  Biso   1.000  Hf
  Hf11     1.0000 0.35871  0.97872  0.35118  Biso   1.000  Hf
  O17      1.0000 0.03645  0.66782  0.07959  Biso   1.000  O 
  O18      1.0000 0.03428  0.58126  0.32970  Biso   1.000  O 
  O19      1.0000 0.46837  0.91630  0.17141  Biso   1.000  O 
  O20      1.0000 0.46358  0.83206  0.42093  Biso   1.000  O 
  O21      1.0000 0.27688  0.62782  0.24038  Biso   1.000  O 
  O22      1.0000 0.27512  0.62035  0.49119  Biso   1.000  O 
  O23      1.0000 0.22445  0.89190  0.01423  Biso   1.000  O 
  O24      1.0000 0.22211  0.86856  0.26040  Biso   1.000  O 
  Hf12     1.0000 0.13699  0.52013  0.64709  Biso   1.000  Hf
  Hf13     1.0000 0.13514  0.73089  0.89803  Biso   1.000  Hf
  Hf14     1.0000 0.35889  0.77141  0.60525  Biso   1.000  Hf
  Hf15     1.0000 0.35741  0.98104  0.85651  Biso   1.000  Hf
  O25      1.0000 0.03254  0.66578  0.58077  Biso   1.000  O 
  O26      1.0000 0.03179  0.58230  0.83163  Biso   1.000  O 
  O27      1.0000 0.46348  0.91708  0.67172  Biso   1.000  O 
  O28      1.0000 0.45886  0.83194  0.92286  Biso   1.000  O 
  O29      1.0000 0.27294  0.62862  0.74145  Biso   1.000  O 
  O30      1.0000 0.27087  0.62359  0.99147  Biso   1.000  O 
  O31      1.0000 0.22218  0.87808  0.50988  Biso   1.000  O 
  O32      1.0000 0.22080  0.87081  0.76111  Biso   1.000  O 
  Hf16     1.0000 0.63807  0.02146  0.14628  Biso   1.000  Hf
  Hf17     1.0000 0.63700  0.22778  0.39599  Biso   1.000  Hf
  Hf18     1.0000 0.86827  0.26635  0.10517  Biso   1.000  Hf
  Hf19     1.0000 0.85940  0.47802  0.35453  Biso   1.000  Hf
  O33      1.0000 0.53578  0.16783  0.07908  Biso   1.000  O 
  O34      1.0000 0.53076  0.08325  0.32844  Biso   1.000  O 
  O35      1.0000 0.96753  0.41578  0.17197  Biso   1.000  O 
  O36      1.0000 0.96234  0.33139  0.42134  Biso   1.000  O 
  O37      1.0000 0.77485  0.12703  0.24157  Biso   1.000  O 
  O38      1.0000 0.77257  0.12025  0.49184  Biso   1.000  O 
  O39      1.0000 0.72882  0.37724  0.01111  Biso   1.000  O 
  O40      1.0000 0.72495  0.36923  0.25993  Biso   1.000  O 
  Hf20     1.0000 0.63409  0.02050  0.64717  Biso   1.000  Hf
  Hf21     1.0000 0.63428  0.22850  0.89826  Biso   1.000  Hf
  Hf22     1.0000 0.85768  0.27049  0.60515  Biso   1.000  Hf
  Hf23     1.0000 0.85820  0.47648  0.85732  Biso   1.000  Hf
  O41      1.0000 0.53052  0.16649  0.57919  Biso   1.000  O 
  O42      1.0000 0.53199  0.08129  0.82990  Biso   1.000  O 
  O43      1.0000 0.96290  0.41537  0.67369  Biso   1.000  O 
  O44      1.0000 0.96243  0.33010  0.92533  Biso   1.000  O 
  O45      1.0000 0.77256  0.12835  0.74131  Biso   1.000  O 
  O46      1.0000 0.77097  0.11900  0.99243  Biso   1.000  O 
  O47      1.0000 0.72072  0.37787  0.51090  Biso   1.000  O 
  O48      1.0000 0.72043  0.37080  0.76159  Biso   1.000  O 
  Hf24     1.0000 0.63875  0.51941  0.14562  Biso   1.000  Hf
  Hf25     1.0000 0.63729  0.72792  0.39632  Biso   1.000  Hf
  Hf26     1.0000 0.86222  0.77145  0.10521  Biso   1.000  Hf
  Hf27     1.0000 0.86044  0.97684  0.35595  Biso   1.000  Hf
  O49      1.0000 0.53490  0.66734  0.07945  Biso   1.000  O 
  O50      1.0000 0.53436  0.58078  0.32961  Biso   1.000  O 
  O51      1.0000 0.96498  0.91512  0.17354  Biso   1.000  O 
  O52      1.0000 0.96360  0.82986  0.42287  Biso   1.000  O 
  O53      1.0000 0.77621  0.62774  0.24078  Biso   1.000  O 
  O54      1.0000 0.77425  0.61979  0.49165  Biso   1.000  O 
  O55      1.0000 0.72572  0.87905  0.00991  Biso   1.000  O 
  O56      1.0000 0.72339  0.87009  0.26065  Biso   1.000  O 
  Hf28     1.0000 0.63586  0.52008  0.64742  Biso   1.000  Hf
  Hf29     1.0000 0.63343  0.72763  0.89837  Biso   1.000  Hf
  Hf30     1.0000 0.85818  0.76903  0.60605  Biso   1.000  Hf
  Hf31     1.0000 0.85780  0.97755  0.85535  Biso   1.000  Hf
  O57      1.0000 0.53239  0.66661  0.57982  Biso   1.000  O 
  O58      1.0000 0.52958  0.58292  0.82937  Biso   1.000  O 
  O59      1.0000 0.96256  0.91569  0.67183  Biso   1.000  O 
  O60      1.0000 0.95990  0.83100  0.92287  Biso   1.000  O 
  O61      1.0000 0.77287  0.62704  0.74252  Biso   1.000  O 
  O62      1.0000 0.77008  0.61875  0.99192  Biso   1.000  O 
  O63      1.0000 0.72167  0.87713  0.51117  Biso   1.000  O 
  O64      1.0000 0.72059  0.86974  0.76134  Biso   1.000  O 
