data_image0
_cell_length_a       10.0357
_cell_length_b       5.08478
_cell_length_c       10.4331
_cell_angle_alpha    90
_cell_angle_beta     90
_cell_angle_gamma    90

_symmetry_space_group_name_H-M    "P 1"
_symmetry_int_tables_number       1

loop_
  _symmetry_equiv_pos_as_xyz
  'x, y, z'

loop_
  _atom_site_label
  _atom_site_occupancy
  _atom_site_fract_x
  _atom_site_fract_y
  _atom_site_fract_z
  _atom_site_thermal_displace_type
  _atom_site_B_iso_or_equiv
  _atom_site_type_symbol
  Ga1      1.0000 0.12281  0.02040  0.18323  Biso   1.000  Ga
  Hf1      1.0000 0.13476  0.45507  0.41666  Biso   1.000  Hf
  Hf2      1.0000 0.35364  0.54625  0.17014  Biso   1.000  Hf
  Hf3      1.0000 0.35544  0.96029  0.41786  Biso   1.000  Hf
  Hf4      1.0000 0.63976  0.03905  0.07789  Biso   1.000  Hf
  Hf5      1.0000 0.63446  0.45766  0.32719  Biso   1.000  Hf
  Hf6      1.0000 0.86947  0.53130  0.08180  Biso   1.000  Hf
  Hf7      1.0000 0.85787  0.95603  0.33040  Biso   1.000  Hf
  O1       1.0000 0.04578  0.31495  0.08788  Biso   1.000  O 
  O2       1.0000 0.02611  0.16396  0.33692  Biso   1.000  O 
  O3       1.0000 0.47171  0.82740  0.08296  Biso   1.000  O 
  O4       1.0000 0.46323  0.66875  0.33399  Biso   1.000  O 
  O5       1.0000 0.26889  0.24029  0.28609  Biso   1.000  O 
  O6       1.0000 0.29880  0.29560  0.02775  Biso   1.000  O 
  O7       1.0000 0.21737  0.74682  0.29521  Biso   1.000  O 
  O8       1.0000 0.22148  0.78723  0.04990  Biso   1.000  O 
  O9       1.0000 0.53154  0.33021  0.16488  Biso   1.000  O 
  O10      1.0000 0.52647  0.16734  0.41379  Biso   1.000  O 
  O11      1.0000 0.96683  0.82447  0.16976  Biso   1.000  O 
  O12      1.0000 0.96199  0.66514  0.41729  Biso   1.000  O 
  O13      1.0000 0.76930  0.24649  0.45575  Biso   1.000  O 
  O14      1.0000 0.77489  0.24889  0.20519  Biso   1.000  O 
  O15      1.0000 0.71910  0.74624  0.45607  Biso   1.000  O 
  O16      1.0000 0.72492  0.74720  0.20556  Biso   1.000  O 
  Hf8      1.0000 0.13124  0.04066  0.66991  Biso   1.000  Hf
  Hf9      1.0000 0.13484  0.45751  0.92341  Biso   1.000  Hf
  Hf10     1.0000 0.35449  0.54345  0.67093  Biso   1.000  Hf
  Hf11     1.0000 0.35171  0.96341  0.92442  Biso   1.000  Hf
  Hf12     1.0000 0.63039  0.04024  0.57859  Biso   1.000  Hf
  Hf13     1.0000 0.63237  0.45814  0.82932  Biso   1.000  Hf
  Hf14     1.0000 0.85525  0.53846  0.57981  Biso   1.000  Hf
  Hf15     1.0000 0.85758  0.95486  0.83100  Biso   1.000  Hf
  O17      1.0000 0.02706  0.32890  0.58329  Biso   1.000  O 
  O18      1.0000 0.02531  0.17034  0.83451  Biso   1.000  O 
  O19      1.0000 0.46173  0.83332  0.58347  Biso   1.000  O 
  O20      1.0000 0.46198  0.67318  0.83282  Biso   1.000  O 
  O21      1.0000 0.26742  0.24495  0.78872  Biso   1.000  O 
  O22      1.0000 0.27047  0.25438  0.54062  Biso   1.000  O 
  O23      1.0000 0.21856  0.74653  0.79674  Biso   1.000  O 
  O24      1.0000 0.21862  0.75278  0.54432  Biso   1.000  O 
  O25      1.0000 0.52674  0.33368  0.66480  Biso   1.000  O 
  O26      1.0000 0.52639  0.16404  0.91350  Biso   1.000  O 
  O27      1.0000 0.96301  0.82619  0.66826  Biso   1.000  O 
  O28      1.0000 0.96116  0.66521  0.92112  Biso   1.000  O 
  O29      1.0000 0.76904  0.24185  0.95605  Biso   1.000  O 
  O30      1.0000 0.76952  0.25023  0.70576  Biso   1.000  O 
  O31      1.0000 0.71892  0.74118  0.95668  Biso   1.000  O 
  O32      1.0000 0.71911  0.75191  0.70623  Biso   1.000  O 
