data_image0
_cell_length_a       9.99525
_cell_length_b       10.3911
_cell_length_c       10.0549
_cell_angle_alpha    90
_cell_angle_beta     90
_cell_angle_gamma    90

_symmetry_space_group_name_H-M    "P 1"
_symmetry_int_tables_number       1

loop_
  _symmetry_equiv_pos_as_xyz
  'x, y, z'

loop_
  _atom_site_label
  _atom_site_occupancy
  _atom_site_fract_x
  _atom_site_fract_y
  _atom_site_fract_z
  _atom_site_thermal_displace_type
  _atom_site_B_iso_or_equiv
  _atom_site_type_symbol
  Hf1      1.0000 0.14152  0.01284  0.11863  Biso   1.000  Hf
  Hf2      1.0000 0.13424  0.22779  0.40020  Biso   1.000  Hf
  Hf3      1.0000 0.36852  0.26393  0.11887  Biso   1.000  Hf
  Hf4      1.0000 0.36746  0.48458  0.37557  Biso   1.000  Hf
  O1       1.0000 0.99637  0.17222  0.25043  Biso   1.000  O 
  O2       1.0000 0.04000  0.06239  0.46385  Biso   1.000  O 
  O3       1.0000 0.45652  0.43408  0.19433  Biso   1.000  O 
  O4       1.0000 0.46365  0.31728  0.44483  Biso   1.000  O 
  O5       1.0000 0.26216  0.11714  0.25616  Biso   1.000  O 
  O6       1.0000 0.27854  0.12959  0.50704  Biso   1.000  O 
  O7       1.0000 0.23350  0.38343  0.50134  Biso   1.000  O 
  O8       1.0000 0.21258  0.36393  0.24886  Biso   1.000  O 
  Hf5      1.0000 0.14184  0.01439  0.63443  Biso   1.000  Hf
  Hf6      1.0000 0.13858  0.23285  0.87521  Biso   1.000  Hf
  Hf7      1.0000 0.37083  0.26867  0.62938  Biso   1.000  Hf
  Hf8      1.0000 0.37056  0.48891  0.87158  Biso   1.000  Hf
  O9       1.0000 0.04175  0.18515  0.69381  Biso   1.000  O 
  O10      1.0000 0.04631  0.06151  0.93917  Biso   1.000  O 
  O11      1.0000 0.46637  0.43639  0.69288  Biso   1.000  O 
  O12      1.0000 0.46817  0.31689  0.93888  Biso   1.000  O 
  O13      1.0000 0.27617  0.11969  0.75253  Biso   1.000  O 
  O14      1.0000 0.29519  0.12339  0.99427  Biso   1.000  O 
  O15      1.0000 0.24041  0.39427  0.99731  Biso   1.000  O 
  O16      1.0000 0.23141  0.36928  0.74965  Biso   1.000  O 
  Hf9      1.0000 0.13036  0.52989  0.12271  Biso   1.000  Hf
  Hf10     1.0000 0.13185  0.73589  0.37772  Biso   1.000  Hf
  Hf11     1.0000 0.36298  0.76606  0.12600  Biso   1.000  Hf
  Hf12     1.0000 0.36108  0.98423  0.37652  Biso   1.000  Hf
  O17      1.0000 0.03160  0.68685  0.19590  Biso   1.000  O 
  O18      1.0000 0.03468  0.56920  0.44324  Biso   1.000  O 
  O19      1.0000 0.45683  0.93464  0.19494  Biso   1.000  O 
  O20      1.0000 0.46305  0.81726  0.44367  Biso   1.000  O 
  O21      1.0000 0.26845  0.61828  0.24929  Biso   1.000  O 
  O22      1.0000 0.26969  0.63314  0.49842  Biso   1.000  O 
  O23      1.0000 0.22771  0.88264  0.50111  Biso   1.000  O 
  O24      1.0000 0.22661  0.86660  0.24950  Biso   1.000  O 
  Hf13     1.0000 0.13335  0.51705  0.62444  Biso   1.000  Hf
  Hf14     1.0000 0.13200  0.73612  0.87217  Biso   1.000  Hf
  Hf15     1.0000 0.36739  0.76604  0.62354  Biso   1.000  Hf
  Hf16     1.0000 0.37014  0.98179  0.87345  Biso   1.000  Hf
  O25      1.0000 0.03687  0.68700  0.69046  Biso   1.000  O 
  O26      1.0000 0.03590  0.56886  0.94409  Biso   1.000  O 
  O27      1.0000 0.46533  0.93427  0.69096  Biso   1.000  O 
  O28      1.0000 0.46821  0.81802  0.94749  Biso   1.000  O 
  O29      1.0000 0.26906  0.61820  0.74790  Biso   1.000  O 
  O30      1.0000 0.26996  0.63935  0.99736  Biso   1.000  O 
  O31      1.0000 0.23096  0.88184  0.99881  Biso   1.000  O 
  O32      1.0000 0.23366  0.86654  0.75012  Biso   1.000  O 
  Hf17     1.0000 0.63151  0.01331  0.12241  Biso   1.000  Hf
  Hf18     1.0000 0.63217  0.23323  0.37730  Biso   1.000  Hf
  Hf19     1.0000 0.84253  0.26635  0.12251  Biso   1.000  Hf
  Hf20     1.0000 0.86599  0.48402  0.37586  Biso   1.000  Hf
  O33      1.0000 0.53161  0.18250  0.19332  Biso   1.000  O 
  O34      1.0000 0.53802  0.06658  0.44446  Biso   1.000  O 
  O35      1.0000 0.95548  0.43609  0.19121  Biso   1.000  O 
  O36      1.0000 0.97039  0.32537  0.45795  Biso   1.000  O 
  O37      1.0000 0.75691  0.11585  0.24735  Biso   1.000  O 
  O38      1.0000 0.77526  0.13856  0.49654  Biso   1.000  O 
  O39      1.0000 0.73014  0.38417  0.49913  Biso   1.000  O 
  O40      1.0000 0.72144  0.37146  0.25132  Biso   1.000  O 
  Hf21     1.0000 0.64142  0.01750  0.62207  Biso   1.000  Hf
  Hf22     1.0000 0.63778  0.23377  0.87173  Biso   1.000  Hf
  Hf23     1.0000 0.86956  0.27010  0.62991  Biso   1.000  Hf
  Hf24     1.0000 0.86577  0.48521  0.87444  Biso   1.000  Hf
  O41      1.0000 0.54173  0.18544  0.69164  Biso   1.000  O 
  O42      1.0000 0.54747  0.06514  0.93897  Biso   1.000  O 
  O43      1.0000 0.96310  0.44057  0.69423  Biso   1.000  O 
  O44      1.0000 0.95194  0.31361  0.92241  Biso   1.000  O 
  O45      1.0000 0.77588  0.11796  0.74740  Biso   1.000  O 
  O46      1.0000 0.77583  0.13113  0.99691  Biso   1.000  O 
  O47      1.0000 0.71993  0.38198  0.00012  Biso   1.000  O 
  O48      1.0000 0.72817  0.37177  0.74814  Biso   1.000  O 
  Hf25     1.0000 0.62862  0.51910  0.12796  Biso   1.000  Hf
  Hf26     1.0000 0.63441  0.73755  0.37525  Biso   1.000  Hf
  Hf27     1.0000 0.86046  0.76691  0.12520  Biso   1.000  Hf
  Hf28     1.0000 0.87047  0.99447  0.36687  Biso   1.000  Hf
  O49      1.0000 0.53257  0.68510  0.19661  Biso   1.000  O 
  O50      1.0000 0.53372  0.56807  0.44431  Biso   1.000  O 
  O51      1.0000 0.96144  0.93510  0.18801  Biso   1.000  O 
  O52      1.0000 0.96192  0.82049  0.43999  Biso   1.000  O 
  O53      1.0000 0.76720  0.61939  0.25050  Biso   1.000  O 
  O54      1.0000 0.76857  0.63529  0.49854  Biso   1.000  O 
  O55      1.0000 0.73204  0.88851  0.49558  Biso   1.000  O 
  O56      1.0000 0.72691  0.86889  0.24721  Biso   1.000  O 
  Hf29     1.0000 0.63638  0.51854  0.62425  Biso   1.000  Hf
  Hf30     1.0000 0.63644  0.73493  0.87495  Biso   1.000  Hf
  Hf31     1.0000 0.86650  0.77010  0.62167  Biso   1.000  Hf
  Hf32     1.0000 0.86526  0.98374  0.87440  Biso   1.000  Hf
  O57      1.0000 0.53486  0.68395  0.69648  Biso   1.000  O 
  O58      1.0000 0.53626  0.56978  0.94766  Biso   1.000  O 
  O59      1.0000 0.96545  0.93159  0.69933  Biso   1.000  O 
  O60      1.0000 0.96329  0.81586  0.94425  Biso   1.000  O 
  O61      1.0000 0.77089  0.62063  0.74834  Biso   1.000  O 
  O62      1.0000 0.76511  0.63124  0.00060  Biso   1.000  O 
  O63      1.0000 0.73045  0.88247  0.99829  Biso   1.000  O 
  O64      1.0000 0.72953  0.86887  0.74699  Biso   1.000  O 
  Ga1      1.0000 0.09688  0.26960  0.12723  Biso   1.000  Ga
