data_image0
_cell_length_a       10.1237
_cell_length_b       5.10382
_cell_length_c       10.4532
_cell_angle_alpha    90
_cell_angle_beta     80
_cell_angle_gamma    90

_symmetry_space_group_name_H-M    "P 1"
_symmetry_int_tables_number       1

loop_
  _symmetry_equiv_pos_as_xyz
  'x, y, z'

loop_
  _atom_site_label
  _atom_site_occupancy
  _atom_site_fract_x
  _atom_site_fract_y
  _atom_site_fract_z
  _atom_site_thermal_displace_type
  _atom_site_B_iso_or_equiv
  _atom_site_type_symbol
  Ga1      1.0000 0.12532  0.02402  0.15679  Biso   1.000  Ga
  Hf1      1.0000 0.13563  0.44788  0.39165  Biso   1.000  Hf
  Hf2      1.0000 0.35493  0.54225  0.10395  Biso   1.000  Hf
  Hf3      1.0000 0.35730  0.95437  0.35034  Biso   1.000  Hf
  O1       1.0000 0.04429  0.31850  0.07900  Biso   1.000  O 
  O2       1.0000 0.02928  0.15609  0.33064  Biso   1.000  O 
  O3       1.0000 0.46843  0.82674  0.17175  Biso   1.000  O 
  O4       1.0000 0.46313  0.66523  0.42157  Biso   1.000  O 
  O5       1.0000 0.26834  0.23873  0.23111  Biso   1.000  O 
  O6       1.0000 0.27242  0.24067  0.48629  Biso   1.000  O 
  O7       1.0000 0.22544  0.79477  0.01522  Biso   1.000  O 
  O8       1.0000 0.22269  0.72960  0.26072  Biso   1.000  O 
  Hf4      1.0000 0.13293  0.03632  0.64489  Biso   1.000  Hf
  Hf5      1.0000 0.13409  0.45138  0.89717  Biso   1.000  Hf
  Hf6      1.0000 0.35580  0.54075  0.60422  Biso   1.000  Hf
  Hf7      1.0000 0.35465  0.96174  0.85778  Biso   1.000  Hf
  O9       1.0000 0.02949  0.32671  0.57846  Biso   1.000  O 
  O10      1.0000 0.02755  0.16277  0.82930  Biso   1.000  O 
  O11      1.0000 0.46179  0.82957  0.67310  Biso   1.000  O 
  O12      1.0000 0.46130  0.67296  0.92512  Biso   1.000  O 
  O13      1.0000 0.26863  0.25120  0.73540  Biso   1.000  O 
  O14      1.0000 0.28425  0.27622  0.97381  Biso   1.000  O 
  O15      1.0000 0.22007  0.75370  0.50934  Biso   1.000  O 
  O16      1.0000 0.22000  0.73841  0.76189  Biso   1.000  O 
  Hf8      1.0000 0.63715  0.03910  0.14597  Biso   1.000  Hf
  Hf9      1.0000 0.63571  0.45361  0.39618  Biso   1.000  Hf
  Hf10     1.0000 0.86806  0.53308  0.10629  Biso   1.000  Hf
  Hf11     1.0000 0.85897  0.95180  0.35622  Biso   1.000  Hf
  O17      1.0000 0.53429  0.33390  0.07915  Biso   1.000  O 
  O18      1.0000 0.52994  0.16425  0.32821  Biso   1.000  O 
  O19      1.0000 0.96742  0.82571  0.17459  Biso   1.000  O 
  O20      1.0000 0.96160  0.65771  0.42313  Biso   1.000  O 
  O21      1.0000 0.77434  0.25124  0.24170  Biso   1.000  O 
  O22      1.0000 0.77108  0.23724  0.49267  Biso   1.000  O 
  O23      1.0000 0.72921  0.75468  0.01151  Biso   1.000  O 
  O24      1.0000 0.72487  0.73606  0.26062  Biso   1.000  O 
  Hf12     1.0000 0.63249  0.03770  0.64819  Biso   1.000  Hf
  Hf13     1.0000 0.63199  0.45429  0.89994  Biso   1.000  Hf
  Hf14     1.0000 0.85623  0.53555  0.60650  Biso   1.000  Hf
  Hf15     1.0000 0.85739  0.95019  0.85762  Biso   1.000  Hf
  O25      1.0000 0.52903  0.32932  0.57910  Biso   1.000  O 
  O26      1.0000 0.52888  0.16440  0.82942  Biso   1.000  O 
  O27      1.0000 0.96235  0.82497  0.67430  Biso   1.000  O 
  O28      1.0000 0.96007  0.65871  0.92704  Biso   1.000  O 
  O29      1.0000 0.77091  0.25218  0.74281  Biso   1.000  O 
  O30      1.0000 0.76822  0.23297  0.99315  Biso   1.000  O 
  O31      1.0000 0.71980  0.75151  0.51207  Biso   1.000  O 
  O32      1.0000 0.71962  0.73832  0.76267  Biso   1.000  O 
