data_image0
_cell_length_a       5.02458
_cell_length_b       10.4137
_cell_length_c       10.099
_cell_angle_alpha    90
_cell_angle_beta     90
_cell_angle_gamma    90

_symmetry_space_group_name_H-M    "P 1"
_symmetry_int_tables_number       1

loop_
  _symmetry_equiv_pos_as_xyz
  'x, y, z'

loop_
  _atom_site_label
  _atom_site_occupancy
  _atom_site_fract_x
  _atom_site_fract_y
  _atom_site_fract_z
  _atom_site_thermal_displace_type
  _atom_site_B_iso_or_equiv
  _atom_site_type_symbol
  Hf1      1.0000 0.23653  0.99629  0.10475  Biso   1.000  Hf
  Hf2      1.0000 0.24921  0.23459  0.40649  Biso   1.000  Hf
  Hf3      1.0000 0.66598  0.26304  0.11734  Biso   1.000  Hf
  Hf4      1.0000 0.72225  0.49162  0.37552  Biso   1.000  Hf
  O1       1.0000 0.92500  0.18624  0.27175  Biso   1.000  O 
  O2       1.0000 0.07953  0.06777  0.46789  Biso   1.000  O 
  O3       1.0000 0.87047  0.43792  0.19071  Biso   1.000  O 
  O4       1.0000 0.94012  0.34064  0.46797  Biso   1.000  O 
  O5       1.0000 0.45542  0.11212  0.25665  Biso   1.000  O 
  O6       1.0000 0.56018  0.14538  0.50567  Biso   1.000  O 
  O7       1.0000 0.46097  0.39266  0.49895  Biso   1.000  O 
  O8       1.0000 0.37254  0.36207  0.24705  Biso   1.000  O 
  Hf5      1.0000 0.30781  0.02153  0.63090  Biso   1.000  Hf
  Hf6      1.0000 0.25626  0.24413  0.87085  Biso   1.000  Hf
  Hf7      1.0000 0.73815  0.27960  0.63614  Biso   1.000  Hf
  Hf8      1.0000 0.71533  0.49639  0.87206  Biso   1.000  Hf
  O9       1.0000 0.08775  0.19423  0.69016  Biso   1.000  O 
  O10      1.0000 0.13450  0.06221  0.92312  Biso   1.000  O 
  O11      1.0000 0.91629  0.45103  0.69781  Biso   1.000  O 
  O12      1.0000 0.89213  0.32154  0.91711  Biso   1.000  O 
  O13      1.0000 0.56045  0.12826  0.75602  Biso   1.000  O 
  O14      1.0000 0.60356  0.10721  0.00456  Biso   1.000  O 
  O15      1.0000 0.44395  0.39842  0.99675  Biso   1.000  O 
  O16      1.0000 0.44399  0.37938  0.74741  Biso   1.000  O 
  Hf9      1.0000 0.22741  0.52545  0.12570  Biso   1.000  Hf
  Hf10     1.0000 0.24270  0.74551  0.37534  Biso   1.000  Hf
  Hf11     1.0000 0.70020  0.76317  0.12326  Biso   1.000  Hf
  Hf12     1.0000 0.76307  0.00502  0.36197  Biso   1.000  Hf
  O17      1.0000 0.03795  0.68764  0.19669  Biso   1.000  O 
  O18      1.0000 0.04462  0.57969  0.44341  Biso   1.000  O 
  O19      1.0000 0.88833  0.94170  0.18598  Biso   1.000  O 
  O20      1.0000 0.89780  0.82782  0.43495  Biso   1.000  O 
  O21      1.0000 0.50467  0.61790  0.24915  Biso   1.000  O 
  O22      1.0000 0.51427  0.64282  0.49528  Biso   1.000  O 
  O23      1.0000 0.43337  0.89628  0.49373  Biso   1.000  O 
  O24      1.0000 0.43367  0.86604  0.24115  Biso   1.000  O 
  Hf13     1.0000 0.25108  0.52379  0.62062  Biso   1.000  Hf
  Hf14     1.0000 0.24871  0.73919  0.86824  Biso   1.000  Hf
  Hf15     1.0000 0.71529  0.77649  0.61493  Biso   1.000  Hf
  Hf16     1.0000 0.71511  0.98705  0.86866  Biso   1.000  Hf
  O25      1.0000 0.05051  0.69327  0.68956  Biso   1.000  O 
  O26      1.0000 0.05009  0.57753  0.94754  Biso   1.000  O 
  O27      1.0000 0.90783  0.93723  0.69338  Biso   1.000  O 
  O28      1.0000 0.92285  0.82492  0.94801  Biso   1.000  O 
  O29      1.0000 0.51769  0.62542  0.74515  Biso   1.000  O 
  O30      1.0000 0.51945  0.64245  0.99838  Biso   1.000  O 
  O31      1.0000 0.45058  0.87959  0.99008  Biso   1.000  O 
  O32      1.0000 0.44445  0.87297  0.74399  Biso   1.000  O 
  Ga1      1.0000 0.15430  0.24541  0.13501  Biso   1.000  Ga
