data_image0
_cell_length_a       10.2884
_cell_length_b       10.3304
_cell_length_c       5.2501
_cell_angle_alpha    90
_cell_angle_beta     80
_cell_angle_gamma    90

_symmetry_space_group_name_H-M    "P 1"
_symmetry_int_tables_number       1

loop_
  _symmetry_equiv_pos_as_xyz
  'x, y, z'

loop_
  _atom_site_label
  _atom_site_occupancy
  _atom_site_fract_x
  _atom_site_fract_y
  _atom_site_fract_z
  _atom_site_thermal_displace_type
  _atom_site_B_iso_or_equiv
  _atom_site_type_symbol
  Hf1      1.0000 0.13210  0.01815  0.28816  Biso   1.000  Hf
  Hf2      1.0000 0.14203  0.22770  0.77860  Biso   1.000  Hf
  Hf3      1.0000 0.34609  0.26632  0.19526  Biso   1.000  Hf
  Hf4      1.0000 0.36475  0.48420  0.70343  Biso   1.000  Hf
  O1       1.0000 0.03634  0.16863  0.15856  Biso   1.000  O 
  O2       1.0000 0.03350  0.08157  0.66103  Biso   1.000  O 
  O3       1.0000 0.46875  0.43300  0.33238  Biso   1.000  O 
  O4       1.0000 0.47942  0.34490  0.86425  Biso   1.000  O 
  O5       1.0000 0.26339  0.11942  0.46515  Biso   1.000  O 
  O6       1.0000 0.28028  0.12296  0.96200  Biso   1.000  O 
  O7       1.0000 0.21989  0.38164  0.00356  Biso   1.000  O 
  O8       1.0000 0.22284  0.37249  0.50630  Biso   1.000  O 
  Hf5      1.0000 0.14376  0.52279  0.29007  Biso   1.000  Hf
  Hf6      1.0000 0.14851  0.73005  0.79292  Biso   1.000  Hf
  Hf7      1.0000 0.36739  0.77215  0.20923  Biso   1.000  Hf
  Hf8      1.0000 0.36987  0.97484  0.70298  Biso   1.000  Hf
  O9       1.0000 0.03724  0.66733  0.15984  Biso   1.000  O 
  O10      1.0000 0.04552  0.58616  0.65585  Biso   1.000  O 
  O11      1.0000 0.47312  0.91721  0.34090  Biso   1.000  O 
  O12      1.0000 0.47353  0.82850  0.83940  Biso   1.000  O 
  O13      1.0000 0.28301  0.62856  0.48110  Biso   1.000  O 
  O14      1.0000 0.28693  0.62394  0.97991  Biso   1.000  O 
  O15      1.0000 0.22763  0.87839  0.01942  Biso   1.000  O 
  O16      1.0000 0.23184  0.86844  0.51647  Biso   1.000  O 
  Hf9      1.0000 0.64273  0.01661  0.30335  Biso   1.000  Hf
  Hf10     1.0000 0.66140  0.23447  0.81154  Biso   1.000  Hf
  Hf11     1.0000 0.86548  0.27311  0.22818  Biso   1.000  Hf
  Hf12     1.0000 0.87540  0.48265  0.71862  Biso   1.000  Hf
  O17      1.0000 0.52809  0.15589  0.14254  Biso   1.000  O 
  O18      1.0000 0.53875  0.06781  0.67439  Biso   1.000  O 
  O19      1.0000 0.97400  0.41924  0.34576  Biso   1.000  O 
  O20      1.0000 0.97116  0.33217  0.84822  Biso   1.000  O 
  O21      1.0000 0.78466  0.12830  0.50048  Biso   1.000  O 
  O22      1.0000 0.77816  0.11834  0.00660  Biso   1.000  O 
  O23      1.0000 0.72722  0.37785  0.04479  Biso   1.000  O 
  O24      1.0000 0.74411  0.38138  0.54163  Biso   1.000  O 
  Hf13     1.0000 0.64485  0.52593  0.30380  Biso   1.000  Hf
  Hf14     1.0000 0.64733  0.72863  0.79756  Biso   1.000  Hf
  Hf15     1.0000 0.86622  0.77073  0.21387  Biso   1.000  Hf
  Hf16     1.0000 0.87096  0.97799  0.71672  Biso   1.000  Hf
  O25      1.0000 0.54119  0.67228  0.16738  Biso   1.000  O 
  O26      1.0000 0.54161  0.58357  0.66588  Biso   1.000  O 
  O27      1.0000 0.96920  0.91462  0.35094  Biso   1.000  O 
  O28      1.0000 0.97749  0.83345  0.84697  Biso   1.000  O 
  O29      1.0000 0.78288  0.63234  0.49033  Biso   1.000  O 
  O30      1.0000 0.78710  0.62238  0.98737  Biso   1.000  O 
  O31      1.0000 0.72778  0.87684  0.02688  Biso   1.000  O 
  O32      1.0000 0.73171  0.87221  0.52570  Biso   1.000  O 
  Ge1      1.0000 0.50375  0.25041  0.50340  Biso   1.000  Ge
