data_image0
_cell_length_a       10.0016
_cell_length_b       5.23205
_cell_length_c       10.1411
_cell_angle_alpha    90
_cell_angle_beta     90
_cell_angle_gamma    90

_symmetry_space_group_name_H-M    "P 1"
_symmetry_int_tables_number       1

loop_
  _symmetry_equiv_pos_as_xyz
  'x, y, z'

loop_
  _atom_site_label
  _atom_site_occupancy
  _atom_site_fract_x
  _atom_site_fract_y
  _atom_site_fract_z
  _atom_site_thermal_displace_type
  _atom_site_B_iso_or_equiv
  _atom_site_type_symbol
  Hf1      1.0000 0.11423  0.07405  0.12018  Biso   1.000  Hf
  Hf2      1.0000 0.10997  0.47752  0.38619  Biso   1.000  Hf
  Hf3      1.0000 0.35687  0.52626  0.11918  Biso   1.000  Hf
  Hf4      1.0000 0.34607  0.98265  0.36958  Biso   1.000  Hf
  O1       1.0000 0.99780  0.36842  0.21666  Biso   1.000  O 
  O2       1.0000 0.02260  0.14080  0.43917  Biso   1.000  O 
  O3       1.0000 0.43994  0.87375  0.19340  Biso   1.000  O 
  O4       1.0000 0.43764  0.64487  0.44285  Biso   1.000  O 
  O5       1.0000 0.24988  0.24491  0.24890  Biso   1.000  O 
  O6       1.0000 0.25248  0.27675  0.49671  Biso   1.000  O 
  O7       1.0000 0.20686  0.78132  0.48708  Biso   1.000  O 
  O8       1.0000 0.19192  0.72454  0.22886  Biso   1.000  O 
  Hf5      1.0000 0.11347  0.03802  0.61512  Biso   1.000  Hf
  Hf6      1.0000 0.10924  0.46483  0.85204  Biso   1.000  Hf
  Hf7      1.0000 0.34422  0.54622  0.62197  Biso   1.000  Hf
  Hf8      1.0000 0.33218  0.98237  0.87197  Biso   1.000  Hf
  O9       1.0000 0.02534  0.38171  0.66639  Biso   1.000  O 
  O10      1.0000 0.00043  0.14348  0.93027  Biso   1.000  O 
  O11      1.0000 0.43398  0.87888  0.69412  Biso   1.000  O 
  O12      1.0000 0.43146  0.65354  0.95008  Biso   1.000  O 
  O13      1.0000 0.24659  0.24095  0.74282  Biso   1.000  O 
  O14      1.0000 0.24752  0.26775  0.98963  Biso   1.000  O 
  O15      1.0000 0.19223  0.79112  0.98400  Biso   1.000  O 
  O16      1.0000 0.20107  0.74505  0.73752  Biso   1.000  O 
  Hf9      1.0000 0.62483  0.04797  0.13367  Biso   1.000  Hf
  Hf10     1.0000 0.61112  0.47481  0.39372  Biso   1.000  Hf
  Hf11     1.0000 0.82484  0.55942  0.16093  Biso   1.000  Hf
  Hf12     1.0000 0.83934  0.98147  0.39728  Biso   1.000  Hf
  O17      1.0000 0.51953  0.36596  0.20274  Biso   1.000  O 
  O18      1.0000 0.51273  0.14278  0.45323  Biso   1.000  O 
  O19      1.0000 0.92890  0.90199  0.21722  Biso   1.000  O 
  O20      1.0000 0.93640  0.63780  0.44888  Biso   1.000  O 
  O21      1.0000 0.74519  0.25345  0.27290  Biso   1.000  O 
  O22      1.0000 0.74773  0.27887  0.51782  Biso   1.000  O 
  O23      1.0000 0.69950  0.76869  0.51355  Biso   1.000  O 
  O24      1.0000 0.69098  0.76152  0.26806  Biso   1.000  O 
  Hf13     1.0000 0.61321  0.04662  0.63519  Biso   1.000  Hf
  Hf14     1.0000 0.60073  0.48838  0.88226  Biso   1.000  Hf
  Hf15     1.0000 0.84551  0.55464  0.64379  Biso   1.000  Hf
  Hf16     1.0000 0.82636  0.96833  0.87374  Biso   1.000  Hf
  O25      1.0000 0.50836  0.38047  0.69847  Biso   1.000  O 
  O26      1.0000 0.50568  0.15165  0.94556  Biso   1.000  O 
  O27      1.0000 0.91992  0.92115  0.66518  Biso   1.000  O 
  O28      1.0000 0.91965  0.62505  0.85151  Biso   1.000  O 
  O29      1.0000 0.74089  0.25095  0.76575  Biso   1.000  O 
  O30      1.0000 0.76838  0.28721  0.02341  Biso   1.000  O 
  O31      1.0000 0.73768  0.77412  0.01167  Biso   1.000  O 
  O32      1.0000 0.68890  0.75644  0.75711  Biso   1.000  O 
  Ge1      1.0000 0.07578  0.58606  0.08207  Biso   1.000  Ge
