data_image0
_cell_length_a       9.98715
_cell_length_b       10.4771
_cell_length_c       5.08101
_cell_angle_alpha    90
_cell_angle_beta     90
_cell_angle_gamma    90

_symmetry_space_group_name_H-M    "P 1"
_symmetry_int_tables_number       1

loop_
  _symmetry_equiv_pos_as_xyz
  'x, y, z'

loop_
  _atom_site_label
  _atom_site_occupancy
  _atom_site_fract_x
  _atom_site_fract_y
  _atom_site_fract_z
  _atom_site_thermal_displace_type
  _atom_site_B_iso_or_equiv
  _atom_site_type_symbol
  Hf1      1.0000 0.15998  0.00718  0.27200  Biso   1.000  Hf
  Hf2      1.0000 0.15302  0.22001  0.82698  Biso   1.000  Hf
  Hf3      1.0000 0.36019  0.26392  0.25496  Biso   1.000  Hf
  Hf4      1.0000 0.36770  0.48884  0.74981  Biso   1.000  Hf
  O1       1.0000 0.04572  0.12180  0.54669  Biso   1.000  O 
  O2       1.0000 0.04210  0.06634  0.98895  Biso   1.000  O 
  O3       1.0000 0.44826  0.43316  0.38714  Biso   1.000  O 
  O4       1.0000 0.46306  0.31526  0.87183  Biso   1.000  O 
  O5       1.0000 0.29255  0.12072  0.52444  Biso   1.000  O 
  O6       1.0000 0.29406  0.11209  0.00865  Biso   1.000  O 
  O7       1.0000 0.22605  0.38866  0.00545  Biso   1.000  O 
  O8       1.0000 0.19522  0.35663  0.50235  Biso   1.000  O 
  Hf5      1.0000 0.11749  0.52749  0.24250  Biso   1.000  Hf
  Hf6      1.0000 0.12428  0.73476  0.74890  Biso   1.000  Hf
  Hf7      1.0000 0.35440  0.76212  0.24324  Biso   1.000  Hf
  Hf8      1.0000 0.35964  0.97622  0.74840  Biso   1.000  Hf
  O9       1.0000 0.02455  0.68670  0.38601  Biso   1.000  O 
  O10      1.0000 0.02964  0.57229  0.88707  Biso   1.000  O 
  O11      1.0000 0.44975  0.93204  0.37474  Biso   1.000  O 
  O12      1.0000 0.46361  0.81628  0.89154  Biso   1.000  O 
  O13      1.0000 0.25840  0.61167  0.49477  Biso   1.000  O 
  O14      1.0000 0.26554  0.63612  0.99163  Biso   1.000  O 
  O15      1.0000 0.20960  0.87489  0.00007  Biso   1.000  O 
  O16      1.0000 0.22562  0.86100  0.50206  Biso   1.000  O 
  Hf9      1.0000 0.64377  0.01777  0.23168  Biso   1.000  Hf
  Hf10     1.0000 0.63024  0.23339  0.72629  Biso   1.000  Hf
  Hf11     1.0000 0.82603  0.28123  0.21103  Biso   1.000  Hf
  Hf12     1.0000 0.86465  0.48780  0.73185  Biso   1.000  Hf
  O17      1.0000 0.54143  0.18683  0.35963  Biso   1.000  O 
  O18      1.0000 0.55634  0.06264  0.86460  Biso   1.000  O 
  O19      1.0000 0.93852  0.45300  0.35969  Biso   1.000  O 
  O20      1.0000 0.96391  0.32523  0.85495  Biso   1.000  O 
  O21      1.0000 0.77831  0.12411  0.46752  Biso   1.000  O 
  O22      1.0000 0.77650  0.14302  0.96354  Biso   1.000  O 
  O23      1.0000 0.72103  0.39361  0.97278  Biso   1.000  O 
  O24      1.0000 0.71113  0.37908  0.48401  Biso   1.000  O 
  Hf13     1.0000 0.61932  0.52504  0.24850  Biso   1.000  Hf
  Hf14     1.0000 0.63418  0.74056  0.74697  Biso   1.000  Hf
  Hf15     1.0000 0.85119  0.77120  0.24177  Biso   1.000  Hf
  Hf16     1.0000 0.86753  0.99458  0.72700  Biso   1.000  Hf
  O25      1.0000 0.52055  0.68314  0.40095  Biso   1.000  O 
  O26      1.0000 0.52722  0.57270  0.89881  Biso   1.000  O 
  O27      1.0000 0.95731  0.91769  0.39820  Biso   1.000  O 
  O28      1.0000 0.95907  0.82266  0.88171  Biso   1.000  O 
  O29      1.0000 0.75781  0.62566  0.49315  Biso   1.000  O 
  O30      1.0000 0.76414  0.63826  0.99253  Biso   1.000  O 
  O31      1.0000 0.72991  0.88981  0.98996  Biso   1.000  O 
  O32      1.0000 0.71694  0.87449  0.49040  Biso   1.000  O 
  Ge1      1.0000 0.06981  0.24995  0.30845  Biso   1.000  Ge
