data_image0
_cell_length_a       10.0889
_cell_length_b       5.0961
_cell_length_c       10.4939
_cell_angle_alpha    90
_cell_angle_beta     80
_cell_angle_gamma    90

_symmetry_space_group_name_H-M    "P 1"
_symmetry_int_tables_number       1

loop_
  _symmetry_equiv_pos_as_xyz
  'x, y, z'

loop_
  _atom_site_label
  _atom_site_occupancy
  _atom_site_fract_x
  _atom_site_fract_y
  _atom_site_fract_z
  _atom_site_thermal_displace_type
  _atom_site_B_iso_or_equiv
  _atom_site_type_symbol
  Ge1      1.0000 0.12053  0.02888  0.15987  Biso   1.000  Ge
  Hf1      1.0000 0.13473  0.44491  0.39261  Biso   1.000  Hf
  Hf2      1.0000 0.35739  0.54705  0.10251  Biso   1.000  Hf
  Hf3      1.0000 0.36153  0.94758  0.35134  Biso   1.000  Hf
  O1       1.0000 0.04770  0.30429  0.07786  Biso   1.000  O 
  O2       1.0000 0.03024  0.15064  0.32403  Biso   1.000  O 
  O3       1.0000 0.47143  0.82021  0.17603  Biso   1.000  O 
  O4       1.0000 0.46510  0.66714  0.42545  Biso   1.000  O 
  O5       1.0000 0.26188  0.23026  0.22366  Biso   1.000  O 
  O6       1.0000 0.27210  0.23681  0.48269  Biso   1.000  O 
  O7       1.0000 0.22637  0.82445  0.02440  Biso   1.000  O 
  O8       1.0000 0.22291  0.72788  0.26216  Biso   1.000  O 
  Hf4      1.0000 0.12991  0.02926  0.64417  Biso   1.000  Hf
  Hf5      1.0000 0.13037  0.44175  0.89316  Biso   1.000  Hf
  Hf6      1.0000 0.35703  0.53794  0.60596  Biso   1.000  Hf
  Hf7      1.0000 0.35638  0.96471  0.85881  Biso   1.000  Hf
  O9       1.0000 0.02654  0.31150  0.57358  Biso   1.000  O 
  O10      1.0000 0.02418  0.15936  0.82632  Biso   1.000  O 
  O11      1.0000 0.46239  0.82303  0.67679  Biso   1.000  O 
  O12      1.0000 0.46062  0.68137  0.93051  Biso   1.000  O 
  O13      1.0000 0.26543  0.24508  0.73182  Biso   1.000  O 
  O14      1.0000 0.28371  0.29083  0.96820  Biso   1.000  O 
  O15      1.0000 0.22036  0.74617  0.51068  Biso   1.000  O 
  O16      1.0000 0.22050  0.73420  0.76612  Biso   1.000  O 
  Hf8      1.0000 0.63505  0.04022  0.14542  Biso   1.000  Hf
  Hf9      1.0000 0.63556  0.44873  0.39627  Biso   1.000  Hf
  Hf10     1.0000 0.86946  0.53023  0.10681  Biso   1.000  Hf
  Hf11     1.0000 0.85887  0.94552  0.35798  Biso   1.000  Hf
  O17      1.0000 0.53307  0.32982  0.07622  Biso   1.000  O 
  O18      1.0000 0.52829  0.16731  0.32551  Biso   1.000  O 
  O19      1.0000 0.97515  0.82003  0.17687  Biso   1.000  O 
  O20      1.0000 0.96244  0.65638  0.42606  Biso   1.000  O 
  O21      1.0000 0.77502  0.24612  0.24084  Biso   1.000  O 
  O22      1.0000 0.77114  0.23175  0.49183  Biso   1.000  O 
  O23      1.0000 0.73234  0.75470  0.01325  Biso   1.000  O 
  O24      1.0000 0.72994  0.73175  0.26060  Biso   1.000  O 
  Hf12     1.0000 0.62971  0.03425  0.64881  Biso   1.000  Hf
  Hf13     1.0000 0.62861  0.45200  0.90063  Biso   1.000  Hf
  Hf14     1.0000 0.85568  0.53008  0.60784  Biso   1.000  Hf
  Hf15     1.0000 0.85745  0.94356  0.85864  Biso   1.000  Hf
  O25      1.0000 0.52826  0.32146  0.57599  Biso   1.000  O 
  O26      1.0000 0.52560  0.17035  0.82586  Biso   1.000  O 
  O27      1.0000 0.96414  0.80933  0.67887  Biso   1.000  O 
  O28      1.0000 0.96030  0.65642  0.93282  Biso   1.000  O 
  O29      1.0000 0.76948  0.24656  0.74285  Biso   1.000  O 
  O30      1.0000 0.76627  0.22995  0.99351  Biso   1.000  O 
  O31      1.0000 0.72000  0.74611  0.51315  Biso   1.000  O 
  O32      1.0000 0.71894  0.73471  0.76458  Biso   1.000  O 
