data_image0
_cell_length_a       9.92797
_cell_length_b       10.3886
_cell_length_c       4.99161
_cell_angle_alpha    90
_cell_angle_beta     90
_cell_angle_gamma    90

_symmetry_space_group_name_H-M    "P 1"
_symmetry_int_tables_number       1

loop_
  _symmetry_equiv_pos_as_xyz
  'x, y, z'

loop_
  _atom_site_label
  _atom_site_occupancy
  _atom_site_fract_x
  _atom_site_fract_y
  _atom_site_fract_z
  _atom_site_thermal_displace_type
  _atom_site_B_iso_or_equiv
  _atom_site_type_symbol
  Ge1      1.0000 0.12002  0.02610  0.22761  Biso   1.000  Ge
  Hf1      1.0000 0.13548  0.22807  0.73518  Biso   1.000  Hf
  Hf2      1.0000 0.36818  0.26187  0.23525  Biso   1.000  Hf
  Hf3      1.0000 0.37086  0.47926  0.74715  Biso   1.000  Hf
  O1       1.0000 0.03354  0.17663  0.37907  Biso   1.000  O 
  O2       1.0000 0.04035  0.06026  0.90484  Biso   1.000  O 
  O3       1.0000 0.46580  0.43002  0.38460  Biso   1.000  O 
  O4       1.0000 0.47116  0.31390  0.88844  Biso   1.000  O 
  O5       1.0000 0.25418  0.09366  0.46609  Biso   1.000  O 
  O6       1.0000 0.27586  0.13429  0.96771  Biso   1.000  O 
  O7       1.0000 0.23360  0.37808  0.98775  Biso   1.000  O 
  O8       1.0000 0.23472  0.35572  0.48857  Biso   1.000  O 
  Hf4      1.0000 0.13479  0.51178  0.24849  Biso   1.000  Hf
  Hf5      1.0000 0.13413  0.72544  0.75841  Biso   1.000  Hf
  Hf6      1.0000 0.36540  0.76542  0.26378  Biso   1.000  Hf
  Hf7      1.0000 0.36206  0.97866  0.75674  Biso   1.000  Hf
  O9       1.0000 0.03670  0.67933  0.39522  Biso   1.000  O 
  O10      1.0000 0.03518  0.55817  0.89773  Biso   1.000  O 
  O11      1.0000 0.47169  0.92842  0.41018  Biso   1.000  O 
  O12      1.0000 0.46768  0.81598  0.90993  Biso   1.000  O 
  O13      1.0000 0.26869  0.60447  0.49915  Biso   1.000  O 
  O14      1.0000 0.26797  0.63736  0.00182  Biso   1.000  O 
  O15      1.0000 0.22161  0.89878  0.05221  Biso   1.000  O 
  O16      1.0000 0.24857  0.84526  0.55000  Biso   1.000  O 
  Hf8      1.0000 0.63233  0.01330  0.24679  Biso   1.000  Hf
  Hf9      1.0000 0.63720  0.22716  0.74876  Biso   1.000  Hf
  Hf10     1.0000 0.86468  0.26490  0.24363  Biso   1.000  Hf
  Hf11     1.0000 0.86686  0.47890  0.74803  Biso   1.000  Hf
  O17      1.0000 0.53114  0.17897  0.39812  Biso   1.000  O 
  O18      1.0000 0.53707  0.06353  0.89853  Biso   1.000  O 
  O19      1.0000 0.96752  0.42720  0.39188  Biso   1.000  O 
  O20      1.0000 0.96670  0.30836  0.88160  Biso   1.000  O 
  O21      1.0000 0.77096  0.11222  0.49112  Biso   1.000  O 
  O22      1.0000 0.77519  0.12589  0.99095  Biso   1.000  O 
  O23      1.0000 0.73415  0.37667  0.99699  Biso   1.000  O 
  O24      1.0000 0.72973  0.36308  0.49532  Biso   1.000  O 
  Hf12     1.0000 0.63348  0.51660  0.25158  Biso   1.000  Hf
  Hf13     1.0000 0.63527  0.73217  0.75359  Biso   1.000  Hf
  Hf14     1.0000 0.87204  0.76478  0.24541  Biso   1.000  Hf
  Hf15     1.0000 0.87030  0.98048  0.74433  Biso   1.000  Hf
  O25      1.0000 0.53460  0.68065  0.40124  Biso   1.000  O 
  O26      1.0000 0.53874  0.56366  0.89250  Biso   1.000  O 
  O27      1.0000 0.98302  0.93328  0.38537  Biso   1.000  O 
  O28      1.0000 0.96615  0.81222  0.88486  Biso   1.000  O 
  O29      1.0000 0.77199  0.61321  0.49839  Biso   1.000  O 
  O30      1.0000 0.77260  0.62892  0.99916  Biso   1.000  O 
  O31      1.0000 0.73546  0.87870  0.99347  Biso   1.000  O 
  O32      1.0000 0.74022  0.86301  0.49379  Biso   1.000  O 
