data_image0
_cell_length_a       5.04527
_cell_length_b       10.41
_cell_length_c       10.0961
_cell_angle_alpha    90
_cell_angle_beta     90
_cell_angle_gamma    90

_symmetry_space_group_name_H-M    "P 1"
_symmetry_int_tables_number       1

loop_
  _symmetry_equiv_pos_as_xyz
  'x, y, z'

loop_
  _atom_site_label
  _atom_site_occupancy
  _atom_site_fract_x
  _atom_site_fract_y
  _atom_site_fract_z
  _atom_site_thermal_displace_type
  _atom_site_B_iso_or_equiv
  _atom_site_type_symbol
  Hf1      1.0000 0.29390  0.00314  0.11262  Biso   1.000  Hf
  Hf2      1.0000 0.22781  0.23284  0.41178  Biso   1.000  Hf
  Hf3      1.0000 0.62714  0.26066  0.14503  Biso   1.000  Hf
  Hf4      1.0000 0.70270  0.49748  0.38653  Biso   1.000  Hf
  O1       1.0000 0.93865  0.17931  0.25720  Biso   1.000  O 
  O2       1.0000 0.07245  0.06066  0.46093  Biso   1.000  O 
  O3       1.0000 0.82100  0.44144  0.20534  Biso   1.000  O 
  O4       1.0000 0.90568  0.33457  0.46009  Biso   1.000  O 
  O5       1.0000 0.45909  0.11303  0.26713  Biso   1.000  O 
  O6       1.0000 0.55040  0.14331  0.51000  Biso   1.000  O 
  O7       1.0000 0.42974  0.39310  0.49726  Biso   1.000  O 
  O8       1.0000 0.31491  0.35782  0.24271  Biso   1.000  O 
  Hf5      1.0000 0.29152  0.01894  0.62967  Biso   1.000  Hf
  Hf6      1.0000 0.23470  0.24406  0.85723  Biso   1.000  Hf
  Hf7      1.0000 0.72900  0.28274  0.63968  Biso   1.000  Hf
  Hf8      1.0000 0.67693  0.49358  0.86583  Biso   1.000  Hf
  O9       1.0000 0.09334  0.19586  0.66516  Biso   1.000  O 
  O10      1.0000 0.10007  0.06706  0.92694  Biso   1.000  O 
  O11      1.0000 0.86239  0.46963  0.67291  Biso   1.000  O 
  O12      1.0000 0.86695  0.31520  0.84918  Biso   1.000  O 
  O13      1.0000 0.53357  0.12788  0.75960  Biso   1.000  O 
  O14      1.0000 0.61740  0.11082  0.01584  Biso   1.000  O 
  O15      1.0000 0.42967  0.38808  0.99469  Biso   1.000  O 
  O16      1.0000 0.40391  0.38613  0.74286  Biso   1.000  O 
  Hf9      1.0000 0.19781  0.52331  0.12866  Biso   1.000  Hf
  Hf10     1.0000 0.22025  0.74597  0.37695  Biso   1.000  Hf
  Hf11     1.0000 0.67770  0.76124  0.12614  Biso   1.000  Hf
  Hf12     1.0000 0.67903  0.99777  0.36691  Biso   1.000  Hf
  O17      1.0000 0.01351  0.68385  0.19776  Biso   1.000  O 
  O18      1.0000 0.03353  0.58053  0.44327  Biso   1.000  O 
  O19      1.0000 0.87666  0.93569  0.18991  Biso   1.000  O 
  O20      1.0000 0.87292  0.82386  0.44108  Biso   1.000  O 
  O21      1.0000 0.47361  0.61790  0.25503  Biso   1.000  O 
  O22      1.0000 0.48980  0.64674  0.50148  Biso   1.000  O 
  O23      1.0000 0.41114  0.89446  0.49662  Biso   1.000  O 
  O24      1.0000 0.41597  0.86678  0.24460  Biso   1.000  O 
  Hf13     1.0000 0.22601  0.52913  0.62100  Biso   1.000  Hf
  Hf14     1.0000 0.20628  0.74187  0.87350  Biso   1.000  Hf
  Hf15     1.0000 0.68756  0.77910  0.62378  Biso   1.000  Hf
  Hf16     1.0000 0.67043  0.99004  0.87712  Biso   1.000  Hf
  O25      1.0000 0.02601  0.69890  0.69332  Biso   1.000  O 
  O26      1.0000 0.00445  0.57119  0.94700  Biso   1.000  O 
  O27      1.0000 0.87204  0.94352  0.69877  Biso   1.000  O 
  O28      1.0000 0.86841  0.82183  0.94935  Biso   1.000  O 
  O29      1.0000 0.48675  0.63090  0.75189  Biso   1.000  O 
  O30      1.0000 0.48306  0.62767  0.00362  Biso   1.000  O 
  O31      1.0000 0.39608  0.88412  0.99611  Biso   1.000  O 
  O32      1.0000 0.40987  0.87472  0.75016  Biso   1.000  O 
  Ge1      1.0000 0.11575  0.25244  0.11323  Biso   1.000  Ge
