data_image0
_cell_length_a       10.0899
_cell_length_b       10.2386
_cell_length_c       10.4575
_cell_angle_alpha    90
_cell_angle_beta     80
_cell_angle_gamma    90

_symmetry_space_group_name_H-M    "P 1"
_symmetry_int_tables_number       1

loop_
  _symmetry_equiv_pos_as_xyz
  'x, y, z'

loop_
  _atom_site_label
  _atom_site_occupancy
  _atom_site_fract_x
  _atom_site_fract_y
  _atom_site_fract_z
  _atom_site_thermal_displace_type
  _atom_site_B_iso_or_equiv
  _atom_site_type_symbol
  Ge1      1.0000 0.12058  0.01161  0.16198  Biso   1.000  Ge
  Hf1      1.0000 0.13439  0.22580  0.39115  Biso   1.000  Hf
  Hf2      1.0000 0.35907  0.26831  0.10054  Biso   1.000  Hf
  Hf3      1.0000 0.36013  0.47690  0.35364  Biso   1.000  Hf
  O1       1.0000 0.04889  0.15302  0.08056  Biso   1.000  O 
  O2       1.0000 0.03110  0.07526  0.32681  Biso   1.000  O 
  O3       1.0000 0.46473  0.41736  0.17058  Biso   1.000  O 
  O4       1.0000 0.46252  0.33100  0.42128  Biso   1.000  O 
  O5       1.0000 0.26231  0.11704  0.22528  Biso   1.000  O 
  O6       1.0000 0.27197  0.12100  0.48280  Biso   1.000  O 
  O7       1.0000 0.22633  0.38450  0.00833  Biso   1.000  O 
  O8       1.0000 0.22464  0.36654  0.25885  Biso   1.000  O 
  Hf4      1.0000 0.12977  0.01872  0.64431  Biso   1.000  Hf
  Hf5      1.0000 0.13466  0.22216  0.89516  Biso   1.000  Hf
  Hf6      1.0000 0.35558  0.27008  0.60320  Biso   1.000  Hf
  Hf7      1.0000 0.35436  0.47760  0.85616  Biso   1.000  Hf
  O9       1.0000 0.02925  0.16398  0.57517  Biso   1.000  O 
  O10      1.0000 0.02612  0.08004  0.82762  Biso   1.000  O 
  O11      1.0000 0.45934  0.41613  0.67229  Biso   1.000  O 
  O12      1.0000 0.46234  0.33657  0.92419  Biso   1.000  O 
  O13      1.0000 0.26739  0.12501  0.73281  Biso   1.000  O 
  O14      1.0000 0.28652  0.13734  0.97040  Biso   1.000  O 
  O15      1.0000 0.21847  0.37689  0.50857  Biso   1.000  O 
  O16      1.0000 0.21882  0.36788  0.76049  Biso   1.000  O 
  Hf8      1.0000 0.14114  0.52229  0.14605  Biso   1.000  Hf
  Hf9      1.0000 0.13743  0.72640  0.39779  Biso   1.000  Hf
  Hf10     1.0000 0.36098  0.77585  0.10541  Biso   1.000  Hf
  Hf11     1.0000 0.36158  0.97671  0.35228  Biso   1.000  Hf
  O17      1.0000 0.03829  0.66846  0.07987  Biso   1.000  O 
  O18      1.0000 0.03543  0.57892  0.33081  Biso   1.000  O 
  O19      1.0000 0.46883  0.91685  0.17239  Biso   1.000  O 
  O20      1.0000 0.46323  0.82994  0.42086  Biso   1.000  O 
  O21      1.0000 0.27734  0.62947  0.24117  Biso   1.000  O 
  O22      1.0000 0.27506  0.61888  0.49170  Biso   1.000  O 
  O23      1.0000 0.22366  0.90386  0.02179  Biso   1.000  O 
  O24      1.0000 0.21823  0.87096  0.26056  Biso   1.000  O 
  Hf12     1.0000 0.13596  0.51851  0.64680  Biso   1.000  Hf
  Hf13     1.0000 0.13139  0.72768  0.89746  Biso   1.000  Hf
  Hf14     1.0000 0.35874  0.77033  0.60684  Biso   1.000  Hf
  Hf15     1.0000 0.35738  0.98212  0.85657  Biso   1.000  Hf
  O25      1.0000 0.03216  0.66488  0.58144  Biso   1.000  O 
  O26      1.0000 0.03051  0.58029  0.83208  Biso   1.000  O 
  O27      1.0000 0.46209  0.91759  0.67176  Biso   1.000  O 
  O28      1.0000 0.45270  0.82979  0.92410  Biso   1.000  O 
  O29      1.0000 0.27130  0.62723  0.74146  Biso   1.000  O 
  O30      1.0000 0.26815  0.62481  0.99206  Biso   1.000  O 
  O31      1.0000 0.22251  0.87692  0.51068  Biso   1.000  O 
  O32      1.0000 0.21972  0.86924  0.76428  Biso   1.000  O 
  Hf16     1.0000 0.63693  0.02197  0.14605  Biso   1.000  Hf
  Hf17     1.0000 0.63605  0.22731  0.39624  Biso   1.000  Hf
  Hf18     1.0000 0.86901  0.26585  0.10630  Biso   1.000  Hf
  Hf19     1.0000 0.85955  0.47696  0.35481  Biso   1.000  Hf
  O33      1.0000 0.53634  0.16856  0.07917  Biso   1.000  O 
  O34      1.0000 0.52982  0.08226  0.32868  Biso   1.000  O 
  O35      1.0000 0.96893  0.41441  0.17266  Biso   1.000  O 
  O36      1.0000 0.96058  0.32853  0.42116  Biso   1.000  O 
  O37      1.0000 0.77494  0.12585  0.24181  Biso   1.000  O 
  O38      1.0000 0.77186  0.11848  0.49195  Biso   1.000  O 
  O39      1.0000 0.73087  0.37712  0.01209  Biso   1.000  O 
  O40      1.0000 0.72546  0.36788  0.25962  Biso   1.000  O 
  Hf20     1.0000 0.63108  0.01966  0.64781  Biso   1.000  Hf
  Hf21     1.0000 0.63148  0.22754  0.89885  Biso   1.000  Hf
  Hf22     1.0000 0.85621  0.26940  0.60601  Biso   1.000  Hf
  Hf23     1.0000 0.85647  0.47424  0.85858  Biso   1.000  Hf
  O41      1.0000 0.52990  0.16670  0.57944  Biso   1.000  O 
  O42      1.0000 0.53041  0.07928  0.83060  Biso   1.000  O 
  O43      1.0000 0.96149  0.41341  0.67507  Biso   1.000  O 
  O44      1.0000 0.96016  0.32731  0.92838  Biso   1.000  O 
  O45      1.0000 0.77048  0.12759  0.74160  Biso   1.000  O 
  O46      1.0000 0.76828  0.11769  0.99354  Biso   1.000  O 
  O47      1.0000 0.71973  0.37681  0.51141  Biso   1.000  O 
  O48      1.0000 0.71853  0.36977  0.76279  Biso   1.000  O 
  Hf24     1.0000 0.63876  0.51953  0.14553  Biso   1.000  Hf
  Hf25     1.0000 0.63754  0.72615  0.39672  Biso   1.000  Hf
  Hf26     1.0000 0.86371  0.77055  0.10482  Biso   1.000  Hf
  Hf27     1.0000 0.85886  0.97492  0.35829  Biso   1.000  Hf
  O49      1.0000 0.53679  0.66951  0.08039  Biso   1.000  O 
  O50      1.0000 0.53592  0.57870  0.33034  Biso   1.000  O 
  O51      1.0000 0.96999  0.91606  0.17400  Biso   1.000  O 
  O52      1.0000 0.96251  0.82843  0.42379  Biso   1.000  O 
  O53      1.0000 0.77765  0.62710  0.24069  Biso   1.000  O 
  O54      1.0000 0.77433  0.61835  0.49212  Biso   1.000  O 
  O55      1.0000 0.72722  0.87962  0.01045  Biso   1.000  O 
  O56      1.0000 0.72703  0.86927  0.26057  Biso   1.000  O 
  Hf28     1.0000 0.63435  0.51926  0.64817  Biso   1.000  Hf
  Hf29     1.0000 0.63036  0.72690  0.89908  Biso   1.000  Hf
  Hf30     1.0000 0.85720  0.76763  0.60743  Biso   1.000  Hf
  Hf31     1.0000 0.85731  0.97665  0.85592  Biso   1.000  Hf
  O57      1.0000 0.53280  0.66673  0.58016  Biso   1.000  O 
  O58      1.0000 0.52810  0.58229  0.82970  Biso   1.000  O 
  O59      1.0000 0.96153  0.91431  0.67285  Biso   1.000  O 
  O60      1.0000 0.95765  0.82963  0.92453  Biso   1.000  O 
  O61      1.0000 0.77188  0.62581  0.74370  Biso   1.000  O 
  O62      1.0000 0.76805  0.61785  0.99271  Biso   1.000  O 
  O63      1.0000 0.72057  0.87602  0.51196  Biso   1.000  O 
  O64      1.0000 0.71897  0.86849  0.76248  Biso   1.000  O 
