data_image0
_cell_length_a       5.03844
_cell_length_b       10.1946
_cell_length_c       10.4763
_cell_angle_alpha    90
_cell_angle_beta     80
_cell_angle_gamma    90

_symmetry_space_group_name_H-M    "P 1"
_symmetry_int_tables_number       1

loop_
  _symmetry_equiv_pos_as_xyz
  'x, y, z'

loop_
  _atom_site_label
  _atom_site_occupancy
  _atom_site_fract_x
  _atom_site_fract_y
  _atom_site_fract_z
  _atom_site_thermal_displace_type
  _atom_site_B_iso_or_equiv
  _atom_site_type_symbol
  Ge1      1.0000 0.23734  0.01242  0.16078  Biso   1.000  Ge
  Hf1      1.0000 0.26768  0.22456  0.39081  Biso   1.000  Hf
  Hf2      1.0000 0.73524  0.26287  0.10286  Biso   1.000  Hf
  Hf3      1.0000 0.72158  0.47522  0.35418  Biso   1.000  Hf
  O1       1.0000 0.09916  0.15142  0.07791  Biso   1.000  O 
  O2       1.0000 0.05189  0.07854  0.32280  Biso   1.000  O 
  O3       1.0000 0.94261  0.41096  0.17459  Biso   1.000  O 
  O4       1.0000 0.92499  0.33031  0.42371  Biso   1.000  O 
  O5       1.0000 0.52257  0.11385  0.22556  Biso   1.000  O 
  O6       1.0000 0.54080  0.11899  0.48307  Biso   1.000  O 
  O7       1.0000 0.46874  0.38284  0.01144  Biso   1.000  O 
  O8       1.0000 0.45760  0.36341  0.25913  Biso   1.000  O 
  Hf4      1.0000 0.25257  0.01711  0.64552  Biso   1.000  Hf
  Hf5      1.0000 0.26516  0.22141  0.89728  Biso   1.000  Hf
  Hf6      1.0000 0.70973  0.26814  0.60465  Biso   1.000  Hf
  Hf7      1.0000 0.71046  0.47343  0.85998  Biso   1.000  Hf
  O9       1.0000 0.05276  0.15985  0.57252  Biso   1.000  O 
  O10      1.0000 0.05086  0.08004  0.82600  Biso   1.000  O 
  O11      1.0000 0.92318  0.40911  0.67804  Biso   1.000  O 
  O12      1.0000 0.92817  0.33378  0.93265  Biso   1.000  O 
  O13      1.0000 0.53181  0.12327  0.73289  Biso   1.000  O 
  O14      1.0000 0.56931  0.13458  0.97197  Biso   1.000  O 
  O15      1.0000 0.43657  0.37441  0.51036  Biso   1.000  O 
  O16      1.0000 0.43808  0.36689  0.76335  Biso   1.000  O 
  Hf8      1.0000 0.28311  0.52043  0.14569  Biso   1.000  Hf
  Hf9      1.0000 0.27718  0.72383  0.39843  Biso   1.000  Hf
  Hf10     1.0000 0.72806  0.77483  0.10626  Biso   1.000  Hf
  Hf11     1.0000 0.72239  0.97288  0.35565  Biso   1.000  Hf
  O17      1.0000 0.07814  0.66777  0.07943  Biso   1.000  O 
  O18      1.0000 0.07381  0.57801  0.32999  Biso   1.000  O 
  O19      1.0000 0.95138  0.91302  0.17617  Biso   1.000  O 
  O20      1.0000 0.92983  0.82896  0.42510  Biso   1.000  O 
  O21      1.0000 0.55926  0.62681  0.24097  Biso   1.000  O 
  O22      1.0000 0.55157  0.61648  0.49283  Biso   1.000  O 
  O23      1.0000 0.45480  0.90429  0.02329  Biso   1.000  O 
  O24      1.0000 0.44725  0.86869  0.26214  Biso   1.000  O 
  Hf12     1.0000 0.27115  0.51624  0.64868  Biso   1.000  Hf
  Hf13     1.0000 0.25662  0.72644  0.89987  Biso   1.000  Hf
  Hf14     1.0000 0.71772  0.76651  0.60949  Biso   1.000  Hf
  Hf15     1.0000 0.71909  0.98003  0.85710  Biso   1.000  Hf
  O25      1.0000 0.06457  0.66130  0.58030  Biso   1.000  O 
  O26      1.0000 0.05562  0.58246  0.83044  Biso   1.000  O 
  O27      1.0000 0.92929  0.91143  0.67501  Biso   1.000  O 
  O28      1.0000 0.90446  0.82924  0.92847  Biso   1.000  O 
  O29      1.0000 0.54238  0.62381  0.74382  Biso   1.000  O 
  O30      1.0000 0.53109  0.62252  0.99314  Biso   1.000  O 
  O31      1.0000 0.44668  0.87381  0.51285  Biso   1.000  O 
  O32      1.0000 0.44098  0.86702  0.76680  Biso   1.000  O 
