data_image0
_cell_length_a       10.1182
_cell_length_b       10.3079
_cell_length_c       5.10145
_cell_angle_alpha    90
_cell_angle_beta     90
_cell_angle_gamma    90

_symmetry_space_group_name_H-M    "P 1"
_symmetry_int_tables_number       1

loop_
  _symmetry_equiv_pos_as_xyz
  'x, y, z'

loop_
  _atom_site_label
  _atom_site_occupancy
  _atom_site_fract_x
  _atom_site_fract_y
  _atom_site_fract_z
  _atom_site_thermal_displace_type
  _atom_site_B_iso_or_equiv
  _atom_site_type_symbol
  Hf1      1.0000 0.11310  0.98399  0.24867  Biso   1.000  Hf
  Hf2      1.0000 0.08918  0.20648  0.74645  Biso   1.000  Hf
  Hf3      1.0000 0.36620  0.25058  0.17824  Biso   1.000  Hf
  Hf4      1.0000 0.35554  0.01084  0.70839  Biso   1.000  Hf
  O1       1.0000 0.99114  0.13745  0.03484  Biso   1.000  O 
  O2       1.0000 0.96557  0.08246  0.51622  Biso   1.000  O 
  O3       1.0000 0.93560  0.33433  0.67325  Biso   1.000  O 
  O4       1.0000 0.98357  0.42397  0.14649  Biso   1.000  O 
  O5       1.0000 0.23502  0.13745  0.46254  Biso   1.000  O 
  O6       1.0000 0.21279  0.08246  0.97664  Biso   1.000  O 
  O7       1.0000 0.24277  0.33433  0.81960  Biso   1.000  O 
  O8       1.0000 0.24260  0.42397  0.35087  Biso   1.000  O 
  Hf5      1.0000 0.11308  0.56994  0.24867  Biso   1.000  Hf
  Hf6      1.0000 0.08918  0.76127  0.74642  Biso   1.000  Hf
  Hf7      1.0000 0.38399  0.74051  0.21875  Biso   1.000  Hf
  Hf8      1.0000 0.33791  0.49655  0.70129  Biso   1.000  Hf
  O9       1.0000 0.98519  0.66295  0.00490  Biso   1.000  O 
  O10      1.0000 0.97782  0.60237  0.54184  Biso   1.000  O 
  O11      1.0000 0.99815  0.83441  0.40696  Biso   1.000  O 
  O12      1.0000 0.97171  0.90527  0.91038  Biso   1.000  O 
  O13      1.0000 0.24099  0.66294  0.49245  Biso   1.000  O 
  O14      1.0000 0.20056  0.60237  0.95100  Biso   1.000  O 
  O15      1.0000 0.22803  0.83440  0.09040  Biso   1.000  O 
  O16      1.0000 0.20667  0.90526  0.58246  Biso   1.000  O 
  Hf9      1.0000 0.61309  0.00138  0.24865  Biso   1.000  Hf
  Hf10     1.0000 0.58920  0.25898  0.74644  Biso   1.000  Hf
  Hf11     1.0000 0.86000  0.25060  0.31912  Biso   1.000  Hf
  Hf12     1.0000 0.82282  0.01084  0.78442  Biso   1.000  Hf
  O17      1.0000 0.45672  0.14619  0.95506  Biso   1.000  O 
  O18      1.0000 0.48014  0.10621  0.45329  Biso   1.000  O 
  O19      1.0000 0.47286  0.35353  0.47733  Biso   1.000  O 
  O20      1.0000 0.45834  0.39468  0.97714  Biso   1.000  O 
  O21      1.0000 0.72165  0.14618  0.53772  Biso   1.000  O 
  O22      1.0000 0.74601  0.10623  0.04396  Biso   1.000  O 
  O23      1.0000 0.75332  0.35355  0.02003  Biso   1.000  O 
  O24      1.0000 0.72004  0.39468  0.51573  Biso   1.000  O 
  Hf13     1.0000 0.61308  0.49127  0.24868  Biso   1.000  Hf
  Hf14     1.0000 0.58918  0.74389  0.74644  Biso   1.000  Hf
  Hf15     1.0000 0.84219  0.74051  0.27862  Biso   1.000  Hf
  Hf16     1.0000 0.84046  0.49655  0.79158  Biso   1.000  Hf
  O25      1.0000 0.45034  0.64139  0.95234  Biso   1.000  O 
  O26      1.0000 0.48346  0.60212  0.46405  Biso   1.000  O 
  O27      1.0000 0.47331  0.85609  0.50152  Biso   1.000  O 
  O28      1.0000 0.49537  0.89055  0.00396  Biso   1.000  O 
  O29      1.0000 0.72803  0.64139  0.54053  Biso   1.000  O 
  O30      1.0000 0.74272  0.60212  0.03333  Biso   1.000  O 
  O31      1.0000 0.70506  0.85611  0.99133  Biso   1.000  O 
  O32      1.0000 0.73082  0.89055  0.49339  Biso   1.000  O 
  Ge1      1.0000 0.11310  0.29024  0.24870  Biso   1.000  Ge
