data_image0
_cell_length_a       10.0808
_cell_length_b       10.1945
_cell_length_c       5.23607
_cell_angle_alpha    90
_cell_angle_beta     80
_cell_angle_gamma    90

_symmetry_space_group_name_H-M    "P 1"
_symmetry_int_tables_number       1

loop_
  _symmetry_equiv_pos_as_xyz
  'x, y, z'

loop_
  _atom_site_label
  _atom_site_occupancy
  _atom_site_fract_x
  _atom_site_fract_y
  _atom_site_fract_z
  _atom_site_thermal_displace_type
  _atom_site_B_iso_or_equiv
  _atom_site_type_symbol
  Ge1      1.0000 0.11817  0.01139  0.31863  Biso   1.000  Ge
  Hf1      1.0000 0.13725  0.22152  0.77717  Biso   1.000  Hf
  Hf2      1.0000 0.35975  0.26842  0.19663  Biso   1.000  Hf
  Hf3      1.0000 0.36115  0.47718  0.70888  Biso   1.000  Hf
  O1       1.0000 0.04847  0.14941  0.14752  Biso   1.000  O 
  O2       1.0000 0.02883  0.07706  0.64443  Biso   1.000  O 
  O3       1.0000 0.46709  0.41369  0.34650  Biso   1.000  O 
  O4       1.0000 0.46999  0.33957  0.85183  Biso   1.000  O 
  O5       1.0000 0.25977  0.11426  0.43157  Biso   1.000  O 
  O6       1.0000 0.29265  0.14178  0.91604  Biso   1.000  O 
  O7       1.0000 0.22747  0.38447  0.01347  Biso   1.000  O 
  O8       1.0000 0.22730  0.36523  0.51669  Biso   1.000  O 
  Hf4      1.0000 0.14441  0.52101  0.29251  Biso   1.000  Hf
  Hf5      1.0000 0.13814  0.72714  0.79648  Biso   1.000  Hf
  Hf6      1.0000 0.36427  0.77645  0.21464  Biso   1.000  Hf
  Hf7      1.0000 0.36573  0.98150  0.70557  Biso   1.000  Hf
  O9       1.0000 0.03965  0.66470  0.15924  Biso   1.000  O 
  O10      1.0000 0.03713  0.58117  0.66181  Biso   1.000  O 
  O11      1.0000 0.47399  0.91562  0.34865  Biso   1.000  O 
  O12      1.0000 0.46026  0.83168  0.84983  Biso   1.000  O 
  O13      1.0000 0.27898  0.62847  0.48191  Biso   1.000  O 
  O14      1.0000 0.27520  0.62519  0.98379  Biso   1.000  O 
  O15      1.0000 0.22793  0.90422  0.04576  Biso   1.000  O 
  O16      1.0000 0.22308  0.87021  0.52978  Biso   1.000  O 
  Hf8      1.0000 0.63644  0.02174  0.29358  Biso   1.000  Hf
  Hf9      1.0000 0.63699  0.22771  0.79586  Biso   1.000  Hf
  Hf10     1.0000 0.87075  0.26535  0.21438  Biso   1.000  Hf
  Hf11     1.0000 0.86255  0.47446  0.71599  Biso   1.000  Hf
  O17      1.0000 0.53543  0.16583  0.15323  Biso   1.000  O 
  O18      1.0000 0.53367  0.08215  0.65476  Biso   1.000  O 
  O19      1.0000 0.97319  0.40943  0.35566  Biso   1.000  O 
  O20      1.0000 0.96563  0.32823  0.85853  Biso   1.000  O 
  O21      1.0000 0.77652  0.12574  0.48246  Biso   1.000  O 
  O22      1.0000 0.77269  0.11716  0.98626  Biso   1.000  O 
  O23      1.0000 0.73300  0.37622  0.02688  Biso   1.000  O 
  O24      1.0000 0.72798  0.36830  0.52396  Biso   1.000  O 
  Hf12     1.0000 0.64039  0.51873  0.29357  Biso   1.000  Hf
  Hf13     1.0000 0.63671  0.72605  0.79727  Biso   1.000  Hf
  Hf14     1.0000 0.86583  0.76825  0.21359  Biso   1.000  Hf
  Hf15     1.0000 0.86253  0.97442  0.71697  Biso   1.000  Hf
  O25      1.0000 0.53875  0.66740  0.15758  Biso   1.000  O 
  O26      1.0000 0.53502  0.58276  0.65571  Biso   1.000  O 
  O27      1.0000 0.97430  0.91244  0.35118  Biso   1.000  O 
  O28      1.0000 0.96482  0.82986  0.85479  Biso   1.000  O 
  O29      1.0000 0.77946  0.62510  0.48499  Biso   1.000  O 
  O30      1.0000 0.77411  0.61724  0.98533  Biso   1.000  O 
  O31      1.0000 0.72989  0.87795  0.02353  Biso   1.000  O 
  O32      1.0000 0.73010  0.86823  0.52429  Biso   1.000  O 
