data_image0
_cell_length_a       10.0091
_cell_length_b       10.201
_cell_length_c       10.4401
_cell_angle_alpha    90
_cell_angle_beta     90
_cell_angle_gamma    90

_symmetry_space_group_name_H-M    "P 1"
_symmetry_int_tables_number       1

loop_
  _symmetry_equiv_pos_as_xyz
  'x, y, z'

loop_
  _atom_site_label
  _atom_site_occupancy
  _atom_site_fract_x
  _atom_site_fract_y
  _atom_site_fract_z
  _atom_site_thermal_displace_type
  _atom_site_B_iso_or_equiv
  _atom_site_type_symbol
  Ge1      1.0000 0.11929  0.00956  0.18685  Biso   1.000  Ge
  Hf1      1.0000 0.13546  0.22854  0.41580  Biso   1.000  Hf
  Hf2      1.0000 0.35903  0.26993  0.16749  Biso   1.000  Hf
  Hf3      1.0000 0.35932  0.47838  0.42096  Biso   1.000  Hf
  Hf4      1.0000 0.63919  0.02160  0.07754  Biso   1.000  Hf
  Hf5      1.0000 0.63615  0.22870  0.32817  Biso   1.000  Hf
  Hf6      1.0000 0.86993  0.26552  0.08271  Biso   1.000  Hf
  Hf7      1.0000 0.86033  0.47803  0.32956  Biso   1.000  Hf
  O1       1.0000 0.05203  0.15118  0.08977  Biso   1.000  O 
  O2       1.0000 0.03044  0.07793  0.33324  Biso   1.000  O 
  O3       1.0000 0.46792  0.41769  0.08494  Biso   1.000  O 
  O4       1.0000 0.46374  0.33074  0.33588  Biso   1.000  O 
  O5       1.0000 0.26499  0.11538  0.27792  Biso   1.000  O 
  O6       1.0000 0.30287  0.14683  0.02407  Biso   1.000  O 
  O7       1.0000 0.22268  0.37287  0.29450  Biso   1.000  O 
  O8       1.0000 0.22271  0.38383  0.04434  Biso   1.000  O 
  O9       1.0000 0.53528  0.16758  0.16409  Biso   1.000  O 
  O10      1.0000 0.52898  0.08147  0.41291  Biso   1.000  O 
  O11      1.0000 0.97010  0.41329  0.16858  Biso   1.000  O 
  O12      1.0000 0.96326  0.33163  0.41603  Biso   1.000  O 
  O13      1.0000 0.77186  0.12206  0.45619  Biso   1.000  O 
  O14      1.0000 0.77763  0.12437  0.20608  Biso   1.000  O 
  O15      1.0000 0.72131  0.37280  0.45655  Biso   1.000  O 
  O16      1.0000 0.72644  0.37362  0.20567  Biso   1.000  O 
  Hf8      1.0000 0.13186  0.02004  0.66818  Biso   1.000  Hf
  Hf9      1.0000 0.13927  0.22423  0.92088  Biso   1.000  Hf
  Hf10     1.0000 0.35691  0.27098  0.66946  Biso   1.000  Hf
  Hf11     1.0000 0.35646  0.47860  0.92139  Biso   1.000  Hf
  Hf12     1.0000 0.63149  0.02011  0.57926  Biso   1.000  Hf
  Hf13     1.0000 0.63429  0.22871  0.82950  Biso   1.000  Hf
  Hf14     1.0000 0.85779  0.26972  0.57987  Biso   1.000  Hf
  Hf15     1.0000 0.85991  0.47556  0.83245  Biso   1.000  Hf
  O17      1.0000 0.02915  0.16352  0.57960  Biso   1.000  O 
  O18      1.0000 0.02779  0.08434  0.83150  Biso   1.000  O 
  O19      1.0000 0.46309  0.41739  0.58472  Biso   1.000  O 
  O20      1.0000 0.46266  0.33388  0.83332  Biso   1.000  O 
  O21      1.0000 0.27059  0.12079  0.78546  Biso   1.000  O 
  O22      1.0000 0.27275  0.12788  0.53657  Biso   1.000  O 
  O23      1.0000 0.22046  0.37197  0.79485  Biso   1.000  O 
  O24      1.0000 0.21922  0.37568  0.54350  Biso   1.000  O 
  O25      1.0000 0.52966  0.16797  0.66370  Biso   1.000  O 
  O26      1.0000 0.53210  0.07910  0.91099  Biso   1.000  O 
  O27      1.0000 0.96499  0.41225  0.66983  Biso   1.000  O 
  O28      1.0000 0.96522  0.32977  0.92308  Biso   1.000  O 
  O29      1.0000 0.77328  0.12187  0.95699  Biso   1.000  O 
  O30      1.0000 0.77162  0.12570  0.70535  Biso   1.000  O 
  O31      1.0000 0.72191  0.37028  0.95845  Biso   1.000  O 
  O32      1.0000 0.72095  0.37582  0.70729  Biso   1.000  O 
  Hf16     1.0000 0.14055  0.52277  0.17138  Biso   1.000  Hf
  Hf17     1.0000 0.13671  0.72783  0.42217  Biso   1.000  Hf
  Hf18     1.0000 0.36087  0.77665  0.17055  Biso   1.000  Hf
  Hf19     1.0000 0.36010  0.97992  0.41869  Biso   1.000  Hf
  Hf20     1.0000 0.64110  0.52011  0.07902  Biso   1.000  Hf
  Hf21     1.0000 0.63711  0.72696  0.32838  Biso   1.000  Hf
  Hf22     1.0000 0.86420  0.77046  0.07951  Biso   1.000  Hf
  Hf23     1.0000 0.85809  0.97688  0.33235  Biso   1.000  Hf
  O33      1.0000 0.03681  0.66736  0.08510  Biso   1.000  O 
  O34      1.0000 0.03286  0.58255  0.33526  Biso   1.000  O 
  O35      1.0000 0.47164  0.91636  0.08274  Biso   1.000  O 
  O36      1.0000 0.46336  0.83240  0.33472  Biso   1.000  O 
  O37      1.0000 0.27628  0.62568  0.29444  Biso   1.000  O 
  O38      1.0000 0.28086  0.63535  0.04327  Biso   1.000  O 
  O39      1.0000 0.21586  0.87622  0.29246  Biso   1.000  O 
  O40      1.0000 0.21958  0.89775  0.05298  Biso   1.000  O 
  O41      1.0000 0.53402  0.66761  0.16478  Biso   1.000  O 
  O42      1.0000 0.53248  0.58206  0.41491  Biso   1.000  O 
  O43      1.0000 0.96997  0.91539  0.16941  Biso   1.000  O 
  O44      1.0000 0.96416  0.83203  0.41783  Biso   1.000  O 
  O45      1.0000 0.77499  0.62232  0.45600  Biso   1.000  O 
  O46      1.0000 0.77724  0.62520  0.20598  Biso   1.000  O 
  O47      1.0000 0.72041  0.87158  0.45638  Biso   1.000  O 
  O48      1.0000 0.72699  0.87543  0.20636  Biso   1.000  O 
  Hf24     1.0000 0.13674  0.51994  0.67198  Biso   1.000  Hf
  Hf25     1.0000 0.13407  0.73135  0.92180  Biso   1.000  Hf
  Hf26     1.0000 0.35974  0.77105  0.67218  Biso   1.000  Hf
  Hf27     1.0000 0.35857  0.98211  0.92210  Biso   1.000  Hf
  Hf28     1.0000 0.63679  0.51995  0.57986  Biso   1.000  Hf
  Hf29     1.0000 0.63599  0.72813  0.82944  Biso   1.000  Hf
  Hf30     1.0000 0.85856  0.76894  0.58057  Biso   1.000  Hf
  Hf31     1.0000 0.86052  0.97889  0.82907  Biso   1.000  Hf
  O49      1.0000 0.03101  0.66392  0.58491  Biso   1.000  O 
  O50      1.0000 0.03113  0.58409  0.83637  Biso   1.000  O 
  O51      1.0000 0.46379  0.91748  0.58393  Biso   1.000  O 
  O52      1.0000 0.46424  0.83291  0.83427  Biso   1.000  O 
  O53      1.0000 0.27326  0.62308  0.79444  Biso   1.000  O 
  O54      1.0000 0.27460  0.62554  0.54498  Biso   1.000  O 
  O55      1.0000 0.22106  0.87293  0.79721  Biso   1.000  O 
  O56      1.0000 0.22263  0.87580  0.54388  Biso   1.000  O 
  O57      1.0000 0.53216  0.66685  0.66469  Biso   1.000  O 
  O58      1.0000 0.53054  0.58167  0.91501  Biso   1.000  O 
  O59      1.0000 0.96565  0.91354  0.66690  Biso   1.000  O 
  O60      1.0000 0.96226  0.83379  0.91799  Biso   1.000  O 
  O61      1.0000 0.77351  0.62152  0.95685  Biso   1.000  O 
  O62      1.0000 0.77507  0.62414  0.70726  Biso   1.000  O 
  O63      1.0000 0.72060  0.87190  0.95596  Biso   1.000  O 
  O64      1.0000 0.72180  0.87572  0.70604  Biso   1.000  O 
