data_image0
_cell_length_a       10.0707
_cell_length_b       10.2742
_cell_length_c       10.4672
_cell_angle_alpha    90
_cell_angle_beta     90
_cell_angle_gamma    90

_symmetry_space_group_name_H-M    "P 1"
_symmetry_int_tables_number       1

loop_
  _symmetry_equiv_pos_as_xyz
  'x, y, z'

loop_
  _atom_site_label
  _atom_site_occupancy
  _atom_site_fract_x
  _atom_site_fract_y
  _atom_site_fract_z
  _atom_site_thermal_displace_type
  _atom_site_B_iso_or_equiv
  _atom_site_type_symbol
  Hf1      1.0000 0.13091  0.01758  0.17488  Biso   1.000  Hf
  Hf2      1.0000 0.13107  0.22830  0.42549  Biso   1.000  Hf
  Hf3      1.0000 0.34288  0.26724  0.18224  Biso   1.000  Hf
  Hf4      1.0000 0.35617  0.47926  0.42274  Biso   1.000  Hf
  Hf5      1.0000 0.64216  0.01701  0.07529  Biso   1.000  Hf
  Hf6      1.0000 0.63213  0.22889  0.32921  Biso   1.000  Hf
  Hf7      1.0000 0.86032  0.27181  0.07630  Biso   1.000  Hf
  Hf8      1.0000 0.85690  0.47893  0.32790  Biso   1.000  Hf
  O1       1.0000 0.03091  0.16878  0.08841  Biso   1.000  O 
  O2       1.0000 0.02530  0.08384  0.33702  Biso   1.000  O 
  O3       1.0000 0.46706  0.43121  0.09730  Biso   1.000  O 
  O4       1.0000 0.45862  0.33272  0.33520  Biso   1.000  O 
  O5       1.0000 0.26575  0.12351  0.30093  Biso   1.000  O 
  O6       1.0000 0.26251  0.11220  0.05182  Biso   1.000  O 
  O7       1.0000 0.21293  0.37644  0.30166  Biso   1.000  O 
  O8       1.0000 0.21784  0.37865  0.05167  Biso   1.000  O 
  O9       1.0000 0.51929  0.15301  0.17747  Biso   1.000  O 
  O10      1.0000 0.52528  0.08559  0.42027  Biso   1.000  O 
  O11      1.0000 0.96179  0.41837  0.16590  Biso   1.000  O 
  O12      1.0000 0.96088  0.33411  0.41595  Biso   1.000  O 
  O13      1.0000 0.76842  0.12521  0.45323  Biso   1.000  O 
  O14      1.0000 0.76889  0.12693  0.20273  Biso   1.000  O 
  O15      1.0000 0.71784  0.37502  0.45334  Biso   1.000  O 
  O16      1.0000 0.71900  0.37518  0.20401  Biso   1.000  O 
  Hf9      1.0000 0.13018  0.02164  0.67395  Biso   1.000  Hf
  Hf10     1.0000 0.12677  0.22877  0.92555  Biso   1.000  Hf
  Hf11     1.0000 0.35495  0.27168  0.67263  Biso   1.000  Hf
  Hf12     1.0000 0.34493  0.48357  0.92655  Biso   1.000  Hf
  Hf13     1.0000 0.63091  0.02131  0.57910  Biso   1.000  Hf
  Hf14     1.0000 0.64421  0.23333  0.81961  Biso   1.000  Hf
  Hf15     1.0000 0.85601  0.27227  0.57634  Biso   1.000  Hf
  Hf16     1.0000 0.85617  0.48298  0.82696  Biso   1.000  Hf
  O17      1.0000 0.02621  0.16647  0.58590  Biso   1.000  O 
  O18      1.0000 0.02530  0.08220  0.83595  Biso   1.000  O 
  O19      1.0000 0.46181  0.41498  0.58156  Biso   1.000  O 
  O20      1.0000 0.46780  0.34758  0.82436  Biso   1.000  O 
  O21      1.0000 0.26808  0.12539  0.79782  Biso   1.000  O 
  O22      1.0000 0.26923  0.12555  0.54850  Biso   1.000  O 
  O23      1.0000 0.21819  0.37364  0.79911  Biso   1.000  O 
  O24      1.0000 0.21867  0.37536  0.54862  Biso   1.000  O 
  O25      1.0000 0.52846  0.16785  0.66663  Biso   1.000  O 
  O26      1.0000 0.52004  0.06936  0.90453  Biso   1.000  O 
  O27      1.0000 0.96179  0.41674  0.66483  Biso   1.000  O 
  O28      1.0000 0.95619  0.33179  0.91343  Biso   1.000  O 
  O29      1.0000 0.76924  0.12192  0.95017  Biso   1.000  O 
  O30      1.0000 0.77414  0.12413  0.70018  Biso   1.000  O 
  O31      1.0000 0.72458  0.38837  0.95001  Biso   1.000  O 
  O32      1.0000 0.72134  0.37705  0.70091  Biso   1.000  O 
  Hf17     1.0000 0.13475  0.52230  0.17354  Biso   1.000  Hf
  Hf18     1.0000 0.13339  0.72914  0.42274  Biso   1.000  Hf
  Hf19     1.0000 0.36186  0.77151  0.17417  Biso   1.000  Hf
  Hf20     1.0000 0.35745  0.97839  0.42542  Biso   1.000  Hf
  Hf21     1.0000 0.64309  0.52512  0.07811  Biso   1.000  Hf
  Hf22     1.0000 0.63570  0.73020  0.32880  Biso   1.000  Hf
  Hf23     1.0000 0.86266  0.77019  0.07876  Biso   1.000  Hf
  Hf24     1.0000 0.85683  0.98001  0.32954  Biso   1.000  Hf
  O33      1.0000 0.03423  0.66711  0.08496  Biso   1.000  O 
  O34      1.0000 0.02810  0.58469  0.33604  Biso   1.000  O 
  O35      1.0000 0.46961  0.91495  0.08454  Biso   1.000  O 
  O36      1.0000 0.46446  0.83535  0.33653  Biso   1.000  O 
  O37      1.0000 0.27227  0.62495  0.29595  Biso   1.000  O 
  O38      1.0000 0.27698  0.62516  0.04664  Biso   1.000  O 
  O39      1.0000 0.22151  0.87389  0.29823  Biso   1.000  O 
  O40      1.0000 0.22535  0.87064  0.04919  Biso   1.000  O 
  O41      1.0000 0.53570  0.67119  0.16576  Biso   1.000  O 
  O42      1.0000 0.52779  0.58512  0.41499  Biso   1.000  O 
  O43      1.0000 0.96206  0.91742  0.16592  Biso   1.000  O 
  O44      1.0000 0.96148  0.83386  0.41596  Biso   1.000  O 
  O45      1.0000 0.77090  0.62455  0.45446  Biso   1.000  O 
  O46      1.0000 0.77613  0.62712  0.20482  Biso   1.000  O 
  O47      1.0000 0.71981  0.87546  0.45584  Biso   1.000  O 
  O48      1.0000 0.72242  0.87594  0.20538  Biso   1.000  O 
  Hf25     1.0000 0.13260  0.52056  0.67230  Biso   1.000  Hf
  Hf26     1.0000 0.12677  0.73038  0.92308  Biso   1.000  Hf
  Hf27     1.0000 0.35374  0.77037  0.67304  Biso   1.000  Hf
  Hf28     1.0000 0.34636  0.97546  0.92373  Biso   1.000  Hf
  Hf29     1.0000 0.63198  0.52218  0.57641  Biso   1.000  Hf
  Hf30     1.0000 0.62758  0.72906  0.82767  Biso   1.000  Hf
  Hf31     1.0000 0.85605  0.77143  0.57909  Biso   1.000  Hf
  Hf32     1.0000 0.85469  0.97827  0.82830  Biso   1.000  Hf
  O49      1.0000 0.02795  0.66671  0.58588  Biso   1.000  O 
  O50      1.0000 0.02737  0.58315  0.83592  Biso   1.000  O 
  O51      1.0000 0.46164  0.91546  0.58685  Biso   1.000  O 
  O52      1.0000 0.45374  0.82938  0.83608  Biso   1.000  O 
  O53      1.0000 0.26703  0.62463  0.79646  Biso   1.000  O 
  O54      1.0000 0.26963  0.62512  0.54600  Biso   1.000  O 
  O55      1.0000 0.21331  0.87345  0.79702  Biso   1.000  O 
  O56      1.0000 0.21855  0.87602  0.54738  Biso   1.000  O 
  O57      1.0000 0.52497  0.66522  0.66531  Biso   1.000  O 
  O58      1.0000 0.51983  0.58563  0.91731  Biso   1.000  O 
  O59      1.0000 0.96133  0.91587  0.66580  Biso   1.000  O 
  O60      1.0000 0.95521  0.83346  0.91688  Biso   1.000  O 
  O61      1.0000 0.76409  0.62993  0.95264  Biso   1.000  O 
  O62      1.0000 0.76793  0.62667  0.70361  Biso   1.000  O 
  O63      1.0000 0.71245  0.87541  0.95519  Biso   1.000  O 
  O64      1.0000 0.71716  0.87561  0.70590  Biso   1.000  O 
  Ge1      1.0000 0.50196  0.24993  0.00099  Biso   1.000  Ge
