data_image0
_cell_length_a       10.1997
_cell_length_b       10.2946
_cell_length_c       10.4796
_cell_angle_alpha    90
_cell_angle_beta     80
_cell_angle_gamma    90

_symmetry_space_group_name_H-M    "P 1"
_symmetry_int_tables_number       1

loop_
  _symmetry_equiv_pos_as_xyz
  'x, y, z'

loop_
  _atom_site_label
  _atom_site_occupancy
  _atom_site_fract_x
  _atom_site_fract_y
  _atom_site_fract_z
  _atom_site_thermal_displace_type
  _atom_site_B_iso_or_equiv
  _atom_site_type_symbol
  Hf1      1.0000 0.13169  0.01817  0.14430  Biso   1.000  Hf
  Hf2      1.0000 0.14211  0.22664  0.39249  Biso   1.000  Hf
  Hf3      1.0000 0.34339  0.26661  0.09739  Biso   1.000  Hf
  Hf4      1.0000 0.35970  0.48269  0.35167  Biso   1.000  Hf
  O1       1.0000 0.03273  0.16853  0.07913  Biso   1.000  O 
  O2       1.0000 0.03275  0.07994  0.33194  Biso   1.000  O 
  O3       1.0000 0.46393  0.43208  0.16060  Biso   1.000  O 
  O4       1.0000 0.47918  0.34618  0.43099  Biso   1.000  O 
  O5       1.0000 0.26281  0.11940  0.23483  Biso   1.000  O 
  O6       1.0000 0.28174  0.12225  0.48649  Biso   1.000  O 
  O7       1.0000 0.21623  0.38240  0.00440  Biso   1.000  O 
  O8       1.0000 0.21846  0.37288  0.25582  Biso   1.000  O 
  Hf5      1.0000 0.14219  0.02127  0.64484  Biso   1.000  Hf
  Hf6      1.0000 0.13991  0.22893  0.89199  Biso   1.000  Hf
  Hf7      1.0000 0.36677  0.27212  0.60391  Biso   1.000  Hf
  Hf8      1.0000 0.36725  0.47833  0.85360  Biso   1.000  Hf
  O9       1.0000 0.04216  0.16877  0.57915  Biso   1.000  O 
  O10      1.0000 0.03766  0.08227  0.82777  Biso   1.000  O 
  O11      1.0000 0.47158  0.41637  0.67442  Biso   1.000  O 
  O12      1.0000 0.46769  0.33073  0.92119  Biso   1.000  O 
  O13      1.0000 0.27917  0.12820  0.73708  Biso   1.000  O 
  O14      1.0000 0.27529  0.12075  0.98425  Biso   1.000  O 
  O15      1.0000 0.23067  0.37814  0.50591  Biso   1.000  O 
  O16      1.0000 0.22964  0.37064  0.75646  Biso   1.000  O 
  Hf9      1.0000 0.14068  0.52335  0.14453  Biso   1.000  Hf
  Hf10     1.0000 0.14280  0.72963  0.39679  Biso   1.000  Hf
  Hf11     1.0000 0.36394  0.77275  0.10426  Biso   1.000  Hf
  Hf12     1.0000 0.36370  0.97504  0.35400  Biso   1.000  Hf
  O17      1.0000 0.03610  0.66928  0.07888  Biso   1.000  O 
  O18      1.0000 0.04113  0.58527  0.32798  Biso   1.000  O 
  O19      1.0000 0.46867  0.91771  0.17237  Biso   1.000  O 
  O20      1.0000 0.46542  0.82635  0.42077  Biso   1.000  O 
  O21      1.0000 0.28016  0.62922  0.24074  Biso   1.000  O 
  O22      1.0000 0.27904  0.62100  0.49050  Biso   1.000  O 
  O23      1.0000 0.22591  0.87847  0.00917  Biso   1.000  O 
  O24      1.0000 0.22597  0.86820  0.25871  Biso   1.000  O 
  Hf13     1.0000 0.14413  0.52112  0.64583  Biso   1.000  Hf
  Hf14     1.0000 0.14564  0.72832  0.89537  Biso   1.000  Hf
  Hf15     1.0000 0.36693  0.77086  0.60423  Biso   1.000  Hf
  Hf16     1.0000 0.36856  0.97810  0.85177  Biso   1.000  Hf
  O25      1.0000 0.03904  0.66679  0.58023  Biso   1.000  O 
  O26      1.0000 0.04127  0.58171  0.82938  Biso   1.000  O 
  O27      1.0000 0.47158  0.91722  0.66948  Biso   1.000  O 
  O28      1.0000 0.47349  0.83366  0.91985  Biso   1.000  O 
  O29      1.0000 0.28136  0.62789  0.73968  Biso   1.000  O 
  O30      1.0000 0.28496  0.62283  0.98961  Biso   1.000  O 
  O31      1.0000 0.22812  0.87891  0.50982  Biso   1.000  O 
  O32      1.0000 0.23075  0.87099  0.75898  Biso   1.000  O 
  Hf17     1.0000 0.64249  0.01727  0.15031  Biso   1.000  Hf
  Hf18     1.0000 0.65881  0.23335  0.40458  Biso   1.000  Hf
  Hf19     1.0000 0.86008  0.27332  0.10948  Biso   1.000  Hf
  Hf20     1.0000 0.87050  0.48179  0.35768  Biso   1.000  Hf
  O33      1.0000 0.52301  0.15379  0.07098  Biso   1.000  O 
  O34      1.0000 0.53826  0.06788  0.34138  Biso   1.000  O 
  O35      1.0000 0.96944  0.42003  0.17004  Biso   1.000  O 
  O36      1.0000 0.96947  0.33143  0.42284  Biso   1.000  O 
  O37      1.0000 0.78373  0.12708  0.24615  Biso   1.000  O 
  O38      1.0000 0.78597  0.11756  0.49757  Biso   1.000  O 
  O39      1.0000 0.72044  0.37772  0.01548  Biso   1.000  O 
  O40      1.0000 0.73939  0.38057  0.26715  Biso   1.000  O 
  Hf21     1.0000 0.64191  0.02156  0.64716  Biso   1.000  Hf
  Hf22     1.0000 0.64239  0.22778  0.89685  Biso   1.000  Hf
  Hf23     1.0000 0.86926  0.27096  0.60879  Biso   1.000  Hf
  Hf24     1.0000 0.86697  0.47862  0.85594  Biso   1.000  Hf
  O41      1.0000 0.54147  0.16915  0.57957  Biso   1.000  O 
  O42      1.0000 0.53758  0.08351  0.82636  Biso   1.000  O 
  O43      1.0000 0.97150  0.41762  0.67300  Biso   1.000  O 
  O44      1.0000 0.96700  0.33112  0.92162  Biso   1.000  O 
  O45      1.0000 0.77952  0.12925  0.74431  Biso   1.000  O 
  O46      1.0000 0.77849  0.12174  0.99486  Biso   1.000  O 
  O47      1.0000 0.73387  0.37914  0.51653  Biso   1.000  O 
  O48      1.0000 0.72999  0.37169  0.76369  Biso   1.000  O 
  Hf25     1.0000 0.64160  0.52492  0.14796  Biso   1.000  Hf
  Hf26     1.0000 0.64136  0.72721  0.39771  Biso   1.000  Hf
  Hf27     1.0000 0.86250  0.77033  0.10517  Biso   1.000  Hf
  Hf28     1.0000 0.86462  0.97661  0.35745  Biso   1.000  Hf
  O49      1.0000 0.53988  0.67361  0.08119  Biso   1.000  O 
  O50      1.0000 0.53663  0.58225  0.32959  Biso   1.000  O 
  O51      1.0000 0.96417  0.91468  0.17400  Biso   1.000  O 
  O52      1.0000 0.96920  0.83067  0.42309  Biso   1.000  O 
  O53      1.0000 0.77933  0.63176  0.24327  Biso   1.000  O 
  O54      1.0000 0.77939  0.62149  0.49280  Biso   1.000  O 
  O55      1.0000 0.72626  0.87896  0.01147  Biso   1.000  O 
  O56      1.0000 0.72514  0.87074  0.26124  Biso   1.000  O 
  Hf29     1.0000 0.64371  0.52178  0.64901  Biso   1.000  Hf
  Hf30     1.0000 0.64534  0.72902  0.89653  Biso   1.000  Hf
  Hf31     1.0000 0.86663  0.77156  0.60539  Biso   1.000  Hf
  Hf32     1.0000 0.86813  0.97875  0.85493  Biso   1.000  Hf
  O57      1.0000 0.53878  0.66623  0.58093  Biso   1.000  O 
  O58      1.0000 0.54069  0.58267  0.83130  Biso   1.000  O 
  O59      1.0000 0.97099  0.91818  0.67138  Biso   1.000  O 
  O60      1.0000 0.97323  0.83310  0.92053  Biso   1.000  O 
  O61      1.0000 0.78152  0.62889  0.74180  Biso   1.000  O 
  O62      1.0000 0.78416  0.62098  0.99096  Biso   1.000  O 
  O63      1.0000 0.72731  0.87706  0.51116  Biso   1.000  O 
  O64      1.0000 0.73091  0.87199  0.76109  Biso   1.000  O 
  Ge1      1.0000 0.50110  0.24998  0.25099  Biso   1.000  Ge
