data_image0
_cell_length_a       9.93651
_cell_length_b       10.3777
_cell_length_c       9.98739
_cell_angle_alpha    90
_cell_angle_beta     90
_cell_angle_gamma    90

_symmetry_space_group_name_H-M    "P 1"
_symmetry_int_tables_number       1

loop_
  _symmetry_equiv_pos_as_xyz
  'x, y, z'

loop_
  _atom_site_label
  _atom_site_occupancy
  _atom_site_fract_x
  _atom_site_fract_y
  _atom_site_fract_z
  _atom_site_thermal_displace_type
  _atom_site_B_iso_or_equiv
  _atom_site_type_symbol
  Ge1      1.0000 0.12199  0.03059  0.11001  Biso   1.000  Ge
  Hf1      1.0000 0.13553  0.22595  0.37187  Biso   1.000  Hf
  Hf2      1.0000 0.36808  0.26353  0.12212  Biso   1.000  Hf
  Hf3      1.0000 0.36880  0.47866  0.37562  Biso   1.000  Hf
  O1       1.0000 0.03684  0.18054  0.18571  Biso   1.000  O 
  O2       1.0000 0.03920  0.06261  0.44888  Biso   1.000  O 
  O3       1.0000 0.46542  0.43101  0.19274  Biso   1.000  O 
  O4       1.0000 0.46780  0.31286  0.44541  Biso   1.000  O 
  O5       1.0000 0.25423  0.09446  0.24084  Biso   1.000  O 
  O6       1.0000 0.27542  0.12883  0.49490  Biso   1.000  O 
  O7       1.0000 0.23093  0.37710  0.49810  Biso   1.000  O 
  O8       1.0000 0.23383  0.35672  0.24784  Biso   1.000  O 
  Hf4      1.0000 0.13868  0.01289  0.62773  Biso   1.000  Hf
  Hf5      1.0000 0.13768  0.23213  0.87398  Biso   1.000  Hf
  Hf6      1.0000 0.36939  0.26199  0.62428  Biso   1.000  Hf
  Hf7      1.0000 0.37051  0.48026  0.87513  Biso   1.000  Hf
  O9       1.0000 0.03868  0.17969  0.69649  Biso   1.000  O 
  O10      1.0000 0.04000  0.05993  0.94658  Biso   1.000  O 
  O11      1.0000 0.46673  0.42977  0.69408  Biso   1.000  O 
  O12      1.0000 0.46750  0.30996  0.94228  Biso   1.000  O 
  O13      1.0000 0.27565  0.11403  0.74944  Biso   1.000  O 
  O14      1.0000 0.26840  0.12918  0.99920  Biso   1.000  O 
  O15      1.0000 0.23536  0.37816  0.99766  Biso   1.000  O 
  O16      1.0000 0.23298  0.36380  0.74839  Biso   1.000  O 
  Hf8      1.0000 0.13317  0.51344  0.12566  Biso   1.000  Hf
  Hf9      1.0000 0.13679  0.72791  0.37844  Biso   1.000  Hf
  Hf10     1.0000 0.36605  0.76293  0.12864  Biso   1.000  Hf
  Hf11     1.0000 0.36347  0.97648  0.37375  Biso   1.000  Hf
  O17      1.0000 0.03724  0.68143  0.19561  Biso   1.000  O 
  O18      1.0000 0.03752  0.55967  0.44635  Biso   1.000  O 
  O19      1.0000 0.47003  0.92895  0.19765  Biso   1.000  O 
  O20      1.0000 0.47020  0.81437  0.45314  Biso   1.000  O 
  O21      1.0000 0.26962  0.60468  0.24920  Biso   1.000  O 
  O22      1.0000 0.27499  0.62795  0.50114  Biso   1.000  O 
  O23      1.0000 0.23071  0.87813  0.50715  Biso   1.000  O 
  O24      1.0000 0.24833  0.84507  0.26531  Biso   1.000  O 
  Hf12     1.0000 0.13769  0.51192  0.62563  Biso   1.000  Hf
  Hf13     1.0000 0.13589  0.72889  0.87879  Biso   1.000  Hf
  Hf14     1.0000 0.36812  0.76397  0.62988  Biso   1.000  Hf
  Hf15     1.0000 0.36470  0.98017  0.88218  Biso   1.000  Hf
  O25      1.0000 0.03929  0.67986  0.69598  Biso   1.000  O 
  O26      1.0000 0.03840  0.56039  0.94605  Biso   1.000  O 
  O27      1.0000 0.46500  0.93063  0.70016  Biso   1.000  O 
  O28      1.0000 0.46157  0.81141  0.94410  Biso   1.000  O 
  O29      1.0000 0.27272  0.61367  0.75139  Biso   1.000  O 
  O30      1.0000 0.26612  0.63644  0.00033  Biso   1.000  O 
  O31      1.0000 0.21927  0.89577  0.01905  Biso   1.000  O 
  O32      1.0000 0.23081  0.86447  0.75869  Biso   1.000  O 
  Hf16     1.0000 0.63534  0.01578  0.12634  Biso   1.000  Hf
  Hf17     1.0000 0.63650  0.22909  0.37713  Biso   1.000  Hf
  Hf18     1.0000 0.86422  0.26624  0.12378  Biso   1.000  Hf
  Hf19     1.0000 0.86746  0.48010  0.37602  Biso   1.000  Hf
  O33      1.0000 0.53249  0.18033  0.19906  Biso   1.000  O 
  O34      1.0000 0.53911  0.06164  0.44361  Biso   1.000  O 
  O35      1.0000 0.96545  0.42966  0.19583  Biso   1.000  O 
  O36      1.0000 0.96557  0.30933  0.44089  Biso   1.000  O 
  O37      1.0000 0.77301  0.11545  0.24800  Biso   1.000  O 
  O38      1.0000 0.77463  0.12790  0.49810  Biso   1.000  O 
  O39      1.0000 0.73271  0.37848  0.49991  Biso   1.000  O 
  O40      1.0000 0.72905  0.36497  0.24939  Biso   1.000  O 
  Hf20     1.0000 0.63500  0.01018  0.62305  Biso   1.000  Hf
  Hf21     1.0000 0.63811  0.22768  0.87368  Biso   1.000  Hf
  Hf22     1.0000 0.86927  0.26134  0.62423  Biso   1.000  Hf
  Hf23     1.0000 0.86875  0.47909  0.87456  Biso   1.000  Hf
  O41      1.0000 0.54017  0.17990  0.69276  Biso   1.000  O 
  O42      1.0000 0.53778  0.06283  0.94911  Biso   1.000  O 
  O43      1.0000 0.96705  0.42928  0.69337  Biso   1.000  O 
  O44      1.0000 0.96738  0.31107  0.94297  Biso   1.000  O 
  O45      1.0000 0.77290  0.11127  0.74769  Biso   1.000  O 
  O46      1.0000 0.77476  0.12647  0.99742  Biso   1.000  O 
  O47      1.0000 0.73371  0.37623  0.99896  Biso   1.000  O 
  O48      1.0000 0.73283  0.36246  0.74884  Biso   1.000  O 
  Hf24     1.0000 0.63469  0.51662  0.12775  Biso   1.000  Hf
  Hf25     1.0000 0.63702  0.73247  0.37621  Biso   1.000  Hf
  Hf26     1.0000 0.87190  0.76608  0.12355  Biso   1.000  Hf
  Hf27     1.0000 0.87105  0.98204  0.37381  Biso   1.000  Hf
  O49      1.0000 0.53692  0.68267  0.19797  Biso   1.000  O 
  O50      1.0000 0.53965  0.56273  0.44321  Biso   1.000  O 
  O51      1.0000 0.98232  0.93647  0.18935  Biso   1.000  O 
  O52      1.0000 0.96642  0.81298  0.44342  Biso   1.000  O 
  O53      1.0000 0.77354  0.61492  0.24980  Biso   1.000  O 
  O54      1.0000 0.77231  0.62964  0.50005  Biso   1.000  O 
  O55      1.0000 0.73456  0.88027  0.49792  Biso   1.000  O 
  O56      1.0000 0.73991  0.86566  0.24750  Biso   1.000  O 
  Hf28     1.0000 0.63640  0.51280  0.62506  Biso   1.000  Hf
  Hf29     1.0000 0.63552  0.72884  0.87688  Biso   1.000  Hf
  Hf30     1.0000 0.86952  0.76250  0.62505  Biso   1.000  Hf
  Hf31     1.0000 0.86611  0.97807  0.87370  Biso   1.000  Hf
  O57      1.0000 0.53756  0.67848  0.69700  Biso   1.000  O 
  O58      1.0000 0.53934  0.56140  0.94739  Biso   1.000  O 
  O59      1.0000 0.96655  0.92976  0.69481  Biso   1.000  O 
  O60      1.0000 0.96470  0.81045  0.94108  Biso   1.000  O 
  O61      1.0000 0.77258  0.61303  0.75009  Biso   1.000  O 
  O62      1.0000 0.76825  0.63520  0.00034  Biso   1.000  O 
  O63      1.0000 0.73158  0.87666  0.99824  Biso   1.000  O 
  O64      1.0000 0.73111  0.86159  0.74825  Biso   1.000  O 
