data_image0
_cell_length_a       10.1146
_cell_length_b       10.2841
_cell_length_c       10.4465
_cell_angle_alpha    90
_cell_angle_beta     80
_cell_angle_gamma    90

_symmetry_space_group_name_H-M    "P 1"
_symmetry_int_tables_number       1

loop_
  _symmetry_equiv_pos_as_xyz
  'x, y, z'

loop_
  _atom_site_label
  _atom_site_occupancy
  _atom_site_fract_x
  _atom_site_fract_y
  _atom_site_fract_z
  _atom_site_thermal_displace_type
  _atom_site_B_iso_or_equiv
  _atom_site_type_symbol
  Hf1      1.0000 0.13809  0.02212  0.14658  Biso   1.000  Hf
  Hf2      1.0000 0.13554  0.22846  0.39654  Biso   1.000  Hf
  Hf3      1.0000 0.35803  0.27266  0.10162  Biso   1.000  Hf
  Hf4      1.0000 0.35314  0.48555  0.35109  Biso   1.000  Hf
  O1       1.0000 0.03455  0.17053  0.08186  Biso   1.000  O 
  O2       1.0000 0.03529  0.07898  0.33167  Biso   1.000  O 
  O3       1.0000 0.46009  0.42113  0.16879  Biso   1.000  O 
  O4       1.0000 0.45796  0.31508  0.40545  Biso   1.000  O 
  O5       1.0000 0.27698  0.13124  0.24144  Biso   1.000  O 
  O6       1.0000 0.27758  0.12191  0.49069  Biso   1.000  O 
  O7       1.0000 0.22023  0.38012  0.00837  Biso   1.000  O 
  O8       1.0000 0.21959  0.37128  0.25927  Biso   1.000  O 
  Hf5      1.0000 0.13604  0.02105  0.64655  Biso   1.000  Hf
  Hf6      1.0000 0.13434  0.22776  0.89723  Biso   1.000  Hf
  Hf7      1.0000 0.35614  0.26787  0.60917  Biso   1.000  Hf
  Hf8      1.0000 0.35647  0.47889  0.85345  Biso   1.000  Hf
  O9       1.0000 0.03606  0.17223  0.58244  Biso   1.000  O 
  O10      1.0000 0.03321  0.07887  0.83171  Biso   1.000  O 
  O11      1.0000 0.45996  0.42032  0.66348  Biso   1.000  O 
  O12      1.0000 0.45924  0.32935  0.91697  Biso   1.000  O 
  O13      1.0000 0.27442  0.12840  0.74219  Biso   1.000  O 
  O14      1.0000 0.27283  0.12022  0.99111  Biso   1.000  O 
  O15      1.0000 0.22687  0.38040  0.50856  Biso   1.000  O 
  O16      1.0000 0.21942  0.36968  0.75983  Biso   1.000  O 
  Hf9      1.0000 0.13557  0.52176  0.14493  Biso   1.000  Hf
  Hf10     1.0000 0.13468  0.72937  0.39722  Biso   1.000  Hf
  Hf11     1.0000 0.35881  0.77227  0.10341  Biso   1.000  Hf
  Hf12     1.0000 0.35662  0.97691  0.35408  Biso   1.000  Hf
  O17      1.0000 0.03339  0.67081  0.08142  Biso   1.000  O 
  O18      1.0000 0.03445  0.57922  0.33164  Biso   1.000  O 
  O19      1.0000 0.46064  0.92086  0.16948  Biso   1.000  O 
  O20      1.0000 0.46088  0.82982  0.41888  Biso   1.000  O 
  O21      1.0000 0.27457  0.62920  0.24095  Biso   1.000  O 
  O22      1.0000 0.27332  0.62297  0.49076  Biso   1.000  O 
  O23      1.0000 0.22054  0.87964  0.00976  Biso   1.000  O 
  O24      1.0000 0.21959  0.87053  0.25947  Biso   1.000  O 
  Hf13     1.0000 0.13630  0.52177  0.64647  Biso   1.000  Hf
  Hf14     1.0000 0.13412  0.72848  0.89682  Biso   1.000  Hf
  Hf15     1.0000 0.35752  0.77216  0.60496  Biso   1.000  Hf
  Hf16     1.0000 0.35617  0.97752  0.85533  Biso   1.000  Hf
  O25      1.0000 0.03275  0.67028  0.58234  Biso   1.000  O 
  O26      1.0000 0.03293  0.57900  0.83176  Biso   1.000  O 
  O27      1.0000 0.45934  0.92084  0.66971  Biso   1.000  O 
  O28      1.0000 0.45944  0.82900  0.91986  Biso   1.000  O 
  O29      1.0000 0.27339  0.62920  0.74067  Biso   1.000  O 
  O30      1.0000 0.27257  0.62025  0.99098  Biso   1.000  O 
  O31      1.0000 0.21945  0.87978  0.50984  Biso   1.000  O 
  O32      1.0000 0.21853  0.87068  0.76000  Biso   1.000  O 
  Hf17     1.0000 0.63734  0.02272  0.14594  Biso   1.000  Hf
  Hf18     1.0000 0.65227  0.22404  0.39725  Biso   1.000  Hf
  Hf19     1.0000 0.85927  0.27184  0.10375  Biso   1.000  Hf
  Hf20     1.0000 0.85888  0.47929  0.35421  Biso   1.000  Hf
  O33      1.0000 0.53377  0.17111  0.08063  Biso   1.000  O 
  O34      1.0000 0.53210  0.08619  0.33020  Biso   1.000  O 
  O35      1.0000 0.96116  0.42111  0.16888  Biso   1.000  O 
  O36      1.0000 0.96025  0.32923  0.41941  Biso   1.000  O 
  O37      1.0000 0.77808  0.12739  0.24144  Biso   1.000  O 
  O38      1.0000 0.78094  0.11818  0.49303  Biso   1.000  O 
  O39      1.0000 0.72037  0.37946  0.00991  Biso   1.000  O 
  O40      1.0000 0.72143  0.36902  0.26018  Biso   1.000  O 
  Hf21     1.0000 0.63677  0.02107  0.64728  Biso   1.000  Hf
  Hf22     1.0000 0.63529  0.22849  0.89639  Biso   1.000  Hf
  Hf23     1.0000 0.85936  0.27211  0.60636  Biso   1.000  Hf
  Hf24     1.0000 0.85709  0.47853  0.85508  Biso   1.000  Hf
  O41      1.0000 0.53603  0.17080  0.57900  Biso   1.000  O 
  O42      1.0000 0.53298  0.07955  0.83135  Biso   1.000  O 
  O43      1.0000 0.96177  0.42049  0.66982  Biso   1.000  O 
  O44      1.0000 0.95919  0.32890  0.91963  Biso   1.000  O 
  O45      1.0000 0.77426  0.12936  0.74216  Biso   1.000  O 
  O46      1.0000 0.77266  0.12037  0.99192  Biso   1.000  O 
  O47      1.0000 0.71962  0.37829  0.50953  Biso   1.000  O 
  O48      1.0000 0.71986  0.37116  0.75979  Biso   1.000  O 
  Hf25     1.0000 0.63644  0.52038  0.14677  Biso   1.000  Hf
  Hf26     1.0000 0.63562  0.72819  0.39711  Biso   1.000  Hf
  Hf27     1.0000 0.85736  0.77176  0.10423  Biso   1.000  Hf
  Hf28     1.0000 0.85879  0.97536  0.35408  Biso   1.000  Hf
  O49      1.0000 0.53386  0.67006  0.08283  Biso   1.000  O 
  O50      1.0000 0.53333  0.57392  0.33602  Biso   1.000  O 
  O51      1.0000 0.96145  0.91932  0.16939  Biso   1.000  O 
  O52      1.0000 0.96002  0.82826  0.42021  Biso   1.000  O 
  O53      1.0000 0.77284  0.62911  0.24179  Biso   1.000  O 
  O54      1.0000 0.77349  0.62009  0.49151  Biso   1.000  O 
  O55      1.0000 0.71973  0.87979  0.00993  Biso   1.000  O 
  O56      1.0000 0.71873  0.87103  0.25983  Biso   1.000  O 
  Hf29     1.0000 0.63559  0.52155  0.64626  Biso   1.000  Hf
  Hf30     1.0000 0.63477  0.72744  0.89717  Biso   1.000  Hf
  Hf31     1.0000 0.85663  0.77095  0.60584  Biso   1.000  Hf
  Hf32     1.0000 0.85560  0.97810  0.85518  Biso   1.000  Hf
  O57      1.0000 0.53295  0.67129  0.58235  Biso   1.000  O 
  O58      1.0000 0.53186  0.57892  0.83077  Biso   1.000  O 
  O59      1.0000 0.95900  0.92071  0.66920  Biso   1.000  O 
  O60      1.0000 0.95840  0.82906  0.91951  Biso   1.000  O 
  O61      1.0000 0.77321  0.62883  0.74187  Biso   1.000  O 
  O62      1.0000 0.77230  0.61999  0.99194  Biso   1.000  O 
  O63      1.0000 0.71923  0.87801  0.51025  Biso   1.000  O 
  O64      1.0000 0.71828  0.87027  0.76047  Biso   1.000  O 
  H1       1.0000 0.43299  0.23545  0.35987  Biso   1.000  H 
