data_image0
_cell_length_a       9.98172
_cell_length_b       10.3721
_cell_length_c       5.01064
_cell_angle_alpha    90
_cell_angle_beta     90
_cell_angle_gamma    90

_symmetry_space_group_name_H-M    "P 1"
_symmetry_int_tables_number       1

loop_
  _symmetry_equiv_pos_as_xyz
  'x, y, z'

loop_
  _atom_site_label
  _atom_site_occupancy
  _atom_site_fract_x
  _atom_site_fract_y
  _atom_site_fract_z
  _atom_site_thermal_displace_type
  _atom_site_B_iso_or_equiv
  _atom_site_type_symbol
  Hf1      1.0000 0.13859  0.01277  0.24064  Biso   1.000  Hf
  Hf2      1.0000 0.13701  0.23517  0.77650  Biso   1.000  Hf
  Hf3      1.0000 0.36062  0.26642  0.25207  Biso   1.000  Hf
  Hf4      1.0000 0.36430  0.48613  0.74889  Biso   1.000  Hf
  O1       1.0000 0.02755  0.18971  0.40545  Biso   1.000  O 
  O2       1.0000 0.03644  0.06783  0.89384  Biso   1.000  O 
  O3       1.0000 0.45985  0.43489  0.38732  Biso   1.000  O 
  O4       1.0000 0.46066  0.31754  0.88589  Biso   1.000  O 
  O5       1.0000 0.26355  0.11844  0.49664  Biso   1.000  O 
  O6       1.0000 0.28464  0.12733  0.98930  Biso   1.000  O 
  O7       1.0000 0.23232  0.38607  0.00020  Biso   1.000  O 
  O8       1.0000 0.22297  0.36742  0.50143  Biso   1.000  O 
  Hf5      1.0000 0.12985  0.51691  0.25242  Biso   1.000  Hf
  Hf6      1.0000 0.12925  0.73516  0.74925  Biso   1.000  Hf
  Hf7      1.0000 0.36293  0.76543  0.24745  Biso   1.000  Hf
  Hf8      1.0000 0.36219  0.98361  0.74346  Biso   1.000  Hf
  O9       1.0000 0.03237  0.68493  0.38766  Biso   1.000  O 
  O10      1.0000 0.03199  0.56902  0.88936  Biso   1.000  O 
  O11      1.0000 0.45922  0.93492  0.38015  Biso   1.000  O 
  O12      1.0000 0.46008  0.81714  0.88613  Biso   1.000  O 
  O13      1.0000 0.26619  0.61769  0.49699  Biso   1.000  O 
  O14      1.0000 0.26562  0.63479  0.99678  Biso   1.000  O 
  O15      1.0000 0.22495  0.88255  0.99348  Biso   1.000  O 
  O16      1.0000 0.22725  0.86618  0.49402  Biso   1.000  O 
  Hf9      1.0000 0.63442  0.01736  0.24710  Biso   1.000  Hf
  Hf10     1.0000 0.62774  0.23413  0.74790  Biso   1.000  Hf
  Hf11     1.0000 0.85093  0.27239  0.24986  Biso   1.000  Hf
  Hf12     1.0000 0.86352  0.48545  0.75369  Biso   1.000  Hf
  O17      1.0000 0.53393  0.18422  0.38438  Biso   1.000  O 
  O18      1.0000 0.53992  0.06427  0.87905  Biso   1.000  O 
  O19      1.0000 0.95877  0.43517  0.39266  Biso   1.000  O 
  O20      1.0000 0.96247  0.32097  0.90440  Biso   1.000  O 
  O21      1.0000 0.76989  0.12091  0.49606  Biso   1.000  O 
  O22      1.0000 0.76893  0.13636  0.99515  Biso   1.000  O 
  O23      1.0000 0.72335  0.38592  0.99978  Biso   1.000  O 
  O24      1.0000 0.72245  0.37212  0.50197  Biso   1.000  O 
  Hf13     1.0000 0.62947  0.51959  0.25368  Biso   1.000  Hf
  Hf14     1.0000 0.63144  0.73644  0.75228  Biso   1.000  Hf
  Hf15     1.0000 0.86300  0.76861  0.25227  Biso   1.000  Hf
  Hf16     1.0000 0.86117  0.98707  0.75008  Biso   1.000  Hf
  O25      1.0000 0.53251  0.68545  0.39097  Biso   1.000  O 
  O26      1.0000 0.53226  0.56930  0.89048  Biso   1.000  O 
  O27      1.0000 0.96210  0.93731  0.39264  Biso   1.000  O 
  O28      1.0000 0.96001  0.81921  0.89041  Biso   1.000  O 
  O29      1.0000 0.76713  0.62053  0.50171  Biso   1.000  O 
  O30      1.0000 0.76815  0.63325  0.00197  Biso   1.000  O 
  O31      1.0000 0.72593  0.88510  0.99923  Biso   1.000  O 
  O32      1.0000 0.72609  0.87051  0.49842  Biso   1.000  O 
  H1       1.0000 0.09432  0.23350  0.27157  Biso   1.000  H 
