data_image0
_cell_length_a       10.1545
_cell_length_b       10.2647
_cell_length_c       5.22624
_cell_angle_alpha    90
_cell_angle_beta     80
_cell_angle_gamma    90

_symmetry_space_group_name_H-M    "P 1"
_symmetry_int_tables_number       1

loop_
  _symmetry_equiv_pos_as_xyz
  'x, y, z'

loop_
  _atom_site_label
  _atom_site_occupancy
  _atom_site_fract_x
  _atom_site_fract_y
  _atom_site_fract_z
  _atom_site_thermal_displace_type
  _atom_site_B_iso_or_equiv
  _atom_site_type_symbol
  H1       1.0000 0.07471  0.92291  0.28307  Biso   1.000  H 
  Hf1      1.0000 0.16062  0.23615  0.78482  Biso   1.000  Hf
  Hf2      1.0000 0.36251  0.26770  0.21043  Biso   1.000  Hf
  Hf3      1.0000 0.36907  0.48070  0.70379  Biso   1.000  Hf
  O1       1.0000 0.01855  0.13250  0.07906  Biso   1.000  O 
  O2       1.0000 0.02947  0.07754  0.82497  Biso   1.000  O 
  O3       1.0000 0.47152  0.41827  0.33855  Biso   1.000  O 
  O4       1.0000 0.47158  0.33556  0.84163  Biso   1.000  O 
  O5       1.0000 0.28158  0.13609  0.49419  Biso   1.000  O 
  O6       1.0000 0.29043  0.13174  0.96628  Biso   1.000  O 
  O7       1.0000 0.22782  0.38193  0.01704  Biso   1.000  O 
  O8       1.0000 0.23037  0.37665  0.51418  Biso   1.000  O 
  Hf4      1.0000 0.14574  0.52460  0.28986  Biso   1.000  Hf
  Hf5      1.0000 0.15107  0.73063  0.78828  Biso   1.000  Hf
  Hf6      1.0000 0.36212  0.78160  0.20776  Biso   1.000  Hf
  Hf7      1.0000 0.35976  0.97852  0.71005  Biso   1.000  Hf
  O9       1.0000 0.03913  0.66668  0.15659  Biso   1.000  O 
  O10      1.0000 0.03880  0.58220  0.65139  Biso   1.000  O 
  O11      1.0000 0.47574  0.91875  0.34551  Biso   1.000  O 
  O12      1.0000 0.47766  0.83905  0.84545  Biso   1.000  O 
  O13      1.0000 0.28255  0.62772  0.47540  Biso   1.000  O 
  O14      1.0000 0.28304  0.61786  0.97948  Biso   1.000  O 
  O15      1.0000 0.23264  0.87564  0.00930  Biso   1.000  O 
  O16      1.0000 0.23641  0.86551  0.52448  Biso   1.000  O 
  Hf8      1.0000 0.63662  0.02305  0.29607  Biso   1.000  Hf
  Hf9      1.0000 0.63975  0.22741  0.78603  Biso   1.000  Hf
  Hf10     1.0000 0.85795  0.27334  0.19648  Biso   1.000  Hf
  Hf11     1.0000 0.86938  0.47526  0.69989  Biso   1.000  Hf
  O17      1.0000 0.53990  0.17253  0.15939  Biso   1.000  O 
  O18      1.0000 0.53835  0.08216  0.65749  Biso   1.000  O 
  O19      1.0000 0.97714  0.40296  0.33941  Biso   1.000  O 
  O20      1.0000 0.97272  0.32876  0.83868  Biso   1.000  O 
  O21      1.0000 0.78568  0.12801  0.47788  Biso   1.000  O 
  O22      1.0000 0.77368  0.11785  0.97783  Biso   1.000  O 
  O23      1.0000 0.73011  0.38144  0.01318  Biso   1.000  O 
  O24      1.0000 0.72815  0.37085  0.51207  Biso   1.000  O 
  Hf12     1.0000 0.64133  0.52453  0.28629  Biso   1.000  Hf
  Hf13     1.0000 0.64298  0.72834  0.79306  Biso   1.000  Hf
  Hf14     1.0000 0.86746  0.76805  0.20636  Biso   1.000  Hf
  Hf15     1.0000 0.86492  0.97390  0.71906  Biso   1.000  Hf
  O25      1.0000 0.53992  0.67070  0.15326  Biso   1.000  O 
  O26      1.0000 0.54029  0.58542  0.65183  Biso   1.000  O 
  O27      1.0000 0.97768  0.91521  0.35640  Biso   1.000  O 
  O28      1.0000 0.97171  0.82939  0.84537  Biso   1.000  O 
  O29      1.0000 0.78245  0.62622  0.47630  Biso   1.000  O 
  O30      1.0000 0.78286  0.61825  0.97677  Biso   1.000  O 
  O31      1.0000 0.73249  0.88125  0.01897  Biso   1.000  O 
  O32      1.0000 0.73705  0.87057  0.51742  Biso   1.000  O 
