data_image0
_cell_length_a       10.1474
_cell_length_b       10.2741
_cell_length_c       5.23235
_cell_angle_alpha    90
_cell_angle_beta     80
_cell_angle_gamma    90

_symmetry_space_group_name_H-M    "P 1"
_symmetry_int_tables_number       1

loop_
  _symmetry_equiv_pos_as_xyz
  'x, y, z'

loop_
  _atom_site_label
  _atom_site_occupancy
  _atom_site_fract_x
  _atom_site_fract_y
  _atom_site_fract_z
  _atom_site_thermal_displace_type
  _atom_site_B_iso_or_equiv
  _atom_site_type_symbol
  Hf1      1.0000 0.13757  0.02232  0.29328  Biso   1.000  Hf
  Hf2      1.0000 0.13601  0.22811  0.79450  Biso   1.000  Hf
  Hf3      1.0000 0.35515  0.26947  0.21332  Biso   1.000  Hf
  Hf4      1.0000 0.35362  0.48615  0.69972  Biso   1.000  Hf
  O1       1.0000 0.03578  0.17239  0.16481  Biso   1.000  O 
  O2       1.0000 0.03585  0.07945  0.66176  Biso   1.000  O 
  O3       1.0000 0.45989  0.42089  0.32711  Biso   1.000  O 
  O4       1.0000 0.45947  0.31588  0.80667  Biso   1.000  O 
  O5       1.0000 0.27766  0.13032  0.48440  Biso   1.000  O 
  O6       1.0000 0.27960  0.12205  0.98000  Biso   1.000  O 
  O7       1.0000 0.22571  0.38145  0.01522  Biso   1.000  O 
  O8       1.0000 0.22028  0.37102  0.51893  Biso   1.000  O 
  Hf5      1.0000 0.13548  0.52239  0.29045  Biso   1.000  Hf
  Hf6      1.0000 0.13499  0.72978  0.79443  Biso   1.000  Hf
  Hf7      1.0000 0.35769  0.77338  0.20783  Biso   1.000  Hf
  Hf8      1.0000 0.35643  0.97655  0.70865  Biso   1.000  Hf
  O9       1.0000 0.03147  0.67053  0.16384  Biso   1.000  O 
  O10      1.0000 0.03532  0.57951  0.66267  Biso   1.000  O 
  O11      1.0000 0.45959  0.92130  0.33991  Biso   1.000  O 
  O12      1.0000 0.46265  0.83048  0.83874  Biso   1.000  O 
  O13      1.0000 0.27456  0.62920  0.48046  Biso   1.000  O 
  O14      1.0000 0.27497  0.62340  0.97985  Biso   1.000  O 
  O15      1.0000 0.21859  0.88006  0.02020  Biso   1.000  O 
  O16      1.0000 0.21895  0.87124  0.51882  Biso   1.000  O 
  Hf9      1.0000 0.63776  0.02275  0.29342  Biso   1.000  Hf
  Hf10     1.0000 0.65360  0.22423  0.79446  Biso   1.000  Hf
  Hf11     1.0000 0.85948  0.27304  0.21133  Biso   1.000  Hf
  Hf12     1.0000 0.85982  0.47949  0.70897  Biso   1.000  Hf
  O17      1.0000 0.53494  0.17120  0.15535  Biso   1.000  O 
  O18      1.0000 0.53222  0.08744  0.65775  Biso   1.000  O 
  O19      1.0000 0.96305  0.42091  0.34028  Biso   1.000  O 
  O20      1.0000 0.96168  0.32955  0.83960  Biso   1.000  O 
  O21      1.0000 0.77885  0.12730  0.48394  Biso   1.000  O 
  O22      1.0000 0.78315  0.11859  0.98700  Biso   1.000  O 
  O23      1.0000 0.71811  0.37884  0.01961  Biso   1.000  O 
  O24      1.0000 0.72199  0.37041  0.52052  Biso   1.000  O 
  Hf13     1.0000 0.63589  0.52074  0.29339  Biso   1.000  Hf
  Hf14     1.0000 0.63645  0.72769  0.79507  Biso   1.000  Hf
  Hf15     1.0000 0.85555  0.77153  0.21119  Biso   1.000  Hf
  Hf16     1.0000 0.85804  0.97566  0.70868  Biso   1.000  Hf
  O25      1.0000 0.53207  0.67088  0.16671  Biso   1.000  O 
  O26      1.0000 0.53303  0.57432  0.66909  Biso   1.000  O 
  O27      1.0000 0.95994  0.91964  0.33874  Biso   1.000  O 
  O28      1.0000 0.96070  0.82871  0.84037  Biso   1.000  O 
  O29      1.0000 0.77264  0.62875  0.48464  Biso   1.000  O 
  O30      1.0000 0.77456  0.62039  0.98323  Biso   1.000  O 
  O31      1.0000 0.71785  0.87845  0.02163  Biso   1.000  O 
  O32      1.0000 0.71795  0.87121  0.52053  Biso   1.000  O 
  H1       1.0000 0.43619  0.23469  0.71756  Biso   1.000  H 
