data_image0
_cell_length_a       5.08074
_cell_length_b       10.2668
_cell_length_c       10.4621
_cell_angle_alpha    90
_cell_angle_beta     80
_cell_angle_gamma    90

_symmetry_space_group_name_H-M    "P 1"
_symmetry_int_tables_number       1

loop_
  _symmetry_equiv_pos_as_xyz
  'x, y, z'

loop_
  _atom_site_label
  _atom_site_occupancy
  _atom_site_fract_x
  _atom_site_fract_y
  _atom_site_fract_z
  _atom_site_thermal_displace_type
  _atom_site_B_iso_or_equiv
  _atom_site_type_symbol
  Hf1      1.0000 0.27387  0.02291  0.14602  Biso   1.000  Hf
  Hf2      1.0000 0.30614  0.22319  0.39775  Biso   1.000  Hf
  Hf3      1.0000 0.71420  0.27281  0.10185  Biso   1.000  Hf
  Hf4      1.0000 0.70989  0.48585  0.35054  Biso   1.000  Hf
  O1       1.0000 0.06450  0.17072  0.08063  Biso   1.000  O 
  O2       1.0000 0.06561  0.08685  0.32895  Biso   1.000  O 
  O3       1.0000 0.92057  0.42070  0.16947  Biso   1.000  O 
  O4       1.0000 0.92354  0.31672  0.40665  Biso   1.000  O 
  O5       1.0000 0.55774  0.12807  0.24035  Biso   1.000  O 
  O6       1.0000 0.57679  0.12093  0.49295  Biso   1.000  O 
  O7       1.0000 0.43639  0.37970  0.00892  Biso   1.000  O 
  O8       1.0000 0.44136  0.37003  0.25966  Biso   1.000  O 
  Hf5      1.0000 0.28190  0.02093  0.64652  Biso   1.000  Hf
  Hf6      1.0000 0.28009  0.22830  0.89622  Biso   1.000  Hf
  Hf7      1.0000 0.72339  0.26863  0.61010  Biso   1.000  Hf
  Hf8      1.0000 0.72429  0.47933  0.85295  Biso   1.000  Hf
  O9       1.0000 0.08399  0.17208  0.57900  Biso   1.000  O 
  O10      1.0000 0.07591  0.08015  0.82993  Biso   1.000  O 
  O11      1.0000 0.93236  0.42040  0.66391  Biso   1.000  O 
  O12      1.0000 0.93012  0.32983  0.91686  Biso   1.000  O 
  O13      1.0000 0.55854  0.12844  0.74266  Biso   1.000  O 
  O14      1.0000 0.55685  0.12060  0.99049  Biso   1.000  O 
  O15      1.0000 0.46142  0.37913  0.50834  Biso   1.000  O 
  O16      1.0000 0.45023  0.37107  0.75925  Biso   1.000  O 
  Hf9      1.0000 0.26940  0.52034  0.14601  Biso   1.000  Hf
  Hf10     1.0000 0.27079  0.72945  0.39760  Biso   1.000  Hf
  Hf11     1.0000 0.71357  0.77234  0.10359  Biso   1.000  Hf
  Hf12     1.0000 0.71572  0.97540  0.35353  Biso   1.000  Hf
  O17      1.0000 0.06304  0.66960  0.08228  Biso   1.000  O 
  O18      1.0000 0.06844  0.57511  0.33518  Biso   1.000  O 
  O19      1.0000 0.92114  0.91928  0.16977  Biso   1.000  O 
  O20      1.0000 0.92432  0.82983  0.41972  Biso   1.000  O 
  O21      1.0000 0.54570  0.62875  0.24160  Biso   1.000  O 
  O22      1.0000 0.54984  0.62290  0.49062  Biso   1.000  O 
  O23      1.0000 0.43683  0.87936  0.01025  Biso   1.000  O 
  O24      1.0000 0.43705  0.87144  0.25935  Biso   1.000  O 
  Hf13     1.0000 0.28016  0.52207  0.64534  Biso   1.000  Hf
  Hf14     1.0000 0.27925  0.72772  0.89641  Biso   1.000  Hf
  Hf15     1.0000 0.72033  0.77214  0.60527  Biso   1.000  Hf
  Hf16     1.0000 0.72145  0.97763  0.85466  Biso   1.000  Hf
  O25      1.0000 0.07042  0.67081  0.58191  Biso   1.000  O 
  O26      1.0000 0.07415  0.57945  0.82941  Biso   1.000  O 
  O27      1.0000 0.92628  0.92072  0.66940  Biso   1.000  O 
  O28      1.0000 0.93012  0.82960  0.91935  Biso   1.000  O 
  O29      1.0000 0.55482  0.62864  0.74034  Biso   1.000  O 
  O30      1.0000 0.55642  0.62044  0.99030  Biso   1.000  O 
  O31      1.0000 0.44354  0.87808  0.51001  Biso   1.000  O 
  O32      1.0000 0.44585  0.87092  0.75990  Biso   1.000  O 
  H1       1.0000 0.87624  0.23728  0.35938  Biso   1.000  H 
