data_image0
_cell_length_a       10.0339
_cell_length_b       5.11587
_cell_length_c       10.4816
_cell_angle_alpha    90
_cell_angle_beta     90
_cell_angle_gamma    90

_symmetry_space_group_name_H-M    "P 1"
_symmetry_int_tables_number       1

loop_
  _symmetry_equiv_pos_as_xyz
  'x, y, z'

loop_
  _atom_site_label
  _atom_site_occupancy
  _atom_site_fract_x
  _atom_site_fract_y
  _atom_site_fract_z
  _atom_site_thermal_displace_type
  _atom_site_B_iso_or_equiv
  _atom_site_type_symbol
  Hf1      1.0000 0.13829  0.04659  0.17367  Biso   1.000  Hf
  Hf2      1.0000 0.13618  0.45722  0.42550  Biso   1.000  Hf
  Hf3      1.0000 0.34550  0.55467  0.17751  Biso   1.000  Hf
  Hf4      1.0000 0.35847  0.95817  0.42352  Biso   1.000  Hf
  Hf5      1.0000 0.64667  0.03109  0.07341  Biso   1.000  Hf
  Hf6      1.0000 0.64015  0.46441  0.33353  Biso   1.000  Hf
  Hf7      1.0000 0.86347  0.53993  0.07833  Biso   1.000  Hf
  Hf8      1.0000 0.85918  0.95819  0.32800  Biso   1.000  Hf
  O1       1.0000 0.03503  0.33518  0.08597  Biso   1.000  O 
  O2       1.0000 0.03039  0.17288  0.33461  Biso   1.000  O 
  O3       1.0000 0.46990  0.82577  0.08589  Biso   1.000  O 
  O4       1.0000 0.46277  0.66458  0.33420  Biso   1.000  O 
  O5       1.0000 0.27624  0.25045  0.29766  Biso   1.000  O 
  O6       1.0000 0.27907  0.25525  0.04806  Biso   1.000  O 
  O7       1.0000 0.21502  0.75173  0.30160  Biso   1.000  O 
  O8       1.0000 0.21960  0.75799  0.04792  Biso   1.000  O 
  O9       1.0000 0.53559  0.36162  0.15207  Biso   1.000  O 
  O10      1.0000 0.53366  0.16544  0.40934  Biso   1.000  O 
  O11      1.0000 0.96437  0.83448  0.16685  Biso   1.000  O 
  O12      1.0000 0.96420  0.67087  0.41787  Biso   1.000  O 
  O13      1.0000 0.77611  0.24986  0.45506  Biso   1.000  O 
  O14      1.0000 0.77076  0.24878  0.20419  Biso   1.000  O 
  O15      1.0000 0.72016  0.74929  0.45483  Biso   1.000  O 
  O16      1.0000 0.72029  0.74535  0.20335  Biso   1.000  O 
  Hf9      1.0000 0.13906  0.04457  0.67360  Biso   1.000  Hf
  Hf10     1.0000 0.13650  0.46081  0.92259  Biso   1.000  Hf
  Hf11     1.0000 0.35900  0.54631  0.67350  Biso   1.000  Hf
  Hf12     1.0000 0.35719  0.96239  0.92363  Biso   1.000  Hf
  Hf13     1.0000 0.63826  0.04463  0.57767  Biso   1.000  Hf
  Hf14     1.0000 0.63686  0.45793  0.82494  Biso   1.000  Hf
  Hf15     1.0000 0.86036  0.54488  0.57950  Biso   1.000  Hf
  Hf16     1.0000 0.85923  0.95970  0.82765  Biso   1.000  Hf
  O17      1.0000 0.03183  0.33366  0.58660  Biso   1.000  O 
  O18      1.0000 0.03186  0.17183  0.83502  Biso   1.000  O 
  O19      1.0000 0.46502  0.83527  0.58385  Biso   1.000  O 
  O20      1.0000 0.46488  0.67244  0.83503  Biso   1.000  O 
  O21      1.0000 0.27602  0.25130  0.79729  Biso   1.000  O 
  O22      1.0000 0.27634  0.25385  0.54747  Biso   1.000  O 
  O23      1.0000 0.22095  0.75148  0.79830  Biso   1.000  O 
  O24      1.0000 0.22121  0.75364  0.54902  Biso   1.000  O 
  O25      1.0000 0.53164  0.33583  0.66344  Biso   1.000  O 
  O26      1.0000 0.53170  0.17090  0.91606  Biso   1.000  O 
  O27      1.0000 0.96532  0.83385  0.66731  Biso   1.000  O 
  O28      1.0000 0.96282  0.67058  0.91702  Biso   1.000  O 
  O29      1.0000 0.77600  0.24885  0.95262  Biso   1.000  O 
  O30      1.0000 0.77548  0.25396  0.70339  Biso   1.000  O 
  O31      1.0000 0.71782  0.74671  0.95345  Biso   1.000  O 
  O32      1.0000 0.72099  0.75583  0.70333  Biso   1.000  O 
  H1       1.0000 0.56011  0.51847  0.09976  Biso   1.000  H 
