data_image0
_cell_length_a       10.1648
_cell_length_b       10.2421
_cell_length_c       10.4623
_cell_angle_alpha    90
_cell_angle_beta     80
_cell_angle_gamma    90

_symmetry_space_group_name_H-M    "P 1"
_symmetry_int_tables_number       1

loop_
  _symmetry_equiv_pos_as_xyz
  'x, y, z'

loop_
  _atom_site_label
  _atom_site_occupancy
  _atom_site_fract_x
  _atom_site_fract_y
  _atom_site_fract_z
  _atom_site_thermal_displace_type
  _atom_site_B_iso_or_equiv
  _atom_site_type_symbol
  H1       1.0000 0.01281  0.01061  0.12051  Biso   1.000  H 
  Hf1      1.0000 0.14419  0.22865  0.39350  Biso   1.000  Hf
  Hf2      1.0000 0.35661  0.26460  0.10688  Biso   1.000  Hf
  Hf3      1.0000 0.36092  0.47887  0.35314  Biso   1.000  Hf
  O1       1.0000 0.02936  0.15982  0.07412  Biso   1.000  O 
  O2       1.0000 0.02898  0.09056  0.34209  Biso   1.000  O 
  O3       1.0000 0.46669  0.41394  0.17238  Biso   1.000  O 
  O4       1.0000 0.46617  0.33426  0.42286  Biso   1.000  O 
  O5       1.0000 0.29058  0.13780  0.25354  Biso   1.000  O 
  O6       1.0000 0.27631  0.12163  0.49516  Biso   1.000  O 
  O7       1.0000 0.22296  0.37764  0.01077  Biso   1.000  O 
  O8       1.0000 0.22161  0.37395  0.25901  Biso   1.000  O 
  Hf4      1.0000 0.14139  0.02127  0.64524  Biso   1.000  Hf
  Hf5      1.0000 0.14091  0.22510  0.90203  Biso   1.000  Hf
  Hf6      1.0000 0.36036  0.27175  0.60579  Biso   1.000  Hf
  Hf7      1.0000 0.36040  0.47893  0.85553  Biso   1.000  Hf
  O9       1.0000 0.03404  0.16749  0.57852  Biso   1.000  O 
  O10      1.0000 0.03336  0.08610  0.82583  Biso   1.000  O 
  O11      1.0000 0.46692  0.41757  0.67220  Biso   1.000  O 
  O12      1.0000 0.46932  0.33793  0.92253  Biso   1.000  O 
  O13      1.0000 0.27610  0.12825  0.74092  Biso   1.000  O 
  O14      1.0000 0.29204  0.13378  0.98049  Biso   1.000  O 
  O15      1.0000 0.22505  0.38001  0.51033  Biso   1.000  O 
  O16      1.0000 0.22522  0.37168  0.76075  Biso   1.000  O 
  Hf8      1.0000 0.14094  0.52123  0.14510  Biso   1.000  Hf
  Hf9      1.0000 0.14217  0.72944  0.39350  Biso   1.000  Hf
  Hf10     1.0000 0.35691  0.77627  0.10501  Biso   1.000  Hf
  Hf11     1.0000 0.35596  0.97960  0.35014  Biso   1.000  Hf
  O17      1.0000 0.03541  0.67004  0.08043  Biso   1.000  O 
  O18      1.0000 0.03352  0.58498  0.32770  Biso   1.000  O 
  O19      1.0000 0.47089  0.91573  0.17140  Biso   1.000  O 
  O20      1.0000 0.46823  0.83614  0.42286  Biso   1.000  O 
  O21      1.0000 0.27701  0.62415  0.23878  Biso   1.000  O 
  O22      1.0000 0.27753  0.62232  0.49022  Biso   1.000  O 
  O23      1.0000 0.23455  0.87264  0.99773  Biso   1.000  O 
  O24      1.0000 0.23509  0.86129  0.26399  Biso   1.000  O 
  Hf12     1.0000 0.14128  0.52292  0.64703  Biso   1.000  Hf
  Hf13     1.0000 0.14333  0.73415  0.89651  Biso   1.000  Hf
  Hf14     1.0000 0.36195  0.77381  0.60301  Biso   1.000  Hf
  Hf15     1.0000 0.35900  0.98110  0.85738  Biso   1.000  Hf
  O25      1.0000 0.03509  0.66764  0.57963  Biso   1.000  O 
  O26      1.0000 0.03625  0.58406  0.82984  Biso   1.000  O 
  O27      1.0000 0.46688  0.91673  0.67373  Biso   1.000  O 
  O28      1.0000 0.47454  0.84127  0.92361  Biso   1.000  O 
  O29      1.0000 0.27796  0.63095  0.74070  Biso   1.000  O 
  O30      1.0000 0.27741  0.62084  0.99074  Biso   1.000  O 
  O31      1.0000 0.22352  0.87912  0.50963  Biso   1.000  O 
  O32      1.0000 0.22357  0.87379  0.75581  Biso   1.000  O 
  Hf16     1.0000 0.64162  0.02155  0.14693  Biso   1.000  Hf
  Hf17     1.0000 0.63843  0.22943  0.39632  Biso   1.000  Hf
  Hf18     1.0000 0.86337  0.27063  0.10388  Biso   1.000  Hf
  Hf19     1.0000 0.86090  0.47970  0.35385  Biso   1.000  Hf
  O33      1.0000 0.53709  0.16744  0.07996  Biso   1.000  O 
  O34      1.0000 0.53629  0.08246  0.32971  Biso   1.000  O 
  O35      1.0000 0.96629  0.41658  0.17155  Biso   1.000  O 
  O36      1.0000 0.96763  0.33744  0.42221  Biso   1.000  O 
  O37      1.0000 0.77584  0.13104  0.24218  Biso   1.000  O 
  O38      1.0000 0.77563  0.12326  0.49132  Biso   1.000  O 
  O39      1.0000 0.72528  0.37944  0.00951  Biso   1.000  O 
  O40      1.0000 0.72383  0.37262  0.26081  Biso   1.000  O 
  Hf20     1.0000 0.63999  0.02206  0.64682  Biso   1.000  Hf
  Hf21     1.0000 0.64030  0.23092  0.89696  Biso   1.000  Hf
  Hf22     1.0000 0.86134  0.27332  0.60342  Biso   1.000  Hf
  Hf23     1.0000 0.86301  0.48075  0.85463  Biso   1.000  Hf
  O41      1.0000 0.53450  0.16764  0.58033  Biso   1.000  O 
  O42      1.0000 0.53784  0.08463  0.82962  Biso   1.000  O 
  O43      1.0000 0.96790  0.41734  0.67159  Biso   1.000  O 
  O44      1.0000 0.96866  0.33691  0.92192  Biso   1.000  O 
  O45      1.0000 0.77779  0.13047  0.74013  Biso   1.000  O 
  O46      1.0000 0.77802  0.12320  0.98997  Biso   1.000  O 
  O47      1.0000 0.72420  0.38009  0.51015  Biso   1.000  O 
  O48      1.0000 0.72585  0.37320  0.75948  Biso   1.000  O 
  Hf24     1.0000 0.63826  0.52103  0.14634  Biso   1.000  Hf
  Hf25     1.0000 0.63960  0.73069  0.39600  Biso   1.000  Hf
  Hf26     1.0000 0.86220  0.77196  0.10301  Biso   1.000  Hf
  Hf27     1.0000 0.86370  0.98283  0.35402  Biso   1.000  Hf
  O49      1.0000 0.53330  0.66562  0.07864  Biso   1.000  O 
  O50      1.0000 0.53421  0.58437  0.32898  Biso   1.000  O 
  O51      1.0000 0.95670  0.93311  0.16231  Biso   1.000  O 
  O52      1.0000 0.96633  0.83259  0.41723  Biso   1.000  O 
  O53      1.0000 0.77611  0.62948  0.23995  Biso   1.000  O 
  O54      1.0000 0.77643  0.62238  0.49050  Biso   1.000  O 
  O55      1.0000 0.72512  0.87843  0.00928  Biso   1.000  O 
  O56      1.0000 0.72699  0.87097  0.25978  Biso   1.000  O 
  Hf28     1.0000 0.63956  0.52255  0.64663  Biso   1.000  Hf
  Hf29     1.0000 0.64006  0.73040  0.89727  Biso   1.000  Hf
  Hf30     1.0000 0.86197  0.77183  0.60285  Biso   1.000  Hf
  Hf31     1.0000 0.86024  0.98048  0.85319  Biso   1.000  Hf
  O57      1.0000 0.53507  0.66772  0.57923  Biso   1.000  O 
  O58      1.0000 0.53427  0.58583  0.82911  Biso   1.000  O 
  O59      1.0000 0.96545  0.91859  0.66894  Biso   1.000  O 
  O60      1.0000 0.96692  0.83504  0.91886  Biso   1.000  O 
  O61      1.0000 0.77725  0.62984  0.74037  Biso   1.000  O 
  O62      1.0000 0.77861  0.62451  0.99113  Biso   1.000  O 
  O63      1.0000 0.72533  0.88011  0.50970  Biso   1.000  O 
  O64      1.0000 0.72552  0.87215  0.75891  Biso   1.000  O 
