data_image0
_cell_length_a       10.0039
_cell_length_b       10.3884
_cell_length_c       4.99499
_cell_angle_alpha    90
_cell_angle_beta     90
_cell_angle_gamma    90

_symmetry_space_group_name_H-M    "P 1"
_symmetry_int_tables_number       1

loop_
  _symmetry_equiv_pos_as_xyz
  'x, y, z'

loop_
  _atom_site_label
  _atom_site_occupancy
  _atom_site_fract_x
  _atom_site_fract_y
  _atom_site_fract_z
  _atom_site_thermal_displace_type
  _atom_site_B_iso_or_equiv
  _atom_site_type_symbol
  H1       1.0000 0.06595  0.94256  0.33474  Biso   1.000  H 
  Hf1      1.0000 0.16006  0.25085  0.76694  Biso   1.000  Hf
  Hf2      1.0000 0.37485  0.26991  0.25637  Biso   1.000  Hf
  Hf3      1.0000 0.38167  0.49277  0.75371  Biso   1.000  Hf
  O1       1.0000 0.03079  0.17917  0.46076  Biso   1.000  O 
  O2       1.0000 0.03260  0.09422  0.68560  Biso   1.000  O 
  O3       1.0000 0.47516  0.43863  0.38962  Biso   1.000  O 
  O4       1.0000 0.47526  0.32278  0.88276  Biso   1.000  O 
  O5       1.0000 0.29625  0.14230  0.52868  Biso   1.000  O 
  O6       1.0000 0.27478  0.13708  0.01093  Biso   1.000  O 
  O7       1.0000 0.24369  0.38986  0.00807  Biso   1.000  O 
  O8       1.0000 0.23929  0.37876  0.50331  Biso   1.000  O 
  Hf4      1.0000 0.14403  0.52205  0.25828  Biso   1.000  Hf
  Hf5      1.0000 0.15294  0.74011  0.75837  Biso   1.000  Hf
  Hf6      1.0000 0.37539  0.77442  0.25487  Biso   1.000  Hf
  Hf7      1.0000 0.37442  0.98952  0.75724  Biso   1.000  Hf
  O9       1.0000 0.04851  0.68830  0.38895  Biso   1.000  O 
  O10      1.0000 0.04714  0.57241  0.89583  Biso   1.000  O 
  O11      1.0000 0.48113  0.93836  0.39505  Biso   1.000  O 
  O12      1.0000 0.48263  0.82396  0.89647  Biso   1.000  O 
  O13      1.0000 0.28205  0.62250  0.50247  Biso   1.000  O 
  O14      1.0000 0.28334  0.63270  0.00511  Biso   1.000  O 
  O15      1.0000 0.24323  0.87716  0.00259  Biso   1.000  O 
  O16      1.0000 0.24984  0.86935  0.51712  Biso   1.000  O 
  Hf8      1.0000 0.63034  0.01665  0.24146  Biso   1.000  Hf
  Hf9      1.0000 0.63952  0.23462  0.74769  Biso   1.000  Hf
  Hf10     1.0000 0.86448  0.26634  0.25262  Biso   1.000  Hf
  Hf11     1.0000 0.88101  0.48391  0.75566  Biso   1.000  Hf
  O17      1.0000 0.55015  0.19158  0.37209  Biso   1.000  O 
  O18      1.0000 0.54089  0.07055  0.88117  Biso   1.000  O 
  O19      1.0000 0.97780  0.42791  0.40267  Biso   1.000  O 
  O20      1.0000 0.98393  0.31905  0.92484  Biso   1.000  O 
  O21      1.0000 0.77127  0.11749  0.48690  Biso   1.000  O 
  O22      1.0000 0.78342  0.13362  0.98735  Biso   1.000  O 
  O23      1.0000 0.73894  0.37976  0.00387  Biso   1.000  O 
  O24      1.0000 0.73992  0.37035  0.50550  Biso   1.000  O 
  Hf12     1.0000 0.64427  0.51921  0.25518  Biso   1.000  Hf
  Hf13     1.0000 0.64487  0.73719  0.74915  Biso   1.000  Hf
  Hf14     1.0000 0.87815  0.76166  0.23909  Biso   1.000  Hf
  Hf15     1.0000 0.87348  0.97947  0.73329  Biso   1.000  Hf
  O25      1.0000 0.54935  0.68693  0.38981  Biso   1.000  O 
  O26      1.0000 0.55184  0.57093  0.89064  Biso   1.000  O 
  O27      1.0000 0.96825  0.93447  0.35425  Biso   1.000  O 
  O28      1.0000 0.98144  0.82733  0.87617  Biso   1.000  O 
  O29      1.0000 0.78528  0.61710  0.49642  Biso   1.000  O 
  O30      1.0000 0.78462  0.63516  0.99249  Biso   1.000  O 
  O31      1.0000 0.74290  0.88281  0.99492  Biso   1.000  O 
  O32      1.0000 0.74741  0.86836  0.49346  Biso   1.000  O 
