data_image0
_cell_length_a       9.96592
_cell_length_b       10.3586
_cell_length_c       10.0136
_cell_angle_alpha    90
_cell_angle_beta     90
_cell_angle_gamma    90

_symmetry_space_group_name_H-M    "P 1"
_symmetry_int_tables_number       1

loop_
  _symmetry_equiv_pos_as_xyz
  'x, y, z'

loop_
  _atom_site_label
  _atom_site_occupancy
  _atom_site_fract_x
  _atom_site_fract_y
  _atom_site_fract_z
  _atom_site_thermal_displace_type
  _atom_site_B_iso_or_equiv
  _atom_site_type_symbol
  H1       1.0000 0.06392  0.94969  0.17562  Biso   1.000  H 
  Hf1      1.0000 0.13664  0.23047  0.37356  Biso   1.000  Hf
  Hf2      1.0000 0.36421  0.26497  0.12830  Biso   1.000  Hf
  Hf3      1.0000 0.36721  0.48406  0.37657  Biso   1.000  Hf
  O1       1.0000 0.02980  0.19351  0.20568  Biso   1.000  O 
  O2       1.0000 0.03641  0.06727  0.44970  Biso   1.000  O 
  O3       1.0000 0.46619  0.43373  0.19574  Biso   1.000  O 
  O4       1.0000 0.46621  0.31661  0.44373  Biso   1.000  O 
  O5       1.0000 0.28748  0.13297  0.26065  Biso   1.000  O 
  O6       1.0000 0.27031  0.13028  0.50534  Biso   1.000  O 
  O7       1.0000 0.23262  0.38309  0.50098  Biso   1.000  O 
  O8       1.0000 0.22793  0.37229  0.25062  Biso   1.000  O 
  Hf4      1.0000 0.13522  0.01810  0.63522  Biso   1.000  Hf
  Hf5      1.0000 0.14441  0.23681  0.87835  Biso   1.000  Hf
  Hf6      1.0000 0.36936  0.26778  0.62538  Biso   1.000  Hf
  Hf7      1.0000 0.37119  0.48474  0.87666  Biso   1.000  Hf
  O9       1.0000 0.03939  0.19174  0.69215  Biso   1.000  O 
  O10      1.0000 0.05346  0.05914  0.87216  Biso   1.000  O 
  O11      1.0000 0.46618  0.43644  0.69307  Biso   1.000  O 
  O12      1.0000 0.46935  0.31703  0.94162  Biso   1.000  O 
  O13      1.0000 0.28091  0.12332  0.74971  Biso   1.000  O 
  O14      1.0000 0.28025  0.13754  0.99607  Biso   1.000  O 
  O15      1.0000 0.23284  0.38407  0.00182  Biso   1.000  O 
  O16      1.0000 0.23278  0.37004  0.75115  Biso   1.000  O 
  Hf8      1.0000 0.13798  0.51747  0.12721  Biso   1.000  Hf
  Hf9      1.0000 0.13927  0.73535  0.37770  Biso   1.000  Hf
  Hf10     1.0000 0.36383  0.77000  0.12772  Biso   1.000  Hf
  Hf11     1.0000 0.36170  0.98431  0.37323  Biso   1.000  Hf
  O17      1.0000 0.03909  0.68622  0.19366  Biso   1.000  O 
  O18      1.0000 0.03775  0.56643  0.44604  Biso   1.000  O 
  O19      1.0000 0.47071  0.93377  0.19769  Biso   1.000  O 
  O20      1.0000 0.46810  0.81813  0.44871  Biso   1.000  O 
  O21      1.0000 0.27237  0.61688  0.25098  Biso   1.000  O 
  O22      1.0000 0.27420  0.63323  0.50135  Biso   1.000  O 
  O23      1.0000 0.22886  0.88326  0.50531  Biso   1.000  O 
  O24      1.0000 0.23986  0.86148  0.25889  Biso   1.000  O 
  Hf12     1.0000 0.13804  0.51841  0.62646  Biso   1.000  Hf
  Hf13     1.0000 0.14220  0.73512  0.87973  Biso   1.000  Hf
  Hf14     1.0000 0.36964  0.76950  0.62726  Biso   1.000  Hf
  Hf15     1.0000 0.36449  0.98460  0.88321  Biso   1.000  Hf
  O25      1.0000 0.04032  0.68637  0.69389  Biso   1.000  O 
  O26      1.0000 0.04019  0.56746  0.94541  Biso   1.000  O 
  O27      1.0000 0.46745  0.93539  0.69776  Biso   1.000  O 
  O28      1.0000 0.47292  0.81917  0.94757  Biso   1.000  O 
  O29      1.0000 0.27466  0.61994  0.75129  Biso   1.000  O 
  O30      1.0000 0.27460  0.62928  0.00173  Biso   1.000  O 
  O31      1.0000 0.23892  0.87339  0.99883  Biso   1.000  O 
  O32      1.0000 0.23293  0.87027  0.75165  Biso   1.000  O 
  Hf16     1.0000 0.63523  0.01484  0.12339  Biso   1.000  Hf
  Hf17     1.0000 0.63353  0.23297  0.37227  Biso   1.000  Hf
  Hf18     1.0000 0.86626  0.26398  0.12583  Biso   1.000  Hf
  Hf19     1.0000 0.86794  0.48462  0.37574  Biso   1.000  Hf
  O33      1.0000 0.54279  0.18665  0.18724  Biso   1.000  O 
  O34      1.0000 0.53504  0.06675  0.44299  Biso   1.000  O 
  O35      1.0000 0.96494  0.43598  0.19383  Biso   1.000  O 
  O36      1.0000 0.96722  0.31954  0.44809  Biso   1.000  O 
  O37      1.0000 0.76999  0.11487  0.24793  Biso   1.000  O 
  O38      1.0000 0.77094  0.13455  0.49629  Biso   1.000  O 
  O39      1.0000 0.73064  0.38370  0.49896  Biso   1.000  O 
  O40      1.0000 0.73226  0.36769  0.24992  Biso   1.000  O 
  Hf20     1.0000 0.63197  0.01655  0.62272  Biso   1.000  Hf
  Hf21     1.0000 0.63843  0.23201  0.87532  Biso   1.000  Hf
  Hf22     1.0000 0.86303  0.26882  0.62303  Biso   1.000  Hf
  Hf23     1.0000 0.87089  0.48287  0.87628  Biso   1.000  Hf
  O41      1.0000 0.54163  0.18722  0.69179  Biso   1.000  O 
  O42      1.0000 0.54169  0.06571  0.94279  Biso   1.000  O 
  O43      1.0000 0.96746  0.43422  0.69523  Biso   1.000  O 
  O44      1.0000 0.97086  0.31401  0.94608  Biso   1.000  O 
  O45      1.0000 0.77281  0.11821  0.74500  Biso   1.000  O 
  O46      1.0000 0.78230  0.12858  0.99527  Biso   1.000  O 
  O47      1.0000 0.73371  0.38155  0.99859  Biso   1.000  O 
  O48      1.0000 0.73187  0.36900  0.74941  Biso   1.000  O 
  Hf24     1.0000 0.63520  0.51601  0.12601  Biso   1.000  Hf
  Hf25     1.0000 0.63500  0.73595  0.37312  Biso   1.000  Hf
  Hf26     1.0000 0.86874  0.76553  0.12269  Biso   1.000  Hf
  Hf27     1.0000 0.87032  0.98612  0.37738  Biso   1.000  Hf
  O49      1.0000 0.53852  0.68419  0.19386  Biso   1.000  O 
  O50      1.0000 0.53787  0.56786  0.44402  Biso   1.000  O 
  O51      1.0000 0.96717  0.93733  0.19192  Biso   1.000  O 
  O52      1.0000 0.96487  0.81472  0.43876  Biso   1.000  O 
  O53      1.0000 0.77340  0.61705  0.24743  Biso   1.000  O 
  O54      1.0000 0.77103  0.63327  0.49678  Biso   1.000  O 
  O55      1.0000 0.73169  0.88384  0.49699  Biso   1.000  O 
  O56      1.0000 0.73808  0.86700  0.24712  Biso   1.000  O 
  Hf28     1.0000 0.63583  0.51819  0.62528  Biso   1.000  Hf
  Hf29     1.0000 0.63868  0.73386  0.87572  Biso   1.000  Hf
  Hf30     1.0000 0.86959  0.76415  0.62149  Biso   1.000  Hf
  Hf31     1.0000 0.86811  0.98079  0.86705  Biso   1.000  Hf
  O57      1.0000 0.53980  0.68523  0.69551  Biso   1.000  O 
  O58      1.0000 0.54199  0.56604  0.94422  Biso   1.000  O 
  O59      1.0000 0.95918  0.93482  0.67732  Biso   1.000  O 
  O60      1.0000 0.96884  0.81894  0.94059  Biso   1.000  O 
  O61      1.0000 0.77518  0.61665  0.74843  Biso   1.000  O 
  O62      1.0000 0.77654  0.63181  0.99831  Biso   1.000  O 
  O63      1.0000 0.73472  0.88039  0.99791  Biso   1.000  O 
  O64      1.0000 0.73351  0.86706  0.74778  Biso   1.000  O 
