data_image0
_cell_length_a       9.97935
_cell_length_b       5.18746
_cell_length_c       10.0224
_cell_angle_alpha    90
_cell_angle_beta     90
_cell_angle_gamma    90

_symmetry_space_group_name_H-M    "P 1"
_symmetry_int_tables_number       1

loop_
  _symmetry_equiv_pos_as_xyz
  'x, y, z'

loop_
  _atom_site_label
  _atom_site_occupancy
  _atom_site_fract_x
  _atom_site_fract_y
  _atom_site_fract_z
  _atom_site_thermal_displace_type
  _atom_site_B_iso_or_equiv
  _atom_site_type_symbol
  Hf1      1.0000 0.13674  0.02511  0.11910  Biso   1.000  Hf
  Hf2      1.0000 0.13464  0.47450  0.38451  Biso   1.000  Hf
  Hf3      1.0000 0.36133  0.52914  0.12399  Biso   1.000  Hf
  Hf4      1.0000 0.36255  0.97156  0.37358  Biso   1.000  Hf
  O1       1.0000 0.02866  0.38284  0.19728  Biso   1.000  O 
  O2       1.0000 0.03473  0.14099  0.44559  Biso   1.000  O 
  O3       1.0000 0.45714  0.87284  0.19182  Biso   1.000  O 
  O4       1.0000 0.45974  0.63645  0.44295  Biso   1.000  O 
  O5       1.0000 0.26203  0.23512  0.24973  Biso   1.000  O 
  O6       1.0000 0.27154  0.26877  0.50017  Biso   1.000  O 
  O7       1.0000 0.22707  0.77184  0.50024  Biso   1.000  O 
  O8       1.0000 0.22420  0.73069  0.24940  Biso   1.000  O 
  Hf5      1.0000 0.13347  0.03958  0.62772  Biso   1.000  Hf
  Hf6      1.0000 0.13349  0.47214  0.87810  Biso   1.000  Hf
  Hf7      1.0000 0.36454  0.53966  0.62675  Biso   1.000  Hf
  Hf8      1.0000 0.36487  0.97280  0.87320  Biso   1.000  Hf
  O9       1.0000 0.03417  0.37338  0.69498  Biso   1.000  O 
  O10      1.0000 0.03614  0.13913  0.94402  Biso   1.000  O 
  O11      1.0000 0.46283  0.87308  0.69244  Biso   1.000  O 
  O12      1.0000 0.46216  0.63795  0.94369  Biso   1.000  O 
  O13      1.0000 0.26979  0.24327  0.74823  Biso   1.000  O 
  O14      1.0000 0.28013  0.26089  0.99422  Biso   1.000  O 
  O15      1.0000 0.22887  0.77201  0.99781  Biso   1.000  O 
  O16      1.0000 0.22741  0.74340  0.74924  Biso   1.000  O 
  Hf9      1.0000 0.63046  0.04106  0.12538  Biso   1.000  Hf
  Hf10     1.0000 0.63030  0.47155  0.37733  Biso   1.000  Hf
  Hf11     1.0000 0.84998  0.54730  0.12477  Biso   1.000  Hf
  Hf12     1.0000 0.86304  0.97447  0.37568  Biso   1.000  Hf
  O17      1.0000 0.53285  0.37091  0.19583  Biso   1.000  O 
  O18      1.0000 0.53507  0.13507  0.44360  Biso   1.000  O 
  O19      1.0000 0.96004  0.87792  0.19476  Biso   1.000  O 
  O20      1.0000 0.96230  0.64166  0.44603  Biso   1.000  O 
  O21      1.0000 0.76899  0.24669  0.25018  Biso   1.000  O 
  O22      1.0000 0.76919  0.27113  0.49941  Biso   1.000  O 
  O23      1.0000 0.72700  0.76974  0.49962  Biso   1.000  O 
  O24      1.0000 0.72150  0.74882  0.25084  Biso   1.000  O 
  Hf13     1.0000 0.63544  0.03841  0.62514  Biso   1.000  Hf
  Hf14     1.0000 0.63057  0.47460  0.87328  Biso   1.000  Hf
  Hf15     1.0000 0.86496  0.53936  0.62637  Biso   1.000  Hf
  Hf16     1.0000 0.86261  0.97531  0.87613  Biso   1.000  Hf
  O25      1.0000 0.53547  0.37395  0.69200  Biso   1.000  O 
  O26      1.0000 0.53841  0.13784  0.94151  Biso   1.000  O 
  O27      1.0000 0.96183  0.87290  0.69742  Biso   1.000  O 
  O28      1.0000 0.96219  0.64341  0.95109  Biso   1.000  O 
  O29      1.0000 0.77015  0.24211  0.74939  Biso   1.000  O 
  O30      1.0000 0.76874  0.27678  0.99936  Biso   1.000  O 
  O31      1.0000 0.72295  0.77675  0.99986  Biso   1.000  O 
  O32      1.0000 0.72803  0.74270  0.74965  Biso   1.000  O 
  H1       1.0000 0.09383  0.47140  0.13138  Biso   1.000  H 
