data_image0
_cell_length_a       5.09187
_cell_length_b       10.2307
_cell_length_c       10.4824
_cell_angle_alpha    90
_cell_angle_beta     80
_cell_angle_gamma    90

_symmetry_space_group_name_H-M    "P 1"
_symmetry_int_tables_number       1

loop_
  _symmetry_equiv_pos_as_xyz
  'x, y, z'

loop_
  _atom_site_label
  _atom_site_occupancy
  _atom_site_fract_x
  _atom_site_fract_y
  _atom_site_fract_z
  _atom_site_thermal_displace_type
  _atom_site_B_iso_or_equiv
  _atom_site_type_symbol
  H1       1.0000 0.04308  0.00788  0.12262  Biso   1.000  H 
  Hf1      1.0000 0.29040  0.23059  0.39431  Biso   1.000  Hf
  Hf2      1.0000 0.71544  0.26386  0.10659  Biso   1.000  Hf
  Hf3      1.0000 0.72426  0.47984  0.35235  Biso   1.000  Hf
  O1       1.0000 0.06318  0.16172  0.07472  Biso   1.000  O 
  O2       1.0000 0.06090  0.09142  0.34240  Biso   1.000  O 
  O3       1.0000 0.93546  0.41180  0.17344  Biso   1.000  O 
  O4       1.0000 0.94004  0.33959  0.42459  Biso   1.000  O 
  O5       1.0000 0.57715  0.13873  0.25457  Biso   1.000  O 
  O6       1.0000 0.55487  0.12356  0.49504  Biso   1.000  O 
  O7       1.0000 0.44835  0.37844  0.01071  Biso   1.000  O 
  O8       1.0000 0.44423  0.37519  0.25998  Biso   1.000  O 
  Hf4      1.0000 0.28919  0.02118  0.64564  Biso   1.000  Hf
  Hf5      1.0000 0.28983  0.22777  0.90130  Biso   1.000  Hf
  Hf6      1.0000 0.72538  0.27379  0.60470  Biso   1.000  Hf
  Hf7      1.0000 0.73024  0.48093  0.85546  Biso   1.000  Hf
  O9       1.0000 0.06916  0.16493  0.57745  Biso   1.000  O 
  O10      1.0000 0.07723  0.08930  0.82443  Biso   1.000  O 
  O11      1.0000 0.94467  0.41509  0.67365  Biso   1.000  O 
  O12      1.0000 0.95108  0.34259  0.92407  Biso   1.000  O 
  O13      1.0000 0.55992  0.12947  0.73915  Biso   1.000  O 
  O14      1.0000 0.59175  0.13536  0.97842  Biso   1.000  O 
  O15      1.0000 0.45396  0.38066  0.51062  Biso   1.000  O 
  O16      1.0000 0.45900  0.37364  0.76031  Biso   1.000  O 
  Hf8      1.0000 0.27946  0.52138  0.14501  Biso   1.000  Hf
  Hf9      1.0000 0.28676  0.73048  0.39352  Biso   1.000  Hf
  Hf10     1.0000 0.71846  0.77720  0.10436  Biso   1.000  Hf
  Hf11     1.0000 0.71749  0.98278  0.35122  Biso   1.000  Hf
  O17      1.0000 0.06633  0.66721  0.07849  Biso   1.000  O 
  O18      1.0000 0.06659  0.58750  0.32624  Biso   1.000  O 
  O19      1.0000 0.93184  0.93092  0.16558  Biso   1.000  O 
  O20      1.0000 0.94177  0.83708  0.42058  Biso   1.000  O 
  O21      1.0000 0.55403  0.62448  0.23770  Biso   1.000  O 
  O22      1.0000 0.55763  0.62316  0.48961  Biso   1.000  O 
  O23      1.0000 0.47938  0.87358  0.99724  Biso   1.000  O 
  O24      1.0000 0.48162  0.86084  0.26445  Biso   1.000  O 
  Hf12     1.0000 0.28695  0.52425  0.64707  Biso   1.000  Hf
  Hf13     1.0000 0.29318  0.73450  0.89695  Biso   1.000  Hf
  Hf14     1.0000 0.72934  0.77381  0.60160  Biso   1.000  Hf
  Hf15     1.0000 0.72139  0.98271  0.85534  Biso   1.000  Hf
  O25      1.0000 0.07267  0.66604  0.57791  Biso   1.000  O 
  O26      1.0000 0.07496  0.58847  0.82758  Biso   1.000  O 
  O27      1.0000 0.93843  0.91595  0.67294  Biso   1.000  O 
  O28      1.0000 0.95822  0.84586  0.92290  Biso   1.000  O 
  O29      1.0000 0.56197  0.63126  0.73987  Biso   1.000  O 
  O30      1.0000 0.56485  0.62362  0.99045  Biso   1.000  O 
  O31      1.0000 0.45250  0.87972  0.50984  Biso   1.000  O 
  O32      1.0000 0.45421  0.87440  0.75534  Biso   1.000  O 
