data_image0
_cell_length_a       4.97532
_cell_length_b       10.1569
_cell_length_c       10.0385
_cell_angle_alpha    90
_cell_angle_beta     90
_cell_angle_gamma    90

_symmetry_space_group_name_H-M    "P 1"
_symmetry_int_tables_number       1

loop_
  _symmetry_equiv_pos_as_xyz
  'x, y, z'

loop_
  _atom_site_label
  _atom_site_occupancy
  _atom_site_fract_x
  _atom_site_fract_y
  _atom_site_fract_z
  _atom_site_thermal_displace_type
  _atom_site_B_iso_or_equiv
  _atom_site_type_symbol
  H1       1.0000 0.14239  0.95424  0.06313  Biso   1.000  H 
  Hf1      1.0000 0.24044  0.24962  0.37318  Biso   1.000  Hf
  Hf2      1.0000 0.74087  0.24647  0.12502  Biso   1.000  Hf
  Hf3      1.0000 0.73437  0.99803  0.37036  Biso   1.000  Hf
  O1       1.0000 0.97018  0.14567  0.99108  Biso   1.000  O 
  O2       1.0000 0.98410  0.12192  0.25591  Biso   1.000  O 
  O3       1.0000 0.99354  0.36372  0.24938  Biso   1.000  O 
  O4       1.0000 0.99594  0.39495  0.00003  Biso   1.000  O 
  O5       1.0000 0.50749  0.14027  0.25850  Biso   1.000  O 
  O6       1.0000 0.49177  0.11774  0.99578  Biso   1.000  O 
  O7       1.0000 0.49457  0.36356  0.00114  Biso   1.000  O 
  O8       1.0000 0.49203  0.38927  0.25060  Biso   1.000  O 
  Hf4      1.0000 0.24480  0.00117  0.62597  Biso   1.000  Hf
  Hf5      1.0000 0.24195  0.24892  0.87743  Biso   1.000  Hf
  Hf6      1.0000 0.74388  0.24891  0.62570  Biso   1.000  Hf
  Hf7      1.0000 0.74437  0.99945  0.88099  Biso   1.000  Hf
  O9       1.0000 0.99750  0.14358  0.50214  Biso   1.000  O 
  O10      1.0000 0.99398  0.10617  0.74853  Biso   1.000  O 
  O11      1.0000 0.99164  0.35699  0.74975  Biso   1.000  O 
  O12      1.0000 0.99760  0.39314  0.49925  Biso   1.000  O 
  O13      1.0000 0.49482  0.14419  0.75103  Biso   1.000  O 
  O14      1.0000 0.49665  0.10724  0.50288  Biso   1.000  O 
  O15      1.0000 0.49788  0.35731  0.50019  Biso   1.000  O 
  O16      1.0000 0.49221  0.39425  0.75060  Biso   1.000  O 
  Hf8      1.0000 0.24463  0.50108  0.12494  Biso   1.000  Hf
  Hf9      1.0000 0.24392  0.75007  0.37359  Biso   1.000  Hf
  Hf10     1.0000 0.74356  0.75239  0.12755  Biso   1.000  Hf
  Hf11     1.0000 0.74277  0.50024  0.37596  Biso   1.000  Hf
  O17      1.0000 0.99129  0.64467  0.99993  Biso   1.000  O 
  O18      1.0000 0.99557  0.60933  0.25067  Biso   1.000  O 
  O19      1.0000 0.97336  0.85754  0.26243  Biso   1.000  O 
  O20      1.0000 0.02716  0.89830  0.00728  Biso   1.000  O 
  O21      1.0000 0.49514  0.63708  0.25073  Biso   1.000  O 
  O22      1.0000 0.49749  0.60822  0.00191  Biso   1.000  O 
  O23      1.0000 0.53461  0.84929  0.98513  Biso   1.000  O 
  O24      1.0000 0.49340  0.87826  0.25459  Biso   1.000  O 
  Hf12     1.0000 0.24291  0.49979  0.62579  Biso   1.000  Hf
  Hf13     1.0000 0.24941  0.75134  0.87702  Biso   1.000  Hf
  Hf14     1.0000 0.74238  0.75247  0.62649  Biso   1.000  Hf
  Hf15     1.0000 0.74253  0.50152  0.87508  Biso   1.000  Hf
  O25      1.0000 0.98635  0.64321  0.50045  Biso   1.000  O 
  O26      1.0000 0.99543  0.60595  0.74994  Biso   1.000  O 
  O27      1.0000 0.98146  0.85485  0.75917  Biso   1.000  O 
  O28      1.0000 0.98227  0.89389  0.50712  Biso   1.000  O 
  O29      1.0000 0.49560  0.64410  0.75159  Biso   1.000  O 
  O30      1.0000 0.48831  0.60692  0.50036  Biso   1.000  O 
  O31      1.0000 0.48470  0.85684  0.50212  Biso   1.000  O 
  O32      1.0000 0.48404  0.89552  0.74715  Biso   1.000  O 
