data_image0
_cell_length_a       5.09193
_cell_length_b       10.298
_cell_length_c       10.6256
_cell_angle_alpha    90
_cell_angle_beta     80
_cell_angle_gamma    90

_symmetry_space_group_name_H-M    "P 1"
_symmetry_int_tables_number       1

loop_
  _symmetry_equiv_pos_as_xyz
  'x, y, z'

loop_
  _atom_site_label
  _atom_site_occupancy
  _atom_site_fract_x
  _atom_site_fract_y
  _atom_site_fract_z
  _atom_site_thermal_displace_type
  _atom_site_B_iso_or_equiv
  _atom_site_type_symbol
  Hf1      1.0000 0.29457  0.01684  0.15108  Biso   1.000  Hf
  Hf2      1.0000 0.34510  0.23325  0.40780  Biso   1.000  Hf
  Hf3      1.0000 0.66403  0.27263  0.08945  Biso   1.000  Hf
  Hf4      1.0000 0.70475  0.48232  0.35330  Biso   1.000  Hf
  O1       1.0000 0.03987  0.16731  0.07579  Biso   1.000  O 
  O2       1.0000 0.11044  0.07332  0.33830  Biso   1.000  O 
  O3       1.0000 0.88562  0.42261  0.16633  Biso   1.000  O 
  O4       1.0000 0.97443  0.34776  0.43456  Biso   1.000  O 
  O5       1.0000 0.60064  0.12534  0.24375  Biso   1.000  O 
  O6       1.0000 0.61339  0.11853  0.49393  Biso   1.000  O 
  O7       1.0000 0.39671  0.38601  0.00208  Biso   1.000  O 
  O8       1.0000 0.36338  0.36050  0.24498  Biso   1.000  O 
  Hf5      1.0000 0.31646  0.02292  0.64516  Biso   1.000  Hf
  Hf6      1.0000 0.29684  0.23178  0.88925  Biso   1.000  Hf
  Hf7      1.0000 0.76115  0.27558  0.60654  Biso   1.000  Hf
  Hf8      1.0000 0.73675  0.48428  0.85061  Biso   1.000  Hf
  O9       1.0000 0.11524  0.17191  0.58335  Biso   1.000  O 
  O10      1.0000 0.10085  0.08450  0.82432  Biso   1.000  O 
  O11      1.0000 0.95357  0.42050  0.67611  Biso   1.000  O 
  O12      1.0000 0.94601  0.33541  0.91318  Biso   1.000  O 
  O13      1.0000 0.58565  0.13147  0.74044  Biso   1.000  O 
  O14      1.0000 0.57533  0.12230  0.98448  Biso   1.000  O 
  O15      1.0000 0.47368  0.38331  0.51555  Biso   1.000  O 
  O16      1.0000 0.46996  0.37368  0.75572  Biso   1.000  O 
  Hf9      1.0000 0.24993  0.52473  0.14547  Biso   1.000  Hf
  Hf10     1.0000 0.26357  0.72590  0.39771  Biso   1.000  Hf
  Hf11     1.0000 0.69298  0.77171  0.10458  Biso   1.000  Hf
  Hf12     1.0000 0.70701  0.97254  0.35534  Biso   1.000  Hf
  O17      1.0000 0.03504  0.66838  0.07883  Biso   1.000  O 
  O18      1.0000 0.04984  0.58361  0.32670  Biso   1.000  O 
  O19      1.0000 0.91153  0.91550  0.17440  Biso   1.000  O 
  O20      1.0000 0.92094  0.82970  0.42285  Biso   1.000  O 
  O21      1.0000 0.52964  0.62679  0.24242  Biso   1.000  O 
  O22      1.0000 0.54254  0.62522  0.49195  Biso   1.000  O 
  O23      1.0000 0.41331  0.87764  0.01220  Biso   1.000  O 
  O24      1.0000 0.42650  0.86771  0.25870  Biso   1.000  O 
  Hf13     1.0000 0.29179  0.52589  0.64686  Biso   1.000  Hf
  Hf14     1.0000 0.28957  0.73186  0.89506  Biso   1.000  Hf
  Hf15     1.0000 0.72317  0.77329  0.60261  Biso   1.000  Hf
  Hf16     1.0000 0.72331  0.97928  0.85043  Biso   1.000  Hf
  O25      1.0000 0.06305  0.66507  0.57777  Biso   1.000  O 
  O26      1.0000 0.08343  0.58887  0.82673  Biso   1.000  O 
  O27      1.0000 0.93132  0.91740  0.67094  Biso   1.000  O 
  O28      1.0000 0.94666  0.83874  0.92024  Biso   1.000  O 
  O29      1.0000 0.56494  0.63177  0.74019  Biso   1.000  O 
  O30      1.0000 0.57384  0.62725  0.98859  Biso   1.000  O 
  O31      1.0000 0.43768  0.87871  0.50900  Biso   1.000  O 
  O32      1.0000 0.44953  0.87346  0.75805  Biso   1.000  O 
  Hf17     1.0000 0.96805  0.24705  0.26309  Biso   1.000  Hf
