data_image0
_cell_length_a       10.0283
_cell_length_b       10.294
_cell_length_c       5.30494
_cell_angle_alpha    90
_cell_angle_beta     90
_cell_angle_gamma    90

_symmetry_space_group_name_H-M    "P 1"
_symmetry_int_tables_number       1

loop_
  _symmetry_equiv_pos_as_xyz
  'x, y, z'

loop_
  _atom_site_label
  _atom_site_occupancy
  _atom_site_fract_x
  _atom_site_fract_y
  _atom_site_fract_z
  _atom_site_thermal_displace_type
  _atom_site_B_iso_or_equiv
  _atom_site_type_symbol
  Hf1      1.0000 0.13580  0.02307  0.34951  Biso   1.000  Hf
  Hf2      1.0000 0.11896  0.22990  0.85945  Biso   1.000  Hf
  Hf3      1.0000 0.33917  0.27680  0.38565  Biso   1.000  Hf
  Hf4      1.0000 0.33384  0.48641  0.86420  Biso   1.000  Hf
  Hf5      1.0000 0.65032  0.01483  0.14928  Biso   1.000  Hf
  Hf6      1.0000 0.64326  0.21884  0.61655  Biso   1.000  Hf
  Hf7      1.0000 0.84893  0.26594  0.14210  Biso   1.000  Hf
  Hf8      1.0000 0.84127  0.47786  0.65346  Biso   1.000  Hf
  O1       1.0000 0.02854  0.16175  0.16774  Biso   1.000  O 
  O2       1.0000 0.02712  0.08485  0.66605  Biso   1.000  O 
  O3       1.0000 0.44968  0.43887  0.20642  Biso   1.000  O 
  O4       1.0000 0.45701  0.33340  0.68363  Biso   1.000  O 
  O5       1.0000 0.26459  0.12696  0.60895  Biso   1.000  O 
  O6       1.0000 0.27831  0.12893  0.10144  Biso   1.000  O 
  O7       1.0000 0.20198  0.37884  0.62014  Biso   1.000  O 
  O8       1.0000 0.20908  0.37885  0.11582  Biso   1.000  O 
  O9       1.0000 0.51430  0.14554  0.35465  Biso   1.000  O 
  O10      1.0000 0.52042  0.09281  0.84405  Biso   1.000  O 
  O11      1.0000 0.94776  0.41251  0.34169  Biso   1.000  O 
  O12      1.0000 0.94623  0.33648  0.83798  Biso   1.000  O 
  O13      1.0000 0.77482  0.11626  0.88279  Biso   1.000  O 
  O14      1.0000 0.78522  0.11758  0.39868  Biso   1.000  O 
  O15      1.0000 0.69494  0.37750  0.89622  Biso   1.000  O 
  O16      1.0000 0.69816  0.37103  0.37868  Biso   1.000  O 
  Hf9      1.0000 0.12047  0.52069  0.35203  Biso   1.000  Hf
  Hf10     1.0000 0.11348  0.72920  0.84676  Biso   1.000  Hf
  Hf11     1.0000 0.34468  0.77539  0.35130  Biso   1.000  Hf
  Hf12     1.0000 0.32986  0.97792  0.85358  Biso   1.000  Hf
  Hf13     1.0000 0.62813  0.53375  0.15299  Biso   1.000  Hf
  Hf14     1.0000 0.61766  0.73162  0.65557  Biso   1.000  Hf
  Hf15     1.0000 0.85062  0.76837  0.15925  Biso   1.000  Hf
  Hf16     1.0000 0.84113  0.97364  0.65691  Biso   1.000  Hf
  O17      1.0000 0.02037  0.66118  0.16642  Biso   1.000  O 
  O18      1.0000 0.00954  0.58557  0.66936  Biso   1.000  O 
  O19      1.0000 0.45458  0.91121  0.15851  Biso   1.000  O 
  O20      1.0000 0.44758  0.84381  0.66541  Biso   1.000  O 
  O21      1.0000 0.25417  0.62720  0.59567  Biso   1.000  O 
  O22      1.0000 0.26317  0.62851  0.09507  Biso   1.000  O 
  O23      1.0000 0.20175  0.87486  0.59850  Biso   1.000  O 
  O24      1.0000 0.20867  0.87755  0.09772  Biso   1.000  O 
  O25      1.0000 0.51745  0.67317  0.33799  Biso   1.000  O 
  O26      1.0000 0.50580  0.59103  0.83663  Biso   1.000  O 
  O27      1.0000 0.95372  0.90939  0.33986  Biso   1.000  O 
  O28      1.0000 0.94421  0.83499  0.84347  Biso   1.000  O 
  O29      1.0000 0.75442  0.62772  0.90193  Biso   1.000  O 
  O30      1.0000 0.76133  0.62526  0.40971  Biso   1.000  O 
  O31      1.0000 0.69919  0.87268  0.91336  Biso   1.000  O 
  O32      1.0000 0.71008  0.87082  0.41165  Biso   1.000  O 
  Hf17     1.0000 0.53623  0.26591  0.04427  Biso   1.000  Hf
