data_image0
_cell_length_a       5.10519
_cell_length_b       10.2665
_cell_length_c       10.1116
_cell_angle_alpha    90
_cell_angle_beta     90
_cell_angle_gamma    90

_symmetry_space_group_name_H-M    "P 1"
_symmetry_int_tables_number       1

loop_
  _symmetry_equiv_pos_as_xyz
  'x, y, z'

loop_
  _atom_site_label
  _atom_site_occupancy
  _atom_site_fract_x
  _atom_site_fract_y
  _atom_site_fract_z
  _atom_site_thermal_displace_type
  _atom_site_B_iso_or_equiv
  _atom_site_type_symbol
  Hf1      1.0000 0.19799  0.98511  0.09239  Biso   1.000  Hf
  Hf2      1.0000 0.21506  0.24326  0.39200  Biso   1.000  Hf
  Hf3      1.0000 0.66745  0.26449  0.12153  Biso   1.000  Hf
  Hf4      1.0000 0.69169  0.49326  0.36439  Biso   1.000  Hf
  O1       1.0000 0.89764  0.18045  0.26631  Biso   1.000  O 
  O2       1.0000 0.03263  0.08202  0.47410  Biso   1.000  O 
  O3       1.0000 0.90744  0.42781  0.20325  Biso   1.000  O 
  O4       1.0000 0.92439  0.35010  0.47947  Biso   1.000  O 
  O5       1.0000 0.41173  0.12244  0.24176  Biso   1.000  O 
  O6       1.0000 0.52121  0.14894  0.49707  Biso   1.000  O 
  O7       1.0000 0.43589  0.39860  0.49558  Biso   1.000  O 
  O8       1.0000 0.41058  0.37751  0.24591  Biso   1.000  O 
  Hf5      1.0000 0.26910  0.02286  0.62024  Biso   1.000  Hf
  Hf6      1.0000 0.16695  0.27734  0.84914  Biso   1.000  Hf
  Hf7      1.0000 0.68292  0.28345  0.62775  Biso   1.000  Hf
  Hf8      1.0000 0.65364  0.51861  0.87642  Biso   1.000  Hf
  O9       1.0000 0.95936  0.16392  0.71791  Biso   1.000  O 
  O10      1.0000 0.91502  0.13884  0.99133  Biso   1.000  O 
  O11      1.0000 0.92409  0.42841  0.72613  Biso   1.000  O 
  O12      1.0000 0.85542  0.36935  0.96258  Biso   1.000  O 
  O13      1.0000 0.46553  0.13965  0.75178  Biso   1.000  O 
  O14      1.0000 0.38644  0.18126  0.99614  Biso   1.000  O 
  O15      1.0000 0.36206  0.42544  0.99250  Biso   1.000  O 
  O16      1.0000 0.42994  0.39095  0.74273  Biso   1.000  O 
  Hf9      1.0000 0.22806  0.53521  0.11729  Biso   1.000  Hf
  Hf10     1.0000 0.20498  0.75304  0.36866  Biso   1.000  Hf
  Hf11     1.0000 0.69328  0.77367  0.11879  Biso   1.000  Hf
  Hf12     1.0000 0.73093  0.01233  0.35579  Biso   1.000  Hf
  O17      1.0000 0.01586  0.68813  0.19864  Biso   1.000  O 
  O18      1.0000 0.00277  0.58950  0.44407  Biso   1.000  O 
  O19      1.0000 0.88315  0.93464  0.20572  Biso   1.000  O 
  O20      1.0000 0.87694  0.84029  0.44607  Biso   1.000  O 
  O21      1.0000 0.50215  0.62743  0.23983  Biso   1.000  O 
  O22      1.0000 0.47287  0.64823  0.48715  Biso   1.000  O 
  O23      1.0000 0.39879  0.90099  0.48575  Biso   1.000  O 
  O24      1.0000 0.41549  0.87083  0.23391  Biso   1.000  O 
  Hf13     1.0000 0.20269  0.52600  0.61266  Biso   1.000  Hf
  Hf14     1.0000 0.18132  0.77103  0.84992  Biso   1.000  Hf
  Hf15     1.0000 0.67523  0.77575  0.60751  Biso   1.000  Hf
  Hf16     1.0000 0.69458  0.02094  0.85182  Biso   1.000  Hf
  O25      1.0000 0.99306  0.68414  0.68770  Biso   1.000  O 
  O26      1.0000 0.97210  0.62141  0.94384  Biso   1.000  O 
  O27      1.0000 0.93495  0.91618  0.72423  Biso   1.000  O 
  O28      1.0000 0.92020  0.87761  0.97058  Biso   1.000  O 
  O29      1.0000 0.46296  0.63475  0.73494  Biso   1.000  O 
  O30      1.0000 0.45413  0.67745  0.98376  Biso   1.000  O 
  O31      1.0000 0.42304  0.92629  0.97532  Biso   1.000  O 
  O32      1.0000 0.44419  0.88603  0.73161  Biso   1.000  O 
  Hf17     1.0000 0.16691  0.25742  0.11741  Biso   1.000  Hf
