data_image0
_cell_length_a       5.05184
_cell_length_b       10.2849
_cell_length_c       10.4705
_cell_angle_alpha    90
_cell_angle_beta     80
_cell_angle_gamma    90

_symmetry_space_group_name_H-M    "P 1"
_symmetry_int_tables_number       1

loop_
  _symmetry_equiv_pos_as_xyz
  'x, y, z'

loop_
  _atom_site_label
  _atom_site_occupancy
  _atom_site_fract_x
  _atom_site_fract_y
  _atom_site_fract_z
  _atom_site_thermal_displace_type
  _atom_site_B_iso_or_equiv
  _atom_site_type_symbol
  Hg1      1.0000 0.24942  0.01713  0.15673  Biso   1.000  Hg
  Hf1      1.0000 0.24627  0.23741  0.40282  Biso   1.000  Hf
  Hf2      1.0000 0.71172  0.26976  0.10495  Biso   1.000  Hf
  Hf3      1.0000 0.70012  0.48463  0.35535  Biso   1.000  Hf
  O1       1.0000 0.08370  0.17121  0.08229  Biso   1.000  O 
  O2       1.0000 0.02552  0.08775  0.36329  Biso   1.000  O 
  O3       1.0000 0.91666  0.42036  0.17085  Biso   1.000  O 
  O4       1.0000 0.90019  0.33998  0.42580  Biso   1.000  O 
  O5       1.0000 0.53127  0.13252  0.24489  Biso   1.000  O 
  O6       1.0000 0.51904  0.12957  0.49475  Biso   1.000  O 
  O7       1.0000 0.45160  0.37784  0.01070  Biso   1.000  O 
  O8       1.0000 0.43406  0.37316  0.26130  Biso   1.000  O 
  Hf4      1.0000 0.24067  0.02902  0.64707  Biso   1.000  Hf
  Hf5      1.0000 0.24334  0.23406  0.89722  Biso   1.000  Hf
  Hf6      1.0000 0.68936  0.27985  0.60923  Biso   1.000  Hf
  Hf7      1.0000 0.68745  0.48642  0.85896  Biso   1.000  Hf
  O9       1.0000 0.04564  0.18667  0.59318  Biso   1.000  O 
  O10      1.0000 0.03904  0.08575  0.83373  Biso   1.000  O 
  O11      1.0000 0.89287  0.42904  0.67503  Biso   1.000  O 
  O12      1.0000 0.89184  0.33941  0.92908  Biso   1.000  O 
  O13      1.0000 0.51752  0.13612  0.74040  Biso   1.000  O 
  O14      1.0000 0.53016  0.13820  0.98377  Biso   1.000  O 
  O15      1.0000 0.41730  0.38824  0.51273  Biso   1.000  O 
  O16      1.0000 0.41312  0.37805  0.76388  Biso   1.000  O 
  Hf8      1.0000 0.26914  0.52082  0.14515  Biso   1.000  Hf
  Hf9      1.0000 0.24932  0.73173  0.39632  Biso   1.000  Hf
  Hf10     1.0000 0.72275  0.76854  0.09521  Biso   1.000  Hf
  Hf11     1.0000 0.69535  0.98765  0.36196  Biso   1.000  Hf
  O17      1.0000 0.07843  0.67241  0.07907  Biso   1.000  O 
  O18      1.0000 0.05676  0.58215  0.32976  Biso   1.000  O 
  O19      1.0000 0.88528  0.92761  0.17146  Biso   1.000  O 
  O20      1.0000 0.89915  0.83185  0.41711  Biso   1.000  O 
  O21      1.0000 0.53945  0.63461  0.24023  Biso   1.000  O 
  O22      1.0000 0.52581  0.62727  0.49145  Biso   1.000  O 
  O23      1.0000 0.41911  0.88238  0.99873  Biso   1.000  O 
  O24      1.0000 0.42675  0.87215  0.25125  Biso   1.000  O 
  Hf12     1.0000 0.24546  0.52872  0.64962  Biso   1.000  Hf
  Hf13     1.0000 0.24307  0.74019  0.89545  Biso   1.000  Hf
  Hf14     1.0000 0.69047  0.77815  0.60429  Biso   1.000  Hf
  Hf15     1.0000 0.68253  0.98865  0.85538  Biso   1.000  Hf
  O25      1.0000 0.04343  0.67656  0.58090  Biso   1.000  O 
  O26      1.0000 0.03699  0.58735  0.83390  Biso   1.000  O 
  O27      1.0000 0.89222  0.92888  0.66742  Biso   1.000  O 
  O28      1.0000 0.89508  0.83968  0.91877  Biso   1.000  O 
  O29      1.0000 0.52132  0.63702  0.74233  Biso   1.000  O 
  O30      1.0000 0.50906  0.62743  0.99361  Biso   1.000  O 
  O31      1.0000 0.41713  0.88626  0.50690  Biso   1.000  O 
  O32      1.0000 0.41139  0.87843  0.75497  Biso   1.000  O 
