data_image0
_cell_length_a       10.1048
_cell_length_b       10.289
_cell_length_c       5.23154
_cell_angle_alpha    90
_cell_angle_beta     80
_cell_angle_gamma    90

_symmetry_space_group_name_H-M    "P 1"
_symmetry_int_tables_number       1

loop_
  _symmetry_equiv_pos_as_xyz
  'x, y, z'

loop_
  _atom_site_label
  _atom_site_occupancy
  _atom_site_fract_x
  _atom_site_fract_y
  _atom_site_fract_z
  _atom_site_thermal_displace_type
  _atom_site_B_iso_or_equiv
  _atom_site_type_symbol
  Hg1      1.0000 0.12218  0.01851  0.31411  Biso   1.000  Hg
  Hf1      1.0000 0.12957  0.23111  0.79651  Biso   1.000  Hf
  Hf2      1.0000 0.35731  0.27143  0.19904  Biso   1.000  Hf
  Hf3      1.0000 0.35264  0.48245  0.70681  Biso   1.000  Hf
  O1       1.0000 0.04595  0.18443  0.19100  Biso   1.000  O 
  O2       1.0000 0.01648  0.08155  0.73852  Biso   1.000  O 
  O3       1.0000 0.45938  0.41964  0.33985  Biso   1.000  O 
  O4       1.0000 0.45762  0.33959  0.84471  Biso   1.000  O 
  O5       1.0000 0.26534  0.12549  0.46413  Biso   1.000  O 
  O6       1.0000 0.28062  0.13666  0.94239  Biso   1.000  O 
  O7       1.0000 0.22328  0.38209  0.01498  Biso   1.000  O 
  O8       1.0000 0.21944  0.36990  0.51735  Biso   1.000  O 
  Hf4      1.0000 0.13672  0.52181  0.29177  Biso   1.000  Hf
  Hf5      1.0000 0.12822  0.73247  0.79054  Biso   1.000  Hf
  Hf6      1.0000 0.36096  0.77267  0.19019  Biso   1.000  Hf
  Hf7      1.0000 0.35323  0.98219  0.70207  Biso   1.000  Hf
  O9       1.0000 0.03743  0.67454  0.16511  Biso   1.000  O 
  O10      1.0000 0.03182  0.57738  0.66568  Biso   1.000  O 
  O11      1.0000 0.46008  0.91843  0.33959  Biso   1.000  O 
  O12      1.0000 0.46232  0.83728  0.83574  Biso   1.000  O 
  O13      1.0000 0.27185  0.63404  0.47819  Biso   1.000  O 
  O14      1.0000 0.26508  0.62292  0.98047  Biso   1.000  O 
  O15      1.0000 0.22252  0.87641  0.98217  Biso   1.000  O 
  O16      1.0000 0.21174  0.86942  0.49263  Biso   1.000  O 
  Hf8      1.0000 0.63473  0.02141  0.29746  Biso   1.000  Hf
  Hf9      1.0000 0.62759  0.23228  0.80012  Biso   1.000  Hf
  Hf10     1.0000 0.85668  0.27212  0.22047  Biso   1.000  Hf
  Hf11     1.0000 0.85469  0.48032  0.71549  Biso   1.000  Hf
  O17      1.0000 0.53222  0.16911  0.16185  Biso   1.000  O 
  O18      1.0000 0.52993  0.08302  0.66090  Biso   1.000  O 
  O19      1.0000 0.95909  0.42238  0.34497  Biso   1.000  O 
  O20      1.0000 0.95316  0.33378  0.85939  Biso   1.000  O 
  O21      1.0000 0.77093  0.13193  0.49409  Biso   1.000  O 
  O22      1.0000 0.76094  0.12590  0.99934  Biso   1.000  O 
  O23      1.0000 0.72356  0.37852  0.02478  Biso   1.000  O 
  O24      1.0000 0.71829  0.37232  0.52532  Biso   1.000  O 
  Hf12     1.0000 0.63371  0.52101  0.29271  Biso   1.000  Hf
  Hf13     1.0000 0.63147  0.73071  0.78988  Biso   1.000  Hf
  Hf14     1.0000 0.85829  0.76733  0.20569  Biso   1.000  Hf
  Hf15     1.0000 0.84948  0.98500  0.73069  Biso   1.000  Hf
  O25      1.0000 0.53559  0.66785  0.15113  Biso   1.000  O 
  O26      1.0000 0.52848  0.58473  0.65567  Biso   1.000  O 
  O27      1.0000 0.94376  0.93131  0.33673  Biso   1.000  O 
  O28      1.0000 0.94957  0.82671  0.83552  Biso   1.000  O 
  O29      1.0000 0.77199  0.62928  0.48233  Biso   1.000  O 
  O30      1.0000 0.76651  0.62318  0.98572  Biso   1.000  O 
  O31      1.0000 0.72249  0.87891  0.02142  Biso   1.000  O 
  O32      1.0000 0.72144  0.87163  0.51807  Biso   1.000  O 
