data_image0
_cell_length_a       5.02408
_cell_length_b       10.4781
_cell_length_c       10.1844
_cell_angle_alpha    90
_cell_angle_beta     90
_cell_angle_gamma    90

_symmetry_space_group_name_H-M    "P 1"
_symmetry_int_tables_number       1

loop_
  _symmetry_equiv_pos_as_xyz
  'x, y, z'

loop_
  _atom_site_label
  _atom_site_occupancy
  _atom_site_fract_x
  _atom_site_fract_y
  _atom_site_fract_z
  _atom_site_thermal_displace_type
  _atom_site_B_iso_or_equiv
  _atom_site_type_symbol
  Hf1      1.0000 0.24546  0.00055  0.10802  Biso   1.000  Hf
  Hf2      1.0000 0.22162  0.24116  0.40660  Biso   1.000  Hf
  Hf3      1.0000 0.62723  0.26004  0.15881  Biso   1.000  Hf
  Hf4      1.0000 0.71452  0.49662  0.38791  Biso   1.000  Hf
  O1       1.0000 0.90260  0.18480  0.27396  Biso   1.000  O 
  O2       1.0000 0.06770  0.06483  0.45612  Biso   1.000  O 
  O3       1.0000 0.90552  0.44608  0.21432  Biso   1.000  O 
  O4       1.0000 0.91229  0.34290  0.46649  Biso   1.000  O 
  O5       1.0000 0.41625  0.11806  0.25492  Biso   1.000  O 
  O6       1.0000 0.54201  0.14980  0.50120  Biso   1.000  O 
  O7       1.0000 0.43680  0.39835  0.51396  Biso   1.000  O 
  O8       1.0000 0.40753  0.37722  0.27412  Biso   1.000  O 
  Hf5      1.0000 0.27499  0.02116  0.61972  Biso   1.000  Hf
  Hf6      1.0000 0.23369  0.24060  0.83783  Biso   1.000  Hf
  Hf7      1.0000 0.72009  0.29508  0.63799  Biso   1.000  Hf
  Hf8      1.0000 0.70112  0.50840  0.86603  Biso   1.000  Hf
  O9       1.0000 0.08374  0.19846  0.65834  Biso   1.000  O 
  O10      1.0000 0.05868  0.08292  0.92870  Biso   1.000  O 
  O11      1.0000 0.87008  0.47884  0.67141  Biso   1.000  O 
  O12      1.0000 0.85917  0.32234  0.83885  Biso   1.000  O 
  O13      1.0000 0.52669  0.13094  0.74690  Biso   1.000  O 
  O14      1.0000 0.55756  0.12598  0.00523  Biso   1.000  O 
  O15      1.0000 0.53621  0.40064  0.02219  Biso   1.000  O 
  O16      1.0000 0.40035  0.39772  0.75675  Biso   1.000  O 
  Hf9      1.0000 0.25666  0.53138  0.13791  Biso   1.000  Hf
  Hf10     1.0000 0.24479  0.75159  0.37713  Biso   1.000  Hf
  Hf11     1.0000 0.71389  0.76755  0.12807  Biso   1.000  Hf
  Hf12     1.0000 0.70851  0.01058  0.36311  Biso   1.000  Hf
  O17      1.0000 0.05942  0.69513  0.19573  Biso   1.000  O 
  O18      1.0000 0.04953  0.58908  0.44380  Biso   1.000  O 
  O19      1.0000 0.89493  0.94701  0.18439  Biso   1.000  O 
  O20      1.0000 0.90265  0.83388  0.44058  Biso   1.000  O 
  O21      1.0000 0.52535  0.62825  0.25702  Biso   1.000  O 
  O22      1.0000 0.50989  0.65181  0.50334  Biso   1.000  O 
  O23      1.0000 0.44083  0.89947  0.49373  Biso   1.000  O 
  O24      1.0000 0.44079  0.87366  0.24302  Biso   1.000  O 
  Hf13     1.0000 0.23691  0.53922  0.62404  Biso   1.000  Hf
  Hf14     1.0000 0.22478  0.75625  0.87393  Biso   1.000  Hf
  Hf15     1.0000 0.70853  0.78589  0.62096  Biso   1.000  Hf
  Hf16     1.0000 0.68917  0.00153  0.87169  Biso   1.000  Hf
  O25      1.0000 0.03923  0.70689  0.69757  Biso   1.000  O 
  O26      1.0000 0.02982  0.58414  0.95094  Biso   1.000  O 
  O27      1.0000 0.90138  0.95027  0.69956  Biso   1.000  O 
  O28      1.0000 0.89282  0.84001  0.95093  Biso   1.000  O 
  O29      1.0000 0.50149  0.64070  0.75393  Biso   1.000  O 
  O30      1.0000 0.51694  0.64050  0.00639  Biso   1.000  O 
  O31      1.0000 0.41677  0.90767  0.99296  Biso   1.000  O 
  O32      1.0000 0.43471  0.88203  0.74736  Biso   1.000  O 
  Hg1      1.0000 0.10344  0.28839  0.06677  Biso   1.000  Hg
