data_image0
_cell_length_a       10.0086
_cell_length_b       10.4014
_cell_length_c       10.0854
_cell_angle_alpha    90
_cell_angle_beta     90
_cell_angle_gamma    90

_symmetry_space_group_name_H-M    "P 1"
_symmetry_int_tables_number       1

loop_
  _symmetry_equiv_pos_as_xyz
  'x, y, z'

loop_
  _atom_site_label
  _atom_site_occupancy
  _atom_site_fract_x
  _atom_site_fract_y
  _atom_site_fract_z
  _atom_site_thermal_displace_type
  _atom_site_B_iso_or_equiv
  _atom_site_type_symbol
  Hf1      1.0000 0.13522  0.00072  0.10923  Biso   1.000  Hf
  Hf2      1.0000 0.12298  0.23425  0.39752  Biso   1.000  Hf
  Hf3      1.0000 0.36466  0.26864  0.12253  Biso   1.000  Hf
  Hf4      1.0000 0.36005  0.48713  0.37546  Biso   1.000  Hf
  O1       1.0000 0.95319  0.18372  0.28463  Biso   1.000  O 
  O2       1.0000 0.04446  0.05696  0.45495  Biso   1.000  O 
  O3       1.0000 0.45515  0.43798  0.19386  Biso   1.000  O 
  O4       1.0000 0.45668  0.32178  0.44720  Biso   1.000  O 
  O5       1.0000 0.24575  0.11669  0.24785  Biso   1.000  O 
  O6       1.0000 0.27300  0.13523  0.50012  Biso   1.000  O 
  O7       1.0000 0.22740  0.38821  0.50134  Biso   1.000  O 
  O8       1.0000 0.21954  0.36552  0.25379  Biso   1.000  O 
  Hf5      1.0000 0.13536  0.01256  0.62825  Biso   1.000  Hf
  Hf6      1.0000 0.12717  0.23302  0.85274  Biso   1.000  Hf
  Hf7      1.0000 0.36378  0.27211  0.62686  Biso   1.000  Hf
  Hf8      1.0000 0.35854  0.49239  0.87253  Biso   1.000  Hf
  O9       1.0000 0.04423  0.18638  0.67047  Biso   1.000  O 
  O10      1.0000 0.04330  0.05602  0.91953  Biso   1.000  O 
  O11      1.0000 0.45527  0.44053  0.69355  Biso   1.000  O 
  O12      1.0000 0.45909  0.32299  0.94344  Biso   1.000  O 
  O13      1.0000 0.27144  0.12103  0.74657  Biso   1.000  O 
  O14      1.0000 0.27573  0.13132  0.99511  Biso   1.000  O 
  O15      1.0000 0.22984  0.40033  0.99845  Biso   1.000  O 
  O16      1.0000 0.22174  0.37381  0.74597  Biso   1.000  O 
  Hf9      1.0000 0.12759  0.52261  0.12709  Biso   1.000  Hf
  Hf10     1.0000 0.12452  0.73907  0.37518  Biso   1.000  Hf
  Hf11     1.0000 0.36095  0.76249  0.12554  Biso   1.000  Hf
  Hf12     1.0000 0.35174  0.98866  0.37433  Biso   1.000  Hf
  O17      1.0000 0.03073  0.68746  0.19152  Biso   1.000  O 
  O18      1.0000 0.02903  0.57511  0.43841  Biso   1.000  O 
  O19      1.0000 0.44883  0.93606  0.19549  Biso   1.000  O 
  O20      1.0000 0.45586  0.82121  0.44245  Biso   1.000  O 
  O21      1.0000 0.26376  0.61876  0.24883  Biso   1.000  O 
  O22      1.0000 0.26145  0.63715  0.49740  Biso   1.000  O 
  O23      1.0000 0.22290  0.88461  0.49772  Biso   1.000  O 
  O24      1.0000 0.22158  0.86527  0.24488  Biso   1.000  O 
  Hf13     1.0000 0.12296  0.52133  0.61929  Biso   1.000  Hf
  Hf14     1.0000 0.12000  0.73634  0.87029  Biso   1.000  Hf
  Hf15     1.0000 0.35917  0.76895  0.62262  Biso   1.000  Hf
  Hf16     1.0000 0.35807  0.98693  0.87182  Biso   1.000  Hf
  O25      1.0000 0.02950  0.69501  0.68849  Biso   1.000  O 
  O26      1.0000 0.02304  0.56626  0.94520  Biso   1.000  O 
  O27      1.0000 0.45730  0.93636  0.69483  Biso   1.000  O 
  O28      1.0000 0.45789  0.82464  0.95156  Biso   1.000  O 
  O29      1.0000 0.25810  0.62056  0.74729  Biso   1.000  O 
  O30      1.0000 0.25533  0.64158  0.99820  Biso   1.000  O 
  O31      1.0000 0.22160  0.88212  0.99361  Biso   1.000  O 
  O32      1.0000 0.22456  0.86798  0.74872  Biso   1.000  O 
  Hf17     1.0000 0.62547  0.00746  0.12138  Biso   1.000  Hf
  Hf18     1.0000 0.62298  0.23281  0.39254  Biso   1.000  Hf
  Hf19     1.0000 0.81636  0.25878  0.15422  Biso   1.000  Hf
  Hf20     1.0000 0.85885  0.48656  0.38432  Biso   1.000  Hf
  O33      1.0000 0.52559  0.18510  0.19447  Biso   1.000  O 
  O34      1.0000 0.52778  0.06879  0.45216  Biso   1.000  O 
  O35      1.0000 0.94932  0.43425  0.19796  Biso   1.000  O 
  O36      1.0000 0.96890  0.33703  0.47095  Biso   1.000  O 
  O37      1.0000 0.73233  0.10808  0.26024  Biso   1.000  O 
  O38      1.0000 0.77151  0.14166  0.50662  Biso   1.000  O 
  O39      1.0000 0.72411  0.38514  0.50834  Biso   1.000  O 
  O40      1.0000 0.70519  0.37527  0.26603  Biso   1.000  O 
  Hf21     1.0000 0.63666  0.02079  0.62674  Biso   1.000  Hf
  Hf22     1.0000 0.62897  0.24002  0.87644  Biso   1.000  Hf
  Hf23     1.0000 0.86608  0.28062  0.64317  Biso   1.000  Hf
  Hf24     1.0000 0.85321  0.49068  0.87173  Biso   1.000  Hf
  O41      1.0000 0.53487  0.19030  0.69310  Biso   1.000  O 
  O42      1.0000 0.53458  0.07125  0.93935  Biso   1.000  O 
  O43      1.0000 0.94317  0.46429  0.68095  Biso   1.000  O 
  O44      1.0000 0.93909  0.31035  0.85660  Biso   1.000  O 
  O45      1.0000 0.76652  0.12300  0.75585  Biso   1.000  O 
  O46      1.0000 0.77175  0.13053  0.00861  Biso   1.000  O 
  O47      1.0000 0.73317  0.38113  0.00831  Biso   1.000  O 
  O48      1.0000 0.71044  0.38098  0.75458  Biso   1.000  O 
  Hf25     1.0000 0.62744  0.52125  0.12875  Biso   1.000  Hf
  Hf26     1.0000 0.62862  0.74059  0.37676  Biso   1.000  Hf
  Hf27     1.0000 0.85870  0.76718  0.12647  Biso   1.000  Hf
  Hf28     1.0000 0.86573  0.00100  0.36772  Biso   1.000  Hf
  O49      1.0000 0.53083  0.68675  0.19696  Biso   1.000  O 
  O50      1.0000 0.52726  0.57198  0.44601  Biso   1.000  O 
  O51      1.0000 0.95689  0.94483  0.18322  Biso   1.000  O 
  O52      1.0000 0.95400  0.82255  0.43766  Biso   1.000  O 
  O53      1.0000 0.76456  0.61978  0.25251  Biso   1.000  O 
  O54      1.0000 0.76132  0.63788  0.50066  Biso   1.000  O 
  O55      1.0000 0.72239  0.89149  0.49724  Biso   1.000  O 
  O56      1.0000 0.72416  0.86774  0.24672  Biso   1.000  O 
  Hf29     1.0000 0.62573  0.52276  0.62666  Biso   1.000  Hf
  Hf30     1.0000 0.62440  0.74048  0.87607  Biso   1.000  Hf
  Hf31     1.0000 0.85736  0.77478  0.62129  Biso   1.000  Hf
  Hf32     1.0000 0.85379  0.98706  0.87482  Biso   1.000  Hf
  O57      1.0000 0.52481  0.68799  0.69841  Biso   1.000  O 
  O58      1.0000 0.52391  0.57519  0.94848  Biso   1.000  O 
  O59      1.0000 0.95257  0.93802  0.69490  Biso   1.000  O 
  O60      1.0000 0.95230  0.81760  0.94529  Biso   1.000  O 
  O61      1.0000 0.76000  0.62729  0.75158  Biso   1.000  O 
  O62      1.0000 0.76481  0.63307  0.00261  Biso   1.000  O 
  O63      1.0000 0.71757  0.88823  0.99854  Biso   1.000  O 
  O64      1.0000 0.72070  0.87292  0.74874  Biso   1.000  O 
  Hg1      1.0000 0.06549  0.25327  0.09867  Biso   1.000  Hg
