data_image0
_cell_length_a       9.96584
_cell_length_b       5.30561
_cell_length_c       10.2211
_cell_angle_alpha    90
_cell_angle_beta     90
_cell_angle_gamma    90

_symmetry_space_group_name_H-M    "P 1"
_symmetry_int_tables_number       1

loop_
  _symmetry_equiv_pos_as_xyz
  'x, y, z'

loop_
  _atom_site_label
  _atom_site_occupancy
  _atom_site_fract_x
  _atom_site_fract_y
  _atom_site_fract_z
  _atom_site_thermal_displace_type
  _atom_site_B_iso_or_equiv
  _atom_site_type_symbol
  Hf1      1.0000 0.13872  0.09987  0.13768  Biso   1.000  Hf
  Hf2      1.0000 0.12886  0.49887  0.38518  Biso   1.000  Hf
  Hf3      1.0000 0.36916  0.57408  0.12951  Biso   1.000  Hf
  Hf4      1.0000 0.36199  0.99498  0.37873  Biso   1.000  Hf
  O1       1.0000 0.02209  0.39062  0.21662  Biso   1.000  O 
  O2       1.0000 0.04506  0.14924  0.43220  Biso   1.000  O 
  O3       1.0000 0.46759  0.89332  0.21111  Biso   1.000  O 
  O4       1.0000 0.45675  0.66361  0.45382  Biso   1.000  O 
  O5       1.0000 0.27315  0.27682  0.25709  Biso   1.000  O 
  O6       1.0000 0.27072  0.29304  0.50370  Biso   1.000  O 
  O7       1.0000 0.22474  0.79149  0.50188  Biso   1.000  O 
  O8       1.0000 0.22350  0.76760  0.25460  Biso   1.000  O 
  Hf5      1.0000 0.13058  0.05831  0.61382  Biso   1.000  Hf
  Hf6      1.0000 0.10655  0.47994  0.83267  Biso   1.000  Hf
  Hf7      1.0000 0.35762  0.56731  0.62933  Biso   1.000  Hf
  Hf8      1.0000 0.37694  0.02810  0.86368  Biso   1.000  Hf
  O9       1.0000 0.04207  0.41028  0.64623  Biso   1.000  O 
  O10      1.0000 0.01011  0.21434  0.93988  Biso   1.000  O 
  O11      1.0000 0.45408  0.89682  0.68761  Biso   1.000  O 
  O12      1.0000 0.46275  0.71090  0.94918  Biso   1.000  O 
  O13      1.0000 0.25579  0.26191  0.75118  Biso   1.000  O 
  O14      1.0000 0.24368  0.36097  0.01139  Biso   1.000  O 
  O15      1.0000 0.27480  0.88207  0.02054  Biso   1.000  O 
  O16      1.0000 0.22042  0.77278  0.75496  Biso   1.000  O 
  Hf9      1.0000 0.63711  0.05819  0.13669  Biso   1.000  Hf
  Hf10     1.0000 0.62318  0.49637  0.38683  Biso   1.000  Hf
  Hf11     1.0000 0.84171  0.55357  0.15701  Biso   1.000  Hf
  Hf12     1.0000 0.86583  0.99645  0.38730  Biso   1.000  Hf
  O17      1.0000 0.53470  0.39362  0.20273  Biso   1.000  O 
  O18      1.0000 0.52811  0.16839  0.45236  Biso   1.000  O 
  O19      1.0000 0.95559  0.90718  0.20886  Biso   1.000  O 
  O20      1.0000 0.95369  0.65759  0.44219  Biso   1.000  O 
  O21      1.0000 0.76146  0.26005  0.27041  Biso   1.000  O 
  O22      1.0000 0.76106  0.30730  0.51283  Biso   1.000  O 
  O23      1.0000 0.72067  0.80073  0.50681  Biso   1.000  O 
  O24      1.0000 0.71801  0.76972  0.26506  Biso   1.000  O 
  Hf13     1.0000 0.62894  0.07563  0.62792  Biso   1.000  Hf
  Hf14     1.0000 0.62699  0.52880  0.87986  Biso   1.000  Hf
  Hf15     1.0000 0.85634  0.58405  0.62913  Biso   1.000  Hf
  Hf16     1.0000 0.85730  0.99542  0.86122  Biso   1.000  Hf
  O25      1.0000 0.51566  0.38717  0.71136  Biso   1.000  O 
  O26      1.0000 0.52242  0.21496  0.95808  Biso   1.000  O 
  O27      1.0000 0.94226  0.95156  0.65879  Biso   1.000  O 
  O28      1.0000 0.91783  0.63417  0.82226  Biso   1.000  O 
  O29      1.0000 0.75452  0.27342  0.76228  Biso   1.000  O 
  O30      1.0000 0.76313  0.30396  0.02485  Biso   1.000  O 
  O31      1.0000 0.74688  0.78563  0.00962  Biso   1.000  O 
  O32      1.0000 0.70224  0.79153  0.74982  Biso   1.000  O 
  Hg1      1.0000 0.06402  0.66810  0.03203  Biso   1.000  Hg
