data_image0
_cell_length_a       10.063
_cell_length_b       10.2651
_cell_length_c       10.5186
_cell_angle_alpha    90
_cell_angle_beta     90
_cell_angle_gamma    90

_symmetry_space_group_name_H-M    "P 1"
_symmetry_int_tables_number       1

loop_
  _symmetry_equiv_pos_as_xyz
  'x, y, z'

loop_
  _atom_site_label
  _atom_site_occupancy
  _atom_site_fract_x
  _atom_site_fract_y
  _atom_site_fract_z
  _atom_site_thermal_displace_type
  _atom_site_B_iso_or_equiv
  _atom_site_type_symbol
  Hf1      1.0000 0.13518  0.01964  0.17197  Biso   1.000  Hf
  Hf2      1.0000 0.13079  0.22831  0.42696  Biso   1.000  Hf
  Hf3      1.0000 0.34427  0.26538  0.18761  Biso   1.000  Hf
  Hf4      1.0000 0.35992  0.48023  0.42177  Biso   1.000  Hf
  Hf5      1.0000 0.63671  0.02021  0.07354  Biso   1.000  Hf
  Hf6      1.0000 0.63359  0.22269  0.33255  Biso   1.000  Hf
  Hf7      1.0000 0.86423  0.27169  0.07537  Biso   1.000  Hf
  Hf8      1.0000 0.85909  0.47932  0.32902  Biso   1.000  Hf
  O1       1.0000 0.03522  0.16558  0.08334  Biso   1.000  O 
  O2       1.0000 0.02587  0.08717  0.33265  Biso   1.000  O 
  O3       1.0000 0.45120  0.44347  0.10340  Biso   1.000  O 
  O4       1.0000 0.46373  0.33439  0.33306  Biso   1.000  O 
  O5       1.0000 0.26317  0.12516  0.30210  Biso   1.000  O 
  O6       1.0000 0.27864  0.12321  0.04758  Biso   1.000  O 
  O7       1.0000 0.21689  0.37489  0.30008  Biso   1.000  O 
  O8       1.0000 0.22473  0.37416  0.04806  Biso   1.000  O 
  O9       1.0000 0.50699  0.12431  0.20678  Biso   1.000  O 
  O10      1.0000 0.52557  0.09191  0.43510  Biso   1.000  O 
  O11      1.0000 0.96672  0.41418  0.16871  Biso   1.000  O 
  O12      1.0000 0.96327  0.33723  0.41934  Biso   1.000  O 
  O13      1.0000 0.77151  0.12353  0.45433  Biso   1.000  O 
  O14      1.0000 0.77033  0.12948  0.20377  Biso   1.000  O 
  O15      1.0000 0.72038  0.37397  0.45596  Biso   1.000  O 
  O16      1.0000 0.72164  0.38158  0.20861  Biso   1.000  O 
  Hf9      1.0000 0.13455  0.02142  0.67279  Biso   1.000  Hf
  Hf10     1.0000 0.13436  0.22966  0.92202  Biso   1.000  Hf
  Hf11     1.0000 0.35668  0.27350  0.67262  Biso   1.000  Hf
  Hf12     1.0000 0.35287  0.48520  0.92316  Biso   1.000  Hf
  Hf13     1.0000 0.63519  0.01987  0.58146  Biso   1.000  Hf
  Hf14     1.0000 0.63779  0.22667  0.81759  Biso   1.000  Hf
  Hf15     1.0000 0.85689  0.27303  0.57813  Biso   1.000  Hf
  Hf16     1.0000 0.86148  0.48383  0.82647  Biso   1.000  Hf
  O17      1.0000 0.02641  0.16423  0.58420  Biso   1.000  O 
  O18      1.0000 0.03058  0.08436  0.83301  Biso   1.000  O 
  O19      1.0000 0.46492  0.41461  0.58002  Biso   1.000  O 
  O20      1.0000 0.46430  0.34363  0.82753  Biso   1.000  O 
  O21      1.0000 0.27269  0.12585  0.79566  Biso   1.000  O 
  O22      1.0000 0.27034  0.12635  0.54793  Biso   1.000  O 
  O23      1.0000 0.21968  0.37543  0.79667  Biso   1.000  O 
  O24      1.0000 0.22104  0.37677  0.54685  Biso   1.000  O 
  O25      1.0000 0.52787  0.16589  0.66774  Biso   1.000  O 
  O26      1.0000 0.53250  0.06443  0.89666  Biso   1.000  O 
  O27      1.0000 0.96505  0.41544  0.66641  Biso   1.000  O 
  O28      1.0000 0.96715  0.33643  0.91514  Biso   1.000  O 
  O29      1.0000 0.77998  0.12366  0.94724  Biso   1.000  O 
  O30      1.0000 0.77433  0.12442  0.70027  Biso   1.000  O 
  O31      1.0000 0.73810  0.39375  0.95426  Biso   1.000  O 
  O32      1.0000 0.72183  0.37610  0.70401  Biso   1.000  O 
  Hf17     1.0000 0.13709  0.52240  0.17115  Biso   1.000  Hf
  Hf18     1.0000 0.13628  0.72979  0.42079  Biso   1.000  Hf
  Hf19     1.0000 0.36101  0.77385  0.17226  Biso   1.000  Hf
  Hf20     1.0000 0.36105  0.97993  0.42508  Biso   1.000  Hf
  Hf21     1.0000 0.64351  0.53334  0.08110  Biso   1.000  Hf
  Hf22     1.0000 0.63797  0.73292  0.32958  Biso   1.000  Hf
  Hf23     1.0000 0.86288  0.77372  0.07862  Biso   1.000  Hf
  Hf24     1.0000 0.85929  0.98026  0.32828  Biso   1.000  Hf
  O33      1.0000 0.03298  0.66451  0.08204  Biso   1.000  O 
  O34      1.0000 0.03125  0.58630  0.33182  Biso   1.000  O 
  O35      1.0000 0.46899  0.91055  0.07747  Biso   1.000  O 
  O36      1.0000 0.46683  0.83905  0.33372  Biso   1.000  O 
  O37      1.0000 0.27470  0.62501  0.29410  Biso   1.000  O 
  O38      1.0000 0.27552  0.62861  0.04405  Biso   1.000  O 
  O39      1.0000 0.22360  0.87545  0.29593  Biso   1.000  O 
  O40      1.0000 0.22371  0.87607  0.04663  Biso   1.000  O 
  O41      1.0000 0.53691  0.67490  0.16669  Biso   1.000  O 
  O42      1.0000 0.53036  0.58737  0.41576  Biso   1.000  O 
  O43      1.0000 0.96691  0.91663  0.16762  Biso   1.000  O 
  O44      1.0000 0.96446  0.83550  0.41630  Biso   1.000  O 
  O45      1.0000 0.77367  0.62465  0.45449  Biso   1.000  O 
  O46      1.0000 0.77816  0.63035  0.20560  Biso   1.000  O 
  O47      1.0000 0.72188  0.87549  0.45658  Biso   1.000  O 
  O48      1.0000 0.72452  0.87851  0.20548  Biso   1.000  O 
  Hf25     1.0000 0.13580  0.52160  0.67099  Biso   1.000  Hf
  Hf26     1.0000 0.13300  0.73252  0.92200  Biso   1.000  Hf
  Hf27     1.0000 0.35796  0.76957  0.67132  Biso   1.000  Hf
  Hf28     1.0000 0.35685  0.97770  0.91902  Biso   1.000  Hf
  Hf29     1.0000 0.63571  0.52169  0.57693  Biso   1.000  Hf
  Hf30     1.0000 0.63365  0.73039  0.82757  Biso   1.000  Hf
  Hf31     1.0000 0.85975  0.77153  0.57859  Biso   1.000  Hf
  Hf32     1.0000 0.85923  0.97941  0.82869  Biso   1.000  Hf
  O49      1.0000 0.03054  0.66512  0.58169  Biso   1.000  O 
  O50      1.0000 0.03047  0.58896  0.83179  Biso   1.000  O 
  O51      1.0000 0.46533  0.91246  0.58515  Biso   1.000  O 
  O52      1.0000 0.45837  0.82717  0.83379  Biso   1.000  O 
  O53      1.0000 0.27174  0.62423  0.79506  Biso   1.000  O 
  O54      1.0000 0.27296  0.62570  0.54429  Biso   1.000  O 
  O55      1.0000 0.21949  0.87430  0.79456  Biso   1.000  O 
  O56      1.0000 0.22230  0.87642  0.54475  Biso   1.000  O 
  O57      1.0000 0.52914  0.66338  0.66678  Biso   1.000  O 
  O58      1.0000 0.52816  0.58492  0.91864  Biso   1.000  O 
  O59      1.0000 0.96557  0.91439  0.66628  Biso   1.000  O 
  O60      1.0000 0.96296  0.83830  0.91897  Biso   1.000  O 
  O61      1.0000 0.76993  0.63387  0.95413  Biso   1.000  O 
  O62      1.0000 0.77250  0.62628  0.70358  Biso   1.000  O 
  O63      1.0000 0.71896  0.87695  0.95600  Biso   1.000  O 
  O64      1.0000 0.72204  0.87453  0.70675  Biso   1.000  O 
  Hg1      1.0000 0.56288  0.27222  0.04548  Biso   1.000  Hg
