data_image0
_cell_length_a       10.2138
_cell_length_b       10.0502
_cell_length_c       5.07522
_cell_angle_alpha    90
_cell_angle_beta     90
_cell_angle_gamma    90

_symmetry_space_group_name_H-M    "P 1"
_symmetry_int_tables_number       1

loop_
  _symmetry_equiv_pos_as_xyz
  'x, y, z'

loop_
  _atom_site_label
  _atom_site_occupancy
  _atom_site_fract_x
  _atom_site_fract_y
  _atom_site_fract_z
  _atom_site_thermal_displace_type
  _atom_site_B_iso_or_equiv
  _atom_site_type_symbol
  Hg1      1.0000 0.15500  0.01238  0.25015  Biso   1.000  Hg
  Hf1      1.0000 0.12219  0.28240  0.74024  Biso   1.000  Hf
  Hf2      1.0000 0.37451  0.25914  0.30259  Biso   1.000  Hf
  Hf3      1.0000 0.40341  0.00925  0.75725  Biso   1.000  Hf
  O1       1.0000 0.04804  0.14963  0.06500  Biso   1.000  O 
  O2       1.0000 0.98391  0.16530  0.55822  Biso   1.000  O 
  O3       1.0000 0.01812  0.41358  0.49690  Biso   1.000  O 
  O4       1.0000 0.99424  0.40179  0.99087  Biso   1.000  O 
  O5       1.0000 0.26174  0.15601  0.60506  Biso   1.000  O 
  O6       1.0000 0.31029  0.09685  0.08801  Biso   1.000  O 
  O7       1.0000 0.24369  0.35744  0.01361  Biso   1.000  O 
  O8       1.0000 0.26505  0.40183  0.50353  Biso   1.000  O 
  Hf4      1.0000 0.13172  0.49768  0.21289  Biso   1.000  Hf
  Hf5      1.0000 0.12969  0.76413  0.72113  Biso   1.000  Hf
  Hf6      1.0000 0.36251  0.73176  0.19724  Biso   1.000  Hf
  Hf7      1.0000 0.39970  0.49096  0.76836  Biso   1.000  Hf
  O9       1.0000 0.01760  0.63246  0.00840  Biso   1.000  O 
  O10      1.0000 0.95378  0.67132  0.53745  Biso   1.000  O 
  O11      1.0000 0.02620  0.90703  0.43917  Biso   1.000  O 
  O12      1.0000 0.00368  0.89440  0.92729  Biso   1.000  O 
  O13      1.0000 0.19993  0.65953  0.40937  Biso   1.000  O 
  O14      1.0000 0.26963  0.62451  0.93114  Biso   1.000  O 
  O15      1.0000 0.26876  0.87137  0.91997  Biso   1.000  O 
  O16      1.0000 0.28737  0.89287  0.44572  Biso   1.000  O 
  Hf8      1.0000 0.62527  0.98858  0.27642  Biso   1.000  Hf
  Hf9      1.0000 0.65365  0.26081  0.77026  Biso   1.000  Hf
  Hf10     1.0000 0.88309  0.25734  0.25351  Biso   1.000  Hf
  Hf11     1.0000 0.87452  0.01370  0.71255  Biso   1.000  Hf
  O17      1.0000 0.55374  0.11228  0.94554  Biso   1.000  O 
  O18      1.0000 0.49166  0.11713  0.45852  Biso   1.000  O 
  O19      1.0000 0.52297  0.36682  0.52936  Biso   1.000  O 
  O20      1.0000 0.49400  0.35578  0.03087  Biso   1.000  O 
  O21      1.0000 0.74003  0.12984  0.47111  Biso   1.000  O 
  O22      1.0000 0.80800  0.16039  0.96516  Biso   1.000  O 
  O23      1.0000 0.73474  0.38258  0.00931  Biso   1.000  O 
  O24      1.0000 0.77585  0.38220  0.50450  Biso   1.000  O 
  Hf12     1.0000 0.62322  0.50322  0.27013  Biso   1.000  Hf
  Hf13     1.0000 0.64684  0.77067  0.79363  Biso   1.000  Hf
  Hf14     1.0000 0.89594  0.77298  0.21116  Biso   1.000  Hf
  Hf15     1.0000 0.87053  0.52282  0.74810  Biso   1.000  Hf
  O25      1.0000 0.52255  0.62863  0.96801  Biso   1.000  O 
  O26      1.0000 0.45440  0.60144  0.44461  Biso   1.000  O 
  O27      1.0000 0.52829  0.87489  0.55423  Biso   1.000  O 
  O28      1.0000 0.50363  0.85880  0.05383  Biso   1.000  O 
  O29      1.0000 0.70209  0.61219  0.56937  Biso   1.000  O 
  O30      1.0000 0.76643  0.63350  0.05365  Biso   1.000  O 
  O31      1.0000 0.76028  0.90820  0.99558  Biso   1.000  O 
  O32      1.0000 0.77448  0.87358  0.49612  Biso   1.000  O 
