data_image0
_cell_length_a       10.108
_cell_length_b       5.15957
_cell_length_c       10.6174
_cell_angle_alpha    90
_cell_angle_beta     90
_cell_angle_gamma    90

_symmetry_space_group_name_H-M    "P 1"
_symmetry_int_tables_number       1

loop_
  _symmetry_equiv_pos_as_xyz
  'x, y, z'

loop_
  _atom_site_label
  _atom_site_occupancy
  _atom_site_fract_x
  _atom_site_fract_y
  _atom_site_fract_z
  _atom_site_thermal_displace_type
  _atom_site_B_iso_or_equiv
  _atom_site_type_symbol
  Hf1      1.0000 0.13327  0.04387  0.17194  Biso   1.000  Hf
  Hf2      1.0000 0.12675  0.46298  0.42422  Biso   1.000  Hf
  Hf3      1.0000 0.34703  0.54315  0.18795  Biso   1.000  Hf
  Hf4      1.0000 0.35575  0.96623  0.42672  Biso   1.000  Hf
  Hf5      1.0000 0.64279  0.07309  0.07775  Biso   1.000  Hf
  Hf6      1.0000 0.63282  0.46428  0.33467  Biso   1.000  Hf
  Hf7      1.0000 0.86569  0.54996  0.07576  Biso   1.000  Hf
  Hf8      1.0000 0.85592  0.96528  0.32968  Biso   1.000  Hf
  O1       1.0000 0.03344  0.32357  0.07911  Biso   1.000  O 
  O2       1.0000 0.02346  0.18491  0.32907  Biso   1.000  O 
  O3       1.0000 0.45273  0.87788  0.09873  Biso   1.000  O 
  O4       1.0000 0.46152  0.68602  0.33617  Biso   1.000  O 
  O5       1.0000 0.26263  0.25568  0.29934  Biso   1.000  O 
  O6       1.0000 0.27765  0.25215  0.04586  Biso   1.000  O 
  O7       1.0000 0.21635  0.75563  0.30122  Biso   1.000  O 
  O8       1.0000 0.22401  0.74874  0.04948  Biso   1.000  O 
  O9       1.0000 0.51153  0.29645  0.20362  Biso   1.000  O 
  O10      1.0000 0.52163  0.18929  0.43117  Biso   1.000  O 
  O11      1.0000 0.96741  0.82523  0.17455  Biso   1.000  O 
  O12      1.0000 0.95976  0.68407  0.42173  Biso   1.000  O 
  O13      1.0000 0.76770  0.25442  0.45198  Biso   1.000  O 
  O14      1.0000 0.77258  0.27036  0.20298  Biso   1.000  O 
  O15      1.0000 0.71809  0.75489  0.46217  Biso   1.000  O 
  O16      1.0000 0.71810  0.77027  0.21590  Biso   1.000  O 
  Hf9      1.0000 0.12934  0.05278  0.67187  Biso   1.000  Hf
  Hf10     1.0000 0.12704  0.48161  0.92255  Biso   1.000  Hf
  Hf11     1.0000 0.34837  0.55307  0.67149  Biso   1.000  Hf
  Hf12     1.0000 0.34461  0.98350  0.92096  Biso   1.000  Hf
  Hf13     1.0000 0.63043  0.04455  0.57663  Biso   1.000  Hf
  Hf14     1.0000 0.62648  0.45495  0.80897  Biso   1.000  Hf
  Hf15     1.0000 0.85541  0.55532  0.58085  Biso   1.000  Hf
  Hf16     1.0000 0.85823  0.98893  0.82942  Biso   1.000  Hf
  O17      1.0000 0.02183  0.33357  0.58039  Biso   1.000  O 
  O18      1.0000 0.02648  0.19663  0.82815  Biso   1.000  O 
  O19      1.0000 0.46115  0.82526  0.58081  Biso   1.000  O 
  O20      1.0000 0.45193  0.68387  0.82441  Biso   1.000  O 
  O21      1.0000 0.26623  0.26275  0.79544  Biso   1.000  O 
  O22      1.0000 0.26385  0.25864  0.54620  Biso   1.000  O 
  O23      1.0000 0.21275  0.76419  0.79608  Biso   1.000  O 
  O24      1.0000 0.21599  0.76057  0.54710  Biso   1.000  O 
  O25      1.0000 0.51620  0.32313  0.66637  Biso   1.000  O 
  O26      1.0000 0.52547  0.14239  0.90495  Biso   1.000  O 
  O27      1.0000 0.96117  0.83799  0.66800  Biso   1.000  O 
  O28      1.0000 0.96434  0.70103  0.91815  Biso   1.000  O 
  O29      1.0000 0.77592  0.30690  0.93491  Biso   1.000  O 
  O30      1.0000 0.76605  0.25375  0.69384  Biso   1.000  O 
  O31      1.0000 0.74679  0.85107  0.97443  Biso   1.000  O 
  O32      1.0000 0.71812  0.75774  0.71251  Biso   1.000  O 
  Hg1      1.0000 0.57050  0.55963  0.03375  Biso   1.000  Hg
