data_image0
_cell_length_a       5.09662
_cell_length_b       10.1123
_cell_length_c       10.1042
_cell_angle_alpha    90
_cell_angle_beta     90
_cell_angle_gamma    90

_symmetry_space_group_name_H-M    "P 1"
_symmetry_int_tables_number       1

loop_
  _symmetry_equiv_pos_as_xyz
  'x, y, z'

loop_
  _atom_site_label
  _atom_site_occupancy
  _atom_site_fract_x
  _atom_site_fract_y
  _atom_site_fract_z
  _atom_site_thermal_displace_type
  _atom_site_B_iso_or_equiv
  _atom_site_type_symbol
  Hg1      1.0000 0.24337  0.00016  0.14054  Biso   1.000  Hg
  Hf1      1.0000 0.31433  0.24966  0.38218  Biso   1.000  Hf
  Hf2      1.0000 0.73618  0.26933  0.11995  Biso   1.000  Hf
  Hf3      1.0000 0.84203  0.98683  0.37169  Biso   1.000  Hf
  O1       1.0000 0.03567  0.12409  0.02795  Biso   1.000  O 
  O2       1.0000 0.10627  0.08317  0.30578  Biso   1.000  O 
  O3       1.0000 0.04566  0.33830  0.24502  Biso   1.000  O 
  O4       1.0000 0.01039  0.35758  0.98564  Biso   1.000  O 
  O5       1.0000 0.60368  0.14635  0.26747  Biso   1.000  O 
  O6       1.0000 0.59837  0.12598  0.99126  Biso   1.000  O 
  O7       1.0000 0.46380  0.37549  0.01350  Biso   1.000  O 
  O8       1.0000 0.52945  0.39454  0.25843  Biso   1.000  O 
  Hf4      1.0000 0.29641  0.99687  0.62971  Biso   1.000  Hf
  Hf5      1.0000 0.30730  0.23931  0.88596  Biso   1.000  Hf
  Hf6      1.0000 0.80157  0.22747  0.64695  Biso   1.000  Hf
  Hf7      1.0000 0.87169  0.98215  0.88657  Biso   1.000  Hf
  O9       1.0000 0.10854  0.15608  0.53374  Biso   1.000  O 
  O10      1.0000 0.02417  0.10554  0.77624  Biso   1.000  O 
  O11      1.0000 0.10402  0.35509  0.73662  Biso   1.000  O 
  O12      1.0000 0.11420  0.40535  0.48160  Biso   1.000  O 
  O13      1.0000 0.51566  0.12652  0.75129  Biso   1.000  O 
  O14      1.0000 0.59233  0.09564  0.51745  Biso   1.000  O 
  O15      1.0000 0.60351  0.34681  0.50997  Biso   1.000  O 
  O16      1.0000 0.59794  0.37220  0.76377  Biso   1.000  O 
  Hf8      1.0000 0.24375  0.49085  0.13436  Biso   1.000  Hf
  Hf9      1.0000 0.31050  0.74965  0.38375  Biso   1.000  Hf
  Hf10     1.0000 0.76146  0.74904  0.12812  Biso   1.000  Hf
  Hf11     1.0000 0.81074  0.48720  0.38244  Biso   1.000  Hf
  O17      1.0000 0.18400  0.58482  0.96713  Biso   1.000  O 
  O18      1.0000 0.91051  0.57951  0.20917  Biso   1.000  O 
  O19      1.0000 0.01744  0.83350  0.26246  Biso   1.000  O 
  O20      1.0000 0.04349  0.83484  0.98862  Biso   1.000  O 
  O21      1.0000 0.41892  0.65657  0.20966  Biso   1.000  O 
  O22      1.0000 0.67744  0.63382  0.96460  Biso   1.000  O 
  O23      1.0000 0.50632  0.88594  0.00266  Biso   1.000  O 
  O24      1.0000 0.55348  0.88779  0.25750  Biso   1.000  O 
  Hf12     1.0000 0.36302  0.47889  0.62718  Biso   1.000  Hf
  Hf13     1.0000 0.35957  0.73311  0.87110  Biso   1.000  Hf
  Hf14     1.0000 0.87259  0.75916  0.62832  Biso   1.000  Hf
  Hf15     1.0000 0.87057  0.50243  0.85341  Biso   1.000  Hf
  O25      1.0000 0.99650  0.65318  0.46635  Biso   1.000  O 
  O26      1.0000 0.10067  0.61182  0.72531  Biso   1.000  O 
  O27      1.0000 0.15047  0.85837  0.74459  Biso   1.000  O 
  O28      1.0000 0.09748  0.89746  0.50726  Biso   1.000  O 
  O29      1.0000 0.60133  0.62382  0.72011  Biso   1.000  O 
  O30      1.0000 0.50120  0.58950  0.46518  Biso   1.000  O 
  O31      1.0000 0.58550  0.84940  0.50290  Biso   1.000  O 
  O32      1.0000 0.64600  0.87682  0.75582  Biso   1.000  O 
