data_image0
_cell_length_a       10.0845
_cell_length_b       10.1981
_cell_length_c       10.066
_cell_angle_alpha    90
_cell_angle_beta     90
_cell_angle_gamma    90

_symmetry_space_group_name_H-M    "P 1"
_symmetry_int_tables_number       1

loop_
  _symmetry_equiv_pos_as_xyz
  'x, y, z'

loop_
  _atom_site_label
  _atom_site_occupancy
  _atom_site_fract_x
  _atom_site_fract_y
  _atom_site_fract_z
  _atom_site_thermal_displace_type
  _atom_site_B_iso_or_equiv
  _atom_site_type_symbol
  Hg1      1.0000 0.12218  0.00256  0.10552  Biso   1.000  Hg
  Hf1      1.0000 0.14264  0.24415  0.36344  Biso   1.000  Hf
  Hf2      1.0000 0.39476  0.25107  0.12281  Biso   1.000  Hf
  Hf3      1.0000 0.38715  0.99718  0.37543  Biso   1.000  Hf
  O1       1.0000 0.02254  0.13956  0.97568  Biso   1.000  O 
  O2       1.0000 0.01642  0.10656  0.23759  Biso   1.000  O 
  O3       1.0000 0.01352  0.35825  0.25812  Biso   1.000  O 
  O4       1.0000 0.02181  0.37949  0.00759  Biso   1.000  O 
  O5       1.0000 0.27771  0.14892  0.25078  Biso   1.000  O 
  O6       1.0000 0.28503  0.15770  0.97837  Biso   1.000  O 
  O7       1.0000 0.27348  0.38258  0.01275  Biso   1.000  O 
  O8       1.0000 0.26582  0.39339  0.25853  Biso   1.000  O 
  Hf4      1.0000 0.11716  0.01570  0.62148  Biso   1.000  Hf
  Hf5      1.0000 0.15078  0.28557  0.88548  Biso   1.000  Hf
  Hf6      1.0000 0.36804  0.25594  0.62015  Biso   1.000  Hf
  Hf7      1.0000 0.37903  0.00923  0.86785  Biso   1.000  Hf
  O9       1.0000 0.98992  0.16345  0.47771  Biso   1.000  O 
  O10      1.0000 0.97185  0.10830  0.72000  Biso   1.000  O 
  O11      1.0000 0.99986  0.35580  0.75499  Biso   1.000  O 
  O12      1.0000 0.97460  0.41142  0.51428  Biso   1.000  O 
  O13      1.0000 0.22504  0.16882  0.73446  Biso   1.000  O 
  O14      1.0000 0.24157  0.10544  0.49006  Biso   1.000  O 
  O15      1.0000 0.23161  0.35989  0.50714  Biso   1.000  O 
  O16      1.0000 0.24965  0.42364  0.76267  Biso   1.000  O 
  Hf8      1.0000 0.13090  0.49794  0.14066  Biso   1.000  Hf
  Hf9      1.0000 0.10935  0.76762  0.36797  Biso   1.000  Hf
  Hf10     1.0000 0.37984  0.75181  0.13290  Biso   1.000  Hf
  Hf11     1.0000 0.36402  0.51956  0.38651  Biso   1.000  Hf
  O17      1.0000 0.00045  0.61717  0.00896  Biso   1.000  O 
  O18      1.0000 0.99552  0.61027  0.25482  Biso   1.000  O 
  O19      1.0000 0.96580  0.85346  0.25638  Biso   1.000  O 
  O20      1.0000 0.96497  0.86887  0.98445  Biso   1.000  O 
  O21      1.0000 0.24019  0.64686  0.27103  Biso   1.000  O 
  O22      1.0000 0.24991  0.62302  0.02019  Biso   1.000  O 
  O23      1.0000 0.22440  0.89860  0.97310  Biso   1.000  O 
  O24      1.0000 0.23804  0.89510  0.23564  Biso   1.000  O 
  Hf12     1.0000 0.11583  0.49897  0.62228  Biso   1.000  Hf
  Hf13     1.0000 0.10860  0.74726  0.88890  Biso   1.000  Hf
  Hf14     1.0000 0.38230  0.76320  0.62644  Biso   1.000  Hf
  Hf15     1.0000 0.37298  0.53797  0.88312  Biso   1.000  Hf
  O25      1.0000 0.01867  0.65579  0.50968  Biso   1.000  O 
  O26      1.0000 0.01943  0.60924  0.76113  Biso   1.000  O 
  O27      1.0000 0.02683  0.86454  0.74117  Biso   1.000  O 
  O28      1.0000 0.01662  0.91044  0.49191  Biso   1.000  O 
  O29      1.0000 0.27590  0.69051  0.78425  Biso   1.000  O 
  O30      1.0000 0.27007  0.60357  0.54190  Biso   1.000  O 
  O31      1.0000 0.26923  0.84707  0.47392  Biso   1.000  O 
  O32      1.0000 0.28382  0.92674  0.71264  Biso   1.000  O 
  Hf16     1.0000 0.63779  0.99879  0.11682  Biso   1.000  Hf
  Hf17     1.0000 0.61532  0.23765  0.37886  Biso   1.000  Hf
  Hf18     1.0000 0.88382  0.25025  0.12207  Biso   1.000  Hf
  Hf19     1.0000 0.86748  0.01125  0.37415  Biso   1.000  Hf
  O33      1.0000 0.54327  0.15789  0.01157  Biso   1.000  O 
  O34      1.0000 0.51272  0.09723  0.25714  Biso   1.000  O 
  O35      1.0000 0.53691  0.34774  0.22967  Biso   1.000  O 
  O36      1.0000 0.51676  0.42232  0.97784  Biso   1.000  O 
  O37      1.0000 0.77232  0.16708  0.26917  Biso   1.000  O 
  O38      1.0000 0.79080  0.07780  0.03069  Biso   1.000  O 
  O39      1.0000 0.77485  0.34084  0.96672  Biso   1.000  O 
  O40      1.0000 0.78230  0.41285  0.20875  Biso   1.000  O 
  Hf20     1.0000 0.63615  0.00747  0.64419  Biso   1.000  Hf
  Hf21     1.0000 0.61504  0.27621  0.85946  Biso   1.000  Hf
  Hf22     1.0000 0.87058  0.25959  0.61809  Biso   1.000  Hf
  Hf23     1.0000 0.87587  0.01655  0.86842  Biso   1.000  Hf
  O41      1.0000 0.48645  0.14218  0.50224  Biso   1.000  O 
  O42      1.0000 0.48779  0.12507  0.75325  Biso   1.000  O 
  O43      1.0000 0.49709  0.36929  0.72626  Biso   1.000  O 
  O44      1.0000 0.48912  0.39125  0.48273  Biso   1.000  O 
  O45      1.0000 0.73841  0.14920  0.76281  Biso   1.000  O 
  O46      1.0000 0.74068  0.11369  0.51331  Biso   1.000  O 
  O47      1.0000 0.73754  0.36569  0.47733  Biso   1.000  O 
  O48      1.0000 0.74895  0.40529  0.72910  Biso   1.000  O 
  Hf24     1.0000 0.62055  0.50719  0.12809  Biso   1.000  Hf
  Hf25     1.0000 0.64196  0.76930  0.39292  Biso   1.000  Hf
  Hf26     1.0000 0.87360  0.73381  0.11847  Biso   1.000  Hf
  Hf27     1.0000 0.86677  0.50027  0.36778  Biso   1.000  Hf
  O49      1.0000 0.49561  0.67319  0.99535  Biso   1.000  O 
  O50      1.0000 0.47374  0.59317  0.23124  Biso   1.000  O 
  O51      1.0000 0.48373  0.83919  0.27871  Biso   1.000  O 
  O52      1.0000 0.47084  0.91421  0.03238  Biso   1.000  O 
  O53      1.0000 0.73257  0.65163  0.25144  Biso   1.000  O 
  O54      1.0000 0.74756  0.60121  0.99424  Biso   1.000  O 
  O55      1.0000 0.71754  0.83209  0.02869  Biso   1.000  O 
  O56      1.0000 0.72572  0.91977  0.28020  Biso   1.000  O 
  Hf28     1.0000 0.61623  0.50071  0.60317  Biso   1.000  Hf
  Hf29     1.0000 0.64172  0.74533  0.86746  Biso   1.000  Hf
  Hf30     1.0000 0.89256  0.75662  0.63071  Biso   1.000  Hf
  Hf31     1.0000 0.87738  0.49420  0.87151  Biso   1.000  Hf
  O57      1.0000 0.50673  0.64635  0.48936  Biso   1.000  O 
  O58      1.0000 0.51641  0.61690  0.74385  Biso   1.000  O 
  O59      1.0000 0.51525  0.87096  0.77104  Biso   1.000  O 
  O60      1.0000 0.51576  0.89980  0.51835  Biso   1.000  O 
  O61      1.0000 0.77848  0.65011  0.75603  Biso   1.000  O 
  O62      1.0000 0.75918  0.61760  0.50171  Biso   1.000  O 
  O63      1.0000 0.76921  0.86779  0.51690  Biso   1.000  O 
  O64      1.0000 0.76313  0.89621  0.76509  Biso   1.000  O 
