data_image0
_cell_length_a       10.0502
_cell_length_b       5.07521
_cell_length_c       10.2138
_cell_angle_alpha    90
_cell_angle_beta     90
_cell_angle_gamma    90

_symmetry_space_group_name_H-M    "P 1"
_symmetry_int_tables_number       1

loop_
  _symmetry_equiv_pos_as_xyz
  'x, y, z'

loop_
  _atom_site_label
  _atom_site_occupancy
  _atom_site_fract_x
  _atom_site_fract_y
  _atom_site_fract_z
  _atom_site_thermal_displace_type
  _atom_site_B_iso_or_equiv
  _atom_site_type_symbol
  Hg1      1.0000 0.13381  0.99385  0.15258  Biso   1.000  Hg
  Hf1      1.0000 0.13452  0.47855  0.38706  Biso   1.000  Hf
  Hf2      1.0000 0.38233  0.52410  0.11606  Biso   1.000  Hf
  Hf3      1.0000 0.39423  0.04050  0.35359  Biso   1.000  Hf
  O1       1.0000 0.97943  0.18334  0.04592  Biso   1.000  O 
  O2       1.0000 0.02965  0.15121  0.30842  Biso   1.000  O 
  O3       1.0000 0.98915  0.63533  0.25490  Biso   1.000  O 
  O4       1.0000 0.97269  0.65728  0.97723  Biso   1.000  O 
  O5       1.0000 0.27375  0.32049  0.25237  Biso   1.000  O 
  O6       1.0000 0.24343  0.28781  0.98687  Biso   1.000  O 
  O7       1.0000 0.24048  0.80959  0.01362  Biso   1.000  O 
  O8       1.0000 0.25207  0.79401  0.27480  Biso   1.000  O 
  Hf4      1.0000 0.15300  0.95165  0.61318  Biso   1.000  Hf
  Hf5      1.0000 0.12537  0.50668  0.86801  Biso   1.000  Hf
  Hf6      1.0000 0.37069  0.43374  0.63243  Biso   1.000  Hf
  Hf7      1.0000 0.34774  0.00818  0.88643  Biso   1.000  Hf
  O9       1.0000 0.02994  0.28474  0.54433  Biso   1.000  O 
  O10      1.0000 0.97935  0.25646  0.79794  Biso   1.000  O 
  O11      1.0000 0.01055  0.75275  0.73449  Biso   1.000  O 
  O12      1.0000 0.02570  0.77381  0.48643  Biso   1.000  O 
  O13      1.0000 0.23204  0.22794  0.74280  Biso   1.000  O 
  O14      1.0000 0.26578  0.17903  0.49470  Biso   1.000  O 
  O15      1.0000 0.26763  0.67721  0.51493  Biso   1.000  O 
  O16      1.0000 0.26652  0.72681  0.76159  Biso   1.000  O 
  Hf8      1.0000 0.63060  0.03274  0.12496  Biso   1.000  Hf
  Hf9      1.0000 0.65283  0.46744  0.38822  Biso   1.000  Hf
  Hf10     1.0000 0.86414  0.50508  0.11301  Biso   1.000  Hf
  Hf11     1.0000 0.88489  0.93394  0.36924  Biso   1.000  Hf
  O17      1.0000 0.49694  0.24119  0.01132  Biso   1.000  O 
  O18      1.0000 0.52058  0.30925  0.25551  Biso   1.000  O 
  O19      1.0000 0.48625  0.83334  0.18993  Biso   1.000  O 
  O20      1.0000 0.46698  0.67927  0.94244  Biso   1.000  O 
  O21      1.0000 0.76972  0.22808  0.23996  Biso   1.000  O 
  O22      1.0000 0.73612  0.22445  0.98160  Biso   1.000  O 
  O23      1.0000 0.73399  0.75202  0.00978  Biso   1.000  O 
  O24      1.0000 0.74332  0.73686  0.25671  Biso   1.000  O 
  Hf12     1.0000 0.63835  0.95790  0.61582  Biso   1.000  Hf
  Hf13     1.0000 0.61630  0.47148  0.85882  Biso   1.000  Hf
  Hf14     1.0000 0.88048  0.45675  0.64431  Biso   1.000  Hf
  Hf15     1.0000 0.88164  0.96547  0.87815  Biso   1.000  Hf
  O25      1.0000 0.51395  0.26363  0.50802  Biso   1.000  O 
  O26      1.0000 0.48848  0.17010  0.75961  Biso   1.000  O 
  O27      1.0000 0.52861  0.65603  0.69109  Biso   1.000  O 
  O28      1.0000 0.54182  0.78931  0.44461  Biso   1.000  O 
  O29      1.0000 0.73970  0.21545  0.73071  Biso   1.000  O 
  O30      1.0000 0.76886  0.20212  0.49008  Biso   1.000  O 
  O31      1.0000 0.77572  0.70207  0.51470  Biso   1.000  O 
  O32      1.0000 0.75786  0.71826  0.76760  Biso   1.000  O 
