data_image0
_cell_length_a       5.11803
_cell_length_b       10.3345
_cell_length_c       10.5896
_cell_angle_alpha    90
_cell_angle_beta     80
_cell_angle_gamma    90

_symmetry_space_group_name_H-M    "P 1"
_symmetry_int_tables_number       1

loop_
  _symmetry_equiv_pos_as_xyz
  'x, y, z'

loop_
  _atom_site_label
  _atom_site_occupancy
  _atom_site_fract_x
  _atom_site_fract_y
  _atom_site_fract_z
  _atom_site_thermal_displace_type
  _atom_site_B_iso_or_equiv
  _atom_site_type_symbol
  Hf1      1.0000 0.26602  0.01628  0.14414  Biso   1.000  Hf
  Hf2      1.0000 0.32848  0.23786  0.40642  Biso   1.000  Hf
  Hf3      1.0000 0.70463  0.27705  0.09737  Biso   1.000  Hf
  Hf4      1.0000 0.74713  0.47775  0.34823  Biso   1.000  Hf
  O1       1.0000 0.05342  0.15991  0.07094  Biso   1.000  O 
  O2       1.0000 0.09398  0.04760  0.34556  Biso   1.000  O 
  O3       1.0000 0.92375  0.43549  0.15535  Biso   1.000  O 
  O4       1.0000 0.00943  0.37387  0.45681  Biso   1.000  O 
  O5       1.0000 0.50007  0.13365  0.23082  Biso   1.000  O 
  O6       1.0000 0.56872  0.10731  0.49192  Biso   1.000  O 
  O7       1.0000 0.43712  0.38261  0.00777  Biso   1.000  O 
  O8       1.0000 0.43346  0.38187  0.25753  Biso   1.000  O 
  Hf5      1.0000 0.29140  0.01654  0.64418  Biso   1.000  Hf
  Hf6      1.0000 0.29288  0.22390  0.89196  Biso   1.000  Hf
  Hf7      1.0000 0.76221  0.27510  0.61253  Biso   1.000  Hf
  Hf8      1.0000 0.74436  0.47710  0.85724  Biso   1.000  Hf
  O9       1.0000 0.09340  0.16415  0.57452  Biso   1.000  O 
  O10      1.0000 0.08136  0.08307  0.82051  Biso   1.000  O 
  O11      1.0000 0.96705  0.40657  0.69042  Biso   1.000  O 
  O12      1.0000 0.95045  0.33101  0.92191  Biso   1.000  O 
  O13      1.0000 0.56628  0.12608  0.73706  Biso   1.000  O 
  O14      1.0000 0.56640  0.12041  0.98304  Biso   1.000  O 
  O15      1.0000 0.49901  0.37123  0.51376  Biso   1.000  O 
  O16      1.0000 0.47729  0.36975  0.76114  Biso   1.000  O 
  Hf9      1.0000 0.27895  0.52607  0.14360  Biso   1.000  Hf
  Hf10     1.0000 0.29379  0.72017  0.39602  Biso   1.000  Hf
  Hf11     1.0000 0.72409  0.77147  0.10376  Biso   1.000  Hf
  Hf12     1.0000 0.73298  0.95820  0.36007  Biso   1.000  Hf
  O17      1.0000 0.07621  0.67686  0.07683  Biso   1.000  O 
  O18      1.0000 0.07464  0.58959  0.31985  Biso   1.000  O 
  O19      1.0000 0.92509  0.91765  0.17498  Biso   1.000  O 
  O20      1.0000 0.93665  0.81799  0.42388  Biso   1.000  O 
  O21      1.0000 0.56323  0.62914  0.24091  Biso   1.000  O 
  O22      1.0000 0.56201  0.61271  0.48927  Biso   1.000  O 
  O23      1.0000 0.45422  0.88157  0.01014  Biso   1.000  O 
  O24      1.0000 0.45500  0.86478  0.26081  Biso   1.000  O 
  Hf13     1.0000 0.29750  0.51758  0.64691  Biso   1.000  Hf
  Hf14     1.0000 0.29818  0.72769  0.89470  Biso   1.000  Hf
  Hf15     1.0000 0.74318  0.76448  0.60626  Biso   1.000  Hf
  Hf16     1.0000 0.74868  0.97685  0.85089  Biso   1.000  Hf
  O25      1.0000 0.08190  0.65654  0.57747  Biso   1.000  O 
  O26      1.0000 0.08987  0.58503  0.82678  Biso   1.000  O 
  O27      1.0000 0.95442  0.91097  0.66949  Biso   1.000  O 
  O28      1.0000 0.95912  0.83507  0.92066  Biso   1.000  O 
  O29      1.0000 0.57150  0.62355  0.73898  Biso   1.000  O 
  O30      1.0000 0.57725  0.62140  0.98884  Biso   1.000  O 
  O31      1.0000 0.46119  0.86719  0.51276  Biso   1.000  O 
  O32      1.0000 0.47379  0.86886  0.75971  Biso   1.000  O 
  Hg1      1.0000 0.88752  0.22059  0.30706  Biso   1.000  Hg
