data_image0
_cell_length_a       10.0913
_cell_length_b       10.2946
_cell_length_c       10.4415
_cell_angle_alpha    90
_cell_angle_beta     80
_cell_angle_gamma    90

_symmetry_space_group_name_H-M    "P 1"
_symmetry_int_tables_number       1

loop_
  _symmetry_equiv_pos_as_xyz
  'x, y, z'

loop_
  _atom_site_label
  _atom_site_occupancy
  _atom_site_fract_x
  _atom_site_fract_y
  _atom_site_fract_z
  _atom_site_thermal_displace_type
  _atom_site_B_iso_or_equiv
  _atom_site_type_symbol
  Hg1      1.0000 0.12369  0.01769  0.16035  Biso   1.000  Hg
  Hf1      1.0000 0.12875  0.23276  0.40034  Biso   1.000  Hf
  Hf2      1.0000 0.35833  0.27015  0.09979  Biso   1.000  Hf
  Hf3      1.0000 0.35424  0.48051  0.35358  Biso   1.000  Hf
  O1       1.0000 0.04085  0.17466  0.08304  Biso   1.000  O 
  O2       1.0000 0.01933  0.07937  0.36996  Biso   1.000  O 
  O3       1.0000 0.45953  0.42047  0.16885  Biso   1.000  O 
  O4       1.0000 0.45533  0.33175  0.41946  Biso   1.000  O 
  O5       1.0000 0.26696  0.12600  0.23698  Biso   1.000  O 
  O6       1.0000 0.26929  0.12371  0.48698  Biso   1.000  O 
  O7       1.0000 0.22339  0.38045  0.00758  Biso   1.000  O 
  O8       1.0000 0.21945  0.36913  0.25874  Biso   1.000  O 
  Hf4      1.0000 0.12712  0.02375  0.64329  Biso   1.000  Hf
  Hf5      1.0000 0.12831  0.22847  0.89480  Biso   1.000  Hf
  Hf6      1.0000 0.35006  0.27384  0.60470  Biso   1.000  Hf
  Hf7      1.0000 0.34735  0.48206  0.85573  Biso   1.000  Hf
  O9       1.0000 0.03160  0.18470  0.59400  Biso   1.000  O 
  O10      1.0000 0.02544  0.07826  0.83409  Biso   1.000  O 
  O11      1.0000 0.45243  0.42242  0.67036  Biso   1.000  O 
  O12      1.0000 0.45218  0.33701  0.92212  Biso   1.000  O 
  O13      1.0000 0.26407  0.13014  0.73626  Biso   1.000  O 
  O14      1.0000 0.27299  0.13374  0.97858  Biso   1.000  O 
  O15      1.0000 0.21412  0.38332  0.50995  Biso   1.000  O 
  O16      1.0000 0.21178  0.37249  0.76041  Biso   1.000  O 
  Hf8      1.0000 0.13692  0.52109  0.14485  Biso   1.000  Hf
  Hf9      1.0000 0.12891  0.72814  0.39671  Biso   1.000  Hf
  Hf10     1.0000 0.36096  0.77209  0.09836  Biso   1.000  Hf
  Hf11     1.0000 0.35545  0.97921  0.35305  Biso   1.000  Hf
  O17      1.0000 0.03793  0.67494  0.08356  Biso   1.000  O 
  O18      1.0000 0.03212  0.57702  0.33230  Biso   1.000  O 
  O19      1.0000 0.46107  0.91927  0.17005  Biso   1.000  O 
  O20      1.0000 0.45709  0.83109  0.41828  Biso   1.000  O 
  O21      1.0000 0.27255  0.63154  0.24020  Biso   1.000  O 
  O22      1.0000 0.26783  0.62269  0.49102  Biso   1.000  O 
  O23      1.0000 0.21578  0.87652  0.99975  Biso   1.000  O 
  O24      1.0000 0.21608  0.86763  0.25473  Biso   1.000  O 
  Hf12     1.0000 0.12852  0.52391  0.64827  Biso   1.000  Hf
  Hf13     1.0000 0.12678  0.73471  0.89634  Biso   1.000  Hf
  Hf14     1.0000 0.35079  0.77390  0.60374  Biso   1.000  Hf
  Hf15     1.0000 0.34567  0.98272  0.85473  Biso   1.000  Hf
  O25      1.0000 0.02751  0.67416  0.58379  Biso   1.000  O 
  O26      1.0000 0.02554  0.57963  0.83563  Biso   1.000  O 
  O27      1.0000 0.45251  0.92211  0.66948  Biso   1.000  O 
  O28      1.0000 0.45435  0.83568  0.91936  Biso   1.000  O 
  O29      1.0000 0.26547  0.63280  0.74147  Biso   1.000  O 
  O30      1.0000 0.26103  0.62242  0.99217  Biso   1.000  O 
  O31      1.0000 0.21526  0.88165  0.50569  Biso   1.000  O 
  O32      1.0000 0.20936  0.87346  0.75500  Biso   1.000  O 
  Hf16     1.0000 0.63729  0.02072  0.14631  Biso   1.000  Hf
  Hf17     1.0000 0.63009  0.23116  0.39862  Biso   1.000  Hf
  Hf18     1.0000 0.85781  0.27095  0.10704  Biso   1.000  Hf
  Hf19     1.0000 0.85386  0.48019  0.35579  Biso   1.000  Hf
  O33      1.0000 0.53571  0.17017  0.08151  Biso   1.000  O 
  O34      1.0000 0.53013  0.08066  0.33148  Biso   1.000  O 
  O35      1.0000 0.95958  0.42172  0.16939  Biso   1.000  O 
  O36      1.0000 0.95390  0.33266  0.42321  Biso   1.000  O 
  O37      1.0000 0.77188  0.13076  0.24525  Biso   1.000  O 
  O38      1.0000 0.76390  0.12440  0.49732  Biso   1.000  O 
  O39      1.0000 0.72471  0.37859  0.01090  Biso   1.000  O 
  O40      1.0000 0.71843  0.37121  0.26076  Biso   1.000  O 
  Hf20     1.0000 0.62659  0.02418  0.64990  Biso   1.000  Hf
  Hf21     1.0000 0.62443  0.23144  0.89911  Biso   1.000  Hf
  Hf22     1.0000 0.85080  0.27452  0.60912  Biso   1.000  Hf
  Hf23     1.0000 0.84998  0.48062  0.85797  Biso   1.000  Hf
  O41      1.0000 0.52439  0.17229  0.58252  Biso   1.000  O 
  O42      1.0000 0.52437  0.08302  0.83257  Biso   1.000  O 
  O43      1.0000 0.95101  0.42635  0.67226  Biso   1.000  O 
  O44      1.0000 0.94921  0.32917  0.92500  Biso   1.000  O 
  O45      1.0000 0.76573  0.13243  0.74482  Biso   1.000  O 
  O46      1.0000 0.76112  0.12349  0.99541  Biso   1.000  O 
  O47      1.0000 0.71326  0.38171  0.51157  Biso   1.000  O 
  O48      1.0000 0.71157  0.37337  0.76270  Biso   1.000  O 
  Hf24     1.0000 0.63459  0.52044  0.14579  Biso   1.000  Hf
  Hf25     1.0000 0.63226  0.72919  0.39613  Biso   1.000  Hf
  Hf26     1.0000 0.85906  0.76699  0.10174  Biso   1.000  Hf
  Hf27     1.0000 0.85061  0.98291  0.36483  Biso   1.000  Hf
  O49      1.0000 0.53653  0.66933  0.07834  Biso   1.000  O 
  O50      1.0000 0.53078  0.58072  0.33072  Biso   1.000  O 
  O51      1.0000 0.94577  0.93020  0.16970  Biso   1.000  O 
  O52      1.0000 0.95226  0.82578  0.41739  Biso   1.000  O 
  O53      1.0000 0.77212  0.62923  0.24100  Biso   1.000  O 
  O54      1.0000 0.76830  0.62230  0.49215  Biso   1.000  O 
  O55      1.0000 0.72388  0.87890  0.00907  Biso   1.000  O 
  O56      1.0000 0.72196  0.87084  0.25883  Biso   1.000  O 
  Hf28     1.0000 0.62779  0.52352  0.64790  Biso   1.000  Hf
  Hf29     1.0000 0.62537  0.73187  0.89668  Biso   1.000  Hf
  Hf30     1.0000 0.85052  0.77285  0.60642  Biso   1.000  Hf
  Hf31     1.0000 0.84811  0.98223  0.85684  Biso   1.000  Hf
  O57      1.0000 0.52693  0.67206  0.58057  Biso   1.000  O 
  O58      1.0000 0.52281  0.58398  0.83116  Biso   1.000  O 
  O59      1.0000 0.95023  0.92584  0.66734  Biso   1.000  O 
  O60      1.0000 0.94742  0.82987  0.91980  Biso   1.000  O 
  O61      1.0000 0.76559  0.63142  0.74305  Biso   1.000  O 
  O62      1.0000 0.76203  0.62323  0.99377  Biso   1.000  O 
  O63      1.0000 0.71282  0.88152  0.51202  Biso   1.000  O 
  O64      1.0000 0.71218  0.87327  0.76093  Biso   1.000  O 
