data_image0
_cell_length_a       10.1749
_cell_length_b       5.15631
_cell_length_c       10.4689
_cell_angle_alpha    90
_cell_angle_beta     80
_cell_angle_gamma    90

_symmetry_space_group_name_H-M    "P 1"
_symmetry_int_tables_number       1

loop_
  _symmetry_equiv_pos_as_xyz
  'x, y, z'

loop_
  _atom_site_label
  _atom_site_occupancy
  _atom_site_fract_x
  _atom_site_fract_y
  _atom_site_fract_z
  _atom_site_thermal_displace_type
  _atom_site_B_iso_or_equiv
  _atom_site_type_symbol
  Hg1      1.0000 0.12446  0.00916  0.16257  Biso   1.000  Hg
  Hf1      1.0000 0.13969  0.44031  0.39854  Biso   1.000  Hf
  Hf2      1.0000 0.36244  0.53128  0.10174  Biso   1.000  Hf
  Hf3      1.0000 0.36470  0.93523  0.35431  Biso   1.000  Hf
  O1       1.0000 0.03865  0.38035  0.08012  Biso   1.000  O 
  O2       1.0000 0.02789  0.15161  0.33472  Biso   1.000  O 
  O3       1.0000 0.47002  0.82523  0.17126  Biso   1.000  O 
  O4       1.0000 0.46679  0.65253  0.42519  Biso   1.000  O 
  O5       1.0000 0.27272  0.21565  0.23408  Biso   1.000  O 
  O6       1.0000 0.27542  0.22538  0.48739  Biso   1.000  O 
  O7       1.0000 0.22887  0.78536  0.01510  Biso   1.000  O 
  O8       1.0000 0.24299  0.68642  0.26889  Biso   1.000  O 
  Hf4      1.0000 0.13760  0.02467  0.64644  Biso   1.000  Hf
  Hf5      1.0000 0.13382  0.43867  0.89747  Biso   1.000  Hf
  Hf6      1.0000 0.36036  0.52894  0.60751  Biso   1.000  Hf
  Hf7      1.0000 0.35951  0.95212  0.85661  Biso   1.000  Hf
  O9       1.0000 0.03203  0.31632  0.57885  Biso   1.000  O 
  O10      1.0000 0.03315  0.14385  0.83006  Biso   1.000  O 
  O11      1.0000 0.46373  0.82129  0.67268  Biso   1.000  O 
  O12      1.0000 0.46358  0.65542  0.92285  Biso   1.000  O 
  O13      1.0000 0.27280  0.23980  0.73567  Biso   1.000  O 
  O14      1.0000 0.28506  0.25671  0.97527  Biso   1.000  O 
  O15      1.0000 0.22270  0.73876  0.51384  Biso   1.000  O 
  O16      1.0000 0.22321  0.72771  0.76424  Biso   1.000  O 
  Hf8      1.0000 0.63749  0.03784  0.14425  Biso   1.000  Hf
  Hf9      1.0000 0.63695  0.44324  0.39616  Biso   1.000  Hf
  Hf10     1.0000 0.86043  0.52838  0.09926  Biso   1.000  Hf
  Hf11     1.0000 0.85148  0.94171  0.35815  Biso   1.000  Hf
  O17      1.0000 0.53666  0.33331  0.07758  Biso   1.000  O 
  O18      1.0000 0.53293  0.15578  0.32859  Biso   1.000  O 
  O19      1.0000 0.94437  0.85591  0.16553  Biso   1.000  O 
  O20      1.0000 0.96495  0.65138  0.41730  Biso   1.000  O 
  O21      1.0000 0.77322  0.25063  0.24123  Biso   1.000  O 
  O22      1.0000 0.77356  0.22754  0.49069  Biso   1.000  O 
  O23      1.0000 0.72376  0.76125  0.00751  Biso   1.000  O 
  O24      1.0000 0.72285  0.73330  0.26027  Biso   1.000  O 
  Hf12     1.0000 0.63571  0.02883  0.64746  Biso   1.000  Hf
  Hf13     1.0000 0.63589  0.44438  0.89538  Biso   1.000  Hf
  Hf14     1.0000 0.86003  0.52828  0.60406  Biso   1.000  Hf
  Hf15     1.0000 0.85951  0.93833  0.85343  Biso   1.000  Hf
  O25      1.0000 0.53353  0.31994  0.57929  Biso   1.000  O 
  O26      1.0000 0.53469  0.15095  0.82798  Biso   1.000  O 
  O27      1.0000 0.96345  0.82002  0.66909  Biso   1.000  O 
  O28      1.0000 0.95849  0.64193  0.91591  Biso   1.000  O 
  O29      1.0000 0.77458  0.24510  0.73938  Biso   1.000  O 
  O30      1.0000 0.77240  0.22076  0.98887  Biso   1.000  O 
  O31      1.0000 0.72220  0.74159  0.51051  Biso   1.000  O 
  O32      1.0000 0.72216  0.72774  0.75852  Biso   1.000  O 
