data_image0
_cell_length_a       10.242
_cell_length_b       5.1731
_cell_length_c       10.6213
_cell_angle_alpha    90
_cell_angle_beta     80
_cell_angle_gamma    90

_symmetry_space_group_name_H-M    "P 1"
_symmetry_int_tables_number       1

loop_
  _symmetry_equiv_pos_as_xyz
  'x, y, z'

loop_
  _atom_site_label
  _atom_site_occupancy
  _atom_site_fract_x
  _atom_site_fract_y
  _atom_site_fract_z
  _atom_site_thermal_displace_type
  _atom_site_B_iso_or_equiv
  _atom_site_type_symbol
  Hf1      1.0000 0.12945  0.04520  0.14307  Biso   1.000  Hf
  Hf2      1.0000 0.14032  0.44829  0.39055  Biso   1.000  Hf
  Hf3      1.0000 0.35253  0.56310  0.09653  Biso   1.000  Hf
  Hf4      1.0000 0.37077  0.90806  0.35894  Biso   1.000  Hf
  O1       1.0000 0.02747  0.32806  0.06923  Biso   1.000  O 
  O2       1.0000 0.02584  0.16983  0.32585  Biso   1.000  O 
  O3       1.0000 0.46070  0.87404  0.16615  Biso   1.000  O 
  O4       1.0000 0.49442  0.71595  0.46085  Biso   1.000  O 
  O5       1.0000 0.24907  0.27554  0.22319  Biso   1.000  O 
  O6       1.0000 0.27416  0.19882  0.48215  Biso   1.000  O 
  O7       1.0000 0.21913  0.77249  0.00675  Biso   1.000  O 
  O8       1.0000 0.21573  0.76327  0.25971  Biso   1.000  O 
  Hf5      1.0000 0.14634  0.02876  0.64130  Biso   1.000  Hf
  Hf6      1.0000 0.14443  0.44479  0.89073  Biso   1.000  Hf
  Hf7      1.0000 0.37350  0.53993  0.61373  Biso   1.000  Hf
  Hf8      1.0000 0.36980  0.95340  0.85509  Biso   1.000  Hf
  O9       1.0000 0.04051  0.31390  0.57312  Biso   1.000  O 
  O10      1.0000 0.04087  0.16450  0.81917  Biso   1.000  O 
  O11      1.0000 0.48011  0.80524  0.68959  Biso   1.000  O 
  O12      1.0000 0.47784  0.67267  0.92508  Biso   1.000  O 
  O13      1.0000 0.28230  0.24203  0.73428  Biso   1.000  O 
  O14      1.0000 0.28400  0.24715  0.98055  Biso   1.000  O 
  O15      1.0000 0.23575  0.71681  0.51302  Biso   1.000  O 
  O16      1.0000 0.23508  0.73484  0.76023  Biso   1.000  O 
  Hf9      1.0000 0.64115  0.04088  0.14409  Biso   1.000  Hf
  Hf10     1.0000 0.65891  0.45435  0.40861  Biso   1.000  Hf
  Hf11     1.0000 0.85867  0.54145  0.10491  Biso   1.000  Hf
  Hf12     1.0000 0.86551  0.94737  0.35405  Biso   1.000  Hf
  O17      1.0000 0.53335  0.33653  0.07216  Biso   1.000  O 
  O18      1.0000 0.56100  0.10769  0.33994  Biso   1.000  O 
  O19      1.0000 0.96303  0.82313  0.17500  Biso   1.000  O 
  O20      1.0000 0.97134  0.66283  0.42477  Biso   1.000  O 
  O21      1.0000 0.77947  0.25575  0.24011  Biso   1.000  O 
  O22      1.0000 0.78444  0.22926  0.49420  Biso   1.000  O 
  O23      1.0000 0.72373  0.76066  0.01336  Biso   1.000  O 
  O24      1.0000 0.72648  0.73201  0.26258  Biso   1.000  O 
  Hf13     1.0000 0.64517  0.03131  0.64940  Biso   1.000  Hf
  Hf14     1.0000 0.64668  0.44791  0.89543  Biso   1.000  Hf
  Hf15     1.0000 0.87396  0.53133  0.60749  Biso   1.000  Hf
  Hf16     1.0000 0.87242  0.94674  0.85340  Biso   1.000  Hf
  O25      1.0000 0.53937  0.30776  0.57613  Biso   1.000  O 
  O26      1.0000 0.53942  0.17255  0.82366  Biso   1.000  O 
  O27      1.0000 0.97795  0.81465  0.67414  Biso   1.000  O 
  O28      1.0000 0.97599  0.66452  0.92264  Biso   1.000  O 
  O29      1.0000 0.78224  0.24642  0.73977  Biso   1.000  O 
  O30      1.0000 0.78507  0.23115  0.98727  Biso   1.000  O 
  O31      1.0000 0.73713  0.74269  0.51625  Biso   1.000  O 
  O32      1.0000 0.73649  0.73495  0.76303  Biso   1.000  O 
  Hg1      1.0000 0.43975  0.42036  0.30234  Biso   1.000  Hg
