data_image0
_cell_length_a       10.1233
_cell_length_b       10.3597
_cell_length_c       5.28368
_cell_angle_alpha    90
_cell_angle_beta     90
_cell_angle_gamma    90

_symmetry_space_group_name_H-M    "P 1"
_symmetry_int_tables_number       1

loop_
  _symmetry_equiv_pos_as_xyz
  'x, y, z'

loop_
  _atom_site_label
  _atom_site_occupancy
  _atom_site_fract_x
  _atom_site_fract_y
  _atom_site_fract_z
  _atom_site_thermal_displace_type
  _atom_site_B_iso_or_equiv
  _atom_site_type_symbol
  Hf1      1.0000 0.13616  0.01958  0.34626  Biso   1.000  Hf
  Hf2      1.0000 0.13183  0.22996  0.84957  Biso   1.000  Hf
  Hf3      1.0000 0.34380  0.26901  0.36832  Biso   1.000  Hf
  Hf4      1.0000 0.35614  0.48767  0.84529  Biso   1.000  Hf
  Hf5      1.0000 0.63871  0.01740  0.14206  Biso   1.000  Hf
  Hf6      1.0000 0.63447  0.21429  0.62298  Biso   1.000  Hf
  Hf7      1.0000 0.86759  0.27368  0.15872  Biso   1.000  Hf
  Hf8      1.0000 0.86457  0.48695  0.66407  Biso   1.000  Hf
  O1       1.0000 0.03471  0.16287  0.16704  Biso   1.000  O 
  O2       1.0000 0.03011  0.08594  0.66357  Biso   1.000  O 
  O3       1.0000 0.45071  0.44205  0.20380  Biso   1.000  O 
  O4       1.0000 0.46206  0.33726  0.65640  Biso   1.000  O 
  O5       1.0000 0.26602  0.12686  0.59992  Biso   1.000  O 
  O6       1.0000 0.27652  0.12189  0.09713  Biso   1.000  O 
  O7       1.0000 0.21855  0.37680  0.59962  Biso   1.000  O 
  O8       1.0000 0.22465  0.37307  0.09573  Biso   1.000  O 
  O9       1.0000 0.50624  0.13038  0.38219  Biso   1.000  O 
  O10      1.0000 0.52643  0.07202  0.82682  Biso   1.000  O 
  O11      1.0000 0.97155  0.41156  0.34726  Biso   1.000  O 
  O12      1.0000 0.96850  0.33589  0.83278  Biso   1.000  O 
  O13      1.0000 0.77902  0.12782  0.87785  Biso   1.000  O 
  O14      1.0000 0.77356  0.12263  0.38566  Biso   1.000  O 
  O15      1.0000 0.76259  0.42021  0.96385  Biso   1.000  O 
  O16      1.0000 0.72447  0.37833  0.45134  Biso   1.000  O 
  Hf9      1.0000 0.13764  0.52174  0.34221  Biso   1.000  Hf
  Hf10     1.0000 0.13383  0.73379  0.84447  Biso   1.000  Hf
  Hf11     1.0000 0.36044  0.77211  0.34753  Biso   1.000  Hf
  Hf12     1.0000 0.35529  0.97837  0.84994  Biso   1.000  Hf
  Hf13     1.0000 0.64307  0.53582  0.16581  Biso   1.000  Hf
  Hf14     1.0000 0.63574  0.73817  0.65717  Biso   1.000  Hf
  Hf15     1.0000 0.86416  0.77354  0.15702  Biso   1.000  Hf
  Hf16     1.0000 0.86225  0.98159  0.65372  Biso   1.000  Hf
  O17      1.0000 0.03200  0.66208  0.16137  Biso   1.000  O 
  O18      1.0000 0.03372  0.59168  0.66102  Biso   1.000  O 
  O19      1.0000 0.46926  0.90702  0.16105  Biso   1.000  O 
  O20      1.0000 0.46063  0.83401  0.67091  Biso   1.000  O 
  O21      1.0000 0.27424  0.62507  0.58951  Biso   1.000  O 
  O22      1.0000 0.27469  0.62600  0.08660  Biso   1.000  O 
  O23      1.0000 0.22197  0.87551  0.59421  Biso   1.000  O 
  O24      1.0000 0.22410  0.87357  0.09643  Biso   1.000  O 
  O25      1.0000 0.53492  0.67494  0.33806  Biso   1.000  O 
  O26      1.0000 0.53067  0.58673  0.83668  Biso   1.000  O 
  O27      1.0000 0.96930  0.91538  0.33362  Biso   1.000  O 
  O28      1.0000 0.96512  0.84073  0.83765  Biso   1.000  O 
  O29      1.0000 0.76729  0.64743  0.90725  Biso   1.000  O 
  O30      1.0000 0.77785  0.62998  0.41111  Biso   1.000  O 
  O31      1.0000 0.72229  0.88468  0.90981  Biso   1.000  O 
  O32      1.0000 0.72536  0.87672  0.41027  Biso   1.000  O 
  Hg1      1.0000 0.57395  0.28078  0.07488  Biso   1.000  Hg
