data_image0
_cell_length_a       10.0079
_cell_length_b       5.14847
_cell_length_c       10.4259
_cell_angle_alpha    90
_cell_angle_beta     90
_cell_angle_gamma    90

_symmetry_space_group_name_H-M    "P 1"
_symmetry_int_tables_number       1

loop_
  _symmetry_equiv_pos_as_xyz
  'x, y, z'

loop_
  _atom_site_label
  _atom_site_occupancy
  _atom_site_fract_x
  _atom_site_fract_y
  _atom_site_fract_z
  _atom_site_thermal_displace_type
  _atom_site_B_iso_or_equiv
  _atom_site_type_symbol
  Hg1      1.0000 0.12332  0.04210  0.18053  Biso   1.000  Hg
  Hf1      1.0000 0.12162  0.46904  0.42246  Biso   1.000  Hf
  Hf2      1.0000 0.35784  0.54244  0.15895  Biso   1.000  Hf
  Hf3      1.0000 0.35076  0.96822  0.41739  Biso   1.000  Hf
  Hf4      1.0000 0.63938  0.04228  0.07907  Biso   1.000  Hf
  Hf5      1.0000 0.62848  0.46822  0.32919  Biso   1.000  Hf
  Hf6      1.0000 0.85952  0.53566  0.08012  Biso   1.000  Hf
  Hf7      1.0000 0.84885  0.97348  0.34107  Biso   1.000  Hf
  O1       1.0000 0.04361  0.35165  0.09104  Biso   1.000  O 
  O2       1.0000 0.01742  0.15386  0.37932  Biso   1.000  O 
  O3       1.0000 0.47063  0.83548  0.08386  Biso   1.000  O 
  O4       1.0000 0.45128  0.66514  0.33382  Biso   1.000  O 
  O5       1.0000 0.26535  0.26051  0.28961  Biso   1.000  O 
  O6       1.0000 0.29112  0.25982  0.03057  Biso   1.000  O 
  O7       1.0000 0.21293  0.75233  0.28402  Biso   1.000  O 
  O8       1.0000 0.23523  0.73724  0.03001  Biso   1.000  O 
  O9       1.0000 0.53453  0.34118  0.16129  Biso   1.000  O 
  O10      1.0000 0.52228  0.17114  0.41123  Biso   1.000  O 
  O11      1.0000 0.94633  0.86084  0.16347  Biso   1.000  O 
  O12      1.0000 0.94625  0.65680  0.41201  Biso   1.000  O 
  O13      1.0000 0.75943  0.26327  0.46140  Biso   1.000  O 
  O14      1.0000 0.77365  0.25915  0.21090  Biso   1.000  O 
  O15      1.0000 0.70821  0.76289  0.45821  Biso   1.000  O 
  O16      1.0000 0.72226  0.75381  0.20681  Biso   1.000  O 
  Hf8      1.0000 0.12118  0.05638  0.66553  Biso   1.000  Hf
  Hf9      1.0000 0.12670  0.47288  0.91470  Biso   1.000  Hf
  Hf10     1.0000 0.34450  0.55531  0.66656  Biso   1.000  Hf
  Hf11     1.0000 0.34110  0.97590  0.91687  Biso   1.000  Hf
  Hf12     1.0000 0.62287  0.05471  0.58196  Biso   1.000  Hf
  Hf13     1.0000 0.61988  0.47526  0.82899  Biso   1.000  Hf
  Hf14     1.0000 0.84629  0.55402  0.58383  Biso   1.000  Hf
  Hf15     1.0000 0.84686  0.97413  0.83205  Biso   1.000  Hf
  O17      1.0000 0.02690  0.38297  0.60200  Biso   1.000  O 
  O18      1.0000 0.02083  0.16500  0.83953  Biso   1.000  O 
  O19      1.0000 0.45063  0.85024  0.58311  Biso   1.000  O 
  O20      1.0000 0.44785  0.67919  0.83163  Biso   1.000  O 
  O21      1.0000 0.25975  0.26018  0.78553  Biso   1.000  O 
  O22      1.0000 0.26328  0.26406  0.53838  Biso   1.000  O 
  O23      1.0000 0.20533  0.76077  0.78550  Biso   1.000  O 
  O24      1.0000 0.20957  0.76716  0.53744  Biso   1.000  O 
  O25      1.0000 0.51920  0.35262  0.66143  Biso   1.000  O 
  O26      1.0000 0.51872  0.17644  0.91058  Biso   1.000  O 
  O27      1.0000 0.94453  0.86760  0.65985  Biso   1.000  O 
  O28      1.0000 0.94688  0.66947  0.91718  Biso   1.000  O 
  O29      1.0000 0.75912  0.26460  0.95881  Biso   1.000  O 
  O30      1.0000 0.76075  0.26737  0.70960  Biso   1.000  O 
  O31      1.0000 0.70451  0.76427  0.95734  Biso   1.000  O 
  O32      1.0000 0.70798  0.76639  0.70772  Biso   1.000  O 
