data_image0
_cell_length_a       10.1738
_cell_length_b       10.2959
_cell_length_c       10.5261
_cell_angle_alpha    90
_cell_angle_beta     80
_cell_angle_gamma    90

_symmetry_space_group_name_H-M    "P 1"
_symmetry_int_tables_number       1

loop_
  _symmetry_equiv_pos_as_xyz
  'x, y, z'

loop_
  _atom_site_label
  _atom_site_occupancy
  _atom_site_fract_x
  _atom_site_fract_y
  _atom_site_fract_z
  _atom_site_thermal_displace_type
  _atom_site_B_iso_or_equiv
  _atom_site_type_symbol
  Hf1      1.0000 0.13074  0.02061  0.14263  Biso   1.000  Hf
  Hf2      1.0000 0.13766  0.22638  0.39221  Biso   1.000  Hf
  Hf3      1.0000 0.35403  0.27440  0.09600  Biso   1.000  Hf
  Hf4      1.0000 0.36584  0.47743  0.35071  Biso   1.000  Hf
  O1       1.0000 0.03114  0.16682  0.07458  Biso   1.000  O 
  O2       1.0000 0.02779  0.08171  0.32856  Biso   1.000  O 
  O3       1.0000 0.45803  0.43594  0.15521  Biso   1.000  O 
  O4       1.0000 0.49494  0.38151  0.46023  Biso   1.000  O 
  O5       1.0000 0.25826  0.12381  0.23182  Biso   1.000  O 
  O6       1.0000 0.27519  0.11070  0.48826  Biso   1.000  O 
  O7       1.0000 0.21924  0.38214  0.00611  Biso   1.000  O 
  O8       1.0000 0.21376  0.37522  0.25570  Biso   1.000  O 
  Hf5      1.0000 0.14048  0.01840  0.64499  Biso   1.000  Hf
  Hf6      1.0000 0.13745  0.22698  0.89215  Biso   1.000  Hf
  Hf7      1.0000 0.36613  0.27836  0.60813  Biso   1.000  Hf
  Hf8      1.0000 0.36235  0.47804  0.85851  Biso   1.000  Hf
  O9       1.0000 0.03906  0.16495  0.57714  Biso   1.000  O 
  O10      1.0000 0.03437  0.08197  0.82552  Biso   1.000  O 
  O11      1.0000 0.47129  0.40747  0.69156  Biso   1.000  O 
  O12      1.0000 0.46705  0.33112  0.92372  Biso   1.000  O 
  O13      1.0000 0.27631  0.12846  0.73718  Biso   1.000  O 
  O14      1.0000 0.27427  0.12190  0.98451  Biso   1.000  O 
  O15      1.0000 0.23013  0.37267  0.50824  Biso   1.000  O 
  O16      1.0000 0.22626  0.37170  0.75917  Biso   1.000  O 
  Hf9      1.0000 0.13931  0.52287  0.14625  Biso   1.000  Hf
  Hf10     1.0000 0.13937  0.72536  0.39670  Biso   1.000  Hf
  Hf11     1.0000 0.36096  0.77301  0.10424  Biso   1.000  Hf
  Hf12     1.0000 0.36209  0.96305  0.35829  Biso   1.000  Hf
  O17      1.0000 0.03371  0.66766  0.07712  Biso   1.000  O 
  O18      1.0000 0.03397  0.58452  0.32669  Biso   1.000  O 
  O19      1.0000 0.46496  0.91890  0.17417  Biso   1.000  O 
  O20      1.0000 0.46249  0.82062  0.42299  Biso   1.000  O 
  O21      1.0000 0.27612  0.62992  0.24159  Biso   1.000  O 
  O22      1.0000 0.27550  0.61606  0.49080  Biso   1.000  O 
  O23      1.0000 0.22409  0.88058  0.00992  Biso   1.000  O 
  O24      1.0000 0.22364  0.86847  0.26134  Biso   1.000  O 
  Hf13     1.0000 0.14114  0.51981  0.64534  Biso   1.000  Hf
  Hf14     1.0000 0.13970  0.72701  0.89650  Biso   1.000  Hf
  Hf15     1.0000 0.36304  0.76614  0.60655  Biso   1.000  Hf
  Hf16     1.0000 0.36280  0.97824  0.85258  Biso   1.000  Hf
  O25      1.0000 0.03393  0.66274  0.57764  Biso   1.000  O 
  O26      1.0000 0.03617  0.58308  0.82661  Biso   1.000  O 
  O27      1.0000 0.46704  0.91439  0.67004  Biso   1.000  O 
  O28      1.0000 0.46713  0.83475  0.92144  Biso   1.000  O 
  O29      1.0000 0.27812  0.62553  0.74133  Biso   1.000  O 
  O30      1.0000 0.27799  0.62261  0.99217  Biso   1.000  O 
  O31      1.0000 0.22445  0.87111  0.51215  Biso   1.000  O 
  O32      1.0000 0.22617  0.86921  0.76047  Biso   1.000  O 
  Hf17     1.0000 0.64052  0.01780  0.14765  Biso   1.000  Hf
  Hf18     1.0000 0.65788  0.23597  0.41013  Biso   1.000  Hf
  Hf19     1.0000 0.85937  0.27339  0.10533  Biso   1.000  Hf
  Hf20     1.0000 0.86501  0.47916  0.35318  Biso   1.000  Hf
  O33      1.0000 0.53091  0.15998  0.07431  Biso   1.000  O 
  O34      1.0000 0.55472  0.05126  0.34630  Biso   1.000  O 
  O35      1.0000 0.96493  0.41813  0.17057  Biso   1.000  O 
  O36      1.0000 0.96707  0.33120  0.42189  Biso   1.000  O 
  O37      1.0000 0.77552  0.13157  0.24277  Biso   1.000  O 
  O38      1.0000 0.78205  0.11853  0.49538  Biso   1.000  O 
  O39      1.0000 0.72233  0.37884  0.01230  Biso   1.000  O 
  O40      1.0000 0.72419  0.37354  0.26331  Biso   1.000  O 
  Hf21     1.0000 0.63793  0.01961  0.64584  Biso   1.000  Hf
  Hf22     1.0000 0.63997  0.22536  0.89711  Biso   1.000  Hf
  Hf23     1.0000 0.86877  0.26896  0.60975  Biso   1.000  Hf
  Hf24     1.0000 0.86262  0.47754  0.85470  Biso   1.000  Hf
  O41      1.0000 0.53595  0.16668  0.57626  Biso   1.000  O 
  O42      1.0000 0.53392  0.08345  0.82466  Biso   1.000  O 
  O43      1.0000 0.97025  0.41457  0.67356  Biso   1.000  O 
  O44      1.0000 0.96514  0.33220  0.92129  Biso   1.000  O 
  O45      1.0000 0.77640  0.12664  0.74188  Biso   1.000  O 
  O46      1.0000 0.77729  0.11938  0.99140  Biso   1.000  O 
  O47      1.0000 0.73635  0.37663  0.51667  Biso   1.000  O 
  O48      1.0000 0.72795  0.36922  0.76328  Biso   1.000  O 
  Hf25     1.0000 0.63644  0.52503  0.14283  Biso   1.000  Hf
  Hf26     1.0000 0.64131  0.72417  0.39509  Biso   1.000  Hf
  Hf27     1.0000 0.86044  0.76940  0.10348  Biso   1.000  Hf
  Hf28     1.0000 0.86051  0.97511  0.35460  Biso   1.000  Hf
  O49      1.0000 0.53788  0.67614  0.07726  Biso   1.000  O 
  O50      1.0000 0.53425  0.58877  0.32031  Biso   1.000  O 
  O51      1.0000 0.96192  0.91477  0.17305  Biso   1.000  O 
  O52      1.0000 0.96595  0.83117  0.42233  Biso   1.000  O 
  O53      1.0000 0.77810  0.62715  0.23933  Biso   1.000  O 
  O54      1.0000 0.77602  0.61856  0.48915  Biso   1.000  O 
  O55      1.0000 0.72494  0.88028  0.00995  Biso   1.000  O 
  O56      1.0000 0.72509  0.86594  0.25846  Biso   1.000  O 
  Hf29     1.0000 0.63829  0.51862  0.64777  Biso   1.000  Hf
  Hf30     1.0000 0.63946  0.72905  0.89463  Biso   1.000  Hf
  Hf31     1.0000 0.86268  0.76992  0.60369  Biso   1.000  Hf
  Hf32     1.0000 0.86368  0.97685  0.85372  Biso   1.000  Hf
  O57      1.0000 0.53516  0.66146  0.57864  Biso   1.000  O 
  O58      1.0000 0.53525  0.58442  0.82981  Biso   1.000  O 
  O59      1.0000 0.96754  0.91425  0.67158  Biso   1.000  O 
  O60      1.0000 0.96795  0.83249  0.92171  Biso   1.000  O 
  O61      1.0000 0.77622  0.62665  0.73842  Biso   1.000  O 
  O62      1.0000 0.77713  0.62001  0.98811  Biso   1.000  O 
  O63      1.0000 0.72394  0.87617  0.51014  Biso   1.000  O 
  O64      1.0000 0.72588  0.87080  0.75949  Biso   1.000  O 
  Hg1      1.0000 0.44014  0.22305  0.31011  Biso   1.000  Hg
