data_image0
_cell_length_a       9.94359
_cell_length_b       10.3761
_cell_length_c       10.0217
_cell_angle_alpha    90
_cell_angle_beta     90
_cell_angle_gamma    90

_symmetry_space_group_name_H-M    "P 1"
_symmetry_int_tables_number       1

loop_
  _symmetry_equiv_pos_as_xyz
  'x, y, z'

loop_
  _atom_site_label
  _atom_site_occupancy
  _atom_site_fract_x
  _atom_site_fract_y
  _atom_site_fract_z
  _atom_site_thermal_displace_type
  _atom_site_B_iso_or_equiv
  _atom_site_type_symbol
  Hg1      1.0000 0.12127  0.02307  0.11023  Biso   1.000  Hg
  Hf1      1.0000 0.14508  0.22964  0.38203  Biso   1.000  Hf
  Hf2      1.0000 0.36811  0.26775  0.13168  Biso   1.000  Hf
  Hf3      1.0000 0.37013  0.48337  0.37853  Biso   1.000  Hf
  O1       1.0000 0.04118  0.18495  0.19241  Biso   1.000  O 
  O2       1.0000 0.04443  0.06335  0.44398  Biso   1.000  O 
  O3       1.0000 0.46611  0.43377  0.19638  Biso   1.000  O 
  O4       1.0000 0.46928  0.31554  0.44538  Biso   1.000  O 
  O5       1.0000 0.29099  0.13159  0.26286  Biso   1.000  O 
  O6       1.0000 0.27663  0.12836  0.50901  Biso   1.000  O 
  O7       1.0000 0.23573  0.38039  0.50223  Biso   1.000  O 
  O8       1.0000 0.22936  0.37039  0.25274  Biso   1.000  O 
  Hf4      1.0000 0.13867  0.01851  0.63677  Biso   1.000  Hf
  Hf5      1.0000 0.14047  0.23707  0.86947  Biso   1.000  Hf
  Hf6      1.0000 0.37420  0.26599  0.62817  Biso   1.000  Hf
  Hf7      1.0000 0.37526  0.48248  0.87765  Biso   1.000  Hf
  O9       1.0000 0.05265  0.19730  0.67566  Biso   1.000  O 
  O10      1.0000 0.04952  0.06263  0.88458  Biso   1.000  O 
  O11      1.0000 0.47162  0.43378  0.69605  Biso   1.000  O 
  O12      1.0000 0.47024  0.31055  0.94248  Biso   1.000  O 
  O13      1.0000 0.28562  0.12203  0.75594  Biso   1.000  O 
  O14      1.0000 0.26214  0.13015  0.00591  Biso   1.000  O 
  O15      1.0000 0.23027  0.38160  0.00165  Biso   1.000  O 
  O16      1.0000 0.23749  0.37071  0.75033  Biso   1.000  O 
  Hf8      1.0000 0.13733  0.51557  0.12821  Biso   1.000  Hf
  Hf9      1.0000 0.14093  0.73374  0.37867  Biso   1.000  Hf
  Hf10     1.0000 0.36918  0.76494  0.13173  Biso   1.000  Hf
  Hf11     1.0000 0.36757  0.98288  0.37773  Biso   1.000  Hf
  O17      1.0000 0.04050  0.68423  0.19414  Biso   1.000  O 
  O18      1.0000 0.04216  0.56335  0.44559  Biso   1.000  O 
  O19      1.0000 0.47248  0.93278  0.19680  Biso   1.000  O 
  O20      1.0000 0.47191  0.81648  0.45079  Biso   1.000  O 
  O21      1.0000 0.27474  0.61419  0.25150  Biso   1.000  O 
  O22      1.0000 0.27742  0.63173  0.50233  Biso   1.000  O 
  O23      1.0000 0.23271  0.88205  0.50874  Biso   1.000  O 
  O24      1.0000 0.24652  0.85799  0.26244  Biso   1.000  O 
  Hf12     1.0000 0.14109  0.51675  0.62686  Biso   1.000  Hf
  Hf13     1.0000 0.14250  0.72989  0.87822  Biso   1.000  Hf
  Hf14     1.0000 0.37215  0.76730  0.62886  Biso   1.000  Hf
  Hf15     1.0000 0.37661  0.98238  0.87901  Biso   1.000  Hf
  O25      1.0000 0.04419  0.68492  0.69557  Biso   1.000  O 
  O26      1.0000 0.04498  0.56297  0.94500  Biso   1.000  O 
  O27      1.0000 0.47147  0.93414  0.69802  Biso   1.000  O 
  O28      1.0000 0.46844  0.81340  0.94475  Biso   1.000  O 
  O29      1.0000 0.27818  0.61724  0.75210  Biso   1.000  O 
  O30      1.0000 0.27053  0.63280  0.00233  Biso   1.000  O 
  O31      1.0000 0.22714  0.88143  0.00934  Biso   1.000  O 
  O32      1.0000 0.23739  0.86836  0.75770  Biso   1.000  O 
  Hf16     1.0000 0.63793  0.01542  0.12673  Biso   1.000  Hf
  Hf17     1.0000 0.63751  0.23192  0.37539  Biso   1.000  Hf
  Hf18     1.0000 0.86217  0.26651  0.12532  Biso   1.000  Hf
  Hf19     1.0000 0.87185  0.48256  0.37546  Biso   1.000  Hf
  O33      1.0000 0.54566  0.18712  0.18927  Biso   1.000  O 
  O34      1.0000 0.54125  0.06503  0.44349  Biso   1.000  O 
  O35      1.0000 0.96594  0.42975  0.19187  Biso   1.000  O 
  O36      1.0000 0.96746  0.31409  0.43724  Biso   1.000  O 
  O37      1.0000 0.77604  0.11729  0.25002  Biso   1.000  O 
  O38      1.0000 0.77603  0.13168  0.49842  Biso   1.000  O 
  O39      1.0000 0.73559  0.38187  0.49985  Biso   1.000  O 
  O40      1.0000 0.73120  0.36869  0.25054  Biso   1.000  O 
  Hf20     1.0000 0.63850  0.01544  0.62379  Biso   1.000  Hf
  Hf21     1.0000 0.64350  0.23079  0.87539  Biso   1.000  Hf
  Hf22     1.0000 0.87277  0.26680  0.62164  Biso   1.000  Hf
  Hf23     1.0000 0.87403  0.48151  0.87499  Biso   1.000  Hf
  O41      1.0000 0.54590  0.18437  0.69350  Biso   1.000  O 
  O42      1.0000 0.54597  0.06351  0.94523  Biso   1.000  O 
  O43      1.0000 0.96960  0.43558  0.69362  Biso   1.000  O 
  O44      1.0000 0.97135  0.31263  0.94345  Biso   1.000  O 
  O45      1.0000 0.77832  0.11734  0.74611  Biso   1.000  O 
  O46      1.0000 0.78560  0.12744  0.99702  Biso   1.000  O 
  O47      1.0000 0.72782  0.37967  0.00083  Biso   1.000  O 
  O48      1.0000 0.73702  0.36680  0.75033  Biso   1.000  O 
  Hf24     1.0000 0.63620  0.51628  0.12825  Biso   1.000  Hf
  Hf25     1.0000 0.63931  0.73428  0.37695  Biso   1.000  Hf
  Hf26     1.0000 0.86938  0.76256  0.12272  Biso   1.000  Hf
  Hf27     1.0000 0.87470  0.98460  0.37979  Biso   1.000  Hf
  O49      1.0000 0.54130  0.68408  0.19708  Biso   1.000  O 
  O50      1.0000 0.54189  0.56575  0.44488  Biso   1.000  O 
  O51      1.0000 0.96343  0.93551  0.19029  Biso   1.000  O 
  O52      1.0000 0.96751  0.81260  0.43969  Biso   1.000  O 
  O53      1.0000 0.77573  0.61620  0.24879  Biso   1.000  O 
  O54      1.0000 0.77539  0.63125  0.49884  Biso   1.000  O 
  O55      1.0000 0.73559  0.88161  0.49883  Biso   1.000  O 
  O56      1.0000 0.74136  0.86720  0.24940  Biso   1.000  O 
  Hf28     1.0000 0.64054  0.51595  0.62627  Biso   1.000  Hf
  Hf29     1.0000 0.64156  0.73158  0.87675  Biso   1.000  Hf
  Hf30     1.0000 0.87288  0.76353  0.62284  Biso   1.000  Hf
  Hf31     1.0000 0.87299  0.97944  0.86724  Biso   1.000  Hf
  O57      1.0000 0.54259  0.68280  0.69667  Biso   1.000  O 
  O58      1.0000 0.54578  0.56337  0.94748  Biso   1.000  O 
  O59      1.0000 0.96337  0.93379  0.67899  Biso   1.000  O 
  O60      1.0000 0.97301  0.81562  0.94191  Biso   1.000  O 
  O61      1.0000 0.77744  0.61644  0.75025  Biso   1.000  O 
  O62      1.0000 0.78071  0.62890  0.99918  Biso   1.000  O 
  O63      1.0000 0.73691  0.87706  0.99940  Biso   1.000  O 
  O64      1.0000 0.73582  0.86514  0.74845  Biso   1.000  O 
