data_image0
_cell_length_a       10.0168
_cell_length_b       10.2679
_cell_length_c       10.4326
_cell_angle_alpha    90
_cell_angle_beta     90
_cell_angle_gamma    90

_symmetry_space_group_name_H-M    "P 1"
_symmetry_int_tables_number       1

loop_
  _symmetry_equiv_pos_as_xyz
  'x, y, z'

loop_
  _atom_site_label
  _atom_site_occupancy
  _atom_site_fract_x
  _atom_site_fract_y
  _atom_site_fract_z
  _atom_site_thermal_displace_type
  _atom_site_B_iso_or_equiv
  _atom_site_type_symbol
  Hg1      1.0000 0.12563  0.01877  0.18202  Biso   1.000  Hg
  Hf1      1.0000 0.13072  0.23417  0.42350  Biso   1.000  Hf
  Hf2      1.0000 0.35819  0.27127  0.16618  Biso   1.000  Hf
  Hf3      1.0000 0.35554  0.48178  0.41982  Biso   1.000  Hf
  Hf4      1.0000 0.64003  0.02160  0.07928  Biso   1.000  Hf
  Hf5      1.0000 0.63280  0.23229  0.33000  Biso   1.000  Hf
  Hf6      1.0000 0.86006  0.27024  0.08189  Biso   1.000  Hf
  Hf7      1.0000 0.85618  0.48131  0.32989  Biso   1.000  Hf
  O1       1.0000 0.04236  0.17164  0.09039  Biso   1.000  O 
  O2       1.0000 0.01907  0.08252  0.37382  Biso   1.000  O 
  O3       1.0000 0.46630  0.41711  0.08429  Biso   1.000  O 
  O4       1.0000 0.45926  0.33271  0.33528  Biso   1.000  O 
  O5       1.0000 0.26965  0.12467  0.29026  Biso   1.000  O 
  O6       1.0000 0.29216  0.13644  0.03070  Biso   1.000  O 
  O7       1.0000 0.21926  0.37514  0.29354  Biso   1.000  O 
  O8       1.0000 0.22147  0.37775  0.04321  Biso   1.000  O 
  O9       1.0000 0.53416  0.16909  0.16380  Biso   1.000  O 
  O10      1.0000 0.52761  0.08417  0.41388  Biso   1.000  O 
  O11      1.0000 0.96205  0.42004  0.16398  Biso   1.000  O 
  O12      1.0000 0.95828  0.33592  0.41730  Biso   1.000  O 
  O13      1.0000 0.76590  0.12888  0.46095  Biso   1.000  O 
  O14      1.0000 0.77553  0.12903  0.21039  Biso   1.000  O 
  O15      1.0000 0.71687  0.37817  0.45608  Biso   1.000  O 
  O16      1.0000 0.72081  0.37674  0.20620  Biso   1.000  O 
  Hf8      1.0000 0.13002  0.02495  0.66672  Biso   1.000  Hf
  Hf9      1.0000 0.13443  0.23047  0.91822  Biso   1.000  Hf
  Hf10     1.0000 0.35362  0.27451  0.66970  Biso   1.000  Hf
  Hf11     1.0000 0.35100  0.48302  0.92005  Biso   1.000  Hf
  Hf12     1.0000 0.63020  0.02453  0.58163  Biso   1.000  Hf
  Hf13     1.0000 0.63023  0.23322  0.82987  Biso   1.000  Hf
  Hf14     1.0000 0.85445  0.27509  0.58250  Biso   1.000  Hf
  Hf15     1.0000 0.85495  0.48202  0.83104  Biso   1.000  Hf
  O17      1.0000 0.03298  0.18500  0.60023  Biso   1.000  O 
  O18      1.0000 0.02890  0.08118  0.83852  Biso   1.000  O 
  O19      1.0000 0.45956  0.42094  0.58402  Biso   1.000  O 
  O20      1.0000 0.45772  0.33679  0.83411  Biso   1.000  O 
  O21      1.0000 0.26848  0.12610  0.78759  Biso   1.000  O 
  O22      1.0000 0.27115  0.12998  0.53965  Biso   1.000  O 
  O23      1.0000 0.21558  0.37661  0.79358  Biso   1.000  O 
  O24      1.0000 0.21688  0.38111  0.54442  Biso   1.000  O 
  O25      1.0000 0.52671  0.17181  0.66415  Biso   1.000  O 
  O26      1.0000 0.52909  0.08485  0.91231  Biso   1.000  O 
  O27      1.0000 0.95615  0.42581  0.66526  Biso   1.000  O 
  O28      1.0000 0.95702  0.33202  0.91803  Biso   1.000  O 
  O29      1.0000 0.76968  0.12850  0.95801  Biso   1.000  O 
  O30      1.0000 0.76896  0.13029  0.70823  Biso   1.000  O 
  O31      1.0000 0.71457  0.37796  0.95741  Biso   1.000  O 
  O32      1.0000 0.71624  0.37981  0.70681  Biso   1.000  O 
  Hf16     1.0000 0.13696  0.52094  0.17001  Biso   1.000  Hf
  Hf17     1.0000 0.13035  0.72945  0.42037  Biso   1.000  Hf
  Hf18     1.0000 0.36116  0.77056  0.16410  Biso   1.000  Hf
  Hf19     1.0000 0.35720  0.98111  0.41910  Biso   1.000  Hf
  Hf20     1.0000 0.63846  0.52047  0.07830  Biso   1.000  Hf
  Hf21     1.0000 0.63473  0.73090  0.32802  Biso   1.000  Hf
  Hf22     1.0000 0.86111  0.76783  0.07677  Biso   1.000  Hf
  Hf23     1.0000 0.85409  0.98509  0.33923  Biso   1.000  Hf
  O33      1.0000 0.03730  0.67403  0.08891  Biso   1.000  O 
  O34      1.0000 0.03109  0.58034  0.33694  Biso   1.000  O 
  O35      1.0000 0.47101  0.91748  0.08446  Biso   1.000  O 
  O36      1.0000 0.45940  0.83348  0.33310  Biso   1.000  O 
  O37      1.0000 0.27207  0.62815  0.29321  Biso   1.000  O 
  O38      1.0000 0.27690  0.62112  0.04372  Biso   1.000  O 
  O39      1.0000 0.21755  0.87415  0.28615  Biso   1.000  O 
  O40      1.0000 0.23808  0.86595  0.03206  Biso   1.000  O 
  O41      1.0000 0.53407  0.66803  0.16278  Biso   1.000  O 
  O42      1.0000 0.52892  0.58480  0.41282  Biso   1.000  O 
  O43      1.0000 0.94880  0.92977  0.16161  Biso   1.000  O 
  O44      1.0000 0.95629  0.82846  0.41055  Biso   1.000  O 
  O45      1.0000 0.77056  0.62702  0.45579  Biso   1.000  O 
  O46      1.0000 0.77436  0.62695  0.20552  Biso   1.000  O 
  O47      1.0000 0.71556  0.87732  0.45721  Biso   1.000  O 
  O48      1.0000 0.72549  0.87615  0.20552  Biso   1.000  O 
  Hf24     1.0000 0.13141  0.52421  0.67144  Biso   1.000  Hf
  Hf25     1.0000 0.13193  0.73516  0.91878  Biso   1.000  Hf
  Hf26     1.0000 0.35310  0.77439  0.66863  Biso   1.000  Hf
  Hf27     1.0000 0.35271  0.98418  0.91890  Biso   1.000  Hf
  Hf28     1.0000 0.63227  0.52405  0.57913  Biso   1.000  Hf
  Hf29     1.0000 0.62966  0.73377  0.82785  Biso   1.000  Hf
  Hf30     1.0000 0.85384  0.77359  0.57995  Biso   1.000  Hf
  Hf31     1.0000 0.85420  0.98390  0.83015  Biso   1.000  Hf
  O49      1.0000 0.02835  0.67304  0.58724  Biso   1.000  O 
  O50      1.0000 0.02801  0.58226  0.83881  Biso   1.000  O 
  O51      1.0000 0.45837  0.92077  0.58371  Biso   1.000  O 
  O52      1.0000 0.45813  0.83724  0.83174  Biso   1.000  O 
  O53      1.0000 0.26904  0.62784  0.79292  Biso   1.000  O 
  O54      1.0000 0.26928  0.62848  0.54321  Biso   1.000  O 
  O55      1.0000 0.21413  0.87711  0.78758  Biso   1.000  O 
  O56      1.0000 0.21683  0.87929  0.53848  Biso   1.000  O 
  O57      1.0000 0.52704  0.67125  0.66287  Biso   1.000  O 
  O58      1.0000 0.52449  0.58706  0.91375  Biso   1.000  O 
  O59      1.0000 0.95582  0.92540  0.66006  Biso   1.000  O 
  O60      1.0000 0.95603  0.83347  0.91227  Biso   1.000  O 
  O61      1.0000 0.76737  0.62772  0.95622  Biso   1.000  O 
  O62      1.0000 0.76960  0.62974  0.70677  Biso   1.000  O 
  O63      1.0000 0.71453  0.87840  0.95513  Biso   1.000  O 
  O64      1.0000 0.71624  0.87975  0.70594  Biso   1.000  O 
