data_image0
_cell_length_a       10.0889
_cell_length_b       10.3163
_cell_length_c       10.0889
_cell_angle_alpha    90
_cell_angle_beta     90
_cell_angle_gamma    90

_symmetry_space_group_name_H-M    "P 1"
_symmetry_int_tables_number       1

loop_
  _symmetry_equiv_pos_as_xyz
  'x, y, z'

loop_
  _atom_site_label
  _atom_site_occupancy
  _atom_site_fract_x
  _atom_site_fract_y
  _atom_site_fract_z
  _atom_site_thermal_displace_type
  _atom_site_B_iso_or_equiv
  _atom_site_type_symbol
  Hf1      1.0000 0.12491  0.97421  0.12490  Biso   1.000  Hf
  Hf2      1.0000 0.12491  0.25006  0.39113  Biso   1.000  Hf
  Hf3      1.0000 0.39113  0.25006  0.12491  Biso   1.000  Hf
  Hf4      1.0000 0.37725  0.00806  0.37724  Biso   1.000  Hf
  O1       1.0000 0.96446  0.16674  0.96446  Biso   1.000  O 
  O2       1.0000 0.00183  0.07985  0.24799  Biso   1.000  O 
  O3       1.0000 0.96446  0.33337  0.28536  Biso   1.000  O 
  O4       1.0000 0.00184  0.42026  0.00183  Biso   1.000  O 
  O5       1.0000 0.28536  0.16674  0.28536  Biso   1.000  O 
  O6       1.0000 0.24796  0.07985  0.00180  Biso   1.000  O 
  O7       1.0000 0.28536  0.33336  0.96446  Biso   1.000  O 
  O8       1.0000 0.24798  0.42026  0.24800  Biso   1.000  O 
  Hf5      1.0000 0.12492  0.99341  0.62491  Biso   1.000  Hf
  Hf6      1.0000 0.12491  0.25005  0.85869  Biso   1.000  Hf
  Hf7      1.0000 0.37475  0.25005  0.62491  Biso   1.000  Hf
  Hf8      1.0000 0.37684  0.00011  0.87297  Biso   1.000  Hf
  O9       1.0000 0.99599  0.14540  0.49874  Biso   1.000  O 
  O10      1.0000 0.00180  0.10135  0.74038  Biso   1.000  O 
  O11      1.0000 0.99599  0.35470  0.75108  Biso   1.000  O 
  O12      1.0000 0.00180  0.39876  0.50945  Biso   1.000  O 
  O13      1.0000 0.25383  0.14540  0.75107  Biso   1.000  O 
  O14      1.0000 0.24802  0.10135  0.50944  Biso   1.000  O 
  O15      1.0000 0.25383  0.35470  0.49874  Biso   1.000  O 
  O16      1.0000 0.24802  0.39876  0.74037  Biso   1.000  O 
  Hf9      1.0000 0.12491  0.52590  0.12491  Biso   1.000  Hf
  Hf10     1.0000 0.12491  0.75005  0.38155  Biso   1.000  Hf
  Hf11     1.0000 0.38154  0.75005  0.12491  Biso   1.000  Hf
  Hf12     1.0000 0.37684  0.50000  0.37685  Biso   1.000  Hf
  O17      1.0000 0.00741  0.66297  0.00741  Biso   1.000  O 
  O18      1.0000 0.99378  0.59482  0.25604  Biso   1.000  O 
  O19      1.0000 0.00741  0.83713  0.24241  Biso   1.000  O 
  O20      1.0000 0.99377  0.90529  0.99378  Biso   1.000  O 
  O21      1.0000 0.24241  0.66298  0.24242  Biso   1.000  O 
  O22      1.0000 0.25605  0.59483  0.99379  Biso   1.000  O 
  O23      1.0000 0.24240  0.83713  0.00741  Biso   1.000  O 
  O24      1.0000 0.25604  0.90529  0.25603  Biso   1.000  O 
  Hf13     1.0000 0.12491  0.50671  0.62491  Biso   1.000  Hf
  Hf14     1.0000 0.12491  0.75005  0.86827  Biso   1.000  Hf
  Hf15     1.0000 0.37731  0.75005  0.62491  Biso   1.000  Hf
  Hf16     1.0000 0.37725  0.49204  0.87257  Biso   1.000  Hf
  O25      1.0000 0.99893  0.64839  0.50492  Biso   1.000  O 
  O26      1.0000 0.00288  0.60330  0.75583  Biso   1.000  O 
  O27      1.0000 0.99893  0.85172  0.74490  Biso   1.000  O 
  O28      1.0000 0.00288  0.89681  0.49399  Biso   1.000  O 
  O29      1.0000 0.25089  0.64839  0.74490  Biso   1.000  O 
  O30      1.0000 0.24694  0.60330  0.49400  Biso   1.000  O 
  O31      1.0000 0.25089  0.85172  0.50492  Biso   1.000  O 
  O32      1.0000 0.24693  0.89681  0.75582  Biso   1.000  O 
  Hf17     1.0000 0.62491  0.99340  0.12491  Biso   1.000  Hf
  Hf18     1.0000 0.62491  0.25006  0.37475  Biso   1.000  Hf
  Hf19     1.0000 0.85869  0.25005  0.12491  Biso   1.000  Hf
  Hf20     1.0000 0.87297  0.00011  0.37684  Biso   1.000  Hf
  O33      1.0000 0.49873  0.14541  0.99599  Biso   1.000  O 
  O34      1.0000 0.50945  0.10135  0.24802  Biso   1.000  O 
  O35      1.0000 0.49874  0.35471  0.25383  Biso   1.000  O 
  O36      1.0000 0.50945  0.39876  0.00180  Biso   1.000  O 
  O37      1.0000 0.75108  0.14541  0.25383  Biso   1.000  O 
  O38      1.0000 0.74036  0.10135  0.00180  Biso   1.000  O 
  O39      1.0000 0.75108  0.35471  0.99599  Biso   1.000  O 
  O40      1.0000 0.74037  0.39876  0.24802  Biso   1.000  O 
  Hf21     1.0000 0.62491  0.00089  0.62491  Biso   1.000  Hf
  Hf22     1.0000 0.62491  0.25006  0.87507  Biso   1.000  Hf
  Hf23     1.0000 0.87507  0.25005  0.62491  Biso   1.000  Hf
  Hf24     1.0000 0.87256  0.00806  0.87257  Biso   1.000  Hf
  O41      1.0000 0.49938  0.15063  0.49937  Biso   1.000  O 
  O42      1.0000 0.50119  0.10107  0.74863  Biso   1.000  O 
  O43      1.0000 0.49938  0.34948  0.75044  Biso   1.000  O 
  O44      1.0000 0.50119  0.39904  0.50120  Biso   1.000  O 
  O45      1.0000 0.75044  0.15063  0.75044  Biso   1.000  O 
  O46      1.0000 0.74863  0.10107  0.50119  Biso   1.000  O 
  O47      1.0000 0.75044  0.34948  0.49938  Biso   1.000  O 
  O48      1.0000 0.74863  0.39904  0.74862  Biso   1.000  O 
  Hf25     1.0000 0.62491  0.50671  0.12491  Biso   1.000  Hf
  Hf26     1.0000 0.62491  0.75005  0.37732  Biso   1.000  Hf
  Hf27     1.0000 0.86827  0.75005  0.12491  Biso   1.000  Hf
  Hf28     1.0000 0.87257  0.49205  0.37725  Biso   1.000  Hf
  O49      1.0000 0.50492  0.64840  0.99893  Biso   1.000  O 
  O50      1.0000 0.49399  0.60330  0.24694  Biso   1.000  O 
  O51      1.0000 0.50492  0.85172  0.25089  Biso   1.000  O 
  O52      1.0000 0.49398  0.89681  0.00288  Biso   1.000  O 
  O53      1.0000 0.74490  0.64839  0.25089  Biso   1.000  O 
  O54      1.0000 0.75583  0.60330  0.00288  Biso   1.000  O 
  O55      1.0000 0.74489  0.85173  0.99893  Biso   1.000  O 
  O56      1.0000 0.75583  0.89681  0.24693  Biso   1.000  O 
  Hf29     1.0000 0.62491  0.49922  0.62491  Biso   1.000  Hf
  Hf30     1.0000 0.62491  0.75005  0.87250  Biso   1.000  Hf
  Hf31     1.0000 0.87250  0.75006  0.62491  Biso   1.000  Hf
  Hf32     1.0000 0.87297  0.49999  0.87297  Biso   1.000  Hf
  O57      1.0000 0.49706  0.64913  0.49706  Biso   1.000  O 
  O58      1.0000 0.50256  0.60084  0.74726  Biso   1.000  O 
  O59      1.0000 0.49706  0.85098  0.75275  Biso   1.000  O 
  O60      1.0000 0.50256  0.89927  0.50256  Biso   1.000  O 
  O61      1.0000 0.75275  0.64913  0.75275  Biso   1.000  O 
  O62      1.0000 0.74725  0.60083  0.50256  Biso   1.000  O 
  O63      1.0000 0.75275  0.85098  0.49707  Biso   1.000  O 
  O64      1.0000 0.74725  0.89927  0.74725  Biso   1.000  O 
  Hg1      1.0000 0.12491  0.25005  0.12491  Biso   1.000  Hg
