data_image0
_cell_length_a       10.0884
_cell_length_b       10.3781
_cell_length_c       5.27866
_cell_angle_alpha    90
_cell_angle_beta     90
_cell_angle_gamma    90

_symmetry_space_group_name_H-M    "P 1"
_symmetry_int_tables_number       1

loop_
  _symmetry_equiv_pos_as_xyz
  'x, y, z'

loop_
  _atom_site_label
  _atom_site_occupancy
  _atom_site_fract_x
  _atom_site_fract_y
  _atom_site_fract_z
  _atom_site_thermal_displace_type
  _atom_site_B_iso_or_equiv
  _atom_site_type_symbol
  Hf1      1.0000 0.13055  0.01772  0.35160  Biso   1.000  Hf
  Hf2      1.0000 0.12185  0.22583  0.86308  Biso   1.000  Hf
  Hf3      1.0000 0.33486  0.26328  0.38959  Biso   1.000  Hf
  Hf4      1.0000 0.34817  0.48574  0.85042  Biso   1.000  Hf
  Hf5      1.0000 0.64091  0.01436  0.15019  Biso   1.000  Hf
  Hf6      1.0000 0.64129  0.22232  0.63627  Biso   1.000  Hf
  Hf7      1.0000 0.85727  0.27106  0.14488  Biso   1.000  Hf
  Hf8      1.0000 0.85778  0.48038  0.65065  Biso   1.000  Hf
  O1       1.0000 0.03055  0.16611  0.17581  Biso   1.000  O 
  O2       1.0000 0.02423  0.08098  0.67170  Biso   1.000  O 
  O3       1.0000 0.46583  0.44647  0.18932  Biso   1.000  O 
  O4       1.0000 0.46196  0.33753  0.66085  Biso   1.000  O 
  O5       1.0000 0.26044  0.12178  0.61395  Biso   1.000  O 
  O6       1.0000 0.27069  0.11748  0.11136  Biso   1.000  O 
  O7       1.0000 0.20996  0.37600  0.61664  Biso   1.000  O 
  O8       1.0000 0.22380  0.37420  0.11413  Biso   1.000  O 
  O9       1.0000 0.51256  0.13687  0.38871  Biso   1.000  O 
  O10      1.0000 0.51848  0.06606  0.82963  Biso   1.000  O 
  O11      1.0000 0.96245  0.41469  0.33202  Biso   1.000  O 
  O12      1.0000 0.95559  0.33205  0.83199  Biso   1.000  O 
  O13      1.0000 0.77430  0.11880  0.88607  Biso   1.000  O 
  O14      1.0000 0.77522  0.12238  0.39396  Biso   1.000  O 
  O15      1.0000 0.72369  0.39210  0.89567  Biso   1.000  O 
  O16      1.0000 0.71831  0.37505  0.40130  Biso   1.000  O 
  Hf9      1.0000 0.13447  0.51955  0.34428  Biso   1.000  Hf
  Hf10     1.0000 0.12771  0.72851  0.84402  Biso   1.000  Hf
  Hf11     1.0000 0.35977  0.77037  0.34937  Biso   1.000  Hf
  Hf12     1.0000 0.35020  0.97210  0.85677  Biso   1.000  Hf
  Hf13     1.0000 0.64663  0.53559  0.15024  Biso   1.000  Hf
  Hf14     1.0000 0.63254  0.73211  0.65320  Biso   1.000  Hf
  Hf15     1.0000 0.86705  0.77100  0.15667  Biso   1.000  Hf
  Hf16     1.0000 0.85826  0.97648  0.65617  Biso   1.000  Hf
  O17      1.0000 0.03592  0.66414  0.16616  Biso   1.000  O 
  O18      1.0000 0.02757  0.58396  0.66751  Biso   1.000  O 
  O19      1.0000 0.47116  0.90990  0.17240  Biso   1.000  O 
  O20      1.0000 0.45796  0.82939  0.67371  Biso   1.000  O 
  O21      1.0000 0.26952  0.62352  0.58899  Biso   1.000  O 
  O22      1.0000 0.27675  0.62478  0.08940  Biso   1.000  O 
  O23      1.0000 0.21768  0.87177  0.59763  Biso   1.000  O 
  O24      1.0000 0.22641  0.87185  0.10044  Biso   1.000  O 
  O25      1.0000 0.53641  0.67500  0.32669  Biso   1.000  O 
  O26      1.0000 0.52258  0.58670  0.82412  Biso   1.000  O 
  O27      1.0000 0.96723  0.91444  0.33220  Biso   1.000  O 
  O28      1.0000 0.95791  0.83266  0.83544  Biso   1.000  O 
  O29      1.0000 0.76576  0.63152  0.90194  Biso   1.000  O 
  O30      1.0000 0.77729  0.62787  0.40587  Biso   1.000  O 
  O31      1.0000 0.71571  0.87477  0.91174  Biso   1.000  O 
  O32      1.0000 0.72542  0.87332  0.41099  Biso   1.000  O 
  In1      1.0000 0.54318  0.26619  0.06936  Biso   1.000  In
