data_image0
_cell_length_a       5.10404
_cell_length_b       10.3929
_cell_length_c       10.1246
_cell_angle_alpha    90
_cell_angle_beta     90
_cell_angle_gamma    90

_symmetry_space_group_name_H-M    "P 1"
_symmetry_int_tables_number       1

loop_
  _symmetry_equiv_pos_as_xyz
  'x, y, z'

loop_
  _atom_site_label
  _atom_site_occupancy
  _atom_site_fract_x
  _atom_site_fract_y
  _atom_site_fract_z
  _atom_site_thermal_displace_type
  _atom_site_B_iso_or_equiv
  _atom_site_type_symbol
  Hf1      1.0000 0.22909  0.98438  0.12448  Biso   1.000  Hf
  Hf2      1.0000 0.12639  0.24694  0.38151  Biso   1.000  Hf
  Hf3      1.0000 0.72938  0.20004  0.12447  Biso   1.000  Hf
  Hf4      1.0000 0.64918  0.00852  0.38768  Biso   1.000  Hf
  O1       1.0000 0.85895  0.13417  0.98178  Biso   1.000  O 
  O2       1.0000 0.94760  0.08037  0.25825  Biso   1.000  O 
  O3       1.0000 0.78875  0.33417  0.27379  Biso   1.000  O 
  O4       1.0000 0.98510  0.44052  0.97436  Biso   1.000  O 
  O5       1.0000 0.43656  0.13441  0.26375  Biso   1.000  O 
  O6       1.0000 0.34807  0.07990  0.98724  Biso   1.000  O 
  O7       1.0000 0.50639  0.33366  0.97164  Biso   1.000  O 
  O8       1.0000 0.30970  0.44078  0.27128  Biso   1.000  O 
  Hf5      1.0000 0.14748  0.99495  0.62257  Biso   1.000  Hf
  Hf6      1.0000 0.16888  0.24640  0.86378  Biso   1.000  Hf
  Hf7      1.0000 0.64747  0.25783  0.62259  Biso   1.000  Hf
  Hf8      1.0000 0.64668  0.00826  0.85781  Biso   1.000  Hf
  O9       1.0000 0.87327  0.14490  0.49923  Biso   1.000  O 
  O10      1.0000 0.92559  0.10272  0.74343  Biso   1.000  O 
  O11      1.0000 0.89861  0.34959  0.74742  Biso   1.000  O 
  O12      1.0000 0.89909  0.39360  0.50136  Biso   1.000  O 
  O13      1.0000 0.42288  0.14472  0.74634  Biso   1.000  O 
  O14      1.0000 0.37078  0.10318  0.50224  Biso   1.000  O 
  O15      1.0000 0.39690  0.35000  0.49795  Biso   1.000  O 
  O16      1.0000 0.39614  0.39339  0.74412  Biso   1.000  O 
  Hf9      1.0000 0.22923  0.57840  0.12457  Biso   1.000  Hf
  Hf10     1.0000 0.16048  0.74108  0.39368  Biso   1.000  Hf
  Hf11     1.0000 0.72920  0.76245  0.12454  Biso   1.000  Hf
  Hf12     1.0000 0.65092  0.49751  0.36685  Biso   1.000  Hf
  O17      1.0000 0.84274  0.66902  0.98242  Biso   1.000  O 
  O18      1.0000 0.90821  0.60301  0.24255  Biso   1.000  O 
  O19      1.0000 0.05256  0.83240  0.23176  Biso   1.000  O 
  O20      1.0000 0.91283  0.90724  0.01685  Biso   1.000  O 
  O21      1.0000 0.45231  0.66936  0.26339  Biso   1.000  O 
  O22      1.0000 0.55085  0.60253  0.00721  Biso   1.000  O 
  O23      1.0000 0.40594  0.83217  0.01716  Biso   1.000  O 
  O24      1.0000 0.54570  0.90736  0.23185  Biso   1.000  O 
  Hf13     1.0000 0.14722  0.48948  0.62303  Biso   1.000  Hf
  Hf14     1.0000 0.13301  0.74115  0.85183  Biso   1.000  Hf
  Hf15     1.0000 0.64649  0.73842  0.62287  Biso   1.000  Hf
  Hf16     1.0000 0.64370  0.49719  0.87901  Biso   1.000  Hf
  O25      1.0000 0.88155  0.63996  0.49382  Biso   1.000  O 
  O26      1.0000 0.90438  0.60063  0.74054  Biso   1.000  O 
  O27      1.0000 0.86742  0.85372  0.74948  Biso   1.000  O 
  O28      1.0000 0.92681  0.88882  0.49354  Biso   1.000  O 
  O29      1.0000 0.41196  0.63974  0.75209  Biso   1.000  O 
  O30      1.0000 0.38923  0.60087  0.50523  Biso   1.000  O 
  O31      1.0000 0.42679  0.85393  0.49590  Biso   1.000  O 
  O32      1.0000 0.36766  0.88858  0.75174  Biso   1.000  O 
  In1      1.0000 0.22948  0.30151  0.12435  Biso   1.000  In
