data_image0
_cell_length_a       5.12591
_cell_length_b       10.3579
_cell_length_c       10.5701
_cell_angle_alpha    90
_cell_angle_beta     80
_cell_angle_gamma    90

_symmetry_space_group_name_H-M    "P 1"
_symmetry_int_tables_number       1

loop_
  _symmetry_equiv_pos_as_xyz
  'x, y, z'

loop_
  _atom_site_label
  _atom_site_occupancy
  _atom_site_fract_x
  _atom_site_fract_y
  _atom_site_fract_z
  _atom_site_thermal_displace_type
  _atom_site_B_iso_or_equiv
  _atom_site_type_symbol
  Hf1      1.0000 0.27152  0.01484  0.14492  Biso   1.000  Hf
  Hf2      1.0000 0.36403  0.23929  0.40373  Biso   1.000  Hf
  Hf3      1.0000 0.69339  0.27471  0.09879  Biso   1.000  Hf
  Hf4      1.0000 0.73878  0.48620  0.34933  Biso   1.000  Hf
  O1       1.0000 0.05050  0.16331  0.07883  Biso   1.000  O 
  O2       1.0000 0.08065  0.05426  0.33572  Biso   1.000  O 
  O3       1.0000 0.92245  0.43431  0.15708  Biso   1.000  O 
  O4       1.0000 0.00722  0.36954  0.45108  Biso   1.000  O 
  O5       1.0000 0.53896  0.11860  0.23706  Biso   1.000  O 
  O6       1.0000 0.60707  0.11339  0.49289  Biso   1.000  O 
  O7       1.0000 0.42921  0.38128  0.00803  Biso   1.000  O 
  O8       1.0000 0.43605  0.38169  0.25496  Biso   1.000  O 
  Hf5      1.0000 0.30975  0.02305  0.64371  Biso   1.000  Hf
  Hf6      1.0000 0.30806  0.23086  0.89187  Biso   1.000  Hf
  Hf7      1.0000 0.77683  0.27838  0.60973  Biso   1.000  Hf
  Hf8      1.0000 0.75922  0.48192  0.85483  Biso   1.000  Hf
  O9       1.0000 0.11949  0.17005  0.57316  Biso   1.000  O 
  O10      1.0000 0.09876  0.08802  0.82257  Biso   1.000  O 
  O11      1.0000 0.98094  0.41198  0.68714  Biso   1.000  O 
  O12      1.0000 0.96259  0.33512  0.92171  Biso   1.000  O 
  O13      1.0000 0.58286  0.13149  0.73888  Biso   1.000  O 
  O14      1.0000 0.58012  0.12629  0.98537  Biso   1.000  O 
  O15      1.0000 0.50357  0.38161  0.51434  Biso   1.000  O 
  O16      1.0000 0.49111  0.37433  0.75963  Biso   1.000  O 
  Hf9      1.0000 0.27551  0.52655  0.14335  Biso   1.000  Hf
  Hf10     1.0000 0.29023  0.72501  0.39600  Biso   1.000  Hf
  Hf11     1.0000 0.72136  0.77106  0.10206  Biso   1.000  Hf
  Hf12     1.0000 0.72660  0.96349  0.35468  Biso   1.000  Hf
  O17      1.0000 0.07057  0.67445  0.07627  Biso   1.000  O 
  O18      1.0000 0.07519  0.59079  0.32113  Biso   1.000  O 
  O19      1.0000 0.92894  0.91325  0.17101  Biso   1.000  O 
  O20      1.0000 0.94000  0.82389  0.42239  Biso   1.000  O 
  O21      1.0000 0.55990  0.62998  0.24101  Biso   1.000  O 
  O22      1.0000 0.56644  0.62197  0.48905  Biso   1.000  O 
  O23      1.0000 0.44848  0.87975  0.00855  Biso   1.000  O 
  O24      1.0000 0.44933  0.86532  0.25776  Biso   1.000  O 
  Hf13     1.0000 0.31007  0.52428  0.64702  Biso   1.000  Hf
  Hf14     1.0000 0.31400  0.73269  0.89250  Biso   1.000  Hf
  Hf15     1.0000 0.75214  0.77244  0.60412  Biso   1.000  Hf
  Hf16     1.0000 0.76205  0.98208  0.84909  Biso   1.000  Hf
  O25      1.0000 0.08694  0.66201  0.57801  Biso   1.000  O 
  O26      1.0000 0.10381  0.58893  0.82705  Biso   1.000  O 
  O27      1.0000 0.96600  0.91825  0.66847  Biso   1.000  O 
  O28      1.0000 0.97388  0.83888  0.91650  Biso   1.000  O 
  O29      1.0000 0.58454  0.62956  0.73802  Biso   1.000  O 
  O30      1.0000 0.59356  0.62636  0.98685  Biso   1.000  O 
  O31      1.0000 0.46293  0.87459  0.51023  Biso   1.000  O 
  O32      1.0000 0.48648  0.87448  0.75740  Biso   1.000  O 
  In1      1.0000 0.93295  0.23683  0.29859  Biso   1.000  In
