data_image0
_cell_length_a       10.2396
_cell_length_b       5.17911
_cell_length_c       10.5937
_cell_angle_alpha    90
_cell_angle_beta     80
_cell_angle_gamma    90

_symmetry_space_group_name_H-M    "P 1"
_symmetry_int_tables_number       1

loop_
  _symmetry_equiv_pos_as_xyz
  'x, y, z'

loop_
  _atom_site_label
  _atom_site_occupancy
  _atom_site_fract_x
  _atom_site_fract_y
  _atom_site_fract_z
  _atom_site_thermal_displace_type
  _atom_site_B_iso_or_equiv
  _atom_site_type_symbol
  Hf1      1.0000 0.13297  0.04588  0.14068  Biso   1.000  Hf
  Hf2      1.0000 0.14961  0.45409  0.39030  Biso   1.000  Hf
  Hf3      1.0000 0.34713  0.55344  0.09212  Biso   1.000  Hf
  Hf4      1.0000 0.35747  0.93440  0.34615  Biso   1.000  Hf
  O1       1.0000 0.02943  0.33923  0.07501  Biso   1.000  O 
  O2       1.0000 0.03704  0.17291  0.32518  Biso   1.000  O 
  O3       1.0000 0.45825  0.87065  0.15203  Biso   1.000  O 
  O4       1.0000 0.49396  0.69950  0.45078  Biso   1.000  O 
  O5       1.0000 0.26900  0.23435  0.23209  Biso   1.000  O 
  O6       1.0000 0.29095  0.23349  0.48390  Biso   1.000  O 
  O7       1.0000 0.21518  0.76901  0.00156  Biso   1.000  O 
  O8       1.0000 0.20830  0.74380  0.24832  Biso   1.000  O 
  Hf5      1.0000 0.15654  0.04108  0.64095  Biso   1.000  Hf
  Hf6      1.0000 0.15353  0.45587  0.88885  Biso   1.000  Hf
  Hf7      1.0000 0.37908  0.54537  0.60781  Biso   1.000  Hf
  Hf8      1.0000 0.37950  0.95857  0.85034  Biso   1.000  Hf
  O9       1.0000 0.05186  0.32907  0.57467  Biso   1.000  O 
  O10      1.0000 0.05154  0.16724  0.82206  Biso   1.000  O 
  O11      1.0000 0.48638  0.82232  0.68104  Biso   1.000  O 
  O12      1.0000 0.48402  0.66406  0.91634  Biso   1.000  O 
  O13      1.0000 0.29237  0.25056  0.73552  Biso   1.000  O 
  O14      1.0000 0.29248  0.25096  0.98136  Biso   1.000  O 
  O15      1.0000 0.23700  0.74564  0.50671  Biso   1.000  O 
  O16      1.0000 0.24212  0.74095  0.75419  Biso   1.000  O 
  Hf9      1.0000 0.64000  0.03556  0.14664  Biso   1.000  Hf
  Hf10     1.0000 0.66993  0.46411  0.41226  Biso   1.000  Hf
  Hf11     1.0000 0.85787  0.54319  0.10876  Biso   1.000  Hf
  Hf12     1.0000 0.87187  0.95659  0.35524  Biso   1.000  Hf
  O17      1.0000 0.53030  0.34075  0.07915  Biso   1.000  O 
  O18      1.0000 0.54172  0.11614  0.33398  Biso   1.000  O 
  O19      1.0000 0.96282  0.83652  0.17069  Biso   1.000  O 
  O20      1.0000 0.97618  0.66431  0.42287  Biso   1.000  O 
  O21      1.0000 0.78046  0.25907  0.24715  Biso   1.000  O 
  O22      1.0000 0.79635  0.23316  0.49848  Biso   1.000  O 
  O23      1.0000 0.71994  0.75371  0.01565  Biso   1.000  O 
  O24      1.0000 0.73178  0.74641  0.26590  Biso   1.000  O 
  Hf13     1.0000 0.65553  0.04089  0.65122  Biso   1.000  Hf
  Hf14     1.0000 0.65750  0.45622  0.89633  Biso   1.000  Hf
  Hf15     1.0000 0.88278  0.54155  0.60755  Biso   1.000  Hf
  Hf16     1.0000 0.88059  0.95536  0.85377  Biso   1.000  Hf
  O25      1.0000 0.55026  0.32025  0.57937  Biso   1.000  O 
  O26      1.0000 0.55182  0.16889  0.82879  Biso   1.000  O 
  O27      1.0000 0.98482  0.83061  0.67233  Biso   1.000  O 
  O28      1.0000 0.98287  0.66579  0.91936  Biso   1.000  O 
  O29      1.0000 0.79297  0.25762  0.74304  Biso   1.000  O 
  O30      1.0000 0.79490  0.23688  0.99103  Biso   1.000  O 
  O31      1.0000 0.74330  0.75424  0.51750  Biso   1.000  O 
  O32      1.0000 0.74439  0.74280  0.76332  Biso   1.000  O 
  In1      1.0000 0.46094  0.46321  0.29039  Biso   1.000  In
