data_image0
_cell_length_a       10.0367
_cell_length_b       10.4919
_cell_length_c       5.10672
_cell_angle_alpha    90
_cell_angle_beta     90
_cell_angle_gamma    90

_symmetry_space_group_name_H-M    "P 1"
_symmetry_int_tables_number       1

loop_
  _symmetry_equiv_pos_as_xyz
  'x, y, z'

loop_
  _atom_site_label
  _atom_site_occupancy
  _atom_site_fract_x
  _atom_site_fract_y
  _atom_site_fract_z
  _atom_site_thermal_displace_type
  _atom_site_B_iso_or_equiv
  _atom_site_type_symbol
  Hf1      1.0000 0.14051  0.00884  0.29502  Biso   1.000  Hf
  Hf2      1.0000 0.13947  0.20541  0.86677  Biso   1.000  Hf
  Hf3      1.0000 0.37957  0.26954  0.24214  Biso   1.000  Hf
  Hf4      1.0000 0.38520  0.48213  0.73742  Biso   1.000  Hf
  O1       1.0000 0.06924  0.05274  0.65608  Biso   1.000  O 
  O2       1.0000 0.98851  0.09652  0.07617  Biso   1.000  O 
  O3       1.0000 0.48849  0.42784  0.39112  Biso   1.000  O 
  O4       1.0000 0.48009  0.31277  0.87614  Biso   1.000  O 
  O5       1.0000 0.29215  0.13299  0.52945  Biso   1.000  O 
  O6       1.0000 0.28154  0.11380  0.03858  Biso   1.000  O 
  O7       1.0000 0.25203  0.37876  0.97908  Biso   1.000  O 
  O8       1.0000 0.25378  0.39036  0.46514  Biso   1.000  O 
  Hf5      1.0000 0.15364  0.53710  0.22912  Biso   1.000  Hf
  Hf6      1.0000 0.15533  0.73375  0.74250  Biso   1.000  Hf
  Hf7      1.0000 0.38444  0.76928  0.23989  Biso   1.000  Hf
  Hf8      1.0000 0.38558  0.98110  0.75177  Biso   1.000  Hf
  O9       1.0000 0.05430  0.68809  0.38047  Biso   1.000  O 
  O10      1.0000 0.05599  0.56860  0.87499  Biso   1.000  O 
  O11      1.0000 0.48126  0.93360  0.37653  Biso   1.000  O 
  O12      1.0000 0.48950  0.81544  0.88236  Biso   1.000  O 
  O13      1.0000 0.29261  0.62446  0.48483  Biso   1.000  O 
  O14      1.0000 0.29604  0.63210  0.98020  Biso   1.000  O 
  O15      1.0000 0.23494  0.88028  0.00567  Biso   1.000  O 
  O16      1.0000 0.25587  0.86524  0.50410  Biso   1.000  O 
  Hf9      1.0000 0.63496  0.00983  0.22108  Biso   1.000  Hf
  Hf10     1.0000 0.63881  0.23034  0.70598  Biso   1.000  Hf
  Hf11     1.0000 0.84319  0.25310  0.17945  Biso   1.000  Hf
  Hf12     1.0000 0.88462  0.48474  0.72968  Biso   1.000  Hf
  O17      1.0000 0.54986  0.18352  0.35280  Biso   1.000  O 
  O18      1.0000 0.54546  0.06220  0.86216  Biso   1.000  O 
  O19      1.0000 0.98031  0.45364  0.37034  Biso   1.000  O 
  O20      1.0000 0.97723  0.32180  0.87833  Biso   1.000  O 
  O21      1.0000 0.77988  0.10820  0.45033  Biso   1.000  O 
  O22      1.0000 0.76811  0.12623  0.93863  Biso   1.000  O 
  O23      1.0000 0.74046  0.37662  0.96722  Biso   1.000  O 
  O24      1.0000 0.74821  0.36387  0.47119  Biso   1.000  O 
  Hf13     1.0000 0.64632  0.51805  0.23431  Biso   1.000  Hf
  Hf14     1.0000 0.65464  0.73016  0.73670  Biso   1.000  Hf
  Hf15     1.0000 0.87777  0.76328  0.23079  Biso   1.000  Hf
  Hf16     1.0000 0.89472  0.97657  0.71930  Biso   1.000  Hf
  O25      1.0000 0.55150  0.68266  0.37957  Biso   1.000  O 
  O26      1.0000 0.55408  0.56445  0.88398  Biso   1.000  O 
  O27      1.0000 0.97797  0.91140  0.37070  Biso   1.000  O 
  O28      1.0000 0.98718  0.81561  0.87431  Biso   1.000  O 
  O29      1.0000 0.78443  0.61464  0.47898  Biso   1.000  O 
  O30      1.0000 0.79178  0.62535  0.97504  Biso   1.000  O 
  O31      1.0000 0.75518  0.87346  0.98413  Biso   1.000  O 
  O32      1.0000 0.74581  0.86351  0.48644  Biso   1.000  O 
  In1      1.0000 0.08530  0.28101  0.39503  Biso   1.000  In
