data_image0
_cell_length_a       10.1699
_cell_length_b       5.13198
_cell_length_c       10.4621
_cell_angle_alpha    90
_cell_angle_beta     80
_cell_angle_gamma    90

_symmetry_space_group_name_H-M    "P 1"
_symmetry_int_tables_number       1

loop_
  _symmetry_equiv_pos_as_xyz
  'x, y, z'

loop_
  _atom_site_label
  _atom_site_occupancy
  _atom_site_fract_x
  _atom_site_fract_y
  _atom_site_fract_z
  _atom_site_thermal_displace_type
  _atom_site_B_iso_or_equiv
  _atom_site_type_symbol
  In1      1.0000 0.13601  0.03241  0.14654  Biso   1.000  In
  Hf1      1.0000 0.13791  0.45518  0.39518  Biso   1.000  Hf
  Hf2      1.0000 0.35869  0.53734  0.10402  Biso   1.000  Hf
  Hf3      1.0000 0.35734  0.95738  0.35290  Biso   1.000  Hf
  O1       1.0000 0.03543  0.34741  0.07763  Biso   1.000  O 
  O2       1.0000 0.02767  0.16749  0.33800  Biso   1.000  O 
  O3       1.0000 0.46533  0.83134  0.17075  Biso   1.000  O 
  O4       1.0000 0.46219  0.66447  0.42165  Biso   1.000  O 
  O5       1.0000 0.27817  0.25526  0.24270  Biso   1.000  O 
  O6       1.0000 0.27310  0.24210  0.49136  Biso   1.000  O 
  O7       1.0000 0.22866  0.75541  0.00531  Biso   1.000  O 
  O8       1.0000 0.22520  0.73202  0.26071  Biso   1.000  O 
  Hf4      1.0000 0.13640  0.04250  0.64628  Biso   1.000  Hf
  Hf5      1.0000 0.13629  0.45886  0.89722  Biso   1.000  Hf
  Hf6      1.0000 0.35698  0.54332  0.60445  Biso   1.000  Hf
  Hf7      1.0000 0.35666  0.95902  0.85533  Biso   1.000  Hf
  O9       1.0000 0.03202  0.33909  0.58244  Biso   1.000  O 
  O10      1.0000 0.03072  0.16370  0.83026  Biso   1.000  O 
  O11      1.0000 0.46247  0.83416  0.67117  Biso   1.000  O 
  O12      1.0000 0.46382  0.66891  0.92143  Biso   1.000  O 
  O13      1.0000 0.27208  0.25779  0.73967  Biso   1.000  O 
  O14      1.0000 0.27761  0.25084  0.98471  Biso   1.000  O 
  O15      1.0000 0.22067  0.75819  0.51002  Biso   1.000  O 
  O16      1.0000 0.22042  0.74402  0.75884  Biso   1.000  O 
  Hf8      1.0000 0.63815  0.03923  0.14608  Biso   1.000  Hf
  Hf9      1.0000 0.63530  0.45729  0.39625  Biso   1.000  Hf
  Hf10     1.0000 0.86047  0.53901  0.10409  Biso   1.000  Hf
  Hf11     1.0000 0.85638  0.95788  0.35541  Biso   1.000  Hf
  O17      1.0000 0.53525  0.33353  0.07887  Biso   1.000  O 
  O18      1.0000 0.53227  0.16370  0.32963  Biso   1.000  O 
  O19      1.0000 0.95363  0.83726  0.17234  Biso   1.000  O 
  O20      1.0000 0.96281  0.66555  0.42118  Biso   1.000  O 
  O21      1.0000 0.77304  0.25761  0.24155  Biso   1.000  O 
  O22      1.0000 0.77164  0.24413  0.49208  Biso   1.000  O 
  O23      1.0000 0.72420  0.75648  0.00906  Biso   1.000  O 
  O24      1.0000 0.71814  0.74097  0.26132  Biso   1.000  O 
  Hf12     1.0000 0.63564  0.04296  0.64673  Biso   1.000  Hf
  Hf13     1.0000 0.63483  0.45823  0.89709  Biso   1.000  Hf
  Hf14     1.0000 0.85748  0.54249  0.60462  Biso   1.000  Hf
  Hf15     1.0000 0.85652  0.95777  0.85520  Biso   1.000  Hf
  O25      1.0000 0.53042  0.33419  0.58019  Biso   1.000  O 
  O26      1.0000 0.53174  0.16573  0.82922  Biso   1.000  O 
  O27      1.0000 0.96143  0.83746  0.67018  Biso   1.000  O 
  O28      1.0000 0.96015  0.66431  0.91977  Biso   1.000  O 
  O29      1.0000 0.77286  0.25818  0.74097  Biso   1.000  O 
  O30      1.0000 0.77043  0.23956  0.99098  Biso   1.000  O 
  O31      1.0000 0.72052  0.75763  0.51053  Biso   1.000  O 
  O32      1.0000 0.72078  0.74276  0.75978  Biso   1.000  O 
