data_image0
_cell_length_a       5.05294
_cell_length_b       10.4129
_cell_length_c       10.1392
_cell_angle_alpha    90
_cell_angle_beta     90
_cell_angle_gamma    90

_symmetry_space_group_name_H-M    "P 1"
_symmetry_int_tables_number       1

loop_
  _symmetry_equiv_pos_as_xyz
  'x, y, z'

loop_
  _atom_site_label
  _atom_site_occupancy
  _atom_site_fract_x
  _atom_site_fract_y
  _atom_site_fract_z
  _atom_site_thermal_displace_type
  _atom_site_B_iso_or_equiv
  _atom_site_type_symbol
  Hf1      1.0000 0.22812  0.98725  0.10095  Biso   1.000  Hf
  Hf2      1.0000 0.20790  0.23391  0.40885  Biso   1.000  Hf
  Hf3      1.0000 0.56640  0.25320  0.15085  Biso   1.000  Hf
  Hf4      1.0000 0.69528  0.48879  0.38004  Biso   1.000  Hf
  O1       1.0000 0.85572  0.18659  0.28239  Biso   1.000  O 
  O2       1.0000 0.04491  0.06311  0.46385  Biso   1.000  O 
  O3       1.0000 0.88243  0.43808  0.19265  Biso   1.000  O 
  O4       1.0000 0.91326  0.34295  0.47191  Biso   1.000  O 
  O5       1.0000 0.39127  0.10363  0.25958  Biso   1.000  O 
  O6       1.0000 0.52420  0.14450  0.50545  Biso   1.000  O 
  O7       1.0000 0.43560  0.39026  0.50720  Biso   1.000  O 
  O8       1.0000 0.37219  0.38062  0.26929  Biso   1.000  O 
  Hf5      1.0000 0.25965  0.01790  0.62647  Biso   1.000  Hf
  Hf6      1.0000 0.23800  0.23865  0.85712  Biso   1.000  Hf
  Hf7      1.0000 0.71323  0.28393  0.64052  Biso   1.000  Hf
  Hf8      1.0000 0.66770  0.49437  0.87148  Biso   1.000  Hf
  O9       1.0000 0.07148  0.19342  0.67298  Biso   1.000  O 
  O10      1.0000 0.04952  0.06731  0.91990  Biso   1.000  O 
  O11      1.0000 0.86404  0.46508  0.68532  Biso   1.000  O 
  O12      1.0000 0.86547  0.31749  0.86754  Biso   1.000  O 
  O13      1.0000 0.52077  0.12549  0.75265  Biso   1.000  O 
  O14      1.0000 0.56773  0.11449  0.00532  Biso   1.000  O 
  O15      1.0000 0.46392  0.38237  0.00059  Biso   1.000  O 
  O16      1.0000 0.40180  0.38266  0.74783  Biso   1.000  O 
  Hf9      1.0000 0.23891  0.52874  0.13102  Biso   1.000  Hf
  Hf10     1.0000 0.22626  0.74607  0.37680  Biso   1.000  Hf
  Hf11     1.0000 0.70654  0.76428  0.12757  Biso   1.000  Hf
  Hf12     1.0000 0.72234  0.00557  0.36369  Biso   1.000  Hf
  O17      1.0000 0.04798  0.68954  0.19536  Biso   1.000  O 
  O18      1.0000 0.02715  0.58133  0.44012  Biso   1.000  O 
  O19      1.0000 0.88152  0.94494  0.18785  Biso   1.000  O 
  O20      1.0000 0.88028  0.82692  0.43755  Biso   1.000  O 
  O21      1.0000 0.51386  0.62296  0.25101  Biso   1.000  O 
  O22      1.0000 0.49147  0.64157  0.49765  Biso   1.000  O 
  O23      1.0000 0.41456  0.89430  0.49365  Biso   1.000  O 
  O24      1.0000 0.42835  0.86519  0.24081  Biso   1.000  O 
  Hf13     1.0000 0.21562  0.52464  0.61868  Biso   1.000  Hf
  Hf14     1.0000 0.20206  0.73895  0.86898  Biso   1.000  Hf
  Hf15     1.0000 0.68741  0.77667  0.61651  Biso   1.000  Hf
  Hf16     1.0000 0.66524  0.98661  0.87048  Biso   1.000  Hf
  O25      1.0000 0.02006  0.69670  0.69071  Biso   1.000  O 
  O26      1.0000 0.99741  0.57638  0.94742  Biso   1.000  O 
  O27      1.0000 0.87634  0.93839  0.69788  Biso   1.000  O 
  O28      1.0000 0.88502  0.83037  0.95882  Biso   1.000  O 
  O29      1.0000 0.47872  0.62656  0.74922  Biso   1.000  O 
  O30      1.0000 0.52398  0.63026  0.00138  Biso   1.000  O 
  O31      1.0000 0.39941  0.88141  0.98973  Biso   1.000  O 
  O32      1.0000 0.41139  0.87170  0.74508  Biso   1.000  O 
  In1      1.0000 0.04666  0.25236  0.09460  Biso   1.000  In
