data_image0
_cell_length_a       10.0888
_cell_length_b       5.1685
_cell_length_c       10.5916
_cell_angle_alpha    90
_cell_angle_beta     90
_cell_angle_gamma    90

_symmetry_space_group_name_H-M    "P 1"
_symmetry_int_tables_number       1

loop_
  _symmetry_equiv_pos_as_xyz
  'x, y, z'

loop_
  _atom_site_label
  _atom_site_occupancy
  _atom_site_fract_x
  _atom_site_fract_y
  _atom_site_fract_z
  _atom_site_thermal_displace_type
  _atom_site_B_iso_or_equiv
  _atom_site_type_symbol
  Hf1      1.0000 0.12482  0.03894  0.17382  Biso   1.000  Hf
  Hf2      1.0000 0.11620  0.45779  0.42745  Biso   1.000  Hf
  Hf3      1.0000 0.33291  0.53603  0.19340  Biso   1.000  Hf
  Hf4      1.0000 0.34316  0.96187  0.43006  Biso   1.000  Hf
  Hf5      1.0000 0.65086  0.05811  0.06845  Biso   1.000  Hf
  Hf6      1.0000 0.62258  0.46211  0.33372  Biso   1.000  Hf
  Hf7      1.0000 0.85671  0.54132  0.07583  Biso   1.000  Hf
  Hf8      1.0000 0.84444  0.96188  0.32786  Biso   1.000  Hf
  O1       1.0000 0.03004  0.33591  0.08654  Biso   1.000  O 
  O2       1.0000 0.01443  0.17344  0.33478  Biso   1.000  O 
  O3       1.0000 0.46651  0.88096  0.09051  Biso   1.000  O 
  O4       1.0000 0.45057  0.68530  0.33720  Biso   1.000  O 
  O5       1.0000 0.25326  0.24972  0.30283  Biso   1.000  O 
  O6       1.0000 0.26679  0.23520  0.05040  Biso   1.000  O 
  O7       1.0000 0.20247  0.75418  0.30632  Biso   1.000  O 
  O8       1.0000 0.21929  0.74918  0.05646  Biso   1.000  O 
  O9       1.0000 0.50615  0.30648  0.19869  Biso   1.000  O 
  O10      1.0000 0.51139  0.18382  0.42780  Biso   1.000  O 
  O11      1.0000 0.95290  0.83483  0.16798  Biso   1.000  O 
  O12      1.0000 0.94822  0.67395  0.41800  Biso   1.000  O 
  O13      1.0000 0.75735  0.25360  0.45196  Biso   1.000  O 
  O14      1.0000 0.76700  0.26101  0.20380  Biso   1.000  O 
  O15      1.0000 0.70641  0.75778  0.45582  Biso   1.000  O 
  O16      1.0000 0.71071  0.75485  0.20486  Biso   1.000  O 
  Hf9      1.0000 0.11832  0.04742  0.67460  Biso   1.000  Hf
  Hf10     1.0000 0.10747  0.47068  0.92648  Biso   1.000  Hf
  Hf11     1.0000 0.33963  0.54621  0.67507  Biso   1.000  Hf
  Hf12     1.0000 0.32647  0.97753  0.92318  Biso   1.000  Hf
  Hf13     1.0000 0.61942  0.04570  0.57695  Biso   1.000  Hf
  Hf14     1.0000 0.62387  0.45545  0.81300  Biso   1.000  Hf
  Hf15     1.0000 0.84308  0.54946  0.57675  Biso   1.000  Hf
  Hf16     1.0000 0.84191  0.96644  0.82573  Biso   1.000  Hf
  O17      1.0000 0.01170  0.33225  0.58461  Biso   1.000  O 
  O18      1.0000 0.01265  0.17674  0.83345  Biso   1.000  O 
  O19      1.0000 0.44830  0.83132  0.58582  Biso   1.000  O 
  O20      1.0000 0.44448  0.67196  0.83044  Biso   1.000  O 
  O21      1.0000 0.25203  0.26173  0.79814  Biso   1.000  O 
  O22      1.0000 0.25466  0.25378  0.54970  Biso   1.000  O 
  O23      1.0000 0.20023  0.75786  0.80104  Biso   1.000  O 
  O24      1.0000 0.20491  0.75386  0.55162  Biso   1.000  O 
  O25      1.0000 0.51219  0.33728  0.66286  Biso   1.000  O 
  O26      1.0000 0.50937  0.13644  0.89299  Biso   1.000  O 
  O27      1.0000 0.94953  0.83201  0.66620  Biso   1.000  O 
  O28      1.0000 0.93932  0.67857  0.91780  Biso   1.000  O 
  O29      1.0000 0.76049  0.26024  0.94119  Biso   1.000  O 
  O30      1.0000 0.75851  0.25014  0.69597  Biso   1.000  O 
  O31      1.0000 0.70588  0.78940  0.95020  Biso   1.000  O 
  O32      1.0000 0.70695  0.75119  0.70206  Biso   1.000  O 
  In1      1.0000 0.53865  0.52557  0.02821  Biso   1.000  In
