data_image0
_cell_length_a       9.99618
_cell_length_b       10.417
_cell_length_c       10.0861
_cell_angle_alpha    90
_cell_angle_beta     90
_cell_angle_gamma    90

_symmetry_space_group_name_H-M    "P 1"
_symmetry_int_tables_number       1

loop_
  _symmetry_equiv_pos_as_xyz
  'x, y, z'

loop_
  _atom_site_label
  _atom_site_occupancy
  _atom_site_fract_x
  _atom_site_fract_y
  _atom_site_fract_z
  _atom_site_thermal_displace_type
  _atom_site_B_iso_or_equiv
  _atom_site_type_symbol
  Hf1      1.0000 0.14495  0.00323  0.11065  Biso   1.000  Hf
  Hf2      1.0000 0.12234  0.23286  0.40153  Biso   1.000  Hf
  Hf3      1.0000 0.36369  0.26535  0.12052  Biso   1.000  Hf
  Hf4      1.0000 0.35952  0.48731  0.37448  Biso   1.000  Hf
  O1       1.0000 0.96473  0.18409  0.27119  Biso   1.000  O 
  O2       1.0000 0.04206  0.05768  0.45536  Biso   1.000  O 
  O3       1.0000 0.44935  0.43708  0.19270  Biso   1.000  O 
  O4       1.0000 0.45509  0.32109  0.44597  Biso   1.000  O 
  O5       1.0000 0.24953  0.11555  0.25125  Biso   1.000  O 
  O6       1.0000 0.27349  0.13384  0.50206  Biso   1.000  O 
  O7       1.0000 0.22620  0.38840  0.49953  Biso   1.000  O 
  O8       1.0000 0.20692  0.36294  0.24797  Biso   1.000  O 
  Hf5      1.0000 0.13615  0.01261  0.62860  Biso   1.000  Hf
  Hf6      1.0000 0.12758  0.23223  0.85463  Biso   1.000  Hf
  Hf7      1.0000 0.36330  0.27217  0.62687  Biso   1.000  Hf
  Hf8      1.0000 0.35547  0.49124  0.87297  Biso   1.000  Hf
  O9       1.0000 0.04548  0.18716  0.66925  Biso   1.000  O 
  O10      1.0000 0.04132  0.05921  0.92372  Biso   1.000  O 
  O11      1.0000 0.45412  0.44053  0.69451  Biso   1.000  O 
  O12      1.0000 0.45726  0.32245  0.94317  Biso   1.000  O 
  O13      1.0000 0.27103  0.12091  0.74748  Biso   1.000  O 
  O14      1.0000 0.28112  0.12758  0.99387  Biso   1.000  O 
  O15      1.0000 0.22283  0.39627  0.99607  Biso   1.000  O 
  O16      1.0000 0.22069  0.37359  0.74485  Biso   1.000  O 
  Hf9      1.0000 0.12343  0.52873  0.12607  Biso   1.000  Hf
  Hf10     1.0000 0.12266  0.73941  0.37636  Biso   1.000  Hf
  Hf11     1.0000 0.35814  0.76338  0.12587  Biso   1.000  Hf
  Hf12     1.0000 0.34970  0.98824  0.37481  Biso   1.000  Hf
  O17      1.0000 0.02736  0.68944  0.19279  Biso   1.000  O 
  O18      1.0000 0.02745  0.57513  0.43941  Biso   1.000  O 
  O19      1.0000 0.44758  0.93547  0.19545  Biso   1.000  O 
  O20      1.0000 0.45379  0.82061  0.44312  Biso   1.000  O 
  O21      1.0000 0.26113  0.61917  0.24976  Biso   1.000  O 
  O22      1.0000 0.26016  0.63733  0.49794  Biso   1.000  O 
  O23      1.0000 0.21988  0.88470  0.49819  Biso   1.000  O 
  O24      1.0000 0.21980  0.86527  0.24605  Biso   1.000  O 
  Hf13     1.0000 0.12259  0.52213  0.61960  Biso   1.000  Hf
  Hf14     1.0000 0.11758  0.73810  0.87024  Biso   1.000  Hf
  Hf15     1.0000 0.35765  0.76906  0.62303  Biso   1.000  Hf
  Hf16     1.0000 0.35592  0.98574  0.87208  Biso   1.000  Hf
  O25      1.0000 0.02806  0.69541  0.68819  Biso   1.000  O 
  O26      1.0000 0.02034  0.56954  0.94457  Biso   1.000  O 
  O27      1.0000 0.45509  0.93647  0.69381  Biso   1.000  O 
  O28      1.0000 0.45487  0.82356  0.95115  Biso   1.000  O 
  O29      1.0000 0.25669  0.62094  0.74830  Biso   1.000  O 
  O30      1.0000 0.25300  0.64123  0.99866  Biso   1.000  O 
  O31      1.0000 0.21792  0.88230  0.99429  Biso   1.000  O 
  O32      1.0000 0.22231  0.86843  0.74862  Biso   1.000  O 
  Hf17     1.0000 0.62680  0.00960  0.12232  Biso   1.000  Hf
  Hf18     1.0000 0.62321  0.23336  0.39135  Biso   1.000  Hf
  Hf19     1.0000 0.81373  0.26310  0.15028  Biso   1.000  Hf
  Hf20     1.0000 0.85675  0.48742  0.38456  Biso   1.000  Hf
  O33      1.0000 0.52612  0.18437  0.19443  Biso   1.000  O 
  O34      1.0000 0.52919  0.06886  0.45121  Biso   1.000  O 
  O35      1.0000 0.94449  0.43901  0.20147  Biso   1.000  O 
  O36      1.0000 0.96509  0.33426  0.46771  Biso   1.000  O 
  O37      1.0000 0.73702  0.11046  0.26012  Biso   1.000  O 
  O38      1.0000 0.77221  0.14173  0.50545  Biso   1.000  O 
  O39      1.0000 0.72160  0.38475  0.50840  Biso   1.000  O 
  O40      1.0000 0.70208  0.37848  0.26566  Biso   1.000  O 
  Hf21     1.0000 0.63729  0.02102  0.62607  Biso   1.000  Hf
  Hf22     1.0000 0.62774  0.23942  0.87534  Biso   1.000  Hf
  Hf23     1.0000 0.86593  0.28020  0.64258  Biso   1.000  Hf
  Hf24     1.0000 0.85230  0.48942  0.87169  Biso   1.000  Hf
  O41      1.0000 0.53430  0.19017  0.69245  Biso   1.000  O 
  O42      1.0000 0.53650  0.07021  0.93867  Biso   1.000  O 
  O43      1.0000 0.94249  0.46389  0.67954  Biso   1.000  O 
  O44      1.0000 0.94027  0.31022  0.85563  Biso   1.000  O 
  O45      1.0000 0.76667  0.12316  0.75500  Biso   1.000  O 
  O46      1.0000 0.77223  0.13161  0.00737  Biso   1.000  O 
  O47      1.0000 0.72983  0.38183  0.00664  Biso   1.000  O 
  O48      1.0000 0.71028  0.38044  0.75409  Biso   1.000  O 
  Hf25     1.0000 0.62430  0.52216  0.12933  Biso   1.000  Hf
  Hf26     1.0000 0.62646  0.74068  0.37721  Biso   1.000  Hf
  Hf27     1.0000 0.85493  0.76816  0.12656  Biso   1.000  Hf
  Hf28     1.0000 0.86241  0.99922  0.36747  Biso   1.000  Hf
  O49      1.0000 0.52718  0.68574  0.19799  Biso   1.000  O 
  O50      1.0000 0.52449  0.57125  0.44614  Biso   1.000  O 
  O51      1.0000 0.95418  0.94352  0.18410  Biso   1.000  O 
  O52      1.0000 0.95136  0.82233  0.43851  Biso   1.000  O 
  O53      1.0000 0.76134  0.62220  0.25352  Biso   1.000  O 
  O54      1.0000 0.75818  0.63863  0.50187  Biso   1.000  O 
  O55      1.0000 0.72091  0.89194  0.49721  Biso   1.000  O 
  O56      1.0000 0.72050  0.86901  0.24731  Biso   1.000  O 
  Hf29     1.0000 0.62481  0.52235  0.62736  Biso   1.000  Hf
  Hf30     1.0000 0.62209  0.74012  0.87622  Biso   1.000  Hf
  Hf31     1.0000 0.85532  0.77495  0.62237  Biso   1.000  Hf
  Hf32     1.0000 0.85043  0.98787  0.87565  Biso   1.000  Hf
  O57      1.0000 0.52348  0.68785  0.69802  Biso   1.000  O 
  O58      1.0000 0.52078  0.57495  0.94847  Biso   1.000  O 
  O59      1.0000 0.95071  0.93835  0.69651  Biso   1.000  O 
  O60      1.0000 0.94905  0.81857  0.94490  Biso   1.000  O 
  O61      1.0000 0.75881  0.62684  0.75253  Biso   1.000  O 
  O62      1.0000 0.76178  0.63258  0.00347  Biso   1.000  O 
  O63      1.0000 0.71438  0.88878  0.99918  Biso   1.000  O 
  O64      1.0000 0.71795  0.87291  0.74887  Biso   1.000  O 
  In1      1.0000 0.07019  0.26342  0.10750  Biso   1.000  In
