data_image0
_cell_length_a       10.1087
_cell_length_b       5.21053
_cell_length_c       10.2523
_cell_angle_alpha    90
_cell_angle_beta     90
_cell_angle_gamma    90

_symmetry_space_group_name_H-M    "P 1"
_symmetry_int_tables_number       1

loop_
  _symmetry_equiv_pos_as_xyz
  'x, y, z'

loop_
  _atom_site_label
  _atom_site_occupancy
  _atom_site_fract_x
  _atom_site_fract_y
  _atom_site_fract_z
  _atom_site_thermal_displace_type
  _atom_site_B_iso_or_equiv
  _atom_site_type_symbol
  Hf1      1.0000 0.16420  0.11416  0.08877  Biso   1.000  Hf
  Hf2      1.0000 0.06793  0.42260  0.37301  Biso   1.000  Hf
  Hf3      1.0000 0.37339  0.55880  0.12267  Biso   1.000  Hf
  Hf4      1.0000 0.33161  0.94872  0.37010  Biso   1.000  Hf
  O1       1.0000 0.00343  0.26959  0.19163  Biso   1.000  O 
  O2       1.0000 0.98956  0.08258  0.42557  Biso   1.000  O 
  O3       1.0000 0.46115  0.87392  0.20780  Biso   1.000  O 
  O4       1.0000 0.42020  0.60761  0.43842  Biso   1.000  O 
  O5       1.0000 0.26303  0.28659  0.24498  Biso   1.000  O 
  O6       1.0000 0.21131  0.21745  0.48883  Biso   1.000  O 
  O7       1.0000 0.18333  0.71415  0.47361  Biso   1.000  O 
  O8       1.0000 0.22283  0.79163  0.21652  Biso   1.000  O 
  Hf5      1.0000 0.07231  0.98135  0.60261  Biso   1.000  Hf
  Hf6      1.0000 0.07420  0.41894  0.83770  Biso   1.000  Hf
  Hf7      1.0000 0.31747  0.48224  0.60524  Biso   1.000  Hf
  Hf8      1.0000 0.31440  0.91653  0.85534  Biso   1.000  Hf
  O9       1.0000 0.98532  0.31105  0.66403  Biso   1.000  O 
  O10      1.0000 0.95383  0.10598  0.91310  Biso   1.000  O 
  O11      1.0000 0.41185  0.81423  0.68489  Biso   1.000  O 
  O12      1.0000 0.41435  0.61101  0.96904  Biso   1.000  O 
  O13      1.0000 0.20781  0.18256  0.73191  Biso   1.000  O 
  O14      1.0000 0.20901  0.21853  0.97373  Biso   1.000  O 
  O15      1.0000 0.17242  0.73276  0.96661  Biso   1.000  O 
  O16      1.0000 0.17848  0.68126  0.72218  Biso   1.000  O 
  Hf9      1.0000 0.61052  0.99605  0.12736  Biso   1.000  Hf
  Hf10     1.0000 0.58962  0.41911  0.39360  Biso   1.000  Hf
  Hf11     1.0000 0.81895  0.46445  0.18442  Biso   1.000  Hf
  Hf12     1.0000 0.83327  0.89304  0.41647  Biso   1.000  Hf
  O17      1.0000 0.52963  0.34928  0.19267  Biso   1.000  O 
  O18      1.0000 0.47159  0.11729  0.46166  Biso   1.000  O 
  O19      1.0000 0.95417  0.71893  0.26070  Biso   1.000  O 
  O20      1.0000 0.88975  0.51537  0.44996  Biso   1.000  O 
  O21      1.0000 0.73261  0.16417  0.27788  Biso   1.000  O 
  O22      1.0000 0.70724  0.20620  0.52442  Biso   1.000  O 
  O23      1.0000 0.66930  0.70127  0.52245  Biso   1.000  O 
  O24      1.0000 0.69420  0.69967  0.27872  Biso   1.000  O 
  Hf13     1.0000 0.56856  0.99291  0.63870  Biso   1.000  Hf
  Hf14     1.0000 0.56633  0.41332  0.88627  Biso   1.000  Hf
  Hf15     1.0000 0.80926  0.49034  0.64538  Biso   1.000  Hf
  Hf16     1.0000 0.79537  0.91085  0.89453  Biso   1.000  Hf
  O25      1.0000 0.47026  0.32461  0.70787  Biso   1.000  O 
  O26      1.0000 0.45770  0.07937  0.93663  Biso   1.000  O 
  O27      1.0000 0.90305  0.84470  0.61553  Biso   1.000  O 
  O28      1.0000 0.89576  0.60226  0.82956  Biso   1.000  O 
  O29      1.0000 0.70562  0.19080  0.77006  Biso   1.000  O 
  O30      1.0000 0.78076  0.24706  0.02517  Biso   1.000  O 
  O31      1.0000 0.77570  0.74056  0.03192  Biso   1.000  O 
  O32      1.0000 0.66102  0.70774  0.77107  Biso   1.000  O 
  In1      1.0000 0.06244  0.64686  0.08527  Biso   1.000  In
