data_image0
_cell_length_a       10.1414
_cell_length_b       10.2677
_cell_length_c       10.4571
_cell_angle_alpha    90
_cell_angle_beta     80
_cell_angle_gamma    90

_symmetry_space_group_name_H-M    "P 1"
_symmetry_int_tables_number       1

loop_
  _symmetry_equiv_pos_as_xyz
  'x, y, z'

loop_
  _atom_site_label
  _atom_site_occupancy
  _atom_site_fract_x
  _atom_site_fract_y
  _atom_site_fract_z
  _atom_site_thermal_displace_type
  _atom_site_B_iso_or_equiv
  _atom_site_type_symbol
  In1      1.0000 0.13597  0.01661  0.14698  Biso   1.000  In
  Hf1      1.0000 0.13694  0.22787  0.39556  Biso   1.000  Hf
  Hf2      1.0000 0.35831  0.26851  0.10432  Biso   1.000  Hf
  Hf3      1.0000 0.35830  0.47813  0.35372  Biso   1.000  Hf
  O1       1.0000 0.03549  0.17328  0.07767  Biso   1.000  O 
  O2       1.0000 0.02868  0.08315  0.33796  Biso   1.000  O 
  O3       1.0000 0.46385  0.41641  0.17090  Biso   1.000  O 
  O4       1.0000 0.46260  0.33209  0.42107  Biso   1.000  O 
  O5       1.0000 0.27851  0.13023  0.24372  Biso   1.000  O 
  O6       1.0000 0.27343  0.12117  0.49153  Biso   1.000  O 
  O7       1.0000 0.22411  0.37990  0.00903  Biso   1.000  O 
  O8       1.0000 0.22103  0.37102  0.25931  Biso   1.000  O 
  Hf4      1.0000 0.13573  0.02149  0.64600  Biso   1.000  Hf
  Hf5      1.0000 0.13494  0.22801  0.89696  Biso   1.000  Hf
  Hf6      1.0000 0.35718  0.27128  0.60459  Biso   1.000  Hf
  Hf7      1.0000 0.35657  0.47855  0.85517  Biso   1.000  Hf
  O9       1.0000 0.03264  0.17047  0.58223  Biso   1.000  O 
  O10      1.0000 0.03097  0.08114  0.83030  Biso   1.000  O 
  O11      1.0000 0.46167  0.41784  0.67112  Biso   1.000  O 
  O12      1.0000 0.46154  0.33339  0.92153  Biso   1.000  O 
  O13      1.0000 0.27227  0.12863  0.73966  Biso   1.000  O 
  O14      1.0000 0.27723  0.12548  0.98524  Biso   1.000  O 
  O15      1.0000 0.22105  0.37938  0.50984  Biso   1.000  O 
  O16      1.0000 0.22020  0.37152  0.75992  Biso   1.000  O 
  Hf8      1.0000 0.13866  0.52117  0.14527  Biso   1.000  Hf
  Hf9      1.0000 0.13758  0.72838  0.39589  Biso   1.000  Hf
  Hf10     1.0000 0.36077  0.77163  0.10392  Biso   1.000  Hf
  Hf11     1.0000 0.35803  0.97948  0.35360  Biso   1.000  Hf
  O17      1.0000 0.03471  0.66835  0.07945  Biso   1.000  O 
  O18      1.0000 0.03297  0.58229  0.32957  Biso   1.000  O 
  O19      1.0000 0.46514  0.91784  0.17043  Biso   1.000  O 
  O20      1.0000 0.46222  0.83192  0.42124  Biso   1.000  O 
  O21      1.0000 0.27533  0.62680  0.23991  Biso   1.000  O 
  O22      1.0000 0.27367  0.62110  0.49077  Biso   1.000  O 
  O23      1.0000 0.22789  0.87651  0.00563  Biso   1.000  O 
  O24      1.0000 0.22612  0.86619  0.26110  Biso   1.000  O 
  Hf12     1.0000 0.13596  0.52146  0.64671  Biso   1.000  Hf
  Hf13     1.0000 0.13525  0.73013  0.89678  Biso   1.000  Hf
  Hf14     1.0000 0.35756  0.77195  0.60450  Biso   1.000  Hf
  Hf15     1.0000 0.35656  0.97974  0.85509  Biso   1.000  Hf
  O25      1.0000 0.03213  0.66842  0.58079  Biso   1.000  O 
  O26      1.0000 0.03099  0.58182  0.83061  Biso   1.000  O 
  O27      1.0000 0.46199  0.91805  0.67079  Biso   1.000  O 
  O28      1.0000 0.46227  0.83295  0.92106  Biso   1.000  O 
  O29      1.0000 0.27252  0.62946  0.74114  Biso   1.000  O 
  O30      1.0000 0.27140  0.62095  0.99103  Biso   1.000  O 
  O31      1.0000 0.22060  0.87910  0.51008  Biso   1.000  O 
  O32      1.0000 0.21976  0.87163  0.75904  Biso   1.000  O 
  Hf16     1.0000 0.63869  0.02098  0.14631  Biso   1.000  Hf
  Hf17     1.0000 0.63665  0.22886  0.39629  Biso   1.000  Hf
  Hf18     1.0000 0.86197  0.27026  0.10386  Biso   1.000  Hf
  Hf19     1.0000 0.85860  0.47908  0.35430  Biso   1.000  Hf
  O33      1.0000 0.53521  0.16808  0.07961  Biso   1.000  O 
  O34      1.0000 0.53344  0.08183  0.33019  Biso   1.000  O 
  O35      1.0000 0.96302  0.41987  0.17025  Biso   1.000  O 
  O36      1.0000 0.96258  0.33318  0.42116  Biso   1.000  O 
  O37      1.0000 0.77432  0.12928  0.24140  Biso   1.000  O 
  O38      1.0000 0.77241  0.12192  0.49208  Biso   1.000  O 
  O39      1.0000 0.72391  0.37854  0.00942  Biso   1.000  O 
  O40      1.0000 0.72216  0.37116  0.26023  Biso   1.000  O 
  Hf20     1.0000 0.63580  0.02169  0.64674  Biso   1.000  Hf
  Hf21     1.0000 0.63449  0.22918  0.89723  Biso   1.000  Hf
  Hf22     1.0000 0.85781  0.27161  0.60474  Biso   1.000  Hf
  Hf23     1.0000 0.85667  0.47883  0.85489  Biso   1.000  Hf
  O41      1.0000 0.53136  0.16811  0.58027  Biso   1.000  O 
  O42      1.0000 0.53202  0.08214  0.82989  Biso   1.000  O 
  O43      1.0000 0.96124  0.41927  0.67042  Biso   1.000  O 
  O44      1.0000 0.95989  0.33217  0.91997  Biso   1.000  O 
  O45      1.0000 0.77312  0.12927  0.74138  Biso   1.000  O 
  O46      1.0000 0.77122  0.12081  0.99147  Biso   1.000  O 
  O47      1.0000 0.72065  0.37929  0.51004  Biso   1.000  O 
  O48      1.0000 0.71996  0.37135  0.75995  Biso   1.000  O 
  Hf24     1.0000 0.63770  0.51990  0.14579  Biso   1.000  Hf
  Hf25     1.0000 0.63587  0.72858  0.39610  Biso   1.000  Hf
  Hf26     1.0000 0.85913  0.77067  0.10444  Biso   1.000  Hf
  Hf27     1.0000 0.85762  0.97866  0.35532  Biso   1.000  Hf
  O49      1.0000 0.53474  0.66700  0.07900  Biso   1.000  O 
  O50      1.0000 0.53241  0.58169  0.32947  Biso   1.000  O 
  O51      1.0000 0.95492  0.91642  0.17292  Biso   1.000  O 
  O52      1.0000 0.96271  0.83127  0.42100  Biso   1.000  O 
  O53      1.0000 0.77396  0.62845  0.24073  Biso   1.000  O 
  O54      1.0000 0.77337  0.62135  0.49083  Biso   1.000  O 
  O55      1.0000 0.72352  0.87862  0.00922  Biso   1.000  O 
  O56      1.0000 0.71815  0.87033  0.26083  Biso   1.000  O 
  Hf28     1.0000 0.63555  0.52138  0.64635  Biso   1.000  Hf
  Hf29     1.0000 0.63460  0.72878  0.89647  Biso   1.000  Hf
  Hf30     1.0000 0.85788  0.77126  0.60462  Biso   1.000  Hf
  Hf31     1.0000 0.85659  0.97883  0.85521  Biso   1.000  Hf
  O57      1.0000 0.53144  0.66776  0.58010  Biso   1.000  O 
  O58      1.0000 0.53060  0.58245  0.82970  Biso   1.000  O 
  O59      1.0000 0.96103  0.91870  0.67052  Biso   1.000  O 
  O60      1.0000 0.95983  0.83137  0.92083  Biso   1.000  O 
  O61      1.0000 0.77235  0.62905  0.74071  Biso   1.000  O 
  O62      1.0000 0.77038  0.62004  0.99080  Biso   1.000  O 
  O63      1.0000 0.72074  0.87874  0.51043  Biso   1.000  O 
  O64      1.0000 0.72025  0.87122  0.76004  Biso   1.000  O 
