data_image0
_cell_length_a       10.2324
_cell_length_b       10.3986
_cell_length_c       5.28071
_cell_angle_alpha    90
_cell_angle_beta     80
_cell_angle_gamma    90

_symmetry_space_group_name_H-M    "P 1"
_symmetry_int_tables_number       1

loop_
  _symmetry_equiv_pos_as_xyz
  'x, y, z'

loop_
  _atom_site_label
  _atom_site_occupancy
  _atom_site_fract_x
  _atom_site_fract_y
  _atom_site_fract_z
  _atom_site_thermal_displace_type
  _atom_site_B_iso_or_equiv
  _atom_site_type_symbol
  Hf1      1.0000 0.13501  0.02024  0.28242  Biso   1.000  Hf
  Hf2      1.0000 0.14690  0.22891  0.77110  Biso   1.000  Hf
  Hf3      1.0000 0.35216  0.27834  0.19507  Biso   1.000  Hf
  Hf4      1.0000 0.36653  0.48402  0.70015  Biso   1.000  Hf
  O1       1.0000 0.04064  0.17026  0.15142  Biso   1.000  O 
  O2       1.0000 0.03610  0.08281  0.65262  Biso   1.000  O 
  O3       1.0000 0.46676  0.43417  0.34024  Biso   1.000  O 
  O4       1.0000 0.49280  0.36431  0.89378  Biso   1.000  O 
  O5       1.0000 0.26817  0.11790  0.45696  Biso   1.000  O 
  O6       1.0000 0.28924  0.12157  0.95635  Biso   1.000  O 
  O7       1.0000 0.21923  0.38198  0.00093  Biso   1.000  O 
  O8       1.0000 0.21412  0.37548  0.49584  Biso   1.000  O 
  Hf5      1.0000 0.14190  0.52376  0.28574  Biso   1.000  Hf
  Hf6      1.0000 0.14508  0.72752  0.78991  Biso   1.000  Hf
  Hf7      1.0000 0.36354  0.76925  0.20724  Biso   1.000  Hf
  Hf8      1.0000 0.36597  0.96406  0.70461  Biso   1.000  Hf
  O9       1.0000 0.03309  0.66751  0.15538  Biso   1.000  O 
  O10      1.0000 0.04143  0.58622  0.65151  Biso   1.000  O 
  O11      1.0000 0.46900  0.91593  0.33554  Biso   1.000  O 
  O12      1.0000 0.47011  0.82263  0.83678  Biso   1.000  O 
  O13      1.0000 0.28036  0.62804  0.47919  Biso   1.000  O 
  O14      1.0000 0.28435  0.62373  0.97725  Biso   1.000  O 
  O15      1.0000 0.22304  0.87701  0.01942  Biso   1.000  O 
  O16      1.0000 0.22831  0.86606  0.51516  Biso   1.000  O 
  Hf9      1.0000 0.64161  0.01481  0.29927  Biso   1.000  Hf
  Hf10     1.0000 0.67415  0.23694  0.82964  Biso   1.000  Hf
  Hf11     1.0000 0.86863  0.27280  0.22619  Biso   1.000  Hf
  Hf12     1.0000 0.87280  0.48180  0.71262  Biso   1.000  Hf
  O17      1.0000 0.53471  0.16471  0.15508  Biso   1.000  O 
  O18      1.0000 0.54522  0.05223  0.67737  Biso   1.000  O 
  O19      1.0000 0.96946  0.42129  0.34217  Biso   1.000  O 
  O20      1.0000 0.97130  0.33065  0.84027  Biso   1.000  O 
  O21      1.0000 0.78129  0.13103  0.49994  Biso   1.000  O 
  O22      1.0000 0.78385  0.11527  0.00775  Biso   1.000  O 
  O23      1.0000 0.73148  0.38177  0.04729  Biso   1.000  O 
  O24      1.0000 0.73545  0.37535  0.53980  Biso   1.000  O 
  Hf13     1.0000 0.64123  0.52743  0.30121  Biso   1.000  Hf
  Hf14     1.0000 0.64814  0.72786  0.79300  Biso   1.000  Hf
  Hf15     1.0000 0.86329  0.77156  0.20971  Biso   1.000  Hf
  Hf16     1.0000 0.87031  0.97747  0.70937  Biso   1.000  Hf
  O25      1.0000 0.53871  0.67215  0.16250  Biso   1.000  O 
  O26      1.0000 0.54078  0.58775  0.65879  Biso   1.000  O 
  O27      1.0000 0.96770  0.91590  0.34519  Biso   1.000  O 
  O28      1.0000 0.97537  0.83393  0.84291  Biso   1.000  O 
  O29      1.0000 0.78228  0.63088  0.48473  Biso   1.000  O 
  O30      1.0000 0.78632  0.62246  0.98077  Biso   1.000  O 
  O31      1.0000 0.72398  0.87744  0.02291  Biso   1.000  O 
  O32      1.0000 0.73092  0.87047  0.52032  Biso   1.000  O 
  In1      1.0000 0.46155  0.23077  0.59531  Biso   1.000  In
