data_image0
_cell_length_a       10.0729
_cell_length_b       5.11483
_cell_length_c       10.4578
_cell_angle_alpha    90
_cell_angle_beta     90
_cell_angle_gamma    90

_symmetry_space_group_name_H-M    "P 1"
_symmetry_int_tables_number       1

loop_
  _symmetry_equiv_pos_as_xyz
  'x, y, z'

loop_
  _atom_site_label
  _atom_site_occupancy
  _atom_site_fract_x
  _atom_site_fract_y
  _atom_site_fract_z
  _atom_site_thermal_displace_type
  _atom_site_B_iso_or_equiv
  _atom_site_type_symbol
  In1      1.0000 0.13724  0.03350  0.17188  Biso   1.000  In
  Hf1      1.0000 0.14038  0.45883  0.42096  Biso   1.000  Hf
  Hf2      1.0000 0.35887  0.53803  0.17121  Biso   1.000  Hf
  Hf3      1.0000 0.36007  0.95947  0.42055  Biso   1.000  Hf
  Hf4      1.0000 0.63887  0.03998  0.07836  Biso   1.000  Hf
  Hf5      1.0000 0.63791  0.46058  0.32772  Biso   1.000  Hf
  Hf6      1.0000 0.86107  0.53970  0.07794  Biso   1.000  Hf
  Hf7      1.0000 0.85873  0.96117  0.32862  Biso   1.000  Hf
  O1       1.0000 0.03303  0.34046  0.08213  Biso   1.000  O 
  O2       1.0000 0.02722  0.17532  0.34246  Biso   1.000  O 
  O3       1.0000 0.46903  0.82606  0.08298  Biso   1.000  O 
  O4       1.0000 0.46821  0.67305  0.33332  Biso   1.000  O 
  O5       1.0000 0.27980  0.25024  0.29956  Biso   1.000  O 
  O6       1.0000 0.28157  0.25662  0.04129  Biso   1.000  O 
  O7       1.0000 0.22575  0.74167  0.29662  Biso   1.000  O 
  O8       1.0000 0.22845  0.74619  0.04186  Biso   1.000  O 
  O9       1.0000 0.53256  0.32751  0.16679  Biso   1.000  O 
  O10      1.0000 0.53245  0.17109  0.41668  Biso   1.000  O 
  O11      1.0000 0.95731  0.83251  0.16554  Biso   1.000  O 
  O12      1.0000 0.96726  0.67269  0.41606  Biso   1.000  O 
  O13      1.0000 0.77423  0.25246  0.45551  Biso   1.000  O 
  O14      1.0000 0.77503  0.25389  0.20487  Biso   1.000  O 
  O15      1.0000 0.72377  0.75104  0.45496  Biso   1.000  O 
  O16      1.0000 0.72006  0.75263  0.20514  Biso   1.000  O 
  Hf8      1.0000 0.13955  0.04392  0.67176  Biso   1.000  Hf
  Hf9      1.0000 0.14072  0.46114  0.92266  Biso   1.000  Hf
  Hf10     1.0000 0.36059  0.54431  0.67167  Biso   1.000  Hf
  Hf11     1.0000 0.36033  0.96143  0.92233  Biso   1.000  Hf
  Hf12     1.0000 0.63810  0.04377  0.57818  Biso   1.000  Hf
  Hf13     1.0000 0.63847  0.46037  0.82820  Biso   1.000  Hf
  Hf14     1.0000 0.86041  0.54378  0.57808  Biso   1.000  Hf
  Hf15     1.0000 0.86036  0.96096  0.82843  Biso   1.000  Hf
  O17      1.0000 0.03306  0.33756  0.58716  Biso   1.000  O 
  O18      1.0000 0.03250  0.17000  0.83420  Biso   1.000  O 
  O19      1.0000 0.46737  0.83131  0.58374  Biso   1.000  O 
  O20      1.0000 0.46764  0.67253  0.83291  Biso   1.000  O 
  O21      1.0000 0.27544  0.25049  0.79445  Biso   1.000  O 
  O22      1.0000 0.27565  0.25352  0.54636  Biso   1.000  O 
  O23      1.0000 0.22434  0.75130  0.79405  Biso   1.000  O 
  O24      1.0000 0.22387  0.75451  0.54559  Biso   1.000  O 
  O25      1.0000 0.53228  0.33186  0.66628  Biso   1.000  O 
  O26      1.0000 0.53285  0.17205  0.91603  Biso   1.000  O 
  O27      1.0000 0.96651  0.83573  0.66452  Biso   1.000  O 
  O28      1.0000 0.96688  0.67148  0.91392  Biso   1.000  O 
  O29      1.0000 0.77510  0.24838  0.95380  Biso   1.000  O 
  O30      1.0000 0.77556  0.25437  0.70451  Biso   1.000  O 
  O31      1.0000 0.72348  0.74947  0.95385  Biso   1.000  O 
  O32      1.0000 0.72421  0.75387  0.70432  Biso   1.000  O 
