data_image0
_cell_length_a       10.1497
_cell_length_b       10.3731
_cell_length_c       10.1053
_cell_angle_alpha    90
_cell_angle_beta     90
_cell_angle_gamma    90

_symmetry_space_group_name_H-M    "P 1"
_symmetry_int_tables_number       1

loop_
  _symmetry_equiv_pos_as_xyz
  'x, y, z'

loop_
  _atom_site_label
  _atom_site_occupancy
  _atom_site_fract_x
  _atom_site_fract_y
  _atom_site_fract_z
  _atom_site_thermal_displace_type
  _atom_site_B_iso_or_equiv
  _atom_site_type_symbol
  Hf1      1.0000 0.09500  0.88861  0.09566  Biso   1.000  Hf
  Hf2      1.0000 0.11483  0.28721  0.36878  Biso   1.000  Hf
  Hf3      1.0000 0.36201  0.26827  0.13956  Biso   1.000  Hf
  Hf4      1.0000 0.34154  0.01350  0.37647  Biso   1.000  Hf
  O1       1.0000 0.96069  0.22989  0.98938  Biso   1.000  O 
  O2       1.0000 0.95503  0.16541  0.28509  Biso   1.000  O 
  O3       1.0000 0.98668  0.40105  0.25321  Biso   1.000  O 
  O4       1.0000 0.95617  0.44609  0.00973  Biso   1.000  O 
  O5       1.0000 0.29875  0.20181  0.33778  Biso   1.000  O 
  O6       1.0000 0.19987  0.07603  0.94917  Biso   1.000  O 
  O7       1.0000 0.24037  0.35830  0.98454  Biso   1.000  O 
  O8       1.0000 0.23388  0.43070  0.23388  Biso   1.000  O 
  Hf5      1.0000 0.13702  0.03135  0.65357  Biso   1.000  Hf
  Hf6      1.0000 0.10945  0.28272  0.85187  Biso   1.000  Hf
  Hf7      1.0000 0.38071  0.24742  0.59791  Biso   1.000  Hf
  Hf8      1.0000 0.33080  0.03569  0.88511  Biso   1.000  Hf
  O9       1.0000 0.04355  0.15695  0.51302  Biso   1.000  O 
  O10      1.0000 0.99272  0.13284  0.75491  Biso   1.000  O 
  O11      1.0000 0.95832  0.38292  0.74603  Biso   1.000  O 
  O12      1.0000 0.98551  0.40095  0.49631  Biso   1.000  O 
  O13      1.0000 0.24211  0.18818  0.73820  Biso   1.000  O 
  O14      1.0000 0.30018  0.07207  0.54106  Biso   1.000  O 
  O15      1.0000 0.23720  0.37096  0.51758  Biso   1.000  O 
  O16      1.0000 0.19666  0.43518  0.76143  Biso   1.000  O 
  Hf9      1.0000 0.08032  0.54232  0.13347  Biso   1.000  Hf
  Hf10     1.0000 0.08658  0.75408  0.39126  Biso   1.000  Hf
  Hf11     1.0000 0.36489  0.77592  0.14197  Biso   1.000  Hf
  Hf12     1.0000 0.35090  0.50086  0.38601  Biso   1.000  Hf
  O17      1.0000 0.99703  0.71589  0.02432  Biso   1.000  O 
  O18      1.0000 0.93793  0.63134  0.25508  Biso   1.000  O 
  O19      1.0000 0.97258  0.86679  0.26485  Biso   1.000  O 
  O20      1.0000 0.90864  0.93997  0.03510  Biso   1.000  O 
  O21      1.0000 0.18067  0.70880  0.20824  Biso   1.000  O 
  O22      1.0000 0.20693  0.61616  0.96635  Biso   1.000  O 
  O23      1.0000 0.24851  0.85706  0.97411  Biso   1.000  O 
  O24      1.0000 0.24362  0.94028  0.21923  Biso   1.000  O 
  Hf13     1.0000 0.09227  0.51938  0.62062  Biso   1.000  Hf
  Hf14     1.0000 0.12046  0.76015  0.84520  Biso   1.000  Hf
  Hf15     1.0000 0.35956  0.79308  0.63080  Biso   1.000  Hf
  Hf16     1.0000 0.34100  0.50851  0.87415  Biso   1.000  Hf
  O25      1.0000 0.95189  0.65179  0.51472  Biso   1.000  O 
  O26      1.0000 0.97377  0.63526  0.76331  Biso   1.000  O 
  O27      1.0000 0.98053  0.88447  0.76714  Biso   1.000  O 
  O28      1.0000 0.99270  0.90230  0.51563  Biso   1.000  O 
  O29      1.0000 0.21558  0.66828  0.69407  Biso   1.000  O 
  O30      1.0000 0.18066  0.58823  0.44481  Biso   1.000  O 
  O31      1.0000 0.25105  0.83719  0.46245  Biso   1.000  O 
  O32      1.0000 0.22609  0.90973  0.73731  Biso   1.000  O 
  Hf17     1.0000 0.63797  0.01388  0.14337  Biso   1.000  Hf
  Hf18     1.0000 0.61300  0.27529  0.35279  Biso   1.000  Hf
  Hf19     1.0000 0.85950  0.29918  0.13242  Biso   1.000  Hf
  Hf20     1.0000 0.85964  0.99796  0.38699  Biso   1.000  Hf
  O33      1.0000 0.44730  0.20711  0.97863  Biso   1.000  O 
  O34      1.0000 0.49622  0.12743  0.23406  Biso   1.000  O 
  O35      1.0000 0.48472  0.38687  0.24994  Biso   1.000  O 
  O36      1.0000 0.47178  0.40829  0.00567  Biso   1.000  O 
  O37      1.0000 0.72317  0.18323  0.21873  Biso   1.000  O 
  O38      1.0000 0.70438  0.14140  0.97288  Biso   1.000  O 
  O39      1.0000 0.73054  0.39238  0.98835  Biso   1.000  O 
  O40      1.0000 0.73118  0.43240  0.23961  Biso   1.000  O 
  Hf21     1.0000 0.63859  0.03446  0.64009  Biso   1.000  Hf
  Hf22     1.0000 0.60291  0.28632  0.86895  Biso   1.000  Hf
  Hf23     1.0000 0.88245  0.24994  0.60499  Biso   1.000  Hf
  Hf24     1.0000 0.86042  0.05476  0.89101  Biso   1.000  Hf
  O41      1.0000 0.53494  0.15220  0.49146  Biso   1.000  O 
  O42      1.0000 0.49851  0.13823  0.74169  Biso   1.000  O 
  O43      1.0000 0.45330  0.38417  0.74372  Biso   1.000  O 
  O44      1.0000 0.48986  0.39877  0.49624  Biso   1.000  O 
  O45      1.0000 0.74230  0.18569  0.74101  Biso   1.000  O 
  O46      1.0000 0.79301  0.08630  0.51737  Biso   1.000  O 
  O47      1.0000 0.75540  0.33780  0.47624  Biso   1.000  O 
  O48      1.0000 0.69850  0.42731  0.74663  Biso   1.000  O 
  Hf25     1.0000 0.58478  0.53154  0.13013  Biso   1.000  Hf
  Hf26     1.0000 0.59177  0.75382  0.39655  Biso   1.000  Hf
  Hf27     1.0000 0.82523  0.77491  0.13037  Biso   1.000  Hf
  Hf28     1.0000 0.84862  0.50824  0.38929  Biso   1.000  Hf
  O49      1.0000 0.47999  0.66808  0.01595  Biso   1.000  O 
  O50      1.0000 0.44418  0.62523  0.25804  Biso   1.000  O 
  O51      1.0000 0.48242  0.87592  0.27161  Biso   1.000  O 
  O52      1.0000 0.44178  0.92589  0.02937  Biso   1.000  O 
  O53      1.0000 0.68016  0.68385  0.23268  Biso   1.000  O 
  O54      1.0000 0.73678  0.65166  0.99115  Biso   1.000  O 
  O55      1.0000 0.68616  0.85760  0.00205  Biso   1.000  O 
  O56      1.0000 0.73407  0.93028  0.24628  Biso   1.000  O 
  Hf29     1.0000 0.57213  0.52631  0.63555  Biso   1.000  Hf
  Hf30     1.0000 0.60731  0.77885  0.86906  Biso   1.000  Hf
  Hf31     1.0000 0.85995  0.78288  0.64488  Biso   1.000  Hf
  Hf32     1.0000 0.83120  0.52323  0.86169  Biso   1.000  Hf
  O57      1.0000 0.44789  0.65120  0.51033  Biso   1.000  O 
  O58      1.0000 0.46565  0.64165  0.76493  Biso   1.000  O 
  O59      1.0000 0.47530  0.89551  0.76843  Biso   1.000  O 
  O60      1.0000 0.49082  0.90335  0.51487  Biso   1.000  O 
  O61      1.0000 0.71785  0.67026  0.73522  Biso   1.000  O 
  O62      1.0000 0.68742  0.58684  0.47887  Biso   1.000  O 
  O63      1.0000 0.74918  0.83513  0.48533  Biso   1.000  O 
  O64      1.0000 0.72643  0.92276  0.74684  Biso   1.000  O 
  In1      1.0000 0.11160  0.14216  0.13541  Biso   1.000  In
