data_image0
_cell_length_a       10.1246
_cell_length_b       10.3928
_cell_length_c       5.10398
_cell_angle_alpha    90
_cell_angle_beta     90
_cell_angle_gamma    90

_symmetry_space_group_name_H-M    "P 1"
_symmetry_int_tables_number       1

loop_
  _symmetry_equiv_pos_as_xyz
  'x, y, z'

loop_
  _atom_site_label
  _atom_site_occupancy
  _atom_site_fract_x
  _atom_site_fract_y
  _atom_site_fract_z
  _atom_site_thermal_displace_type
  _atom_site_B_iso_or_equiv
  _atom_site_type_symbol
  Hf1      1.0000 0.13521  0.92173  0.24887  Biso   1.000  Hf
  Hf2      1.0000 0.15599  0.30006  0.74721  Biso   1.000  Hf
  Hf3      1.0000 0.39585  0.25327  0.30940  Biso   1.000  Hf
  Hf4      1.0000 0.40063  0.00259  0.78537  Biso   1.000  Hf
  O1       1.0000 0.00960  0.16599  0.83088  Biso   1.000  O 
  O2       1.0000 0.99231  0.05928  0.35317  Biso   1.000  O 
  O3       1.0000 0.00503  0.36564  0.47807  Biso   1.000  O 
  O4       1.0000 0.03169  0.41977  0.98642  Biso   1.000  O 
  O5       1.0000 0.30239  0.16600  0.66343  Biso   1.000  O 
  O6       1.0000 0.27819  0.05927  0.14452  Biso   1.000  O 
  O7       1.0000 0.26548  0.36559  0.01968  Biso   1.000  O 
  O8       1.0000 0.28030  0.41980  0.50797  Biso   1.000  O 
  Hf5      1.0000 0.13523  0.51570  0.24894  Biso   1.000  Hf
  Hf6      1.0000 0.15596  0.73765  0.74721  Biso   1.000  Hf
  Hf7      1.0000 0.40634  0.75880  0.27257  Biso   1.000  Hf
  Hf8      1.0000 0.42167  0.49155  0.78438  Biso   1.000  Hf
  O9       1.0000 0.02096  0.66776  0.09032  Biso   1.000  O 
  O10      1.0000 0.04123  0.59279  0.58182  Biso   1.000  O 
  O11      1.0000 0.00617  0.83074  0.49391  Biso   1.000  O 
  O12      1.0000 0.04607  0.89731  0.94451  Biso   1.000  O 
  O13      1.0000 0.24951  0.66779  0.40751  Biso   1.000  O 
  O14      1.0000 0.27074  0.59280  0.91263  Biso   1.000  O 
  O15      1.0000 0.26425  0.83073  0.00386  Biso   1.000  O 
  O16      1.0000 0.26581  0.89733  0.54990  Biso   1.000  O 
  Hf9      1.0000 0.63522  0.01042  0.24886  Biso   1.000  Hf
  Hf10     1.0000 0.65603  0.24210  0.74713  Biso   1.000  Hf
  Hf11     1.0000 0.87471  0.25319  0.18830  Biso   1.000  Hf
  Hf12     1.0000 0.91134  0.00255  0.70894  Biso   1.000  Hf
  O17      1.0000 0.50064  0.15014  0.02097  Biso   1.000  O 
  O18      1.0000 0.52460  0.10643  0.51639  Biso   1.000  O 
  O19      1.0000 0.52351  0.35512  0.54301  Biso   1.000  O 
  O20      1.0000 0.50582  0.39699  0.04684  Biso   1.000  O 
  O21      1.0000 0.76990  0.15010  0.47680  Biso   1.000  O 
  O22      1.0000 0.78741  0.10640  0.97796  Biso   1.000  O 
  O23      1.0000 0.78846  0.35510  0.95150  Biso   1.000  O 
  O24      1.0000 0.76465  0.39693  0.45111  Biso   1.000  O 
  Hf13     1.0000 0.63526  0.50495  0.24895  Biso   1.000  Hf
  Hf14     1.0000 0.65595  0.76148  0.74710  Biso   1.000  Hf
  Hf15     1.0000 0.86410  0.75880  0.22508  Biso   1.000  Hf
  Hf16     1.0000 0.89031  0.49152  0.71007  Biso   1.000  Hf
  O25      1.0000 0.53874  0.64612  0.98748  Biso   1.000  O 
  O26      1.0000 0.51576  0.61126  0.48969  Biso   1.000  O 
  O27      1.0000 0.51752  0.86009  0.53419  Biso   1.000  O 
  O28      1.0000 0.50789  0.89916  0.02641  Biso   1.000  O 
  O29      1.0000 0.77321  0.64608  0.50689  Biso   1.000  O 
  O30      1.0000 0.75475  0.61118  0.00811  Biso   1.000  O 
  O31      1.0000 0.79439  0.86005  0.96000  Biso   1.000  O 
  O32      1.0000 0.76252  0.89915  0.47119  Biso   1.000  O 
  In1      1.0000 0.13528  0.19860  0.24893  Biso   1.000  In
