data_image0
_cell_length_a       9.99419
_cell_length_b       10.3633
_cell_length_c       5.01158
_cell_angle_alpha    90
_cell_angle_beta     90
_cell_angle_gamma    90

_symmetry_space_group_name_H-M    "P 1"
_symmetry_int_tables_number       1

loop_
  _symmetry_equiv_pos_as_xyz
  'x, y, z'

loop_
  _atom_site_label
  _atom_site_occupancy
  _atom_site_fract_x
  _atom_site_fract_y
  _atom_site_fract_z
  _atom_site_thermal_displace_type
  _atom_site_B_iso_or_equiv
  _atom_site_type_symbol
  In1      1.0000 0.12962  0.01512  0.24502  Biso   1.000  In
  Hf1      1.0000 0.13377  0.23258  0.74989  Biso   1.000  Hf
  Hf2      1.0000 0.36509  0.26607  0.25300  Biso   1.000  Hf
  Hf3      1.0000 0.36472  0.48270  0.75245  Biso   1.000  Hf
  O1       1.0000 0.03336  0.19019  0.39322  Biso   1.000  O 
  O2       1.0000 0.03280  0.06823  0.86924  Biso   1.000  O 
  O3       1.0000 0.46432  0.43342  0.39083  Biso   1.000  O 
  O4       1.0000 0.46386  0.31510  0.88816  Biso   1.000  O 
  O5       1.0000 0.27572  0.12188  0.50372  Biso   1.000  O 
  O6       1.0000 0.27400  0.13216  0.99519  Biso   1.000  O 
  O7       1.0000 0.22950  0.38158  0.99973  Biso   1.000  O 
  O8       1.0000 0.22879  0.36866  0.49896  Biso   1.000  O 
  Hf4      1.0000 0.13415  0.51620  0.25235  Biso   1.000  Hf
  Hf5      1.0000 0.13504  0.73424  0.75464  Biso   1.000  Hf
  Hf6      1.0000 0.36534  0.76603  0.25318  Biso   1.000  Hf
  Hf7      1.0000 0.36349  0.98204  0.75123  Biso   1.000  Hf
  O9       1.0000 0.03545  0.68351  0.39061  Biso   1.000  O 
  O10      1.0000 0.03478  0.56559  0.89132  Biso   1.000  O 
  O11      1.0000 0.46458  0.93366  0.38898  Biso   1.000  O 
  O12      1.0000 0.46497  0.81522  0.89190  Biso   1.000  O 
  O13      1.0000 0.26976  0.61552  0.49999  Biso   1.000  O 
  O14      1.0000 0.27052  0.63142  0.00020  Biso   1.000  O 
  O15      1.0000 0.23111  0.87943  0.00105  Biso   1.000  O 
  O16      1.0000 0.23482  0.86174  0.50740  Biso   1.000  O 
  Hf8      1.0000 0.63361  0.01577  0.24942  Biso   1.000  Hf
  Hf9      1.0000 0.63344  0.23227  0.75019  Biso   1.000  Hf
  Hf10     1.0000 0.86449  0.26606  0.25085  Biso   1.000  Hf
  Hf11     1.0000 0.86501  0.48350  0.75308  Biso   1.000  Hf
  O17      1.0000 0.53719  0.18484  0.38450  Biso   1.000  O 
  O18      1.0000 0.53690  0.06429  0.88512  Biso   1.000  O 
  O19      1.0000 0.96322  0.43535  0.39075  Biso   1.000  O 
  O20      1.0000 0.96419  0.31744  0.89191  Biso   1.000  O 
  O21      1.0000 0.76879  0.11678  0.49822  Biso   1.000  O 
  O22      1.0000 0.76998  0.13225  0.99820  Biso   1.000  O 
  O23      1.0000 0.72827  0.38196  0.99821  Biso   1.000  O 
  O24      1.0000 0.72945  0.36720  0.49939  Biso   1.000  O 
  Hf12     1.0000 0.63364  0.51592  0.25244  Biso   1.000  Hf
  Hf13     1.0000 0.63336  0.73294  0.75235  Biso   1.000  Hf
  Hf14     1.0000 0.86538  0.76629  0.25205  Biso   1.000  Hf
  Hf15     1.0000 0.86406  0.98241  0.74943  Biso   1.000  Hf
  O25      1.0000 0.53534  0.68243  0.39171  Biso   1.000  O 
  O26      1.0000 0.53467  0.56504  0.89120  Biso   1.000  O 
  O27      1.0000 0.95723  0.93134  0.39282  Biso   1.000  O 
  O28      1.0000 0.96371  0.81513  0.89191  Biso   1.000  O 
  O29      1.0000 0.77002  0.61671  0.49914  Biso   1.000  O 
  O30      1.0000 0.76908  0.63109  0.99886  Biso   1.000  O 
  O31      1.0000 0.72858  0.88071  0.99920  Biso   1.000  O 
  O32      1.0000 0.72646  0.86599  0.49831  Biso   1.000  O 
