data_image0
_cell_length_a       5.08424
_cell_length_b       10.2655
_cell_length_c       10.4635
_cell_angle_alpha    90
_cell_angle_beta     80
_cell_angle_gamma    90

_symmetry_space_group_name_H-M    "P 1"
_symmetry_int_tables_number       1

loop_
  _symmetry_equiv_pos_as_xyz
  'x, y, z'

loop_
  _atom_site_label
  _atom_site_occupancy
  _atom_site_fract_x
  _atom_site_fract_y
  _atom_site_fract_z
  _atom_site_thermal_displace_type
  _atom_site_B_iso_or_equiv
  _atom_site_type_symbol
  In1      1.0000 0.27307  0.01650  0.14728  Biso   1.000  In
  Hf1      1.0000 0.27369  0.22824  0.39571  Biso   1.000  Hf
  Hf2      1.0000 0.71936  0.26752  0.10392  Biso   1.000  Hf
  Hf3      1.0000 0.71575  0.47844  0.35357  Biso   1.000  Hf
  O1       1.0000 0.07127  0.17297  0.07739  Biso   1.000  O 
  O2       1.0000 0.05669  0.08334  0.33863  Biso   1.000  O 
  O3       1.0000 0.92652  0.41763  0.17056  Biso   1.000  O 
  O4       1.0000 0.92562  0.33354  0.42146  Biso   1.000  O 
  O5       1.0000 0.55497  0.13030  0.24430  Biso   1.000  O 
  O6       1.0000 0.54380  0.12192  0.49263  Biso   1.000  O 
  O7       1.0000 0.44936  0.37948  0.00885  Biso   1.000  O 
  O8       1.0000 0.44239  0.37108  0.25970  Biso   1.000  O 
  Hf4      1.0000 0.27223  0.02142  0.64630  Biso   1.000  Hf
  Hf5      1.0000 0.27099  0.22842  0.89734  Biso   1.000  Hf
  Hf6      1.0000 0.71416  0.27131  0.60455  Biso   1.000  Hf
  Hf7      1.0000 0.71365  0.47858  0.85508  Biso   1.000  Hf
  O9       1.0000 0.06307  0.16951  0.58210  Biso   1.000  O 
  O10      1.0000 0.06383  0.08191  0.82958  Biso   1.000  O 
  O11      1.0000 0.92420  0.41806  0.67071  Biso   1.000  O 
  O12      1.0000 0.92383  0.33398  0.92035  Biso   1.000  O 
  O13      1.0000 0.54556  0.12869  0.73985  Biso   1.000  O 
  O14      1.0000 0.55434  0.12507  0.98527  Biso   1.000  O 
  O15      1.0000 0.44188  0.37945  0.50986  Biso   1.000  O 
  O16      1.0000 0.44169  0.37173  0.75958  Biso   1.000  O 
  Hf8      1.0000 0.27656  0.51977  0.14509  Biso   1.000  Hf
  Hf9      1.0000 0.27315  0.72805  0.39583  Biso   1.000  Hf
  Hf10     1.0000 0.71888  0.77089  0.10427  Biso   1.000  Hf
  Hf11     1.0000 0.71252  0.97913  0.35451  Biso   1.000  Hf
  O17      1.0000 0.06898  0.66677  0.07868  Biso   1.000  O 
  O18      1.0000 0.06374  0.58232  0.32903  Biso   1.000  O 
  O19      1.0000 0.91408  0.91543  0.17323  Biso   1.000  O 
  O20      1.0000 0.92519  0.83162  0.42154  Biso   1.000  O 
  O21      1.0000 0.54841  0.62612  0.23997  Biso   1.000  O 
  O22      1.0000 0.54637  0.62124  0.49074  Biso   1.000  O 
  O23      1.0000 0.45626  0.87618  0.00534  Biso   1.000  O 
  O24      1.0000 0.44504  0.86537  0.26200  Biso   1.000  O 
  Hf12     1.0000 0.27219  0.52132  0.64662  Biso   1.000  Hf
  Hf13     1.0000 0.27178  0.73005  0.89670  Biso   1.000  Hf
  Hf14     1.0000 0.71525  0.77159  0.60444  Biso   1.000  Hf
  Hf15     1.0000 0.71337  0.97965  0.85531  Biso   1.000  Hf
  O25      1.0000 0.06251  0.66734  0.58068  Biso   1.000  O 
  O26      1.0000 0.06115  0.58283  0.82980  Biso   1.000  O 
  O27      1.0000 0.92423  0.91780  0.67057  Biso   1.000  O 
  O28      1.0000 0.92542  0.83301  0.92106  Biso   1.000  O 
  O29      1.0000 0.54471  0.62929  0.74078  Biso   1.000  O 
  O30      1.0000 0.54143  0.61981  0.99054  Biso   1.000  O 
  O31      1.0000 0.44130  0.87859  0.51051  Biso   1.000  O 
  O32      1.0000 0.44130  0.87167  0.75887  Biso   1.000  O 
