data_image0
_cell_length_a       5.06062
_cell_length_b       10.2114
_cell_length_c       10.479
_cell_angle_alpha    90
_cell_angle_beta     80
_cell_angle_gamma    90

_symmetry_space_group_name_H-M    "P 1"
_symmetry_int_tables_number       1

loop_
  _symmetry_equiv_pos_as_xyz
  'x, y, z'

loop_
  _atom_site_label
  _atom_site_occupancy
  _atom_site_fract_x
  _atom_site_fract_y
  _atom_site_fract_z
  _atom_site_thermal_displace_type
  _atom_site_B_iso_or_equiv
  _atom_site_type_symbol
  Ir1      1.0000 0.24335  0.00944  0.16772  Biso   1.000  Ir
  Hf1      1.0000 0.27279  0.23023  0.39412  Biso   1.000  Hf
  Hf2      1.0000 0.73377  0.26454  0.10267  Biso   1.000  Hf
  Hf3      1.0000 0.72361  0.47764  0.35362  Biso   1.000  Hf
  O1       1.0000 0.08980  0.15578  0.08081  Biso   1.000  O 
  O2       1.0000 0.04599  0.08813  0.32765  Biso   1.000  O 
  O3       1.0000 0.93995  0.41364  0.17390  Biso   1.000  O 
  O4       1.0000 0.92833  0.33472  0.42499  Biso   1.000  O 
  O5       1.0000 0.53894  0.11774  0.23209  Biso   1.000  O 
  O6       1.0000 0.54312  0.12100  0.48592  Biso   1.000  O 
  O7       1.0000 0.46500  0.38167  0.01099  Biso   1.000  O 
  O8       1.0000 0.45650  0.36656  0.25920  Biso   1.000  O 
  Hf4      1.0000 0.25859  0.02005  0.64578  Biso   1.000  Hf
  Hf5      1.0000 0.27087  0.22398  0.89813  Biso   1.000  Hf
  Hf6      1.0000 0.71428  0.27111  0.60549  Biso   1.000  Hf
  Hf7      1.0000 0.71734  0.47622  0.85884  Biso   1.000  Hf
  O9       1.0000 0.05779  0.16436  0.57464  Biso   1.000  O 
  O10      1.0000 0.05777  0.08189  0.82716  Biso   1.000  O 
  O11      1.0000 0.92824  0.41239  0.67745  Biso   1.000  O 
  O12      1.0000 0.93301  0.33630  0.93124  Biso   1.000  O 
  O13      1.0000 0.53710  0.12636  0.73407  Biso   1.000  O 
  O14      1.0000 0.57321  0.13610  0.97333  Biso   1.000  O 
  O15      1.0000 0.44078  0.37725  0.51057  Biso   1.000  O 
  O16      1.0000 0.44371  0.36965  0.76291  Biso   1.000  O 
  Hf8      1.0000 0.28249  0.52066  0.14494  Biso   1.000  Hf
  Hf9      1.0000 0.27754  0.72404  0.39856  Biso   1.000  Hf
  Hf10     1.0000 0.72651  0.77230  0.10170  Biso   1.000  Hf
  Hf11     1.0000 0.72255  0.97572  0.35633  Biso   1.000  Hf
  O17      1.0000 0.07944  0.66833  0.07839  Biso   1.000  O 
  O18      1.0000 0.07346  0.58032  0.32909  Biso   1.000  O 
  O19      1.0000 0.93633  0.91332  0.17252  Biso   1.000  O 
  O20      1.0000 0.93511  0.83242  0.42281  Biso   1.000  O 
  O21      1.0000 0.55738  0.62854  0.24079  Biso   1.000  O 
  O22      1.0000 0.55375  0.61919  0.49241  Biso   1.000  O 
  O23      1.0000 0.45941  0.89342  0.01356  Biso   1.000  O 
  O24      1.0000 0.44415  0.86887  0.26110  Biso   1.000  O 
  Hf12     1.0000 0.27473  0.51947  0.64967  Biso   1.000  Hf
  Hf13     1.0000 0.26710  0.73091  0.89828  Biso   1.000  Hf
  Hf14     1.0000 0.72196  0.76993  0.60769  Biso   1.000  Hf
  Hf15     1.0000 0.72401  0.98232  0.85586  Biso   1.000  Hf
  O25      1.0000 0.06718  0.66369  0.57948  Biso   1.000  O 
  O26      1.0000 0.06220  0.58465  0.83009  Biso   1.000  O 
  O27      1.0000 0.93387  0.91508  0.67254  Biso   1.000  O 
  O28      1.0000 0.91591  0.83139  0.92413  Biso   1.000  O 
  O29      1.0000 0.54827  0.62730  0.74274  Biso   1.000  O 
  O30      1.0000 0.53880  0.62323  0.99194  Biso   1.000  O 
  O31      1.0000 0.45068  0.87676  0.51030  Biso   1.000  O 
  O32      1.0000 0.44793  0.87011  0.76214  Biso   1.000  O 
