data_image0
_cell_length_a       10.0731
_cell_length_b       5.14327
_cell_length_c       10.5541
_cell_angle_alpha    90
_cell_angle_beta     90
_cell_angle_gamma    90

_symmetry_space_group_name_H-M    "P 1"
_symmetry_int_tables_number       1

loop_
  _symmetry_equiv_pos_as_xyz
  'x, y, z'

loop_
  _atom_site_label
  _atom_site_occupancy
  _atom_site_fract_x
  _atom_site_fract_y
  _atom_site_fract_z
  _atom_site_thermal_displace_type
  _atom_site_B_iso_or_equiv
  _atom_site_type_symbol
  Hf1      1.0000 0.13548  0.04257  0.17231  Biso   1.000  Hf
  Hf2      1.0000 0.13644  0.45962  0.42495  Biso   1.000  Hf
  Hf3      1.0000 0.34877  0.54358  0.17862  Biso   1.000  Hf
  Hf4      1.0000 0.36012  0.96132  0.42271  Biso   1.000  Hf
  Hf5      1.0000 0.64681  0.05191  0.08056  Biso   1.000  Hf
  Hf6      1.0000 0.63842  0.46419  0.33004  Biso   1.000  Hf
  Hf7      1.0000 0.85948  0.53719  0.08057  Biso   1.000  Hf
  Hf8      1.0000 0.86278  0.96248  0.33388  Biso   1.000  Hf
  O1       1.0000 0.03067  0.32677  0.08306  Biso   1.000  O 
  O2       1.0000 0.03186  0.17788  0.33270  Biso   1.000  O 
  O3       1.0000 0.45328  0.87258  0.09424  Biso   1.000  O 
  O4       1.0000 0.46623  0.67897  0.33061  Biso   1.000  O 
  O5       1.0000 0.27078  0.25400  0.29847  Biso   1.000  O 
  O6       1.0000 0.27107  0.25046  0.04530  Biso   1.000  O 
  O7       1.0000 0.21940  0.75510  0.29935  Biso   1.000  O 
  O8       1.0000 0.22037  0.75026  0.04560  Biso   1.000  O 
  O9       1.0000 0.51398  0.29694  0.18602  Biso   1.000  O 
  O10      1.0000 0.53009  0.18164  0.42217  Biso   1.000  O 
  O11      1.0000 0.96748  0.82644  0.16985  Biso   1.000  O 
  O12      1.0000 0.96667  0.67380  0.42098  Biso   1.000  O 
  O13      1.0000 0.77361  0.25232  0.45582  Biso   1.000  O 
  O14      1.0000 0.77758  0.25421  0.21107  Biso   1.000  O 
  O15      1.0000 0.72230  0.75042  0.45822  Biso   1.000  O 
  O16      1.0000 0.73281  0.76689  0.21471  Biso   1.000  O 
  Hf9      1.0000 0.13766  0.04609  0.67224  Biso   1.000  Hf
  Hf10     1.0000 0.13084  0.46471  0.92301  Biso   1.000  Hf
  Hf11     1.0000 0.35771  0.54875  0.67281  Biso   1.000  Hf
  Hf12     1.0000 0.35239  0.96783  0.92230  Biso   1.000  Hf
  Hf13     1.0000 0.63653  0.04362  0.57714  Biso   1.000  Hf
  Hf14     1.0000 0.63629  0.45763  0.81911  Biso   1.000  Hf
  Hf15     1.0000 0.86016  0.54511  0.57898  Biso   1.000  Hf
  Hf16     1.0000 0.86010  0.96226  0.82665  Biso   1.000  Hf
  O17      1.0000 0.03018  0.32875  0.58311  Biso   1.000  O 
  O18      1.0000 0.03051  0.17632  0.83066  Biso   1.000  O 
  O19      1.0000 0.46682  0.82303  0.57787  Biso   1.000  O 
  O20      1.0000 0.46548  0.69371  0.82374  Biso   1.000  O 
  O21      1.0000 0.27294  0.25433  0.79675  Biso   1.000  O 
  O22      1.0000 0.27373  0.25359  0.54652  Biso   1.000  O 
  O23      1.0000 0.21882  0.75154  0.79683  Biso   1.000  O 
  O24      1.0000 0.22267  0.75543  0.54722  Biso   1.000  O 
  O25      1.0000 0.52604  0.32250  0.66936  Biso   1.000  O 
  O26      1.0000 0.52923  0.17367  0.91833  Biso   1.000  O 
  O27      1.0000 0.96690  0.83065  0.66734  Biso   1.000  O 
  O28      1.0000 0.95879  0.67727  0.91943  Biso   1.000  O 
  O29      1.0000 0.78363  0.24351  0.94868  Biso   1.000  O 
  O30      1.0000 0.77363  0.25061  0.70104  Biso   1.000  O 
  O31      1.0000 0.71252  0.75776  0.95402  Biso   1.000  O 
  O32      1.0000 0.72363  0.75236  0.70408  Biso   1.000  O 
  Ir1      1.0000 0.57776  0.54338  0.05549  Biso   1.000  Ir
