data_image0
_cell_length_a       10.0626
_cell_length_b       10.6078
_cell_length_c       5.02229
_cell_angle_alpha    90
_cell_angle_beta     90
_cell_angle_gamma    90

_symmetry_space_group_name_H-M    "P 1"
_symmetry_int_tables_number       1

loop_
  _symmetry_equiv_pos_as_xyz
  'x, y, z'

loop_
  _atom_site_label
  _atom_site_occupancy
  _atom_site_fract_x
  _atom_site_fract_y
  _atom_site_fract_z
  _atom_site_thermal_displace_type
  _atom_site_B_iso_or_equiv
  _atom_site_type_symbol
  Hf1      1.0000 0.13771  0.00660  0.23729  Biso   1.000  Hf
  Hf2      1.0000 0.13624  0.20852  0.74376  Biso   1.000  Hf
  Hf3      1.0000 0.37410  0.26349  0.24472  Biso   1.000  Hf
  Hf4      1.0000 0.36760  0.49019  0.74518  Biso   1.000  Hf
  O1       1.0000 0.01405  0.16950  0.40368  Biso   1.000  O 
  O2       1.0000 0.03366  0.05814  0.89939  Biso   1.000  O 
  O3       1.0000 0.47236  0.42853  0.40962  Biso   1.000  O 
  O4       1.0000 0.47314  0.31953  0.90372  Biso   1.000  O 
  O5       1.0000 0.26429  0.09856  0.48934  Biso   1.000  O 
  O6       1.0000 0.29050  0.12130  0.97833  Biso   1.000  O 
  O7       1.0000 0.25713  0.42086  0.07066  Biso   1.000  O 
  O8       1.0000 0.25524  0.34488  0.57690  Biso   1.000  O 
  Hf5      1.0000 0.11648  0.54503  0.22773  Biso   1.000  Hf
  Hf6      1.0000 0.12623  0.74428  0.73946  Biso   1.000  Hf
  Hf7      1.0000 0.36392  0.76290  0.24348  Biso   1.000  Hf
  Hf8      1.0000 0.36523  0.98054  0.74225  Biso   1.000  Hf
  O9       1.0000 0.02201  0.69585  0.39088  Biso   1.000  O 
  O10      1.0000 0.02965  0.57513  0.87113  Biso   1.000  O 
  O11      1.0000 0.46040  0.92803  0.38107  Biso   1.000  O 
  O12      1.0000 0.46346  0.81745  0.88881  Biso   1.000  O 
  O13      1.0000 0.26108  0.61375  0.49125  Biso   1.000  O 
  O14      1.0000 0.26067  0.65255  0.98337  Biso   1.000  O 
  O15      1.0000 0.22535  0.88625  0.98333  Biso   1.000  O 
  O16      1.0000 0.22786  0.85998  0.48215  Biso   1.000  O 
  Hf9      1.0000 0.63409  0.01489  0.24810  Biso   1.000  Hf
  Hf10     1.0000 0.63164  0.23210  0.75002  Biso   1.000  Hf
  Hf11     1.0000 0.85162  0.26786  0.24469  Biso   1.000  Hf
  Hf12     1.0000 0.86294  0.48509  0.74563  Biso   1.000  Hf
  O17      1.0000 0.53192  0.17437  0.40473  Biso   1.000  O 
  O18      1.0000 0.54301  0.06432  0.89015  Biso   1.000  O 
  O19      1.0000 0.94804  0.44828  0.37974  Biso   1.000  O 
  O20      1.0000 0.96767  0.31876  0.87844  Biso   1.000  O 
  O21      1.0000 0.76666  0.11463  0.49580  Biso   1.000  O 
  O22      1.0000 0.77120  0.13740  0.99550  Biso   1.000  O 
  O23      1.0000 0.73019  0.38599  0.99924  Biso   1.000  O 
  O24      1.0000 0.72687  0.36410  0.50188  Biso   1.000  O 
  Hf13     1.0000 0.63010  0.51559  0.25368  Biso   1.000  Hf
  Hf14     1.0000 0.62956  0.73248  0.75252  Biso   1.000  Hf
  Hf15     1.0000 0.85336  0.76979  0.24721  Biso   1.000  Hf
  Hf16     1.0000 0.85587  0.98373  0.74365  Biso   1.000  Hf
  O25      1.0000 0.52623  0.67890  0.40317  Biso   1.000  O 
  O26      1.0000 0.53056  0.57117  0.90937  Biso   1.000  O 
  O27      1.0000 0.95842  0.93152  0.39857  Biso   1.000  O 
  O28      1.0000 0.95796  0.81971  0.89460  Biso   1.000  O 
  O29      1.0000 0.76036  0.61723  0.50352  Biso   1.000  O 
  O30      1.0000 0.76217  0.63446  0.00084  Biso   1.000  O 
  O31      1.0000 0.72539  0.88592  0.99847  Biso   1.000  O 
  O32      1.0000 0.72177  0.86609  0.49913  Biso   1.000  O 
  Ir1      1.0000 0.12011  0.30476  0.22614  Biso   1.000  Ir
