data_image0
_cell_length_a       10.058
_cell_length_b       10.2264
_cell_length_c       5.03862
_cell_angle_alpha    90
_cell_angle_beta     90
_cell_angle_gamma    90

_symmetry_space_group_name_H-M    "P 1"
_symmetry_int_tables_number       1

loop_
  _symmetry_equiv_pos_as_xyz
  'x, y, z'

loop_
  _atom_site_label
  _atom_site_occupancy
  _atom_site_fract_x
  _atom_site_fract_y
  _atom_site_fract_z
  _atom_site_thermal_displace_type
  _atom_site_B_iso_or_equiv
  _atom_site_type_symbol
  Ir1      1.0000 0.13204  0.03893  0.24589  Biso   1.000  Ir
  Hf1      1.0000 0.11346  0.23200  0.74411  Biso   1.000  Hf
  Hf2      1.0000 0.38039  0.24598  0.21910  Biso   1.000  Hf
  Hf3      1.0000 0.37822  0.98637  0.71056  Biso   1.000  Hf
  O1       1.0000 0.00274  0.15657  0.03584  Biso   1.000  O 
  O2       1.0000 0.02057  0.06291  0.55843  Biso   1.000  O 
  O3       1.0000 0.95517  0.31549  0.56551  Biso   1.000  O 
  O4       1.0000 0.96526  0.41480  0.07018  Biso   1.000  O 
  O5       1.0000 0.25163  0.15125  0.48669  Biso   1.000  O 
  O6       1.0000 0.22901  0.07522  0.96023  Biso   1.000  O 
  O7       1.0000 0.21514  0.33629  0.07570  Biso   1.000  O 
  O8       1.0000 0.20770  0.40031  0.57692  Biso   1.000  O 
  Hf4      1.0000 0.12501  0.49984  0.25784  Biso   1.000  Hf
  Hf5      1.0000 0.11348  0.73169  0.78357  Biso   1.000  Hf
  Hf6      1.0000 0.36784  0.74625  0.24394  Biso   1.000  Hf
  Hf7      1.0000 0.36438  0.50040  0.73017  Biso   1.000  Hf
  O9       1.0000 0.01887  0.65762  0.05326  Biso   1.000  O 
  O10      1.0000 0.99138  0.57742  0.54059  Biso   1.000  O 
  O11      1.0000 0.98270  0.82552  0.55901  Biso   1.000  O 
  O12      1.0000 0.04909  0.91247  0.02536  Biso   1.000  O 
  O13      1.0000 0.24010  0.64621  0.49575  Biso   1.000  O 
  O14      1.0000 0.25703  0.59626  0.00937  Biso   1.000  O 
  O15      1.0000 0.28239  0.82322  0.90075  Biso   1.000  O 
  O16      1.0000 0.26209  0.90828  0.40673  Biso   1.000  O 
  Hf8      1.0000 0.65276  0.98822  0.24551  Biso   1.000  Hf
  Hf9      1.0000 0.61171  0.22497  0.70178  Biso   1.000  Hf
  Hf10     1.0000 0.85307  0.25779  0.22599  Biso   1.000  Hf
  Hf11     1.0000 0.88485  0.98044  0.77114  Biso   1.000  Hf
  O17      1.0000 0.46527  0.14760  0.92897  Biso   1.000  O 
  O18      1.0000 0.50052  0.09676  0.43745  Biso   1.000  O 
  O19      1.0000 0.46805  0.34369  0.53118  Biso   1.000  O 
  O20      1.0000 0.46721  0.41307  0.04286  Biso   1.000  O 
  O21      1.0000 0.75644  0.12776  0.48761  Biso   1.000  O 
  O22      1.0000 0.72564  0.09362  0.98384  Biso   1.000  O 
  O23      1.0000 0.70084  0.34399  0.97510  Biso   1.000  O 
  O24      1.0000 0.72137  0.38171  0.47435  Biso   1.000  O 
  Hf12     1.0000 0.61919  0.50929  0.22214  Biso   1.000  Hf
  Hf13     1.0000 0.61914  0.74508  0.74699  Biso   1.000  Hf
  Hf14     1.0000 0.87632  0.73311  0.28715  Biso   1.000  Hf
  Hf15     1.0000 0.84903  0.47686  0.73910  Biso   1.000  Hf
  O25      1.0000 0.48614  0.64344  0.98749  Biso   1.000  O 
  O26      1.0000 0.49143  0.60040  0.48830  Biso   1.000  O 
  O27      1.0000 0.50682  0.84581  0.45666  Biso   1.000  O 
  O28      1.0000 0.52412  0.90071  0.93682  Biso   1.000  O 
  O29      1.0000 0.74165  0.62866  0.49774  Biso   1.000  O 
  O30      1.0000 0.73078  0.59177  0.99244  Biso   1.000  O 
  O31      1.0000 0.78778  0.85322  0.01391  Biso   1.000  O 
  O32      1.0000 0.74924  0.88024  0.51871  Biso   1.000  O 
