data_image0
_cell_length_a       10.1622
_cell_length_b       5.17594
_cell_length_c       10.5324
_cell_angle_alpha    90
_cell_angle_beta     80
_cell_angle_gamma    90

_symmetry_space_group_name_H-M    "P 1"
_symmetry_int_tables_number       1

loop_
  _symmetry_equiv_pos_as_xyz
  'x, y, z'

loop_
  _atom_site_label
  _atom_site_occupancy
  _atom_site_fract_x
  _atom_site_fract_y
  _atom_site_fract_z
  _atom_site_thermal_displace_type
  _atom_site_B_iso_or_equiv
  _atom_site_type_symbol
  Hf1      1.0000 0.13472  0.04333  0.14504  Biso   1.000  Hf
  Hf2      1.0000 0.13226  0.44624  0.40280  Biso   1.000  Hf
  Hf3      1.0000 0.36229  0.55342  0.09640  Biso   1.000  Hf
  Hf4      1.0000 0.35157  0.93417  0.35654  Biso   1.000  Hf
  O1       1.0000 0.03312  0.33959  0.07889  Biso   1.000  O 
  O2       1.0000 0.03112  0.16031  0.32769  Biso   1.000  O 
  O3       1.0000 0.45726  0.86848  0.16300  Biso   1.000  O 
  O4       1.0000 0.48027  0.69109  0.43634  Biso   1.000  O 
  O5       1.0000 0.27359  0.24828  0.23876  Biso   1.000  O 
  O6       1.0000 0.25450  0.19558  0.50221  Biso   1.000  O 
  O7       1.0000 0.22241  0.76745  0.00719  Biso   1.000  O 
  O8       1.0000 0.21011  0.73873  0.25846  Biso   1.000  O 
  Hf5      1.0000 0.12749  0.02102  0.65263  Biso   1.000  Hf
  Hf6      1.0000 0.12809  0.44002  0.89832  Biso   1.000  Hf
  Hf7      1.0000 0.35425  0.52322  0.60832  Biso   1.000  Hf
  Hf8      1.0000 0.35238  0.94311  0.85563  Biso   1.000  Hf
  O9       1.0000 0.02450  0.31991  0.58372  Biso   1.000  O 
  O10      1.0000 0.02440  0.14703  0.83325  Biso   1.000  O 
  O11      1.0000 0.45787  0.81420  0.67604  Biso   1.000  O 
  O12      1.0000 0.45822  0.65411  0.92111  Biso   1.000  O 
  O13      1.0000 0.26709  0.24258  0.74393  Biso   1.000  O 
  O14      1.0000 0.26489  0.22797  0.99145  Biso   1.000  O 
  O15      1.0000 0.21787  0.72955  0.51718  Biso   1.000  O 
  O16      1.0000 0.21627  0.72470  0.76289  Biso   1.000  O 
  Hf9      1.0000 0.63654  0.04356  0.14301  Biso   1.000  Hf
  Hf10     1.0000 0.64852  0.45337  0.39966  Biso   1.000  Hf
  Hf11     1.0000 0.85949  0.54377  0.10447  Biso   1.000  Hf
  Hf12     1.0000 0.86151  0.94949  0.35447  Biso   1.000  Hf
  O17      1.0000 0.53570  0.33646  0.07045  Biso   1.000  O 
  O18      1.0000 0.54126  0.12859  0.33731  Biso   1.000  O 
  O19      1.0000 0.96306  0.83755  0.16962  Biso   1.000  O 
  O20      1.0000 0.96042  0.65734  0.42490  Biso   1.000  O 
  O21      1.0000 0.77447  0.25801  0.23962  Biso   1.000  O 
  O22      1.0000 0.77457  0.22645  0.49267  Biso   1.000  O 
  O23      1.0000 0.72289  0.76257  0.01096  Biso   1.000  O 
  O24      1.0000 0.72496  0.74110  0.26035  Biso   1.000  O 
  Hf13     1.0000 0.62950  0.02748  0.64697  Biso   1.000  Hf
  Hf14     1.0000 0.63017  0.43886  0.89497  Biso   1.000  Hf
  Hf15     1.0000 0.85487  0.52781  0.60879  Biso   1.000  Hf
  Hf16     1.0000 0.85183  0.93933  0.85738  Biso   1.000  Hf
  O25      1.0000 0.52923  0.31715  0.57635  Biso   1.000  O 
  O26      1.0000 0.52419  0.15423  0.82637  Biso   1.000  O 
  O27      1.0000 0.95574  0.81930  0.67537  Biso   1.000  O 
  O28      1.0000 0.95395  0.64588  0.92305  Biso   1.000  O 
  O29      1.0000 0.76627  0.24096  0.74185  Biso   1.000  O 
  O30      1.0000 0.76612  0.22441  0.99110  Biso   1.000  O 
  O31      1.0000 0.72221  0.74467  0.51314  Biso   1.000  O 
  O32      1.0000 0.71556  0.72740  0.76262  Biso   1.000  O 
  Ir1      1.0000 0.41224  0.43276  0.32467  Biso   1.000  Ir
