data_image0
_cell_length_a       9.95395
_cell_length_b       10.3268
_cell_length_c       4.99089
_cell_angle_alpha    90
_cell_angle_beta     90
_cell_angle_gamma    90

_symmetry_space_group_name_H-M    "P 1"
_symmetry_int_tables_number       1

loop_
  _symmetry_equiv_pos_as_xyz
  'x, y, z'

loop_
  _atom_site_label
  _atom_site_occupancy
  _atom_site_fract_x
  _atom_site_fract_y
  _atom_site_fract_z
  _atom_site_thermal_displace_type
  _atom_site_B_iso_or_equiv
  _atom_site_type_symbol
  Ir1      1.0000 0.12911  0.01749  0.23104  Biso   1.000  Ir
  Hf1      1.0000 0.14194  0.23478  0.75499  Biso   1.000  Hf
  Hf2      1.0000 0.36841  0.26891  0.25888  Biso   1.000  Hf
  Hf3      1.0000 0.36966  0.48713  0.75395  Biso   1.000  Hf
  O1       1.0000 0.03921  0.17414  0.40263  Biso   1.000  O 
  O2       1.0000 0.03621  0.06878  0.90963  Biso   1.000  O 
  O3       1.0000 0.46605  0.43702  0.38948  Biso   1.000  O 
  O4       1.0000 0.46478  0.31645  0.88569  Biso   1.000  O 
  O5       1.0000 0.28584  0.13209  0.52254  Biso   1.000  O 
  O6       1.0000 0.26777  0.12510  0.02060  Biso   1.000  O 
  O7       1.0000 0.23147  0.38081  0.00297  Biso   1.000  O 
  O8       1.0000 0.23033  0.37366  0.50348  Biso   1.000  O 
  Hf4      1.0000 0.13730  0.51836  0.25281  Biso   1.000  Hf
  Hf5      1.0000 0.13734  0.73697  0.74987  Biso   1.000  Hf
  Hf6      1.0000 0.36806  0.77007  0.25393  Biso   1.000  Hf
  Hf7      1.0000 0.36996  0.98636  0.75327  Biso   1.000  Hf
  O9       1.0000 0.03965  0.68390  0.38749  Biso   1.000  O 
  O10      1.0000 0.04116  0.56735  0.88689  Biso   1.000  O 
  O11      1.0000 0.46834  0.93601  0.38799  Biso   1.000  O 
  O12      1.0000 0.46514  0.81644  0.88483  Biso   1.000  O 
  O13      1.0000 0.27514  0.62318  0.50020  Biso   1.000  O 
  O14      1.0000 0.27284  0.63302  0.00003  Biso   1.000  O 
  O15      1.0000 0.22712  0.88199  0.00531  Biso   1.000  O 
  O16      1.0000 0.23008  0.87730  0.49924  Biso   1.000  O 
  Hf8      1.0000 0.63395  0.01753  0.24851  Biso   1.000  Hf
  Hf9      1.0000 0.63627  0.23561  0.75019  Biso   1.000  Hf
  Hf10     1.0000 0.86945  0.26388  0.25108  Biso   1.000  Hf
  Hf11     1.0000 0.87061  0.48398  0.75079  Biso   1.000  Hf
  O17      1.0000 0.54280  0.18848  0.37941  Biso   1.000  O 
  O18      1.0000 0.53828  0.06746  0.88408  Biso   1.000  O 
  O19      1.0000 0.96826  0.43059  0.38665  Biso   1.000  O 
  O20      1.0000 0.96860  0.31565  0.88779  Biso   1.000  O 
  O21      1.0000 0.77150  0.11834  0.49660  Biso   1.000  O 
  O22      1.0000 0.77398  0.13408  0.99561  Biso   1.000  O 
  O23      1.0000 0.73407  0.38322  0.99969  Biso   1.000  O 
  O24      1.0000 0.73395  0.36855  0.49870  Biso   1.000  O 
  Hf12     1.0000 0.63787  0.51723  0.25158  Biso   1.000  Hf
  Hf13     1.0000 0.63819  0.73542  0.74892  Biso   1.000  Hf
  Hf14     1.0000 0.87071  0.76714  0.24694  Biso   1.000  Hf
  Hf15     1.0000 0.87177  0.98537  0.74605  Biso   1.000  Hf
  O25      1.0000 0.54077  0.68667  0.38482  Biso   1.000  O 
  O26      1.0000 0.54184  0.56698  0.88613  Biso   1.000  O 
  O27      1.0000 0.97074  0.93305  0.38335  Biso   1.000  O 
  O28      1.0000 0.96644  0.81718  0.88203  Biso   1.000  O 
  O29      1.0000 0.77481  0.61837  0.49783  Biso   1.000  O 
  O30      1.0000 0.77562  0.63394  0.99686  Biso   1.000  O 
  O31      1.0000 0.73341  0.88454  0.99312  Biso   1.000  O 
  O32      1.0000 0.73665  0.86952  0.49504  Biso   1.000  O 
