data_image0
_cell_length_a       10.1459
_cell_length_b       10.2993
_cell_length_c       10.4965
_cell_angle_alpha    90
_cell_angle_beta     80
_cell_angle_gamma    90

_symmetry_space_group_name_H-M    "P 1"
_symmetry_int_tables_number       1

loop_
  _symmetry_equiv_pos_as_xyz
  'x, y, z'

loop_
  _atom_site_label
  _atom_site_occupancy
  _atom_site_fract_x
  _atom_site_fract_y
  _atom_site_fract_z
  _atom_site_thermal_displace_type
  _atom_site_B_iso_or_equiv
  _atom_site_type_symbol
  Hf1      1.0000 0.13632  0.02205  0.14649  Biso   1.000  Hf
  Hf2      1.0000 0.13711  0.23192  0.39680  Biso   1.000  Hf
  Hf3      1.0000 0.35604  0.27364  0.09624  Biso   1.000  Hf
  Hf4      1.0000 0.35157  0.47981  0.35031  Biso   1.000  Hf
  O1       1.0000 0.03453  0.16974  0.07895  Biso   1.000  O 
  O2       1.0000 0.03579  0.08255  0.32821  Biso   1.000  O 
  O3       1.0000 0.46062  0.42009  0.16851  Biso   1.000  O 
  O4       1.0000 0.48436  0.35797  0.43666  Biso   1.000  O 
  O5       1.0000 0.28144  0.12551  0.23826  Biso   1.000  O 
  O6       1.0000 0.27045  0.11159  0.49291  Biso   1.000  O 
  O7       1.0000 0.21987  0.38201  0.00438  Biso   1.000  O 
  O8       1.0000 0.20429  0.37616  0.25220  Biso   1.000  O 
  Hf5      1.0000 0.13503  0.01837  0.64778  Biso   1.000  Hf
  Hf6      1.0000 0.13360  0.22701  0.89453  Biso   1.000  Hf
  Hf7      1.0000 0.35863  0.27283  0.60565  Biso   1.000  Hf
  Hf8      1.0000 0.35588  0.47792  0.85442  Biso   1.000  Hf
  O9       1.0000 0.03455  0.16801  0.58060  Biso   1.000  O 
  O10      1.0000 0.03113  0.07965  0.82960  Biso   1.000  O 
  O11      1.0000 0.46255  0.41406  0.67717  Biso   1.000  O 
  O12      1.0000 0.46249  0.33296  0.92149  Biso   1.000  O 
  O13      1.0000 0.27325  0.12816  0.74042  Biso   1.000  O 
  O14      1.0000 0.27076  0.11997  0.98894  Biso   1.000  O 
  O15      1.0000 0.21989  0.37928  0.51303  Biso   1.000  O 
  O16      1.0000 0.21985  0.36979  0.75885  Biso   1.000  O 
  Hf9      1.0000 0.13433  0.52287  0.14357  Biso   1.000  Hf
  Hf10     1.0000 0.13261  0.72725  0.39734  Biso   1.000  Hf
  Hf11     1.0000 0.35694  0.77161  0.10381  Biso   1.000  Hf
  Hf12     1.0000 0.35769  0.96565  0.35861  Biso   1.000  Hf
  O17      1.0000 0.03058  0.67188  0.07917  Biso   1.000  O 
  O18      1.0000 0.02985  0.58434  0.32748  Biso   1.000  O 
  O19      1.0000 0.46107  0.91564  0.17393  Biso   1.000  O 
  O20      1.0000 0.45811  0.82161  0.42323  Biso   1.000  O 
  O21      1.0000 0.27166  0.62933  0.24052  Biso   1.000  O 
  O22      1.0000 0.26842  0.61923  0.49206  Biso   1.000  O 
  O23      1.0000 0.21987  0.88046  0.01076  Biso   1.000  O 
  O24      1.0000 0.21849  0.86928  0.26089  Biso   1.000  O 
  Hf13     1.0000 0.13337  0.52155  0.64721  Biso   1.000  Hf
  Hf14     1.0000 0.13161  0.72813  0.89749  Biso   1.000  Hf
  Hf15     1.0000 0.35651  0.76680  0.60648  Biso   1.000  Hf
  Hf16     1.0000 0.35457  0.97731  0.85415  Biso   1.000  Hf
  O25      1.0000 0.02752  0.66613  0.57977  Biso   1.000  O 
  O26      1.0000 0.02972  0.58101  0.83106  Biso   1.000  O 
  O27      1.0000 0.45873  0.91527  0.67093  Biso   1.000  O 
  O28      1.0000 0.45899  0.83233  0.92226  Biso   1.000  O 
  O29      1.0000 0.27092  0.62691  0.74190  Biso   1.000  O 
  O30      1.0000 0.27025  0.62111  0.99068  Biso   1.000  O 
  O31      1.0000 0.21823  0.87345  0.51272  Biso   1.000  O 
  O32      1.0000 0.21747  0.86951  0.76131  Biso   1.000  O 
  Hf17     1.0000 0.63844  0.02030  0.14677  Biso   1.000  Hf
  Hf18     1.0000 0.64862  0.22888  0.40099  Biso   1.000  Hf
  Hf19     1.0000 0.85945  0.27245  0.10433  Biso   1.000  Hf
  Hf20     1.0000 0.85966  0.47838  0.35418  Biso   1.000  Hf
  O33      1.0000 0.53077  0.16178  0.07372  Biso   1.000  O 
  O34      1.0000 0.55037  0.05698  0.34176  Biso   1.000  O 
  O35      1.0000 0.95957  0.42189  0.16787  Biso   1.000  O 
  O36      1.0000 0.96283  0.33297  0.42251  Biso   1.000  O 
  O37      1.0000 0.77749  0.12941  0.23998  Biso   1.000  O 
  O38      1.0000 0.77962  0.11806  0.49318  Biso   1.000  O 
  O39      1.0000 0.72089  0.37906  0.01131  Biso   1.000  O 
  O40      1.0000 0.72357  0.37144  0.26107  Biso   1.000  O 
  Hf21     1.0000 0.63564  0.02014  0.64545  Biso   1.000  Hf
  Hf22     1.0000 0.63531  0.22573  0.89667  Biso   1.000  Hf
  Hf23     1.0000 0.86100  0.27015  0.60759  Biso   1.000  Hf
  Hf24     1.0000 0.85594  0.47708  0.85625  Biso   1.000  Hf
  O41      1.0000 0.53312  0.16719  0.57875  Biso   1.000  O 
  O42      1.0000 0.53090  0.08199  0.82657  Biso   1.000  O 
  O43      1.0000 0.96104  0.41756  0.67332  Biso   1.000  O 
  O44      1.0000 0.95946  0.32946  0.92017  Biso   1.000  O 
  O45      1.0000 0.77290  0.12724  0.74175  Biso   1.000  O 
  O46      1.0000 0.77269  0.11942  0.99128  Biso   1.000  O 
  O47      1.0000 0.72579  0.37682  0.51364  Biso   1.000  O 
  O48      1.0000 0.72045  0.36966  0.76215  Biso   1.000  O 
  Hf25     1.0000 0.63597  0.52259  0.14650  Biso   1.000  Hf
  Hf26     1.0000 0.63523  0.72465  0.39584  Biso   1.000  Hf
  Hf27     1.0000 0.85659  0.77163  0.10426  Biso   1.000  Hf
  Hf28     1.0000 0.85696  0.97733  0.35423  Biso   1.000  Hf
  O49      1.0000 0.53075  0.66749  0.07762  Biso   1.000  O 
  O50      1.0000 0.52872  0.58447  0.32492  Biso   1.000  O 
  O51      1.0000 0.96108  0.91929  0.17006  Biso   1.000  O 
  O52      1.0000 0.95990  0.83246  0.42213  Biso   1.000  O 
  O53      1.0000 0.77266  0.62810  0.24058  Biso   1.000  O 
  O54      1.0000 0.77163  0.61903  0.49054  Biso   1.000  O 
  O55      1.0000 0.71882  0.88004  0.01085  Biso   1.000  O 
  O56      1.0000 0.72219  0.86803  0.25943  Biso   1.000  O 
  Hf29     1.0000 0.63540  0.51919  0.64768  Biso   1.000  Hf
  Hf30     1.0000 0.63213  0.72699  0.89659  Biso   1.000  Hf
  Hf31     1.0000 0.85440  0.77049  0.60474  Biso   1.000  Hf
  Hf32     1.0000 0.85323  0.97690  0.85509  Biso   1.000  Hf
  O57      1.0000 0.53054  0.66303  0.57958  Biso   1.000  O 
  O58      1.0000 0.52943  0.58240  0.82908  Biso   1.000  O 
  O59      1.0000 0.95761  0.91643  0.67169  Biso   1.000  O 
  O60      1.0000 0.95746  0.83103  0.92112  Biso   1.000  O 
  O61      1.0000 0.77112  0.62759  0.74129  Biso   1.000  O 
  O62      1.0000 0.76994  0.61999  0.99126  Biso   1.000  O 
  O63      1.0000 0.71769  0.87694  0.50990  Biso   1.000  O 
  O64      1.0000 0.71655  0.86985  0.76048  Biso   1.000  O 
  Ir1      1.0000 0.41464  0.22673  0.32801  Biso   1.000  Ir
