data_image0
_cell_length_a       10.3556
_cell_length_b       5.34575
_cell_length_c       10.3144
_cell_angle_alpha    90
_cell_angle_beta     90
_cell_angle_gamma    90

_symmetry_space_group_name_H-M    "P 1"
_symmetry_int_tables_number       1

loop_
  _symmetry_equiv_pos_as_xyz
  'x, y, z'

loop_
  _atom_site_label
  _atom_site_occupancy
  _atom_site_fract_x
  _atom_site_fract_y
  _atom_site_fract_z
  _atom_site_thermal_displace_type
  _atom_site_B_iso_or_equiv
  _atom_site_type_symbol
  Hf1      1.0000 0.12816  0.98086  0.15874  Biso   1.000  Hf
  Hf2      1.0000 0.05360  0.49677  0.35776  Biso   1.000  Hf
  Hf3      1.0000 0.35184  0.42841  0.10347  Biso   1.000  Hf
  Hf4      1.0000 0.40162  0.94454  0.39906  Biso   1.000  Hf
  O1       1.0000 0.97618  0.24802  0.95073  Biso   1.000  O 
  O2       1.0000 0.97752  0.17664  0.25764  Biso   1.000  O 
  O3       1.0000 0.89971  0.68245  0.26499  Biso   1.000  O 
  O4       1.0000 0.89908  0.85748  0.01895  Biso   1.000  O 
  O5       1.0000 0.19982  0.35075  0.23058  Biso   1.000  O 
  O6       1.0000 0.27968  0.06804  0.03223  Biso   1.000  O 
  O7       1.0000 0.27792  0.42279  0.95621  Biso   1.000  O 
  O8       1.0000 0.14497  0.82185  0.29029  Biso   1.000  O 
  Hf5      1.0000 0.08160  0.84428  0.64038  Biso   1.000  Hf
  Hf6      1.0000 0.12267  0.34386  0.82489  Biso   1.000  Hf
  Hf7      1.0000 0.33954  0.41250  0.59854  Biso   1.000  Hf
  Hf8      1.0000 0.35107  0.77996  0.89443  Biso   1.000  Hf
  O9       1.0000 0.97842  0.25822  0.49438  Biso   1.000  O 
  O10      1.0000 0.04480  0.01387  0.75616  Biso   1.000  O 
  O11      1.0000 0.98764  0.52543  0.72189  Biso   1.000  O 
  O12      1.0000 0.93910  0.73561  0.50349  Biso   1.000  O 
  O13      1.0000 0.27000  0.16942  0.73411  Biso   1.000  O 
  O14      1.0000 0.25868  0.10773  0.50185  Biso   1.000  O 
  O15      1.0000 0.19729  0.60287  0.49905  Biso   1.000  O 
  O16      1.0000 0.22497  0.65915  0.74542  Biso   1.000  O 
  Hf9      1.0000 0.61582  0.02155  0.15359  Biso   1.000  Hf
  Hf10     1.0000 0.55640  0.50879  0.35708  Biso   1.000  Hf
  Hf11     1.0000 0.81052  0.51048  0.10285  Biso   1.000  Hf
  Hf12     1.0000 0.89999  0.94908  0.40010  Biso   1.000  Hf
  O17      1.0000 0.49841  0.26269  0.00002  Biso   1.000  O 
  O18      1.0000 0.45914  0.19232  0.24898  Biso   1.000  O 
  O19      1.0000 0.40925  0.68370  0.25207  Biso   1.000  O 
  O20      1.0000 0.44415  0.75161  0.00796  Biso   1.000  O 
  O21      1.0000 0.68565  0.35631  0.23624  Biso   1.000  O 
  O22      1.0000 0.74728  0.15771  0.02757  Biso   1.000  O 
  O23      1.0000 0.73334  0.51798  0.97559  Biso   1.000  O 
  O24      1.0000 0.64220  0.84003  0.27355  Biso   1.000  O 
  Hf13     1.0000 0.57718  0.85606  0.64447  Biso   1.000  Hf
  Hf14     1.0000 0.61366  0.34894  0.84684  Biso   1.000  Hf
  Hf15     1.0000 0.83636  0.42101  0.60347  Biso   1.000  Hf
  Hf16     1.0000 0.91766  0.87328  0.89362  Biso   1.000  Hf
  O25      1.0000 0.48477  0.25955  0.49031  Biso   1.000  O 
  O26      1.0000 0.53906  0.02747  0.75741  Biso   1.000  O 
  O27      1.0000 0.47667  0.53320  0.74202  Biso   1.000  O 
  O28      1.0000 0.44021  0.73569  0.50555  Biso   1.000  O 
  O29      1.0000 0.76770  0.18056  0.75249  Biso   1.000  O 
  O30      1.0000 0.75476  0.11144  0.51134  Biso   1.000  O 
  O31      1.0000 0.69472  0.61340  0.49621  Biso   1.000  O 
  O32      1.0000 0.71859  0.66290  0.74291  Biso   1.000  O 
  Ir1      1.0000 0.07214  0.43177  0.08258  Biso   1.000  Ir
