data_image0
_cell_length_a       9.94859
_cell_length_b       10.3715
_cell_length_c       9.99849
_cell_angle_alpha    90
_cell_angle_beta     90
_cell_angle_gamma    90

_symmetry_space_group_name_H-M    "P 1"
_symmetry_int_tables_number       1

loop_
  _symmetry_equiv_pos_as_xyz
  'x, y, z'

loop_
  _atom_site_label
  _atom_site_occupancy
  _atom_site_fract_x
  _atom_site_fract_y
  _atom_site_fract_z
  _atom_site_thermal_displace_type
  _atom_site_B_iso_or_equiv
  _atom_site_type_symbol
  Ir1      1.0000 0.12777  0.03542  0.10723  Biso   1.000  Ir
  Hf1      1.0000 0.13463  0.23023  0.37609  Biso   1.000  Hf
  Hf2      1.0000 0.36685  0.26632  0.12605  Biso   1.000  Hf
  Hf3      1.0000 0.36686  0.48205  0.37644  Biso   1.000  Hf
  O1       1.0000 0.03336  0.18502  0.19425  Biso   1.000  O 
  O2       1.0000 0.03815  0.06532  0.44934  Biso   1.000  O 
  O3       1.0000 0.46395  0.43285  0.19364  Biso   1.000  O 
  O4       1.0000 0.46508  0.31484  0.44459  Biso   1.000  O 
  O5       1.0000 0.26219  0.10827  0.24619  Biso   1.000  O 
  O6       1.0000 0.27408  0.13069  0.49783  Biso   1.000  O 
  O7       1.0000 0.23007  0.38046  0.50001  Biso   1.000  O 
  O8       1.0000 0.23083  0.36273  0.24989  Biso   1.000  O 
  Hf4      1.0000 0.13761  0.01555  0.62816  Biso   1.000  Hf
  Hf5      1.0000 0.13663  0.23614  0.87357  Biso   1.000  Hf
  Hf6      1.0000 0.36835  0.26484  0.62535  Biso   1.000  Hf
  Hf7      1.0000 0.36859  0.48325  0.87597  Biso   1.000  Hf
  O9       1.0000 0.03828  0.18358  0.69586  Biso   1.000  O 
  O10      1.0000 0.03999  0.06121  0.93687  Biso   1.000  O 
  O11      1.0000 0.46544  0.43271  0.69470  Biso   1.000  O 
  O12      1.0000 0.46478  0.31260  0.94338  Biso   1.000  O 
  O13      1.0000 0.27468  0.11747  0.75045  Biso   1.000  O 
  O14      1.0000 0.27185  0.13064  0.99905  Biso   1.000  O 
  O15      1.0000 0.23282  0.38116  0.99951  Biso   1.000  O 
  O16      1.0000 0.23158  0.36716  0.74948  Biso   1.000  O 
  Hf8      1.0000 0.13251  0.51453  0.12635  Biso   1.000  Hf
  Hf9      1.0000 0.13535  0.73168  0.37713  Biso   1.000  Hf
  Hf10     1.0000 0.36407  0.76450  0.12781  Biso   1.000  Hf
  Hf11     1.0000 0.36254  0.97886  0.37436  Biso   1.000  Hf
  O17      1.0000 0.03670  0.68341  0.19447  Biso   1.000  O 
  O18      1.0000 0.03626  0.56320  0.44599  Biso   1.000  O 
  O19      1.0000 0.46682  0.93141  0.19621  Biso   1.000  O 
  O20      1.0000 0.46714  0.81589  0.44977  Biso   1.000  O 
  O21      1.0000 0.26916  0.60983  0.24945  Biso   1.000  O 
  O22      1.0000 0.27273  0.63082  0.50056  Biso   1.000  O 
  O23      1.0000 0.22889  0.88077  0.50486  Biso   1.000  O 
  O24      1.0000 0.24263  0.85253  0.26073  Biso   1.000  O 
  Hf12     1.0000 0.13541  0.51572  0.62606  Biso   1.000  Hf
  Hf13     1.0000 0.13493  0.73303  0.87846  Biso   1.000  Hf
  Hf14     1.0000 0.36677  0.76559  0.62802  Biso   1.000  Hf
  Hf15     1.0000 0.36584  0.98080  0.87855  Biso   1.000  Hf
  O25      1.0000 0.03774  0.68356  0.69486  Biso   1.000  O 
  O26      1.0000 0.03765  0.56414  0.94529  Biso   1.000  O 
  O27      1.0000 0.46382  0.93301  0.69675  Biso   1.000  O 
  O28      1.0000 0.46237  0.81360  0.94318  Biso   1.000  O 
  O29      1.0000 0.27137  0.61656  0.75106  Biso   1.000  O 
  O30      1.0000 0.26741  0.63385  0.00014  Biso   1.000  O 
  O31      1.0000 0.22325  0.88800  0.00890  Biso   1.000  O 
  O32      1.0000 0.23002  0.86662  0.75426  Biso   1.000  O 
  Hf16     1.0000 0.63480  0.01592  0.12610  Biso   1.000  Hf
  Hf17     1.0000 0.63459  0.23179  0.37677  Biso   1.000  Hf
  Hf18     1.0000 0.86260  0.26690  0.12554  Biso   1.000  Hf
  Hf19     1.0000 0.86623  0.48286  0.37637  Biso   1.000  Hf
  O33      1.0000 0.53413  0.18269  0.19617  Biso   1.000  O 
  O34      1.0000 0.53780  0.06419  0.44326  Biso   1.000  O 
  O35      1.0000 0.96304  0.43244  0.19545  Biso   1.000  O 
  O36      1.0000 0.96429  0.31377  0.44333  Biso   1.000  O 
  O37      1.0000 0.76996  0.11761  0.24895  Biso   1.000  O 
  O38      1.0000 0.77298  0.13151  0.49835  Biso   1.000  O 
  O39      1.0000 0.73078  0.38123  0.50031  Biso   1.000  O 
  O40      1.0000 0.72791  0.36754  0.25020  Biso   1.000  O 
  Hf20     1.0000 0.63491  0.01396  0.62264  Biso   1.000  Hf
  Hf21     1.0000 0.63622  0.23133  0.87474  Biso   1.000  Hf
  Hf22     1.0000 0.86762  0.26477  0.62507  Biso   1.000  Hf
  Hf23     1.0000 0.86763  0.48237  0.87564  Biso   1.000  Hf
  O41      1.0000 0.53918  0.18312  0.69291  Biso   1.000  O 
  O42      1.0000 0.53879  0.06473  0.94621  Biso   1.000  O 
  O43      1.0000 0.96583  0.43237  0.69487  Biso   1.000  O 
  O44      1.0000 0.96659  0.31398  0.94483  Biso   1.000  O 
  O45      1.0000 0.77165  0.11505  0.74786  Biso   1.000  O 
  O46      1.0000 0.77504  0.13005  0.99790  Biso   1.000  O 
  O47      1.0000 0.73146  0.38015  0.99967  Biso   1.000  O 
  O48      1.0000 0.73159  0.36582  0.74970  Biso   1.000  O 
  Hf24     1.0000 0.63421  0.51740  0.12767  Biso   1.000  Hf
  Hf25     1.0000 0.63548  0.73431  0.37548  Biso   1.000  Hf
  Hf26     1.0000 0.86995  0.76728  0.12414  Biso   1.000  Hf
  Hf27     1.0000 0.86911  0.98541  0.37345  Biso   1.000  Hf
  O49      1.0000 0.53609  0.68379  0.19645  Biso   1.000  O 
  O50      1.0000 0.53781  0.56514  0.44382  Biso   1.000  O 
  O51      1.0000 0.97378  0.93922  0.18973  Biso   1.000  O 
  O52      1.0000 0.96435  0.81541  0.44188  Biso   1.000  O 
  O53      1.0000 0.77196  0.61731  0.25000  Biso   1.000  O 
  O54      1.0000 0.77073  0.63208  0.49983  Biso   1.000  O 
  O55      1.0000 0.73207  0.88280  0.49760  Biso   1.000  O 
  O56      1.0000 0.73636  0.86760  0.24763  Biso   1.000  O 
  Hf28     1.0000 0.63516  0.51557  0.62561  Biso   1.000  Hf
  Hf29     1.0000 0.63474  0.73117  0.87656  Biso   1.000  Hf
  Hf30     1.0000 0.86807  0.76543  0.62415  Biso   1.000  Hf
  Hf31     1.0000 0.86158  0.97990  0.87278  Biso   1.000  Hf
  O57      1.0000 0.53662  0.68172  0.69615  Biso   1.000  O 
  O58      1.0000 0.53851  0.56382  0.94622  Biso   1.000  O 
  O59      1.0000 0.96371  0.93295  0.69354  Biso   1.000  O 
  O60      1.0000 0.96270  0.81408  0.94129  Biso   1.000  O 
  O61      1.0000 0.77185  0.61604  0.74997  Biso   1.000  O 
  O62      1.0000 0.76891  0.63329  0.00053  Biso   1.000  O 
  O63      1.0000 0.72883  0.87983  0.99850  Biso   1.000  O 
  O64      1.0000 0.72919  0.86495  0.74799  Biso   1.000  O 
