data_image0
_cell_length_a       10.0656
_cell_length_b       5.23631
_cell_length_c       10.1188
_cell_angle_alpha    90
_cell_angle_beta     90
_cell_angle_gamma    90

_symmetry_space_group_name_H-M    "P 1"
_symmetry_int_tables_number       1

loop_
  _symmetry_equiv_pos_as_xyz
  'x, y, z'

loop_
  _atom_site_label
  _atom_site_occupancy
  _atom_site_fract_x
  _atom_site_fract_y
  _atom_site_fract_z
  _atom_site_thermal_displace_type
  _atom_site_B_iso_or_equiv
  _atom_site_type_symbol
  Hf1      1.0000 0.12074  0.09806  0.10900  Biso   1.000  Hf
  Hf2      1.0000 0.14493  0.41147  0.39267  Biso   1.000  Hf
  Hf3      1.0000 0.39357  0.51531  0.10495  Biso   1.000  Hf
  Hf4      1.0000 0.37441  0.91821  0.37609  Biso   1.000  Hf
  O1       1.0000 0.00347  0.34447  0.23171  Biso   1.000  O 
  O2       1.0000 0.03960  0.09566  0.46049  Biso   1.000  O 
  O3       1.0000 0.47020  0.85662  0.18989  Biso   1.000  O 
  O4       1.0000 0.48332  0.60621  0.46017  Biso   1.000  O 
  O5       1.0000 0.23978  0.11274  0.26584  Biso   1.000  O 
  O6       1.0000 0.28715  0.21819  0.50597  Biso   1.000  O 
  O7       1.0000 0.23858  0.72299  0.50636  Biso   1.000  O 
  O8       1.0000 0.29316  0.58933  0.27689  Biso   1.000  O 
  Hf5      1.0000 0.14634  0.99148  0.63014  Biso   1.000  Hf
  Hf6      1.0000 0.14245  0.42866  0.87224  Biso   1.000  Hf
  Hf7      1.0000 0.37731  0.49515  0.62904  Biso   1.000  Hf
  Hf8      1.0000 0.37975  0.92820  0.87424  Biso   1.000  Hf
  O9       1.0000 0.05010  0.33598  0.68975  Biso   1.000  O 
  O10      1.0000 0.04357  0.08870  0.92739  Biso   1.000  O 
  O11      1.0000 0.47452  0.83336  0.69613  Biso   1.000  O 
  O12      1.0000 0.48546  0.60284  0.93186  Biso   1.000  O 
  O13      1.0000 0.27993  0.19653  0.75125  Biso   1.000  O 
  O14      1.0000 0.28923  0.21555  0.98941  Biso   1.000  O 
  O15      1.0000 0.23422  0.79216  0.01114  Biso   1.000  O 
  O16      1.0000 0.24222  0.69726  0.75628  Biso   1.000  O 
  Hf9      1.0000 0.63609  0.02563  0.12527  Biso   1.000  Hf
  Hf10     1.0000 0.64341  0.43999  0.37667  Biso   1.000  Hf
  Hf11     1.0000 0.85608  0.52881  0.11295  Biso   1.000  Hf
  Hf12     1.0000 0.87411  0.94671  0.37361  Biso   1.000  Hf
  O17      1.0000 0.53949  0.35077  0.20271  Biso   1.000  O 
  O18      1.0000 0.54554  0.09991  0.44071  Biso   1.000  O 
  O19      1.0000 0.95779  0.86946  0.17765  Biso   1.000  O 
  O20      1.0000 0.97653  0.61258  0.44667  Biso   1.000  O 
  O21      1.0000 0.76886  0.20687  0.24688  Biso   1.000  O 
  O22      1.0000 0.77875  0.23789  0.49505  Biso   1.000  O 
  O23      1.0000 0.74491  0.73957  0.49426  Biso   1.000  O 
  O24      1.0000 0.73323  0.71220  0.24695  Biso   1.000  O 
  Hf13     1.0000 0.64058  0.99080  0.61607  Biso   1.000  Hf
  Hf14     1.0000 0.65102  0.41437  0.86521  Biso   1.000  Hf
  Hf15     1.0000 0.88216  0.49833  0.61826  Biso   1.000  Hf
  Hf16     1.0000 0.87144  0.91419  0.86553  Biso   1.000  Hf
  O25      1.0000 0.54405  0.32078  0.69525  Biso   1.000  O 
  O26      1.0000 0.54117  0.11083  0.95628  Biso   1.000  O 
  O27      1.0000 0.97504  0.82857  0.69315  Biso   1.000  O 
  O28      1.0000 0.96174  0.57916  0.92378  Biso   1.000  O 
  O29      1.0000 0.77816  0.18428  0.74169  Biso   1.000  O 
  O30      1.0000 0.78095  0.20213  0.99246  Biso   1.000  O 
  O31      1.0000 0.73708  0.70488  0.99385  Biso   1.000  O 
  O32      1.0000 0.73909  0.68787  0.74060  Biso   1.000  O 
  Ir1      1.0000 0.12105  0.60441  0.15012  Biso   1.000  Ir
