data_image0
_cell_length_a       10.1513
_cell_length_b       10.2599
_cell_length_c       10.1036
_cell_angle_alpha    90
_cell_angle_beta     90
_cell_angle_gamma    90

_symmetry_space_group_name_H-M    "P 1"
_symmetry_int_tables_number       1

loop_
  _symmetry_equiv_pos_as_xyz
  'x, y, z'

loop_
  _atom_site_label
  _atom_site_occupancy
  _atom_site_fract_x
  _atom_site_fract_y
  _atom_site_fract_z
  _atom_site_thermal_displace_type
  _atom_site_B_iso_or_equiv
  _atom_site_type_symbol
  Hf1      1.0000 0.08862  0.95656  0.15329  Biso   1.000  Hf
  Hf2      1.0000 0.08687  0.23743  0.37956  Biso   1.000  Hf
  Hf3      1.0000 0.37152  0.24112  0.11772  Biso   1.000  Hf
  Hf4      1.0000 0.35366  0.00895  0.37400  Biso   1.000  Hf
  O1       1.0000 0.89472  0.18866  0.94949  Biso   1.000  O 
  O2       1.0000 0.97981  0.08857  0.26526  Biso   1.000  O 
  O3       1.0000 0.02127  0.33254  0.19767  Biso   1.000  O 
  O4       1.0000 0.97923  0.41709  0.94529  Biso   1.000  O 
  O5       1.0000 0.23629  0.15036  0.25593  Biso   1.000  O 
  O6       1.0000 0.27495  0.07414  0.02757  Biso   1.000  O 
  O7       1.0000 0.23689  0.31403  0.93994  Biso   1.000  O 
  O8       1.0000 0.27304  0.40719  0.20429  Biso   1.000  O 
  Hf5      1.0000 0.06845  0.97614  0.64610  Biso   1.000  Hf
  Hf6      1.0000 0.06060  0.25989  0.83711  Biso   1.000  Hf
  Hf7      1.0000 0.31132  0.22902  0.61980  Biso   1.000  Hf
  Hf8      1.0000 0.33018  0.00256  0.87866  Biso   1.000  Hf
  O9       1.0000 0.94067  0.16327  0.49117  Biso   1.000  O 
  O10      1.0000 0.94701  0.10293  0.73418  Biso   1.000  O 
  O11      1.0000 0.93368  0.36196  0.70825  Biso   1.000  O 
  O12      1.0000 0.99764  0.40916  0.45191  Biso   1.000  O 
  O13      1.0000 0.19594  0.12414  0.75387  Biso   1.000  O 
  O14      1.0000 0.19245  0.08955  0.50416  Biso   1.000  O 
  O15      1.0000 0.24535  0.33517  0.46131  Biso   1.000  O 
  O16      1.0000 0.18532  0.38121  0.71256  Biso   1.000  O 
  Hf9      1.0000 0.11353  0.50581  0.12364  Biso   1.000  Hf
  Hf10     1.0000 0.09024  0.72916  0.37758  Biso   1.000  Hf
  Hf11     1.0000 0.36506  0.73822  0.12378  Biso   1.000  Hf
  Hf12     1.0000 0.33698  0.49883  0.37167  Biso   1.000  Hf
  O17      1.0000 0.99255  0.65261  0.00381  Biso   1.000  O 
  O18      1.0000 0.97668  0.59162  0.24927  Biso   1.000  O 
  O19      1.0000 0.95097  0.84027  0.27341  Biso   1.000  O 
  O20      1.0000 0.94622  0.89980  0.02744  Biso   1.000  O 
  O21      1.0000 0.22443  0.64389  0.25109  Biso   1.000  O 
  O22      1.0000 0.18418  0.57873  0.99329  Biso   1.000  O 
  O23      1.0000 0.19890  0.82417  0.04717  Biso   1.000  O 
  O24      1.0000 0.19200  0.89068  0.30896  Biso   1.000  O 
  Hf13     1.0000 0.05856  0.50857  0.61868  Biso   1.000  Hf
  Hf14     1.0000 0.06205  0.72521  0.87534  Biso   1.000  Hf
  Hf15     1.0000 0.31914  0.74601  0.63151  Biso   1.000  Hf
  Hf16     1.0000 0.30743  0.48374  0.86192  Biso   1.000  Hf
  O25      1.0000 0.94240  0.65027  0.50232  Biso   1.000  O 
  O26      1.0000 0.93406  0.60649  0.74677  Biso   1.000  O 
  O27      1.0000 0.93765  0.85205  0.77349  Biso   1.000  O 
  O28      1.0000 0.90513  0.90807  0.53543  Biso   1.000  O 
  O29      1.0000 0.18580  0.62864  0.74758  Biso   1.000  O 
  O30      1.0000 0.20234  0.58863  0.49496  Biso   1.000  O 
  O31      1.0000 0.15034  0.82040  0.54854  Biso   1.000  O 
  O32      1.0000 0.18470  0.87735  0.78710  Biso   1.000  O 
  Hf17     1.0000 0.60545  0.99741  0.13043  Biso   1.000  Hf
  Hf18     1.0000 0.58915  0.24365  0.37537  Biso   1.000  Hf
  Hf19     1.0000 0.84887  0.24158  0.12366  Biso   1.000  Hf
  Hf20     1.0000 0.84378  0.00825  0.38354  Biso   1.000  Hf
  O33      1.0000 0.45308  0.13844  0.99254  Biso   1.000  O 
  O34      1.0000 0.48254  0.09796  0.24780  Biso   1.000  O 
  O35      1.0000 0.52289  0.34055  0.21254  Biso   1.000  O 
  O36      1.0000 0.46397  0.40288  0.96069  Biso   1.000  O 
  O37      1.0000 0.72947  0.14758  0.25792  Biso   1.000  O 
  O38      1.0000 0.76628  0.08062  0.02177  Biso   1.000  O 
  O39      1.0000 0.70101  0.33464  0.97220  Biso   1.000  O 
  O40      1.0000 0.76819  0.40465  0.21998  Biso   1.000  O 
  Hf21     1.0000 0.56355  0.98185  0.64374  Biso   1.000  Hf
  Hf22     1.0000 0.55347  0.25553  0.85421  Biso   1.000  Hf
  Hf23     1.0000 0.80777  0.23092  0.62494  Biso   1.000  Hf
  Hf24     1.0000 0.83123  0.00587  0.87578  Biso   1.000  Hf
  O41      1.0000 0.44820  0.15704  0.48911  Biso   1.000  O 
  O42      1.0000 0.44355  0.10580  0.74237  Biso   1.000  O 
  O43      1.0000 0.43796  0.35429  0.71639  Biso   1.000  O 
  O44      1.0000 0.49449  0.40972  0.46003  Biso   1.000  O 
  O45      1.0000 0.69230  0.12986  0.75943  Biso   1.000  O 
  O46      1.0000 0.69376  0.09150  0.50826  Biso   1.000  O 
  O47      1.0000 0.73891  0.34291  0.47271  Biso   1.000  O 
  O48      1.0000 0.68483  0.38300  0.72913  Biso   1.000  O 
  Hf25     1.0000 0.61436  0.50112  0.12481  Biso   1.000  Hf
  Hf26     1.0000 0.58670  0.73886  0.37221  Biso   1.000  Hf
  Hf27     1.0000 0.85610  0.73774  0.12337  Biso   1.000  Hf
  Hf28     1.0000 0.83476  0.50412  0.37944  Biso   1.000  Hf
  O49      1.0000 0.42560  0.63534  0.99701  Biso   1.000  O 
  O50      1.0000 0.47884  0.59685  0.24604  Biso   1.000  O 
  O51      1.0000 0.44072  0.84471  0.28070  Biso   1.000  O 
  O52      1.0000 0.45541  0.90104  0.02857  Biso   1.000  O 
  O53      1.0000 0.72368  0.64559  0.25477  Biso   1.000  O 
  O54      1.0000 0.68207  0.58283  0.99601  Biso   1.000  O 
  O55      1.0000 0.69796  0.83288  0.04219  Biso   1.000  O 
  O56      1.0000 0.68937  0.89917  0.28825  Biso   1.000  O 
  Hf29     1.0000 0.56330  0.50573  0.62044  Biso   1.000  Hf
  Hf30     1.0000 0.56014  0.72899  0.87717  Biso   1.000  Hf
  Hf31     1.0000 0.81482  0.75078  0.63437  Biso   1.000  Hf
  Hf32     1.0000 0.80758  0.48672  0.86600  Biso   1.000  Hf
  O57      1.0000 0.44380  0.65213  0.49926  Biso   1.000  O 
  O58      1.0000 0.43657  0.60198  0.74441  Biso   1.000  O 
  O59      1.0000 0.43780  0.85089  0.77107  Biso   1.000  O 
  O60      1.0000 0.40012  0.91093  0.53736  Biso   1.000  O 
  O61      1.0000 0.68685  0.63292  0.75224  Biso   1.000  O 
  O62      1.0000 0.70142  0.59701  0.50065  Biso   1.000  O 
  O63      1.0000 0.65309  0.83228  0.53833  Biso   1.000  O 
  O64      1.0000 0.68582  0.88303  0.77772  Biso   1.000  O 
  Ir1      1.0000 0.11403  0.18694  0.07954  Biso   1.000  Ir
