data_image0
_cell_length_a       10.1069
_cell_length_b       10.2547
_cell_length_c       10.4478
_cell_angle_alpha    90
_cell_angle_beta     80
_cell_angle_gamma    90

_symmetry_space_group_name_H-M    "P 1"
_symmetry_int_tables_number       1

loop_
  _symmetry_equiv_pos_as_xyz
  'x, y, z'

loop_
  _atom_site_label
  _atom_site_occupancy
  _atom_site_fract_x
  _atom_site_fract_y
  _atom_site_fract_z
  _atom_site_thermal_displace_type
  _atom_site_B_iso_or_equiv
  _atom_site_type_symbol
  Ir1      1.0000 0.12962  0.01367  0.16228  Biso   1.000  Ir
  Hf1      1.0000 0.13786  0.23056  0.39483  Biso   1.000  Hf
  Hf2      1.0000 0.35939  0.26984  0.10267  Biso   1.000  Hf
  Hf3      1.0000 0.36049  0.47905  0.35381  Biso   1.000  Hf
  O1       1.0000 0.03948  0.16015  0.07995  Biso   1.000  O 
  O2       1.0000 0.03014  0.08565  0.32465  Biso   1.000  O 
  O3       1.0000 0.46387  0.41917  0.16975  Biso   1.000  O 
  O4       1.0000 0.46159  0.33058  0.42019  Biso   1.000  O 
  O5       1.0000 0.27308  0.12384  0.23718  Biso   1.000  O 
  O6       1.0000 0.27373  0.12178  0.48855  Biso   1.000  O 
  O7       1.0000 0.22463  0.38159  0.00941  Biso   1.000  O 
  O8       1.0000 0.22371  0.37025  0.25926  Biso   1.000  O 
  Hf4      1.0000 0.13341  0.02093  0.64518  Biso   1.000  Hf
  Hf5      1.0000 0.13460  0.22445  0.89798  Biso   1.000  Hf
  Hf6      1.0000 0.35734  0.27167  0.60495  Biso   1.000  Hf
  Hf7      1.0000 0.35572  0.47905  0.85566  Biso   1.000  Hf
  O9       1.0000 0.03070  0.16578  0.57558  Biso   1.000  O 
  O10      1.0000 0.02889  0.08195  0.82761  Biso   1.000  O 
  O11      1.0000 0.46046  0.41934  0.67087  Biso   1.000  O 
  O12      1.0000 0.46050  0.33356  0.92183  Biso   1.000  O 
  O13      1.0000 0.27075  0.12791  0.73817  Biso   1.000  O 
  O14      1.0000 0.28023  0.12946  0.98303  Biso   1.000  O 
  O15      1.0000 0.22002  0.37883  0.50960  Biso   1.000  O 
  O16      1.0000 0.21968  0.37004  0.76082  Biso   1.000  O 
  Hf8      1.0000 0.13983  0.52247  0.14585  Biso   1.000  Hf
  Hf9      1.0000 0.13681  0.72758  0.39741  Biso   1.000  Hf
  Hf10     1.0000 0.36126  0.77451  0.10335  Biso   1.000  Hf
  Hf11     1.0000 0.36167  0.97862  0.35387  Biso   1.000  Hf
  O17      1.0000 0.03720  0.66915  0.07986  Biso   1.000  O 
  O18      1.0000 0.03467  0.58120  0.33030  Biso   1.000  O 
  O19      1.0000 0.46590  0.91848  0.17139  Biso   1.000  O 
  O20      1.0000 0.46316  0.82948  0.41958  Biso   1.000  O 
  O21      1.0000 0.27678  0.63099  0.24137  Biso   1.000  O 
  O22      1.0000 0.27476  0.62052  0.49175  Biso   1.000  O 
  O23      1.0000 0.22403  0.88799  0.01162  Biso   1.000  O 
  O24      1.0000 0.21873  0.87121  0.25866  Biso   1.000  O 
  Hf12     1.0000 0.13622  0.52113  0.64774  Biso   1.000  Hf
  Hf13     1.0000 0.13448  0.73099  0.89749  Biso   1.000  Hf
  Hf14     1.0000 0.35932  0.77164  0.60531  Biso   1.000  Hf
  Hf15     1.0000 0.35728  0.98125  0.85579  Biso   1.000  Hf
  O25      1.0000 0.03228  0.66734  0.58033  Biso   1.000  O 
  O26      1.0000 0.03180  0.58210  0.83159  Biso   1.000  O 
  O27      1.0000 0.46207  0.91984  0.67008  Biso   1.000  O 
  O28      1.0000 0.45769  0.83091  0.92085  Biso   1.000  O 
  O29      1.0000 0.27296  0.62947  0.74157  Biso   1.000  O 
  O30      1.0000 0.27098  0.62377  0.99176  Biso   1.000  O 
  O31      1.0000 0.22258  0.87877  0.50916  Biso   1.000  O 
  O32      1.0000 0.22065  0.87117  0.76046  Biso   1.000  O 
  Hf16     1.0000 0.63717  0.02183  0.14541  Biso   1.000  Hf
  Hf17     1.0000 0.63626  0.22895  0.39617  Biso   1.000  Hf
  Hf18     1.0000 0.86658  0.26751  0.10554  Biso   1.000  Hf
  Hf19     1.0000 0.85969  0.47832  0.35423  Biso   1.000  Hf
  O33      1.0000 0.53621  0.16997  0.08077  Biso   1.000  O 
  O34      1.0000 0.53310  0.08037  0.33111  Biso   1.000  O 
  O35      1.0000 0.96604  0.41802  0.17135  Biso   1.000  O 
  O36      1.0000 0.96263  0.33196  0.42148  Biso   1.000  O 
  O37      1.0000 0.77407  0.12750  0.24133  Biso   1.000  O 
  O38      1.0000 0.77356  0.12033  0.49090  Biso   1.000  O 
  O39      1.0000 0.72718  0.37811  0.01038  Biso   1.000  O 
  O40      1.0000 0.72402  0.36954  0.25979  Biso   1.000  O 
  Hf20     1.0000 0.63334  0.02161  0.64744  Biso   1.000  Hf
  Hf21     1.0000 0.63350  0.22937  0.89776  Biso   1.000  Hf
  Hf22     1.0000 0.85763  0.27147  0.60511  Biso   1.000  Hf
  Hf23     1.0000 0.85801  0.47715  0.85688  Biso   1.000  Hf
  O41      1.0000 0.53237  0.17001  0.58095  Biso   1.000  O 
  O42      1.0000 0.53146  0.08071  0.83131  Biso   1.000  O 
  O43      1.0000 0.96242  0.41617  0.67341  Biso   1.000  O 
  O44      1.0000 0.96105  0.33005  0.92516  Biso   1.000  O 
  O45      1.0000 0.77201  0.12945  0.74104  Biso   1.000  O 
  O46      1.0000 0.76971  0.12048  0.99197  Biso   1.000  O 
  O47      1.0000 0.72076  0.37858  0.51051  Biso   1.000  O 
  O48      1.0000 0.71990  0.37146  0.76124  Biso   1.000  O 
  Hf24     1.0000 0.63883  0.51999  0.14527  Biso   1.000  Hf
  Hf25     1.0000 0.63766  0.72732  0.39620  Biso   1.000  Hf
  Hf26     1.0000 0.86215  0.76988  0.10312  Biso   1.000  Hf
  Hf27     1.0000 0.85686  0.97764  0.35579  Biso   1.000  Hf
  O49      1.0000 0.53670  0.66950  0.08007  Biso   1.000  O 
  O50      1.0000 0.53591  0.57920  0.33081  Biso   1.000  O 
  O51      1.0000 0.96613  0.91814  0.16970  Biso   1.000  O 
  O52      1.0000 0.96403  0.83363  0.42146  Biso   1.000  O 
  O53      1.0000 0.77639  0.62831  0.24043  Biso   1.000  O 
  O54      1.0000 0.77507  0.62066  0.49123  Biso   1.000  O 
  O55      1.0000 0.72488  0.87911  0.00955  Biso   1.000  O 
  O56      1.0000 0.72594  0.87029  0.25963  Biso   1.000  O 
  Hf28     1.0000 0.63575  0.52115  0.64750  Biso   1.000  Hf
  Hf29     1.0000 0.63332  0.72855  0.89733  Biso   1.000  Hf
  Hf30     1.0000 0.85810  0.77099  0.60565  Biso   1.000  Hf
  Hf31     1.0000 0.85784  0.97895  0.85517  Biso   1.000  Hf
  O57      1.0000 0.53394  0.66914  0.58069  Biso   1.000  O 
  O58      1.0000 0.53090  0.58161  0.83067  Biso   1.000  O 
  O59      1.0000 0.96220  0.91731  0.67135  Biso   1.000  O 
  O60      1.0000 0.95911  0.83126  0.92196  Biso   1.000  O 
  O61      1.0000 0.77334  0.62858  0.74219  Biso   1.000  O 
  O62      1.0000 0.77122  0.62068  0.99185  Biso   1.000  O 
  O63      1.0000 0.72099  0.87856  0.51013  Biso   1.000  O 
  O64      1.0000 0.72020  0.87082  0.76060  Biso   1.000  O 
