data_image0
_cell_length_a       10.1165
_cell_length_b       5.10662
_cell_length_c       10.4868
_cell_angle_alpha    90
_cell_angle_beta     80
_cell_angle_gamma    90

_symmetry_space_group_name_H-M    "P 1"
_symmetry_int_tables_number       1

loop_
  _symmetry_equiv_pos_as_xyz
  'x, y, z'

loop_
  _atom_site_label
  _atom_site_occupancy
  _atom_site_fract_x
  _atom_site_fract_y
  _atom_site_fract_z
  _atom_site_thermal_displace_type
  _atom_site_B_iso_or_equiv
  _atom_site_type_symbol
  Ir1      1.0000 0.12321  0.02117  0.16831  Biso   1.000  Ir
  Hf1      1.0000 0.13485  0.45606  0.39650  Biso   1.000  Hf
  Hf2      1.0000 0.35943  0.54684  0.09920  Biso   1.000  Hf
  Hf3      1.0000 0.36235  0.95691  0.35202  Biso   1.000  Hf
  O1       1.0000 0.04454  0.31056  0.08134  Biso   1.000  O 
  O2       1.0000 0.02330  0.17411  0.32911  Biso   1.000  O 
  O3       1.0000 0.46713  0.82995  0.17380  Biso   1.000  O 
  O4       1.0000 0.46248  0.66439  0.42204  Biso   1.000  O 
  O5       1.0000 0.26886  0.24894  0.23234  Biso   1.000  O 
  O6       1.0000 0.27140  0.24216  0.48636  Biso   1.000  O 
  O7       1.0000 0.22743  0.79473  0.01349  Biso   1.000  O 
  O8       1.0000 0.21880  0.73796  0.25962  Biso   1.000  O 
  Hf4      1.0000 0.12999  0.03809  0.64604  Biso   1.000  Hf
  Hf5      1.0000 0.13320  0.45279  0.89615  Biso   1.000  Hf
  Hf6      1.0000 0.35678  0.54355  0.60554  Biso   1.000  Hf
  Hf7      1.0000 0.35593  0.96754  0.85694  Biso   1.000  Hf
  O9       1.0000 0.02709  0.32406  0.57575  Biso   1.000  O 
  O10      1.0000 0.02590  0.16450  0.82925  Biso   1.000  O 
  O11      1.0000 0.46220  0.83254  0.67342  Biso   1.000  O 
  O12      1.0000 0.46195  0.68309  0.92650  Biso   1.000  O 
  O13      1.0000 0.26617  0.25348  0.73391  Biso   1.000  O 
  O14      1.0000 0.28410  0.28485  0.97116  Biso   1.000  O 
  O15      1.0000 0.22064  0.75546  0.50931  Biso   1.000  O 
  O16      1.0000 0.22057  0.73976  0.76247  Biso   1.000  O 
  Hf8      1.0000 0.63446  0.03796  0.14442  Biso   1.000  Hf
  Hf9      1.0000 0.63443  0.45244  0.39620  Biso   1.000  Hf
  Hf10     1.0000 0.86633  0.52599  0.10521  Biso   1.000  Hf
  Hf11     1.0000 0.85557  0.95036  0.35795  Biso   1.000  Hf
  O17      1.0000 0.53578  0.33444  0.07711  Biso   1.000  O 
  O18      1.0000 0.53021  0.16249  0.32829  Biso   1.000  O 
  O19      1.0000 0.96885  0.81714  0.17415  Biso   1.000  O 
  O20      1.0000 0.96367  0.67178  0.42680  Biso   1.000  O 
  O21      1.0000 0.77280  0.24612  0.24052  Biso   1.000  O 
  O22      1.0000 0.77083  0.23840  0.49184  Biso   1.000  O 
  O23      1.0000 0.73079  0.75418  0.01168  Biso   1.000  O 
  O24      1.0000 0.72677  0.73259  0.26048  Biso   1.000  O 
  Hf12     1.0000 0.62980  0.04136  0.64911  Biso   1.000  Hf
  Hf13     1.0000 0.62969  0.45801  0.89885  Biso   1.000  Hf
  Hf14     1.0000 0.85549  0.53950  0.60768  Biso   1.000  Hf
  Hf15     1.0000 0.85899  0.95074  0.85835  Biso   1.000  Hf
  O25      1.0000 0.52898  0.33176  0.57775  Biso   1.000  O 
  O26      1.0000 0.52677  0.17188  0.82709  Biso   1.000  O 
  O27      1.0000 0.96368  0.82127  0.67764  Biso   1.000  O 
  O28      1.0000 0.95861  0.65814  0.93066  Biso   1.000  O 
  O29      1.0000 0.77003  0.25466  0.74230  Biso   1.000  O 
  O30      1.0000 0.76587  0.23585  0.99293  Biso   1.000  O 
  O31      1.0000 0.71937  0.75289  0.51173  Biso   1.000  O 
  O32      1.0000 0.71996  0.74171  0.76296  Biso   1.000  O 
