data_image0
_cell_length_a       10.1156
_cell_length_b       5.13591
_cell_length_c       10.1155
_cell_angle_alpha    90
_cell_angle_beta     90
_cell_angle_gamma    90

_symmetry_space_group_name_H-M    "P 1"
_symmetry_int_tables_number       1

loop_
  _symmetry_equiv_pos_as_xyz
  'x, y, z'

loop_
  _atom_site_label
  _atom_site_occupancy
  _atom_site_fract_x
  _atom_site_fract_y
  _atom_site_fract_z
  _atom_site_thermal_displace_type
  _atom_site_B_iso_or_equiv
  _atom_site_type_symbol
  Hf1      1.0000 0.12491  0.00011  0.12492  Biso   1.000  Hf
  Hf2      1.0000 0.12490  0.50011  0.39428  Biso   1.000  Hf
  Hf3      1.0000 0.39427  0.50010  0.12490  Biso   1.000  Hf
  Hf4      1.0000 0.37320  0.00795  0.37320  Biso   1.000  Hf
  O1       1.0000 0.98027  0.30920  0.98028  Biso   1.000  O 
  O2       1.0000 0.00172  0.19107  0.24813  Biso   1.000  O 
  O3       1.0000 0.98026  0.69101  0.26954  Biso   1.000  O 
  O4       1.0000 0.00168  0.80914  0.00171  Biso   1.000  O 
  O5       1.0000 0.26954  0.30921  0.26954  Biso   1.000  O 
  O6       1.0000 0.24813  0.19107  0.00171  Biso   1.000  O 
  O7       1.0000 0.26953  0.69101  0.98028  Biso   1.000  O 
  O8       1.0000 0.24809  0.80915  0.24813  Biso   1.000  O 
  Hf5      1.0000 0.12491  0.00011  0.62491  Biso   1.000  Hf
  Hf6      1.0000 0.12490  0.50011  0.85553  Biso   1.000  Hf
  Hf7      1.0000 0.37857  0.50011  0.62490  Biso   1.000  Hf
  Hf8      1.0000 0.37318  0.99226  0.87662  Biso   1.000  Hf
  O9       1.0000 0.99111  0.28623  0.49716  Biso   1.000  O 
  O10      1.0000 0.00542  0.21158  0.74391  Biso   1.000  O 
  O11      1.0000 0.99109  0.71398  0.75267  Biso   1.000  O 
  O12      1.0000 0.00540  0.78863  0.50592  Biso   1.000  O 
  O13      1.0000 0.25871  0.28623  0.75267  Biso   1.000  O 
  O14      1.0000 0.24441  0.21159  0.50592  Biso   1.000  O 
  O15      1.0000 0.25870  0.71399  0.49716  Biso   1.000  O 
  O16      1.0000 0.24439  0.78864  0.74390  Biso   1.000  O 
  Hf9      1.0000 0.62491  0.00011  0.12491  Biso   1.000  Hf
  Hf10     1.0000 0.62490  0.50011  0.37857  Biso   1.000  Hf
  Hf11     1.0000 0.85552  0.50012  0.12490  Biso   1.000  Hf
  Hf12     1.0000 0.87660  0.99227  0.37320  Biso   1.000  Hf
  O17      1.0000 0.49716  0.28623  0.99111  Biso   1.000  O 
  O18      1.0000 0.50592  0.21158  0.24441  Biso   1.000  O 
  O19      1.0000 0.49714  0.71398  0.25871  Biso   1.000  O 
  O20      1.0000 0.50591  0.78863  0.00541  Biso   1.000  O 
  O21      1.0000 0.75267  0.28623  0.25871  Biso   1.000  O 
  O22      1.0000 0.74390  0.21158  0.00541  Biso   1.000  O 
  O23      1.0000 0.75265  0.71398  0.99111  Biso   1.000  O 
  O24      1.0000 0.74389  0.78863  0.24441  Biso   1.000  O 
  Hf13     1.0000 0.62491  0.00011  0.62491  Biso   1.000  Hf
  Hf14     1.0000 0.62490  0.50011  0.87122  Biso   1.000  Hf
  Hf15     1.0000 0.87123  0.50011  0.62490  Biso   1.000  Hf
  Hf16     1.0000 0.87662  0.00795  0.87662  Biso   1.000  Hf
  O25      1.0000 0.49314  0.29676  0.49314  Biso   1.000  O 
  O26      1.0000 0.50466  0.20624  0.74516  Biso   1.000  O 
  O27      1.0000 0.49312  0.70346  0.75668  Biso   1.000  O 
  O28      1.0000 0.50465  0.79398  0.50466  Biso   1.000  O 
  O29      1.0000 0.75668  0.29676  0.75668  Biso   1.000  O 
  O30      1.0000 0.74516  0.20624  0.50466  Biso   1.000  O 
  O31      1.0000 0.75667  0.70346  0.49313  Biso   1.000  O 
  O32      1.0000 0.74514  0.79397  0.74516  Biso   1.000  O 
  K1       1.0000 0.12490  0.50011  0.12491  Biso   1.000  K 
