data_image0
_cell_length_a       10.0673
_cell_length_b       5.15603
_cell_length_c       10.5886
_cell_angle_alpha    90
_cell_angle_beta     90
_cell_angle_gamma    90

_symmetry_space_group_name_H-M    "P 1"
_symmetry_int_tables_number       1

loop_
  _symmetry_equiv_pos_as_xyz
  'x, y, z'

loop_
  _atom_site_label
  _atom_site_occupancy
  _atom_site_fract_x
  _atom_site_fract_y
  _atom_site_fract_z
  _atom_site_thermal_displace_type
  _atom_site_B_iso_or_equiv
  _atom_site_type_symbol
  Hf1      1.0000 0.13608  0.04454  0.17460  Biso   1.000  Hf
  Hf2      1.0000 0.12802  0.45466  0.42609  Biso   1.000  Hf
  Hf3      1.0000 0.34568  0.54824  0.18815  Biso   1.000  Hf
  Hf4      1.0000 0.35145  0.95774  0.42839  Biso   1.000  Hf
  Hf5      1.0000 0.64017  0.04305  0.08357  Biso   1.000  Hf
  Hf6      1.0000 0.62978  0.45290  0.33214  Biso   1.000  Hf
  Hf7      1.0000 0.86797  0.54539  0.07612  Biso   1.000  Hf
  Hf8      1.0000 0.85281  0.95853  0.32613  Biso   1.000  Hf
  O1       1.0000 0.03360  0.32457  0.08136  Biso   1.000  O 
  O2       1.0000 0.02296  0.17553  0.33252  Biso   1.000  O 
  O3       1.0000 0.44987  0.86099  0.09895  Biso   1.000  O 
  O4       1.0000 0.45935  0.67401  0.33975  Biso   1.000  O 
  O5       1.0000 0.26508  0.25020  0.30255  Biso   1.000  O 
  O6       1.0000 0.27875  0.26054  0.04740  Biso   1.000  O 
  O7       1.0000 0.21191  0.75175  0.30442  Biso   1.000  O 
  O8       1.0000 0.21730  0.75497  0.05117  Biso   1.000  O 
  O9       1.0000 0.51668  0.29956  0.19182  Biso   1.000  O 
  O10      1.0000 0.52095  0.17623  0.42675  Biso   1.000  O 
  O11      1.0000 0.96364  0.83133  0.17035  Biso   1.000  O 
  O12      1.0000 0.95935  0.67633  0.41969  Biso   1.000  O 
  O13      1.0000 0.76732  0.24872  0.45214  Biso   1.000  O 
  O14      1.0000 0.77273  0.25547  0.20170  Biso   1.000  O 
  O15      1.0000 0.71536  0.75076  0.45465  Biso   1.000  O 
  O16      1.0000 0.71577  0.74259  0.20203  Biso   1.000  O 
  Hf9      1.0000 0.12745  0.04377  0.67477  Biso   1.000  Hf
  Hf10     1.0000 0.12421  0.46506  0.92353  Biso   1.000  Hf
  Hf11     1.0000 0.34757  0.54528  0.67502  Biso   1.000  Hf
  Hf12     1.0000 0.34132  0.96792  0.92581  Biso   1.000  Hf
  Hf13     1.0000 0.62986  0.03693  0.57447  Biso   1.000  Hf
  Hf14     1.0000 0.63222  0.45178  0.80552  Biso   1.000  Hf
  Hf15     1.0000 0.85456  0.54695  0.57549  Biso   1.000  Hf
  Hf16     1.0000 0.85018  0.96614  0.83007  Biso   1.000  Hf
  O17      1.0000 0.02135  0.32702  0.58320  Biso   1.000  O 
  O18      1.0000 0.02009  0.17830  0.83332  Biso   1.000  O 
  O19      1.0000 0.45893  0.82086  0.58381  Biso   1.000  O 
  O20      1.0000 0.45449  0.67085  0.82981  Biso   1.000  O 
  O21      1.0000 0.26209  0.25305  0.79783  Biso   1.000  O 
  O22      1.0000 0.26468  0.25079  0.54991  Biso   1.000  O 
  O23      1.0000 0.21034  0.75157  0.79941  Biso   1.000  O 
  O24      1.0000 0.21301  0.75229  0.55132  Biso   1.000  O 
  O25      1.0000 0.51825  0.31868  0.66607  Biso   1.000  O 
  O26      1.0000 0.51824  0.14815  0.91393  Biso   1.000  O 
  O27      1.0000 0.95690  0.82814  0.67045  Biso   1.000  O 
  O28      1.0000 0.95514  0.67788  0.91820  Biso   1.000  O 
  O29      1.0000 0.75612  0.27326  0.94737  Biso   1.000  O 
  O30      1.0000 0.76784  0.24569  0.69632  Biso   1.000  O 
  O31      1.0000 0.72079  0.78195  0.95580  Biso   1.000  O 
  O32      1.0000 0.71502  0.74909  0.70337  Biso   1.000  O 
  K1       1.0000 0.56565  0.53170  0.02315  Biso   1.000  K 
