data_image0
_cell_length_a       10.1699
_cell_length_b       10.4237
_cell_length_c       5.0813
_cell_angle_alpha    90
_cell_angle_beta     90
_cell_angle_gamma    90

_symmetry_space_group_name_H-M    "P 1"
_symmetry_int_tables_number       1

loop_
  _symmetry_equiv_pos_as_xyz
  'x, y, z'

loop_
  _atom_site_label
  _atom_site_occupancy
  _atom_site_fract_x
  _atom_site_fract_y
  _atom_site_fract_z
  _atom_site_thermal_displace_type
  _atom_site_B_iso_or_equiv
  _atom_site_type_symbol
  Hf1      1.0000 0.10053  0.97968  0.23238  Biso   1.000  Hf
  Hf2      1.0000 0.10854  0.25159  0.62634  Biso   1.000  Hf
  Hf3      1.0000 0.37549  0.27566  0.18819  Biso   1.000  Hf
  Hf4      1.0000 0.39737  0.51250  0.69106  Biso   1.000  Hf
  O1       1.0000 0.97852  0.14210  0.39425  Biso   1.000  O 
  O2       1.0000 0.04109  0.10062  0.88440  Biso   1.000  O 
  O3       1.0000 0.49892  0.40479  0.40978  Biso   1.000  O 
  O4       1.0000 0.50556  0.36814  0.90752  Biso   1.000  O 
  O5       1.0000 0.23484  0.12361  0.40314  Biso   1.000  O 
  O6       1.0000 0.28849  0.21463  0.85744  Biso   1.000  O 
  O7       1.0000 0.27499  0.43354  0.00166  Biso   1.000  O 
  O8       1.0000 0.24912  0.38402  0.47208  Biso   1.000  O 
  Hf5      1.0000 0.14886  0.53633  0.25094  Biso   1.000  Hf
  Hf6      1.0000 0.10432  0.75949  0.74120  Biso   1.000  Hf
  Hf7      1.0000 0.35991  0.78240  0.27639  Biso   1.000  Hf
  Hf8      1.0000 0.35545  0.04355  0.70029  Biso   1.000  Hf
  O9       1.0000 0.00001  0.65280  0.45106  Biso   1.000  O 
  O10      1.0000 0.02616  0.59594  0.92758  Biso   1.000  O 
  O11      1.0000 0.48229  0.91169  0.51021  Biso   1.000  O 
  O12      1.0000 0.51994  0.83211  0.04146  Biso   1.000  O 
  O13      1.0000 0.25467  0.63724  0.53219  Biso   1.000  O 
  O14      1.0000 0.23798  0.68273  0.03700  Biso   1.000  O 
  O15      1.0000 0.27215  0.92883  0.03958  Biso   1.000  O 
  O16      1.0000 0.23055  0.88200  0.52632  Biso   1.000  O 
  Hf9      1.0000 0.60736  0.99899  0.21739  Biso   1.000  Hf
  Hf10     1.0000 0.60806  0.25476  0.66299  Biso   1.000  Hf
  Hf11     1.0000 0.83791  0.27144  0.19686  Biso   1.000  Hf
  Hf12     1.0000 0.89388  0.50472  0.68144  Biso   1.000  Hf
  O17      1.0000 0.48913  0.15302  0.40578  Biso   1.000  O 
  O18      1.0000 0.52110  0.10844  0.89733  Biso   1.000  O 
  O19      1.0000 0.99762  0.40346  0.38625  Biso   1.000  O 
  O20      1.0000 0.95307  0.33539  0.84218  Biso   1.000  O 
  O21      1.0000 0.73466  0.12792  0.44110  Biso   1.000  O 
  O22      1.0000 0.75116  0.19568  0.92603  Biso   1.000  O 
  O23      1.0000 0.76476  0.43056  0.00220  Biso   1.000  O 
  O24      1.0000 0.74235  0.38267  0.48615  Biso   1.000  O 
  Hf13     1.0000 0.64262  0.53007  0.23887  Biso   1.000  Hf
  Hf14     1.0000 0.60412  0.76739  0.73922  Biso   1.000  Hf
  Hf15     1.0000 0.85277  0.77524  0.28277  Biso   1.000  Hf
  Hf16     1.0000 0.86357  0.03971  0.70607  Biso   1.000  Hf
  O25      1.0000 0.50026  0.65840  0.45475  Biso   1.000  O 
  O26      1.0000 0.51497  0.61554  0.93956  Biso   1.000  O 
  O27      1.0000 0.97964  0.89949  0.52664  Biso   1.000  O 
  O28      1.0000 0.01441  0.82008  0.04577  Biso   1.000  O 
  O29      1.0000 0.75021  0.63270  0.52076  Biso   1.000  O 
  O30      1.0000 0.73771  0.67968  0.02711  Biso   1.000  O 
  O31      1.0000 0.77873  0.92767  0.04888  Biso   1.000  O 
  O32      1.0000 0.73328  0.88491  0.53134  Biso   1.000  O 
  K1       1.0000 0.11832  0.26508  0.11628  Biso   1.000  K 
