data_image0
_cell_length_a       10.1022
_cell_length_b       10.3601
_cell_length_c       5.25462
_cell_angle_alpha    90
_cell_angle_beta     90
_cell_angle_gamma    90

_symmetry_space_group_name_H-M    "P 1"
_symmetry_int_tables_number       1

loop_
  _symmetry_equiv_pos_as_xyz
  'x, y, z'

loop_
  _atom_site_label
  _atom_site_occupancy
  _atom_site_fract_x
  _atom_site_fract_y
  _atom_site_fract_z
  _atom_site_thermal_displace_type
  _atom_site_B_iso_or_equiv
  _atom_site_type_symbol
  K1       1.0000 0.09051  0.99027  0.30550  Biso   1.000  K 
  Hf1      1.0000 0.14073  0.52232  0.34348  Biso   1.000  Hf
  Hf2      1.0000 0.13474  0.23291  0.84854  Biso   1.000  Hf
  Hf3      1.0000 0.14612  0.73413  0.83218  Biso   1.000  Hf
  Hf4      1.0000 0.35075  0.26643  0.34442  Biso   1.000  Hf
  Hf5      1.0000 0.35837  0.77474  0.33419  Biso   1.000  Hf
  Hf6      1.0000 0.35420  0.47953  0.84209  Biso   1.000  Hf
  Hf7      1.0000 0.35279  0.98361  0.83104  Biso   1.000  Hf
  Hf8      1.0000 0.63266  0.03217  0.16094  Biso   1.000  Hf
  Hf9      1.0000 0.62920  0.51664  0.15778  Biso   1.000  Hf
  Hf10     1.0000 0.63484  0.23923  0.65890  Biso   1.000  Hf
  Hf11     1.0000 0.62734  0.72771  0.65467  Biso   1.000  Hf
  Hf12     1.0000 0.86200  0.27902  0.15888  Biso   1.000  Hf
  Hf13     1.0000 0.86342  0.74408  0.11168  Biso   1.000  Hf
  Hf14     1.0000 0.85994  0.48330  0.64738  Biso   1.000  Hf
  Hf15     1.0000 0.84851  0.99801  0.71026  Biso   1.000  Hf
  O1       1.0000 0.03617  0.20083  0.18784  Biso   1.000  O 
  O2       1.0000 0.04226  0.67985  0.18157  Biso   1.000  O 
  O3       1.0000 0.02428  0.08449  0.73934  Biso   1.000  O 
  O4       1.0000 0.03019  0.58811  0.67263  Biso   1.000  O 
  O5       1.0000 0.46427  0.40977  0.16162  Biso   1.000  O 
  O6       1.0000 0.46991  0.91333  0.15406  Biso   1.000  O 
  O7       1.0000 0.46453  0.34319  0.65807  Biso   1.000  O 
  O8       1.0000 0.47616  0.85049  0.64195  Biso   1.000  O 
  O9       1.0000 0.27999  0.13237  0.60363  Biso   1.000  O 
  O10      1.0000 0.27607  0.62255  0.58549  Biso   1.000  O 
  O11      1.0000 0.28933  0.13321  0.06746  Biso   1.000  O 
  O12      1.0000 0.27428  0.61902  0.08781  Biso   1.000  O 
  O13      1.0000 0.21793  0.37712  0.58965  Biso   1.000  O 
  O14      1.0000 0.23246  0.86489  0.58640  Biso   1.000  O 
  O15      1.0000 0.22062  0.37835  0.09135  Biso   1.000  O 
  O16      1.0000 0.24168  0.86036  0.06035  Biso   1.000  O 
  O17      1.0000 0.53082  0.17008  0.33707  Biso   1.000  O 
  O18      1.0000 0.52693  0.66094  0.33953  Biso   1.000  O 
  O19      1.0000 0.53562  0.09299  0.83165  Biso   1.000  O 
  O20      1.0000 0.52284  0.59328  0.84152  Biso   1.000  O 
  O21      1.0000 0.95896  0.43621  0.31192  Biso   1.000  O 
  O22      1.0000 0.85240  0.89751  0.36201  Biso   1.000  O 
  O23      1.0000 0.95857  0.33904  0.81416  Biso   1.000  O 
  O24      1.0000 0.96835  0.84133  0.83327  Biso   1.000  O 
  O25      1.0000 0.77025  0.13729  0.93346  Biso   1.000  O 
  O26      1.0000 0.76692  0.62142  0.89624  Biso   1.000  O 
  O27      1.0000 0.77663  0.13357  0.43229  Biso   1.000  O 
  O28      1.0000 0.76829  0.63313  0.40209  Biso   1.000  O 
  O29      1.0000 0.71774  0.38304  0.90574  Biso   1.000  O 
  O30      1.0000 0.72063  0.87538  0.92177  Biso   1.000  O 
  O31      1.0000 0.72154  0.38133  0.40744  Biso   1.000  O 
  O32      1.0000 0.71078  0.89127  0.42301  Biso   1.000  O 
