data_image0
_cell_length_a       10.1929
_cell_length_b       10.3368
_cell_length_c       5.30391
_cell_angle_alpha    90
_cell_angle_beta     80
_cell_angle_gamma    90

_symmetry_space_group_name_H-M    "P 1"
_symmetry_int_tables_number       1

loop_
  _symmetry_equiv_pos_as_xyz
  'x, y, z'

loop_
  _atom_site_label
  _atom_site_occupancy
  _atom_site_fract_x
  _atom_site_fract_y
  _atom_site_fract_z
  _atom_site_thermal_displace_type
  _atom_site_B_iso_or_equiv
  _atom_site_type_symbol
  Hf1      1.0000 0.13600  0.02127  0.28706  Biso   1.000  Hf
  Hf2      1.0000 0.13509  0.22681  0.77595  Biso   1.000  Hf
  Hf3      1.0000 0.34811  0.28158  0.17231  Biso   1.000  Hf
  Hf4      1.0000 0.36195  0.49242  0.70950  Biso   1.000  Hf
  O1       1.0000 0.03726  0.16723  0.14942  Biso   1.000  O 
  O2       1.0000 0.03147  0.08312  0.65038  Biso   1.000  O 
  O3       1.0000 0.46078  0.42942  0.34905  Biso   1.000  O 
  O4       1.0000 0.48182  0.36248  0.88135  Biso   1.000  O 
  O5       1.0000 0.26721  0.12645  0.45648  Biso   1.000  O 
  O6       1.0000 0.28791  0.12891  0.94701  Biso   1.000  O 
  O7       1.0000 0.21336  0.38473  0.00421  Biso   1.000  O 
  O8       1.0000 0.22663  0.37087  0.51011  Biso   1.000  O 
  Hf5      1.0000 0.13635  0.52417  0.29633  Biso   1.000  Hf
  Hf6      1.0000 0.13778  0.72969  0.79466  Biso   1.000  Hf
  Hf7      1.0000 0.35896  0.77207  0.21358  Biso   1.000  Hf
  Hf8      1.0000 0.36489  0.96837  0.71040  Biso   1.000  Hf
  O9       1.0000 0.02972  0.66533  0.15813  Biso   1.000  O 
  O10      1.0000 0.03453  0.58476  0.65688  Biso   1.000  O 
  O11      1.0000 0.46499  0.91578  0.34985  Biso   1.000  O 
  O12      1.0000 0.46667  0.82879  0.84933  Biso   1.000  O 
  O13      1.0000 0.27425  0.63059  0.48451  Biso   1.000  O 
  O14      1.0000 0.27781  0.62834  0.98524  Biso   1.000  O 
  O15      1.0000 0.22067  0.88067  0.02414  Biso   1.000  O 
  O16      1.0000 0.22289  0.87026  0.52322  Biso   1.000  O 
  Hf9      1.0000 0.64265  0.01781  0.29855  Biso   1.000  Hf
  Hf10     1.0000 0.65776  0.22574  0.82115  Biso   1.000  Hf
  Hf11     1.0000 0.86274  0.27215  0.22091  Biso   1.000  Hf
  Hf12     1.0000 0.86196  0.47844  0.71219  Biso   1.000  Hf
  O17      1.0000 0.53296  0.16369  0.15468  Biso   1.000  O 
  O18      1.0000 0.55478  0.06163  0.67965  Biso   1.000  O 
  O19      1.0000 0.96717  0.41563  0.35162  Biso   1.000  O 
  O20      1.0000 0.96622  0.33294  0.84496  Biso   1.000  O 
  O21      1.0000 0.78126  0.12893  0.48946  Biso   1.000  O 
  O22      1.0000 0.79073  0.11946  0.99528  Biso   1.000  O 
  O23      1.0000 0.72443  0.37748  0.03757  Biso   1.000  O 
  O24      1.0000 0.72324  0.37013  0.53206  Biso   1.000  O 
  Hf13     1.0000 0.63599  0.52361  0.29755  Biso   1.000  Hf
  Hf14     1.0000 0.64279  0.72821  0.79624  Biso   1.000  Hf
  Hf15     1.0000 0.85786  0.77020  0.21316  Biso   1.000  Hf
  Hf16     1.0000 0.85964  0.97570  0.71002  Biso   1.000  Hf
  O25      1.0000 0.53254  0.66895  0.16037  Biso   1.000  O 
  O26      1.0000 0.53474  0.59212  0.65336  Biso   1.000  O 
  O27      1.0000 0.96328  0.91291  0.35107  Biso   1.000  O 
  O28      1.0000 0.96788  0.83492  0.84940  Biso   1.000  O 
  O29      1.0000 0.77721  0.62681  0.48399  Biso   1.000  O 
  O30      1.0000 0.77923  0.62051  0.98152  Biso   1.000  O 
  O31      1.0000 0.72008  0.87598  0.02542  Biso   1.000  O 
  O32      1.0000 0.72460  0.86770  0.52081  Biso   1.000  O 
  K1       1.0000 0.44745  0.23374  0.56418  Biso   1.000  K 
