data_image0
_cell_length_a       10.0668
_cell_length_b       10.2735
_cell_length_c       10.5058
_cell_angle_alpha    90
_cell_angle_beta     90
_cell_angle_gamma    90

_symmetry_space_group_name_H-M    "P 1"
_symmetry_int_tables_number       1

loop_
  _symmetry_equiv_pos_as_xyz
  'x, y, z'

loop_
  _atom_site_label
  _atom_site_occupancy
  _atom_site_fract_x
  _atom_site_fract_y
  _atom_site_fract_z
  _atom_site_thermal_displace_type
  _atom_site_B_iso_or_equiv
  _atom_site_type_symbol
  K1       1.0000 0.09900  0.98539  0.15587  Biso   1.000  K 
  Hf1      1.0000 0.13847  0.02584  0.67162  Biso   1.000  Hf
  Hf2      1.0000 0.14238  0.51969  0.17259  Biso   1.000  Hf
  Hf3      1.0000 0.13771  0.52614  0.67191  Biso   1.000  Hf
  Hf4      1.0000 0.14019  0.22914  0.42121  Biso   1.000  Hf
  Hf5      1.0000 0.13583  0.23242  0.92514  Biso   1.000  Hf
  Hf6      1.0000 0.13792  0.73210  0.42060  Biso   1.000  Hf
  Hf7      1.0000 0.14649  0.73411  0.91925  Biso   1.000  Hf
  Hf8      1.0000 0.35101  0.26093  0.17162  Biso   1.000  Hf
  Hf9      1.0000 0.35731  0.27450  0.67249  Biso   1.000  Hf
  Hf10     1.0000 0.36399  0.77260  0.17140  Biso   1.000  Hf
  Hf11     1.0000 0.35570  0.77668  0.66884  Biso   1.000  Hf
  Hf12     1.0000 0.35767  0.47930  0.42065  Biso   1.000  Hf
  Hf13     1.0000 0.35674  0.48035  0.92275  Biso   1.000  Hf
  Hf14     1.0000 0.35471  0.98299  0.41665  Biso   1.000  Hf
  Hf15     1.0000 0.35741  0.98678  0.92209  Biso   1.000  Hf
  Hf16     1.0000 0.64008  0.02998  0.07523  Biso   1.000  Hf
  Hf17     1.0000 0.63323  0.02466  0.58233  Biso   1.000  Hf
  Hf18     1.0000 0.63074  0.51510  0.07899  Biso   1.000  Hf
  Hf19     1.0000 0.63606  0.52417  0.57791  Biso   1.000  Hf
  Hf20     1.0000 0.63429  0.23530  0.32925  Biso   1.000  Hf
  Hf21     1.0000 0.63846  0.23564  0.82741  Biso   1.000  Hf
  Hf22     1.0000 0.63642  0.72634  0.33109  Biso   1.000  Hf
  Hf23     1.0000 0.62962  0.73438  0.82498  Biso   1.000  Hf
  Hf24     1.0000 0.86291  0.27483  0.07778  Biso   1.000  Hf
  Hf25     1.0000 0.86164  0.27746  0.57914  Biso   1.000  Hf
  Hf26     1.0000 0.86298  0.74417  0.05585  Biso   1.000  Hf
  Hf27     1.0000 0.85906  0.77437  0.57937  Biso   1.000  Hf
  Hf28     1.0000 0.86119  0.48263  0.32768  Biso   1.000  Hf
  Hf29     1.0000 0.85935  0.48180  0.82414  Biso   1.000  Hf
  Hf30     1.0000 0.85498  0.99702  0.35248  Biso   1.000  Hf
  Hf31     1.0000 0.85576  0.98395  0.82911  Biso   1.000  Hf
  O1       1.0000 0.03226  0.18705  0.08345  Biso   1.000  O 
  O2       1.0000 0.03321  0.17552  0.59204  Biso   1.000  O 
  O3       1.0000 0.04156  0.67542  0.08802  Biso   1.000  O 
  O4       1.0000 0.03102  0.67096  0.58555  Biso   1.000  O 
  O5       1.0000 0.02396  0.08738  0.35858  Biso   1.000  O 
  O6       1.0000 0.03192  0.08686  0.83663  Biso   1.000  O 
  O7       1.0000 0.03281  0.58724  0.33397  Biso   1.000  O 
  O8       1.0000 0.02913  0.59088  0.83500  Biso   1.000  O 
  O9       1.0000 0.46491  0.40801  0.08151  Biso   1.000  O 
  O10      1.0000 0.46670  0.41569  0.58108  Biso   1.000  O 
  O11      1.0000 0.47622  0.91358  0.07963  Biso   1.000  O 
  O12      1.0000 0.46298  0.91522  0.57843  Biso   1.000  O 
  O13      1.0000 0.46559  0.34128  0.33026  Biso   1.000  O 
  O14      1.0000 0.46684  0.34172  0.83010  Biso   1.000  O 
  O15      1.0000 0.48032  0.84817  0.32482  Biso   1.000  O 
  O16      1.0000 0.46506  0.84464  0.82614  Biso   1.000  O 
  O17      1.0000 0.28130  0.13080  0.30522  Biso   1.000  O 
  O18      1.0000 0.27366  0.12745  0.79211  Biso   1.000  O 
  O19      1.0000 0.27809  0.61997  0.29400  Biso   1.000  O 
  O20      1.0000 0.27476  0.62817  0.79426  Biso   1.000  O 
  O21      1.0000 0.28818  0.13269  0.03350  Biso   1.000  O 
  O22      1.0000 0.27488  0.12851  0.54686  Biso   1.000  O 
  O23      1.0000 0.27630  0.61803  0.04583  Biso   1.000  O 
  O24      1.0000 0.27324  0.62969  0.54440  Biso   1.000  O 
  O25      1.0000 0.21934  0.37423  0.29507  Biso   1.000  O 
  O26      1.0000 0.22164  0.37882  0.79531  Biso   1.000  O 
  O27      1.0000 0.23663  0.86076  0.30219  Biso   1.000  O 
  O28      1.0000 0.22010  0.87816  0.79096  Biso   1.000  O 
  O29      1.0000 0.22058  0.37643  0.04616  Biso   1.000  O 
  O30      1.0000 0.22224  0.38040  0.54564  Biso   1.000  O 
  O31      1.0000 0.24778  0.85790  0.03145  Biso   1.000  O 
  O32      1.0000 0.21840  0.88135  0.54517  Biso   1.000  O 
  O33      1.0000 0.53238  0.16637  0.16730  Biso   1.000  O 
  O34      1.0000 0.52930  0.16795  0.66856  Biso   1.000  O 
  O35      1.0000 0.53193  0.66008  0.17163  Biso   1.000  O 
  O36      1.0000 0.52669  0.66658  0.66641  Biso   1.000  O 
  O37      1.0000 0.53268  0.08978  0.41858  Biso   1.000  O 
  O38      1.0000 0.53536  0.09243  0.91523  Biso   1.000  O 
  O39      1.0000 0.52844  0.59070  0.41974  Biso   1.000  O 
  O40      1.0000 0.52480  0.59273  0.91974  Biso   1.000  O 
  O41      1.0000 0.96194  0.42777  0.16168  Biso   1.000  O 
  O42      1.0000 0.96491  0.42462  0.66273  Biso   1.000  O 
  O43      1.0000 0.85691  0.90172  0.17569  Biso   1.000  O 
  O44      1.0000 0.96100  0.92075  0.66671  Biso   1.000  O 
  O45      1.0000 0.96517  0.33850  0.41566  Biso   1.000  O 
  O46      1.0000 0.96221  0.34083  0.90921  Biso   1.000  O 
  O47      1.0000 0.96409  0.83818  0.41398  Biso   1.000  O 
  O48      1.0000 0.97258  0.84472  0.92147  Biso   1.000  O 
  O49      1.0000 0.77763  0.13011  0.95593  Biso   1.000  O 
  O50      1.0000 0.76822  0.13328  0.46446  Biso   1.000  O 
  O51      1.0000 0.76725  0.62045  0.94852  Biso   1.000  O 
  O52      1.0000 0.77440  0.62700  0.45459  Biso   1.000  O 
  O53      1.0000 0.77606  0.13268  0.21236  Biso   1.000  O 
  O54      1.0000 0.77476  0.13075  0.70806  Biso   1.000  O 
  O55      1.0000 0.77397  0.63174  0.20311  Biso   1.000  O 
  O56      1.0000 0.77088  0.63151  0.70309  Biso   1.000  O 
  O57      1.0000 0.71895  0.37928  0.95264  Biso   1.000  O 
  O58      1.0000 0.72238  0.38002  0.45410  Biso   1.000  O 
  O59      1.0000 0.72251  0.87430  0.95342  Biso   1.000  O 
  O60      1.0000 0.72132  0.87754  0.46067  Biso   1.000  O 
  O61      1.0000 0.72174  0.38095  0.20576  Biso   1.000  O 
  O62      1.0000 0.72288  0.38008  0.70234  Biso   1.000  O 
  O63      1.0000 0.71567  0.88858  0.20911  Biso   1.000  O 
  O64      1.0000 0.71970  0.88028  0.70592  Biso   1.000  O 
