data_image0
_cell_length_a       10.0697
_cell_length_b       10.3047
_cell_length_c       5.29632
_cell_angle_alpha    90
_cell_angle_beta     90
_cell_angle_gamma    90

_symmetry_space_group_name_H-M    "P 1"
_symmetry_int_tables_number       1

loop_
  _symmetry_equiv_pos_as_xyz
  'x, y, z'

loop_
  _atom_site_label
  _atom_site_occupancy
  _atom_site_fract_x
  _atom_site_fract_y
  _atom_site_fract_z
  _atom_site_thermal_displace_type
  _atom_site_B_iso_or_equiv
  _atom_site_type_symbol
  Hf1      1.0000 0.13719  0.02055  0.34976  Biso   1.000  Hf
  Hf2      1.0000 0.13281  0.22696  0.85439  Biso   1.000  Hf
  Hf3      1.0000 0.34543  0.27427  0.37673  Biso   1.000  Hf
  Hf4      1.0000 0.35047  0.48335  0.85466  Biso   1.000  Hf
  Hf5      1.0000 0.63889  0.00591  0.15721  Biso   1.000  Hf
  Hf6      1.0000 0.64195  0.21892  0.61890  Biso   1.000  Hf
  Hf7      1.0000 0.86819  0.27434  0.14413  Biso   1.000  Hf
  Hf8      1.0000 0.85596  0.47920  0.65329  Biso   1.000  Hf
  O1       1.0000 0.03343  0.16225  0.16548  Biso   1.000  O 
  O2       1.0000 0.02666  0.08691  0.66468  Biso   1.000  O 
  O3       1.0000 0.45160  0.43655  0.19631  Biso   1.000  O 
  O4       1.0000 0.46290  0.33616  0.66912  Biso   1.000  O 
  O5       1.0000 0.26850  0.12412  0.60507  Biso   1.000  O 
  O6       1.0000 0.27985  0.12661  0.10283  Biso   1.000  O 
  O7       1.0000 0.21347  0.37518  0.61087  Biso   1.000  O 
  O8       1.0000 0.21934  0.37586  0.10605  Biso   1.000  O 
  O9       1.0000 0.51701  0.13657  0.37676  Biso   1.000  O 
  O10      1.0000 0.52757  0.07221  0.83987  Biso   1.000  O 
  O11      1.0000 0.96484  0.41390  0.34006  Biso   1.000  O 
  O12      1.0000 0.96499  0.33649  0.83618  Biso   1.000  O 
  O13      1.0000 0.76711  0.12599  0.89379  Biso   1.000  O 
  O14      1.0000 0.77557  0.12279  0.38551  Biso   1.000  O 
  O15      1.0000 0.72626  0.38397  0.89860  Biso   1.000  O 
  O16      1.0000 0.71618  0.37183  0.39173  Biso   1.000  O 
  Hf9      1.0000 0.13570  0.52209  0.34892  Biso   1.000  Hf
  Hf10     1.0000 0.12857  0.72959  0.84744  Biso   1.000  Hf
  Hf11     1.0000 0.35482  0.77031  0.35261  Biso   1.000  Hf
  Hf12     1.0000 0.35167  0.97592  0.85196  Biso   1.000  Hf
  Hf13     1.0000 0.63818  0.53301  0.15767  Biso   1.000  Hf
  Hf14     1.0000 0.63158  0.72964  0.65944  Biso   1.000  Hf
  Hf15     1.0000 0.86239  0.76993  0.15974  Biso   1.000  Hf
  Hf16     1.0000 0.85681  0.97877  0.65844  Biso   1.000  Hf
  O17      1.0000 0.03075  0.66298  0.16631  Biso   1.000  O 
  O18      1.0000 0.02551  0.58725  0.66731  Biso   1.000  O 
  O19      1.0000 0.46569  0.90431  0.16430  Biso   1.000  O 
  O20      1.0000 0.45896  0.83366  0.66980  Biso   1.000  O 
  O21      1.0000 0.26794  0.62549  0.59709  Biso   1.000  O 
  O22      1.0000 0.27244  0.62820  0.09359  Biso   1.000  O 
  O23      1.0000 0.21630  0.87414  0.59818  Biso   1.000  O 
  O24      1.0000 0.22055  0.87702  0.09996  Biso   1.000  O 
  O25      1.0000 0.52966  0.66901  0.34118  Biso   1.000  O 
  O26      1.0000 0.52303  0.58731  0.83919  Biso   1.000  O 
  O27      1.0000 0.96443  0.91385  0.34046  Biso   1.000  O 
  O28      1.0000 0.95887  0.83763  0.84184  Biso   1.000  O 
  O29      1.0000 0.76807  0.62849  0.90653  Biso   1.000  O 
  O30      1.0000 0.77360  0.62564  0.41068  Biso   1.000  O 
  O31      1.0000 0.71673  0.87371  0.91315  Biso   1.000  O 
  O32      1.0000 0.72267  0.87139  0.41538  Biso   1.000  O 
  K1       1.0000 0.56268  0.26602  0.05274  Biso   1.000  K 
