data_image0
_cell_length_a       10.0958
_cell_length_b       10.4035
_cell_length_c       5.03527
_cell_angle_alpha    90
_cell_angle_beta     90
_cell_angle_gamma    90

_symmetry_space_group_name_H-M    "P 1"
_symmetry_int_tables_number       1

loop_
  _symmetry_equiv_pos_as_xyz
  'x, y, z'

loop_
  _atom_site_label
  _atom_site_occupancy
  _atom_site_fract_x
  _atom_site_fract_y
  _atom_site_fract_z
  _atom_site_thermal_displace_type
  _atom_site_B_iso_or_equiv
  _atom_site_type_symbol
  K1       1.0000 0.11348  0.01608  0.22531  Biso   1.000  K 
  Hf1      1.0000 0.13980  0.52026  0.25510  Biso   1.000  Hf
  Hf2      1.0000 0.62940  0.01463  0.24396  Biso   1.000  Hf
  Hf3      1.0000 0.64218  0.51738  0.25983  Biso   1.000  Hf
  Hf4      1.0000 0.15630  0.25492  0.76453  Biso   1.000  Hf
  Hf5      1.0000 0.14915  0.74101  0.75157  Biso   1.000  Hf
  Hf6      1.0000 0.63335  0.23384  0.74931  Biso   1.000  Hf
  Hf7      1.0000 0.64090  0.73222  0.75574  Biso   1.000  Hf
  Hf8      1.0000 0.37427  0.26897  0.25527  Biso   1.000  Hf
  Hf9      1.0000 0.37702  0.76854  0.24623  Biso   1.000  Hf
  Hf10     1.0000 0.85762  0.26735  0.25711  Biso   1.000  Hf
  Hf11     1.0000 0.87612  0.76070  0.24930  Biso   1.000  Hf
  Hf12     1.0000 0.37664  0.49210  0.75105  Biso   1.000  Hf
  Hf13     1.0000 0.37752  0.98668  0.74030  Biso   1.000  Hf
  Hf14     1.0000 0.87667  0.48322  0.76289  Biso   1.000  Hf
  Hf15     1.0000 0.86179  0.97456  0.73830  Biso   1.000  Hf
  O1       1.0000 0.01261  0.18809  0.49639  Biso   1.000  O 
  O2       1.0000 0.04586  0.68505  0.39365  Biso   1.000  O 
  O3       1.0000 0.54415  0.18793  0.37744  Biso   1.000  O 
  O4       1.0000 0.54502  0.68143  0.39722  Biso   1.000  O 
  O5       1.0000 0.02200  0.09490  0.70564  Biso   1.000  O 
  O6       1.0000 0.03939  0.57512  0.89861  Biso   1.000  O 
  O7       1.0000 0.53694  0.06903  0.87851  Biso   1.000  O 
  O8       1.0000 0.54223  0.56955  0.90075  Biso   1.000  O 
  O9       1.0000 0.47402  0.43506  0.39471  Biso   1.000  O 
  O10      1.0000 0.47711  0.93834  0.38233  Biso   1.000  O 
  O11      1.0000 0.97493  0.42854  0.41533  Biso   1.000  O 
  O12      1.0000 0.94202  0.92380  0.39391  Biso   1.000  O 
  O13      1.0000 0.47015  0.32240  0.88585  Biso   1.000  O 
  O14      1.0000 0.48303  0.82332  0.89579  Biso   1.000  O 
  O15      1.0000 0.98186  0.32080  0.94640  Biso   1.000  O 
  O16      1.0000 0.98230  0.83288  0.90046  Biso   1.000  O 
  O17      1.0000 0.28540  0.14001  0.51686  Biso   1.000  O 
  O18      1.0000 0.27761  0.61757  0.49701  Biso   1.000  O 
  O19      1.0000 0.76393  0.11826  0.49466  Biso   1.000  O 
  O20      1.0000 0.78186  0.61621  0.50310  Biso   1.000  O 
  O21      1.0000 0.27815  0.14551  0.99386  Biso   1.000  O 
  O22      1.0000 0.27798  0.63676  0.99969  Biso   1.000  O 
  O23      1.0000 0.77358  0.13448  0.99679  Biso   1.000  O 
  O24      1.0000 0.77652  0.63129  0.99871  Biso   1.000  O 
  O25      1.0000 0.24523  0.39030  0.00440  Biso   1.000  O 
  O26      1.0000 0.25279  0.87833  0.97835  Biso   1.000  O 
  O27      1.0000 0.73852  0.37844  0.00661  Biso   1.000  O 
  O28      1.0000 0.74006  0.87278  0.00302  Biso   1.000  O 
  O29      1.0000 0.23667  0.37650  0.49725  Biso   1.000  O 
  O30      1.0000 0.25537  0.86045  0.50594  Biso   1.000  O 
  O31      1.0000 0.73559  0.37041  0.51005  Biso   1.000  O 
  O32      1.0000 0.72613  0.86705  0.50388  Biso   1.000  O 
