data_image0
_cell_length_a       10.1016
_cell_length_b       5.15573
_cell_length_c       10.5549
_cell_angle_alpha    90
_cell_angle_beta     90
_cell_angle_gamma    90

_symmetry_space_group_name_H-M    "P 1"
_symmetry_int_tables_number       1

loop_
  _symmetry_equiv_pos_as_xyz
  'x, y, z'

loop_
  _atom_site_label
  _atom_site_occupancy
  _atom_site_fract_x
  _atom_site_fract_y
  _atom_site_fract_z
  _atom_site_thermal_displace_type
  _atom_site_B_iso_or_equiv
  _atom_site_type_symbol
  K1       1.0000 0.09981  0.97920  0.15435  Biso   1.000  K 
  Hf1      1.0000 0.13724  0.05779  0.67119  Biso   1.000  Hf
  Hf2      1.0000 0.13998  0.46412  0.42077  Biso   1.000  Hf
  Hf3      1.0000 0.14193  0.47295  0.92063  Biso   1.000  Hf
  Hf4      1.0000 0.35654  0.52835  0.16998  Biso   1.000  Hf
  Hf5      1.0000 0.35375  0.55723  0.66919  Biso   1.000  Hf
  Hf6      1.0000 0.35378  0.96374  0.41556  Biso   1.000  Hf
  Hf7      1.0000 0.35427  0.97367  0.92079  Biso   1.000  Hf
  Hf8      1.0000 0.63365  0.05010  0.07385  Biso   1.000  Hf
  Hf9      1.0000 0.63089  0.05289  0.58251  Biso   1.000  Hf
  Hf10     1.0000 0.63256  0.46118  0.33228  Biso   1.000  Hf
  Hf11     1.0000 0.63092  0.47876  0.82479  Biso   1.000  Hf
  Hf12     1.0000 0.86618  0.49722  0.05901  Biso   1.000  Hf
  Hf13     1.0000 0.85957  0.55729  0.58201  Biso   1.000  Hf
  Hf14     1.0000 0.85558  0.99570  0.35354  Biso   1.000  Hf
  Hf15     1.0000 0.85539  0.96882  0.82550  Biso   1.000  Hf
  O1       1.0000 0.04513  0.40983  0.09001  Biso   1.000  O 
  O2       1.0000 0.03295  0.36159  0.59456  Biso   1.000  O 
  O3       1.0000 0.02315  0.17916  0.35938  Biso   1.000  O 
  O4       1.0000 0.03105  0.17244  0.84019  Biso   1.000  O 
  O5       1.0000 0.47628  0.81641  0.07760  Biso   1.000  O 
  O6       1.0000 0.46318  0.83124  0.57688  Biso   1.000  O 
  O7       1.0000 0.47788  0.70008  0.32274  Biso   1.000  O 
  O8       1.0000 0.46505  0.69707  0.82369  Biso   1.000  O 
  O9       1.0000 0.28263  0.25511  0.30298  Biso   1.000  O 
  O10      1.0000 0.27230  0.26250  0.79139  Biso   1.000  O 
  O11      1.0000 0.28956  0.24830  0.03548  Biso   1.000  O 
  O12      1.0000 0.27283  0.26231  0.54530  Biso   1.000  O 
  O13      1.0000 0.23462  0.72583  0.30117  Biso   1.000  O 
  O14      1.0000 0.21861  0.76232  0.79015  Biso   1.000  O 
  O15      1.0000 0.24754  0.72020  0.03020  Biso   1.000  O 
  O16      1.0000 0.21845  0.76863  0.54471  Biso   1.000  O 
  O17      1.0000 0.53407  0.32578  0.17066  Biso   1.000  O 
  O18      1.0000 0.52510  0.33821  0.66773  Biso   1.000  O 
  O19      1.0000 0.53069  0.18373  0.42018  Biso   1.000  O 
  O20      1.0000 0.52877  0.19610  0.91696  Biso   1.000  O 
  O21      1.0000 0.85648  0.81898  0.17431  Biso   1.000  O 
  O22      1.0000 0.95885  0.86149  0.66050  Biso   1.000  O 
  O23      1.0000 0.96331  0.68142  0.41528  Biso   1.000  O 
  O24      1.0000 0.96234  0.67882  0.90579  Biso   1.000  O 
  O25      1.0000 0.77157  0.24491  0.95143  Biso   1.000  O 
  O26      1.0000 0.76763  0.26892  0.46501  Biso   1.000  O 
  O27      1.0000 0.77704  0.27785  0.21134  Biso   1.000  O 
  O28      1.0000 0.77047  0.26891  0.70747  Biso   1.000  O 
  O29      1.0000 0.71787  0.75414  0.95286  Biso   1.000  O 
  O30      1.0000 0.72096  0.76267  0.46108  Biso   1.000  O 
  O31      1.0000 0.71677  0.78896  0.21183  Biso   1.000  O 
  O32      1.0000 0.71977  0.76550  0.70441  Biso   1.000  O 
