data_image0
_cell_length_a       5.04727
_cell_length_b       10.385
_cell_length_c       10.1366
_cell_angle_alpha    90
_cell_angle_beta     90
_cell_angle_gamma    90

_symmetry_space_group_name_H-M    "P 1"
_symmetry_int_tables_number       1

loop_
  _symmetry_equiv_pos_as_xyz
  'x, y, z'

loop_
  _atom_site_label
  _atom_site_occupancy
  _atom_site_fract_x
  _atom_site_fract_y
  _atom_site_fract_z
  _atom_site_thermal_displace_type
  _atom_site_B_iso_or_equiv
  _atom_site_type_symbol
  Hf1      1.0000 0.22133  0.97606  0.09814  Biso   1.000  Hf
  Hf2      1.0000 0.22332  0.23164  0.39514  Biso   1.000  Hf
  Hf3      1.0000 0.65357  0.26420  0.13229  Biso   1.000  Hf
  Hf4      1.0000 0.70099  0.48570  0.37191  Biso   1.000  Hf
  O1       1.0000 0.87234  0.18227  0.27948  Biso   1.000  O 
  O2       1.0000 0.05067  0.06596  0.46559  Biso   1.000  O 
  O3       1.0000 0.89004  0.43132  0.18991  Biso   1.000  O 
  O4       1.0000 0.92923  0.33975  0.47015  Biso   1.000  O 
  O5       1.0000 0.41207  0.10656  0.24505  Biso   1.000  O 
  O6       1.0000 0.52695  0.14149  0.50037  Biso   1.000  O 
  O7       1.0000 0.44515  0.38917  0.50056  Biso   1.000  O 
  O8       1.0000 0.40640  0.36997  0.25584  Biso   1.000  O 
  Hf5      1.0000 0.27369  0.01376  0.62312  Biso   1.000  Hf
  Hf6      1.0000 0.23268  0.24087  0.85574  Biso   1.000  Hf
  Hf7      1.0000 0.71217  0.27595  0.62792  Biso   1.000  Hf
  Hf8      1.0000 0.68895  0.48613  0.87703  Biso   1.000  Hf
  O9       1.0000 0.05081  0.18441  0.69013  Biso   1.000  O 
  O10      1.0000 0.05545  0.07563  0.94164  Biso   1.000  O 
  O11      1.0000 0.90575  0.43946  0.70621  Biso   1.000  O 
  O12      1.0000 0.87009  0.31580  0.93003  Biso   1.000  O 
  O13      1.0000 0.52325  0.12118  0.74974  Biso   1.000  O 
  O14      1.0000 0.51326  0.12733  0.99941  Biso   1.000  O 
  O15      1.0000 0.40076  0.39115  0.99634  Biso   1.000  O 
  O16      1.0000 0.43071  0.37322  0.74393  Biso   1.000  O 
  Hf9      1.0000 0.23732  0.52589  0.12554  Biso   1.000  Hf
  Hf10     1.0000 0.22684  0.74204  0.37697  Biso   1.000  Hf
  Hf11     1.0000 0.70792  0.76181  0.12570  Biso   1.000  Hf
  Hf12     1.0000 0.73171  0.00595  0.35847  Biso   1.000  Hf
  O17      1.0000 0.03893  0.68526  0.19990  Biso   1.000  O 
  O18      1.0000 0.02745  0.57725  0.44392  Biso   1.000  O 
  O19      1.0000 0.88054  0.93922  0.19261  Biso   1.000  O 
  O20      1.0000 0.88718  0.82633  0.44150  Biso   1.000  O 
  O21      1.0000 0.51122  0.61910  0.24881  Biso   1.000  O 
  O22      1.0000 0.49596  0.63899  0.49603  Biso   1.000  O 
  O23      1.0000 0.41701  0.89228  0.49154  Biso   1.000  O 
  O24      1.0000 0.42641  0.86055  0.23938  Biso   1.000  O 
  Hf13     1.0000 0.22562  0.51876  0.61824  Biso   1.000  Hf
  Hf14     1.0000 0.22438  0.73260  0.86631  Biso   1.000  Hf
  Hf15     1.0000 0.69433  0.77203  0.61482  Biso   1.000  Hf
  Hf16     1.0000 0.67898  0.98990  0.86796  Biso   1.000  Hf
  O25      1.0000 0.02318  0.68697  0.69187  Biso   1.000  O 
  O26      1.0000 0.01540  0.57790  0.94918  Biso   1.000  O 
  O27      1.0000 0.88922  0.93236  0.70355  Biso   1.000  O 
  O28      1.0000 0.93205  0.83422  0.96536  Biso   1.000  O 
  O29      1.0000 0.49244  0.61735  0.74564  Biso   1.000  O 
  O30      1.0000 0.49243  0.63692  0.99706  Biso   1.000  O 
  O31      1.0000 0.44156  0.87532  0.98506  Biso   1.000  O 
  O32      1.0000 0.41911  0.86754  0.74114  Biso   1.000  O 
  K1       1.0000 0.14370  0.24173  0.11198  Biso   1.000  K 
