data_image0
_cell_length_a       10.0208
_cell_length_b       10.393
_cell_length_c       10.0723
_cell_angle_alpha    90
_cell_angle_beta     90
_cell_angle_gamma    90

_symmetry_space_group_name_H-M    "P 1"
_symmetry_int_tables_number       1

loop_
  _symmetry_equiv_pos_as_xyz
  'x, y, z'

loop_
  _atom_site_label
  _atom_site_occupancy
  _atom_site_fract_x
  _atom_site_fract_y
  _atom_site_fract_z
  _atom_site_thermal_displace_type
  _atom_site_B_iso_or_equiv
  _atom_site_type_symbol
  Hf1      1.0000 0.13645  0.99311  0.11435  Biso   1.000  Hf
  Hf2      1.0000 0.12692  0.23232  0.39373  Biso   1.000  Hf
  Hf3      1.0000 0.36963  0.27055  0.12100  Biso   1.000  Hf
  Hf4      1.0000 0.36294  0.48662  0.37495  Biso   1.000  Hf
  O1       1.0000 0.96733  0.17370  0.26769  Biso   1.000  O 
  O2       1.0000 0.03819  0.06474  0.46458  Biso   1.000  O 
  O3       1.0000 0.46022  0.43835  0.19424  Biso   1.000  O 
  O4       1.0000 0.46370  0.32278  0.44760  Biso   1.000  O 
  O5       1.0000 0.24331  0.11350  0.24748  Biso   1.000  O 
  O6       1.0000 0.27506  0.13534  0.49940  Biso   1.000  O 
  O7       1.0000 0.23125  0.38678  0.50159  Biso   1.000  O 
  O8       1.0000 0.22772  0.36713  0.25468  Biso   1.000  O 
  Hf5      1.0000 0.13958  0.01318  0.62857  Biso   1.000  Hf
  Hf6      1.0000 0.13106  0.23774  0.85664  Biso   1.000  Hf
  Hf7      1.0000 0.37020  0.27105  0.62480  Biso   1.000  Hf
  Hf8      1.0000 0.36562  0.49153  0.87276  Biso   1.000  Hf
  O9       1.0000 0.03681  0.18515  0.69041  Biso   1.000  O 
  O10      1.0000 0.03757  0.07113  0.94718  Biso   1.000  O 
  O11      1.0000 0.46567  0.43821  0.69554  Biso   1.000  O 
  O12      1.0000 0.46509  0.32285  0.94376  Biso   1.000  O 
  O13      1.0000 0.27176  0.12017  0.74706  Biso   1.000  O 
  O14      1.0000 0.27343  0.13472  0.99523  Biso   1.000  O 
  O15      1.0000 0.23195  0.39857  0.99560  Biso   1.000  O 
  O16      1.0000 0.23220  0.37069  0.74613  Biso   1.000  O 
  Hf9      1.0000 0.13132  0.52587  0.12598  Biso   1.000  Hf
  Hf10     1.0000 0.12856  0.73712  0.37686  Biso   1.000  Hf
  Hf11     1.0000 0.36701  0.76188  0.12307  Biso   1.000  Hf
  Hf12     1.0000 0.35843  0.98915  0.37108  Biso   1.000  Hf
  O17      1.0000 0.03061  0.68506  0.19710  Biso   1.000  O 
  O18      1.0000 0.03191  0.57199  0.44341  Biso   1.000  O 
  O19      1.0000 0.45193  0.93587  0.19131  Biso   1.000  O 
  O20      1.0000 0.46174  0.82229  0.44208  Biso   1.000  O 
  O21      1.0000 0.26867  0.61893  0.24792  Biso   1.000  O 
  O22      1.0000 0.26636  0.63661  0.49738  Biso   1.000  O 
  O23      1.0000 0.22787  0.88639  0.49614  Biso   1.000  O 
  O24      1.0000 0.22736  0.86071  0.24505  Biso   1.000  O 
  Hf13     1.0000 0.12948  0.51850  0.62225  Biso   1.000  Hf
  Hf14     1.0000 0.12738  0.73618  0.86919  Biso   1.000  Hf
  Hf15     1.0000 0.36622  0.76882  0.62075  Biso   1.000  Hf
  Hf16     1.0000 0.36566  0.98755  0.87110  Biso   1.000  Hf
  O25      1.0000 0.03230  0.68775  0.69026  Biso   1.000  O 
  O26      1.0000 0.03040  0.57371  0.94701  Biso   1.000  O 
  O27      1.0000 0.46343  0.93692  0.69345  Biso   1.000  O 
  O28      1.0000 0.46653  0.82416  0.94648  Biso   1.000  O 
  O29      1.0000 0.26522  0.61850  0.74610  Biso   1.000  O 
  O30      1.0000 0.26489  0.64171  0.99631  Biso   1.000  O 
  O31      1.0000 0.23125  0.88229  0.99186  Biso   1.000  O 
  O32      1.0000 0.23184  0.86699  0.74654  Biso   1.000  O 
  Hf17     1.0000 0.62746  0.01185  0.12031  Biso   1.000  Hf
  Hf18     1.0000 0.62693  0.23370  0.37976  Biso   1.000  Hf
  Hf19     1.0000 0.83478  0.26323  0.13286  Biso   1.000  Hf
  Hf20     1.0000 0.86474  0.48507  0.37443  Biso   1.000  Hf
  O33      1.0000 0.52174  0.18044  0.20098  Biso   1.000  O 
  O34      1.0000 0.53149  0.06977  0.44958  Biso   1.000  O 
  O35      1.0000 0.95917  0.42924  0.19185  Biso   1.000  O 
  O36      1.0000 0.97059  0.33260  0.46491  Biso   1.000  O 
  O37      1.0000 0.74197  0.11251  0.24986  Biso   1.000  O 
  O38      1.0000 0.77086  0.14213  0.49785  Biso   1.000  O 
  O39      1.0000 0.73003  0.38760  0.50105  Biso   1.000  O 
  O40      1.0000 0.71706  0.37294  0.25520  Biso   1.000  O 
  Hf21     1.0000 0.63881  0.01949  0.62294  Biso   1.000  Hf
  Hf22     1.0000 0.63358  0.23862  0.87351  Biso   1.000  Hf
  Hf23     1.0000 0.86302  0.27397  0.62913  Biso   1.000  Hf
  Hf24     1.0000 0.86317  0.48696  0.87819  Biso   1.000  Hf
  O41      1.0000 0.53827  0.18799  0.69408  Biso   1.000  O 
  O42      1.0000 0.53669  0.07302  0.94115  Biso   1.000  O 
  O43      1.0000 0.96507  0.43860  0.70254  Biso   1.000  O 
  O44      1.0000 0.95464  0.31652  0.93254  Biso   1.000  O 
  O45      1.0000 0.77265  0.12151  0.74907  Biso   1.000  O 
  O46      1.0000 0.76969  0.13408  0.99863  Biso   1.000  O 
  O47      1.0000 0.72189  0.38372  0.00139  Biso   1.000  O 
  O48      1.0000 0.72713  0.37418  0.75023  Biso   1.000  O 
  Hf25     1.0000 0.62976  0.52060  0.12710  Biso   1.000  Hf
  Hf26     1.0000 0.63359  0.74033  0.37651  Biso   1.000  Hf
  Hf27     1.0000 0.86029  0.76632  0.12601  Biso   1.000  Hf
  Hf28     1.0000 0.87740  0.00277  0.36284  Biso   1.000  Hf
  O49      1.0000 0.53500  0.68771  0.19664  Biso   1.000  O 
  O50      1.0000 0.53225  0.57249  0.44562  Biso   1.000  O 
  O51      1.0000 0.96214  0.93462  0.18979  Biso   1.000  O 
  O52      1.0000 0.96214  0.82505  0.44223  Biso   1.000  O 
  O53      1.0000 0.76766  0.61937  0.24979  Biso   1.000  O 
  O54      1.0000 0.76834  0.63804  0.49832  Biso   1.000  O 
  O55      1.0000 0.72915  0.89144  0.49614  Biso   1.000  O 
  O56      1.0000 0.72707  0.86871  0.24618  Biso   1.000  O 
  Hf29     1.0000 0.63307  0.52205  0.62398  Biso   1.000  Hf
  Hf30     1.0000 0.63322  0.73855  0.87361  Biso   1.000  Hf
  Hf31     1.0000 0.86376  0.77433  0.62059  Biso   1.000  Hf
  Hf32     1.0000 0.86185  0.98823  0.87633  Biso   1.000  Hf
  O57      1.0000 0.53249  0.68768  0.69574  Biso   1.000  O 
  O58      1.0000 0.53028  0.57593  0.94840  Biso   1.000  O 
  O59      1.0000 0.96588  0.93392  0.70336  Biso   1.000  O 
  O60      1.0000 0.96507  0.82308  0.94951  Biso   1.000  O 
  O61      1.0000 0.76824  0.62210  0.74879  Biso   1.000  O 
  O62      1.0000 0.76624  0.63858  0.99972  Biso   1.000  O 
  O63      1.0000 0.72693  0.88638  0.99756  Biso   1.000  O 
  O64      1.0000 0.72823  0.87210  0.74724  Biso   1.000  O 
  K1       1.0000 0.09575  0.25104  0.10885  Biso   1.000  K 
