data_image0
_cell_length_a       5.01344
_cell_length_b       10.4029
_cell_length_c       10.1125
_cell_angle_alpha    90
_cell_angle_beta     90
_cell_angle_gamma    90

_symmetry_space_group_name_H-M    "P 1"
_symmetry_int_tables_number       1

loop_
  _symmetry_equiv_pos_as_xyz
  'x, y, z'

loop_
  _atom_site_label
  _atom_site_occupancy
  _atom_site_fract_x
  _atom_site_fract_y
  _atom_site_fract_z
  _atom_site_thermal_displace_type
  _atom_site_B_iso_or_equiv
  _atom_site_type_symbol
  K1       1.0000 0.23563  0.99278  0.12369  Biso   1.000  K 
  Hf1      1.0000 0.26634  0.02013  0.63150  Biso   1.000  Hf
  Hf2      1.0000 0.26853  0.51251  0.13141  Biso   1.000  Hf
  Hf3      1.0000 0.27722  0.51675  0.62707  Biso   1.000  Hf
  Hf4      1.0000 0.27009  0.23321  0.37581  Biso   1.000  Hf
  Hf5      1.0000 0.28530  0.23158  0.87758  Biso   1.000  Hf
  Hf6      1.0000 0.27222  0.72912  0.38047  Biso   1.000  Hf
  Hf7      1.0000 0.28820  0.73422  0.87085  Biso   1.000  Hf
  Hf8      1.0000 0.72297  0.26190  0.13065  Biso   1.000  Hf
  Hf9      1.0000 0.73861  0.27006  0.62643  Biso   1.000  Hf
  Hf10     1.0000 0.76915  0.73438  0.08991  Biso   1.000  Hf
  Hf11     1.0000 0.74254  0.76810  0.62212  Biso   1.000  Hf
  Hf12     1.0000 0.73421  0.48354  0.37716  Biso   1.000  Hf
  Hf13     1.0000 0.73814  0.47633  0.87829  Biso   1.000  Hf
  Hf14     1.0000 0.73052  0.99450  0.39057  Biso   1.000  Hf
  Hf15     1.0000 0.73351  0.98594  0.87251  Biso   1.000  Hf
  O1       1.0000 0.05848  0.19819  0.20843  Biso   1.000  O 
  O2       1.0000 0.08679  0.19305  0.68557  Biso   1.000  O 
  O3       1.0000 0.10051  0.69801  0.20060  Biso   1.000  O 
  O4       1.0000 0.07778  0.68442  0.69431  Biso   1.000  O 
  O5       1.0000 0.07493  0.06752  0.44727  Biso   1.000  O 
  O6       1.0000 0.08576  0.06826  0.89759  Biso   1.000  O 
  O7       1.0000 0.07876  0.57054  0.44677  Biso   1.000  O 
  O8       1.0000 0.02503  0.58958  0.97048  Biso   1.000  O 
  O9       1.0000 0.92336  0.44020  0.19848  Biso   1.000  O 
  O10      1.0000 0.94214  0.43648  0.70158  Biso   1.000  O 
  O11      1.0000 0.80480  0.91682  0.19693  Biso   1.000  O 
  O12      1.0000 0.92060  0.93684  0.68296  Biso   1.000  O 
  O13      1.0000 0.93574  0.32264  0.45080  Biso   1.000  O 
  O14      1.0000 0.94955  0.32257  0.94970  Biso   1.000  O 
  O15      1.0000 0.94003  0.81934  0.44553  Biso   1.000  O 
  O16      1.0000 0.97928  0.83168  0.94298  Biso   1.000  O 
  O17      1.0000 0.56286  0.12837  0.26475  Biso   1.000  O 
  O18      1.0000 0.55288  0.12228  0.74773  Biso   1.000  O 
  O19      1.0000 0.54529  0.61172  0.24713  Biso   1.000  O 
  O20      1.0000 0.55170  0.61762  0.74777  Biso   1.000  O 
  O21      1.0000 0.53900  0.13390  0.50798  Biso   1.000  O 
  O22      1.0000 0.57386  0.13465  0.99340  Biso   1.000  O 
  O23      1.0000 0.55063  0.63258  0.49889  Biso   1.000  O 
  O24      1.0000 0.51909  0.61541  0.99295  Biso   1.000  O 
  O25      1.0000 0.46570  0.38483  0.50214  Biso   1.000  O 
  O26      1.0000 0.45490  0.38005  0.00381  Biso   1.000  O 
  O27      1.0000 0.45505  0.88431  0.49564  Biso   1.000  O 
  O28      1.0000 0.51376  0.85508  0.98624  Biso   1.000  O 
  O29      1.0000 0.45667  0.37048  0.25356  Biso   1.000  O 
  O30      1.0000 0.46845  0.37028  0.75200  Biso   1.000  O 
  O31      1.0000 0.57046  0.85376  0.24477  Biso   1.000  O 
  O32      1.0000 0.46246  0.87035  0.74351  Biso   1.000  O 
