data_image0
_cell_length_a       5.09362
_cell_length_b       10.3345
_cell_length_c       10.5954
_cell_angle_alpha    90
_cell_angle_beta     80
_cell_angle_gamma    90

_symmetry_space_group_name_H-M    "P 1"
_symmetry_int_tables_number       1

loop_
  _symmetry_equiv_pos_as_xyz
  'x, y, z'

loop_
  _atom_site_label
  _atom_site_occupancy
  _atom_site_fract_x
  _atom_site_fract_y
  _atom_site_fract_z
  _atom_site_thermal_displace_type
  _atom_site_B_iso_or_equiv
  _atom_site_type_symbol
  Hf1      1.0000 0.27705  0.01696  0.14749  Biso   1.000  Hf
  Hf2      1.0000 0.30600  0.22728  0.40810  Biso   1.000  Hf
  Hf3      1.0000 0.69226  0.27441  0.08670  Biso   1.000  Hf
  Hf4      1.0000 0.72389  0.48807  0.35624  Biso   1.000  Hf
  O1       1.0000 0.05794  0.16240  0.07194  Biso   1.000  O 
  O2       1.0000 0.09872  0.06022  0.34380  Biso   1.000  O 
  O3       1.0000 0.91889  0.42836  0.16450  Biso   1.000  O 
  O4       1.0000 0.96855  0.36000  0.44439  Biso   1.000  O 
  O5       1.0000 0.53972  0.12602  0.23540  Biso   1.000  O 
  O6       1.0000 0.59096  0.12392  0.48785  Biso   1.000  O 
  O7       1.0000 0.42406  0.38294  0.00643  Biso   1.000  O 
  O8       1.0000 0.45016  0.36815  0.25945  Biso   1.000  O 
  Hf5      1.0000 0.29765  0.02254  0.64465  Biso   1.000  Hf
  Hf6      1.0000 0.29120  0.22724  0.89105  Biso   1.000  Hf
  Hf7      1.0000 0.74617  0.27868  0.60829  Biso   1.000  Hf
  Hf8      1.0000 0.73664  0.48409  0.85346  Biso   1.000  Hf
  O9       1.0000 0.09301  0.17035  0.58257  Biso   1.000  O 
  O10      1.0000 0.08497  0.08461  0.82337  Biso   1.000  O 
  O11      1.0000 0.95212  0.41794  0.68149  Biso   1.000  O 
  O12      1.0000 0.94609  0.33557  0.91668  Biso   1.000  O 
  O13      1.0000 0.56936  0.12962  0.73867  Biso   1.000  O 
  O14      1.0000 0.57256  0.12379  0.98456  Biso   1.000  O 
  O15      1.0000 0.46919  0.37947  0.51193  Biso   1.000  O 
  O16      1.0000 0.46643  0.37373  0.75924  Biso   1.000  O 
  Hf9      1.0000 0.26805  0.52482  0.14687  Biso   1.000  Hf
  Hf10     1.0000 0.28087  0.72782  0.39764  Biso   1.000  Hf
  Hf11     1.0000 0.71402  0.77153  0.10516  Biso   1.000  Hf
  Hf12     1.0000 0.72475  0.96759  0.35671  Biso   1.000  Hf
  O17      1.0000 0.06446  0.67173  0.07952  Biso   1.000  O 
  O18      1.0000 0.06901  0.58834  0.32542  Biso   1.000  O 
  O19      1.0000 0.92316  0.91513  0.17609  Biso   1.000  O 
  O20      1.0000 0.92937  0.82530  0.42415  Biso   1.000  O 
  O21      1.0000 0.55102  0.62885  0.24279  Biso   1.000  O 
  O22      1.0000 0.55585  0.62329  0.49234  Biso   1.000  O 
  O23      1.0000 0.43933  0.87935  0.01109  Biso   1.000  O 
  O24      1.0000 0.44349  0.86665  0.25973  Biso   1.000  O 
  Hf13     1.0000 0.29054  0.52327  0.64799  Biso   1.000  Hf
  Hf14     1.0000 0.29300  0.73161  0.89631  Biso   1.000  Hf
  Hf15     1.0000 0.73392  0.77188  0.60636  Biso   1.000  Hf
  Hf16     1.0000 0.73741  0.97909  0.85141  Biso   1.000  Hf
  O25      1.0000 0.07547  0.66480  0.57913  Biso   1.000  O 
  O26      1.0000 0.08450  0.58793  0.82867  Biso   1.000  O 
  O27      1.0000 0.94559  0.91650  0.67135  Biso   1.000  O 
  O28      1.0000 0.94997  0.83734  0.92187  Biso   1.000  O 
  O29      1.0000 0.56671  0.62989  0.74079  Biso   1.000  O 
  O30      1.0000 0.57241  0.62568  0.99030  Biso   1.000  O 
  O31      1.0000 0.45500  0.87784  0.51184  Biso   1.000  O 
  O32      1.0000 0.46180  0.87279  0.75995  Biso   1.000  O 
  K1       1.0000 0.90355  0.23628  0.28059  Biso   1.000  K 
