data_image0
_cell_length_a       10.1104
_cell_length_b       10.2667
_cell_length_c       5.08871
_cell_angle_alpha    90
_cell_angle_beta     90
_cell_angle_gamma    90

_symmetry_space_group_name_H-M    "P 1"
_symmetry_int_tables_number       1

loop_
  _symmetry_equiv_pos_as_xyz
  'x, y, z'

loop_
  _atom_site_label
  _atom_site_occupancy
  _atom_site_fract_x
  _atom_site_fract_y
  _atom_site_fract_z
  _atom_site_thermal_displace_type
  _atom_site_B_iso_or_equiv
  _atom_site_type_symbol
  K1       1.0000 0.15303  0.99318  0.30897  Biso   1.000  K 
  Hf1      1.0000 0.15625  0.50587  0.20038  Biso   1.000  Hf
  Hf2      1.0000 0.62903  0.00660  0.23599  Biso   1.000  Hf
  Hf3      1.0000 0.63630  0.49581  0.24038  Biso   1.000  Hf
  Hf4      1.0000 0.11061  0.23668  0.81026  Biso   1.000  Hf
  Hf5      1.0000 0.18526  0.76104  0.78597  Biso   1.000  Hf
  Hf6      1.0000 0.64593  0.26668  0.74988  Biso   1.000  Hf
  Hf7      1.0000 0.64833  0.77496  0.74490  Biso   1.000  Hf
  Hf8      1.0000 0.36701  0.24143  0.25267  Biso   1.000  Hf
  Hf9      1.0000 0.40362  0.74344  0.27521  Biso   1.000  Hf
  Hf10     1.0000 0.88769  0.26414  0.30961  Biso   1.000  Hf
  Hf11     1.0000 0.89427  0.75895  0.30846  Biso   1.000  Hf
  Hf12     1.0000 0.36906  0.02861  0.76623  Biso   1.000  Hf
  Hf13     1.0000 0.38594  0.48606  0.70278  Biso   1.000  Hf
  Hf14     1.0000 0.92019  0.97766  0.80671  Biso   1.000  Hf
  Hf15     1.0000 0.90388  0.50231  0.77063  Biso   1.000  Hf
  O1       1.0000 0.96793  0.12719  0.04657  Biso   1.000  O 
  O2       1.0000 0.07054  0.60254  0.87681  Biso   1.000  O 
  O3       1.0000 0.49278  0.17812  0.93945  Biso   1.000  O 
  O4       1.0000 0.56062  0.66283  0.04056  Biso   1.000  O 
  O5       1.0000 0.96934  0.12421  0.57370  Biso   1.000  O 
  O6       1.0000 0.00154  0.59224  0.39608  Biso   1.000  O 
  O7       1.0000 0.46952  0.08536  0.42671  Biso   1.000  O 
  O8       1.0000 0.52477  0.60775  0.52401  Biso   1.000  O 
  O9       1.0000 0.01339  0.36180  0.56507  Biso   1.000  O 
  O10      1.0000 0.03075  0.83931  0.57282  Biso   1.000  O 
  O11      1.0000 0.51514  0.35289  0.46790  Biso   1.000  O 
  O12      1.0000 0.56437  0.84338  0.41102  Biso   1.000  O 
  O13      1.0000 0.01143  0.37455  0.06455  Biso   1.000  O 
  O14      1.0000 0.02643  0.84394  0.04177  Biso   1.000  O 
  O15      1.0000 0.53082  0.42155  0.95838  Biso   1.000  O 
  O16      1.0000 0.55496  0.93062  0.92217  Biso   1.000  O 
  O17      1.0000 0.24795  0.16277  0.54763  Biso   1.000  O 
  O18      1.0000 0.26162  0.63576  0.48865  Biso   1.000  O 
  O19      1.0000 0.71553  0.16908  0.41319  Biso   1.000  O 
  O20      1.0000 0.79705  0.66120  0.62837  Biso   1.000  O 
  O21      1.0000 0.24273  0.12445  0.02357  Biso   1.000  O 
  O22      1.0000 0.31328  0.61850  0.99729  Biso   1.000  O 
  O23      1.0000 0.73423  0.09944  0.91297  Biso   1.000  O 
  O24      1.0000 0.81076  0.59503  0.11686  Biso   1.000  O 
  O25      1.0000 0.26347  0.36997  0.93921  Biso   1.000  O 
  O26      1.0000 0.30202  0.86229  0.02367  Biso   1.000  O 
  O27      1.0000 0.76340  0.35625  0.00534  Biso   1.000  O 
  O28      1.0000 0.77651  0.85234  0.02486  Biso   1.000  O 
  O29      1.0000 0.27648  0.39781  0.42457  Biso   1.000  O 
  O30      1.0000 0.31942  0.87062  0.55425  Biso   1.000  O 
  O31      1.0000 0.76672  0.40883  0.51388  Biso   1.000  O 
  O32      1.0000 0.79206  0.91264  0.50946  Biso   1.000  O 
