data_image0
_cell_length_a       10.0467
_cell_length_b       10.2607
_cell_length_c       10.5242
_cell_angle_alpha    90
_cell_angle_beta     90
_cell_angle_gamma    90

_symmetry_space_group_name_H-M    "P 1"
_symmetry_int_tables_number       1

loop_
  _symmetry_equiv_pos_as_xyz
  'x, y, z'

loop_
  _atom_site_label
  _atom_site_occupancy
  _atom_site_fract_x
  _atom_site_fract_y
  _atom_site_fract_z
  _atom_site_thermal_displace_type
  _atom_site_B_iso_or_equiv
  _atom_site_type_symbol
  Hf1      1.0000 0.13731  0.02057  0.17272  Biso   1.000  Hf
  Hf2      1.0000 0.13285  0.22702  0.42601  Biso   1.000  Hf
  Hf3      1.0000 0.34611  0.27241  0.18634  Biso   1.000  Hf
  Hf4      1.0000 0.35630  0.47887  0.42436  Biso   1.000  Hf
  Hf5      1.0000 0.63848  0.00927  0.08020  Biso   1.000  Hf
  Hf6      1.0000 0.63235  0.22324  0.32977  Biso   1.000  Hf
  Hf7      1.0000 0.86671  0.27256  0.07533  Biso   1.000  Hf
  Hf8      1.0000 0.85497  0.47745  0.32631  Biso   1.000  Hf
  O1       1.0000 0.03498  0.16459  0.08289  Biso   1.000  O 
  O2       1.0000 0.02697  0.08660  0.33209  Biso   1.000  O 
  O3       1.0000 0.45131  0.43580  0.09903  Biso   1.000  O 
  O4       1.0000 0.46156  0.33344  0.33727  Biso   1.000  O 
  O5       1.0000 0.26809  0.12385  0.30131  Biso   1.000  O 
  O6       1.0000 0.28051  0.12744  0.04747  Biso   1.000  O 
  O7       1.0000 0.21412  0.37510  0.30294  Biso   1.000  O 
  O8       1.0000 0.21959  0.37635  0.04894  Biso   1.000  O 
  O9       1.0000 0.51554  0.13724  0.19209  Biso   1.000  O 
  O10      1.0000 0.52523  0.08715  0.42795  Biso   1.000  O 
  O11      1.0000 0.96462  0.41517  0.16850  Biso   1.000  O 
  O12      1.0000 0.96295  0.33591  0.41727  Biso   1.000  O 
  O13      1.0000 0.77124  0.12282  0.45202  Biso   1.000  O 
  O14      1.0000 0.77047  0.12692  0.19956  Biso   1.000  O 
  O15      1.0000 0.71838  0.37418  0.45292  Biso   1.000  O 
  O16      1.0000 0.71548  0.37407  0.19985  Biso   1.000  O 
  Hf9      1.0000 0.13258  0.02047  0.67363  Biso   1.000  Hf
  Hf10     1.0000 0.13238  0.22853  0.92271  Biso   1.000  Hf
  Hf11     1.0000 0.35443  0.27236  0.67417  Biso   1.000  Hf
  Hf12     1.0000 0.34940  0.48259  0.92538  Biso   1.000  Hf
  Hf13     1.0000 0.63400  0.01720  0.57711  Biso   1.000  Hf
  Hf14     1.0000 0.64041  0.22559  0.80902  Biso   1.000  Hf
  Hf15     1.0000 0.85763  0.27259  0.57403  Biso   1.000  Hf
  Hf16     1.0000 0.85563  0.48037  0.82783  Biso   1.000  Hf
  O17      1.0000 0.02579  0.16290  0.58317  Biso   1.000  O 
  O18      1.0000 0.02591  0.08483  0.83364  Biso   1.000  O 
  O19      1.0000 0.46263  0.41373  0.58331  Biso   1.000  O 
  O20      1.0000 0.46270  0.33732  0.83228  Biso   1.000  O 
  O21      1.0000 0.26951  0.12410  0.79679  Biso   1.000  O 
  O22      1.0000 0.27036  0.12530  0.54930  Biso   1.000  O 
  O23      1.0000 0.21739  0.37384  0.79795  Biso   1.000  O 
  O24      1.0000 0.21825  0.37549  0.54936  Biso   1.000  O 
  O25      1.0000 0.52548  0.16193  0.66588  Biso   1.000  O 
  O26      1.0000 0.52754  0.07351  0.90992  Biso   1.000  O 
  O27      1.0000 0.96188  0.41401  0.66730  Biso   1.000  O 
  O28      1.0000 0.96250  0.33491  0.91643  Biso   1.000  O 
  O29      1.0000 0.76497  0.12628  0.94989  Biso   1.000  O 
  O30      1.0000 0.77382  0.12275  0.69785  Biso   1.000  O 
  O31      1.0000 0.72484  0.38330  0.95011  Biso   1.000  O 
  O32      1.0000 0.71930  0.37488  0.70014  Biso   1.000  O 
  Hf17     1.0000 0.13666  0.52247  0.17332  Biso   1.000  Hf
  Hf18     1.0000 0.13205  0.72826  0.42262  Biso   1.000  Hf
  Hf19     1.0000 0.35680  0.77178  0.17477  Biso   1.000  Hf
  Hf20     1.0000 0.35540  0.97809  0.42569  Biso   1.000  Hf
  Hf21     1.0000 0.63873  0.53238  0.07950  Biso   1.000  Hf
  Hf22     1.0000 0.63417  0.72969  0.33051  Biso   1.000  Hf
  Hf23     1.0000 0.86232  0.77039  0.07871  Biso   1.000  Hf
  Hf24     1.0000 0.85770  0.97960  0.32766  Biso   1.000  Hf
  O33      1.0000 0.03197  0.66432  0.08304  Biso   1.000  O 
  O34      1.0000 0.02670  0.58555  0.33339  Biso   1.000  O 
  O35      1.0000 0.46614  0.90783  0.08020  Biso   1.000  O 
  O36      1.0000 0.46355  0.83779  0.33457  Biso   1.000  O 
  O37      1.0000 0.27078  0.62480  0.29770  Biso   1.000  O 
  O38      1.0000 0.27420  0.62897  0.04579  Biso   1.000  O 
  O39      1.0000 0.21902  0.87429  0.29751  Biso   1.000  O 
  O40      1.0000 0.22157  0.87785  0.04746  Biso   1.000  O 
  O41      1.0000 0.53124  0.67063  0.16983  Biso   1.000  O 
  O42      1.0000 0.52687  0.58605  0.41753  Biso   1.000  O 
  O43      1.0000 0.96460  0.91624  0.16711  Biso   1.000  O 
  O44      1.0000 0.96139  0.83605  0.41807  Biso   1.000  O 
  O45      1.0000 0.77093  0.62379  0.45446  Biso   1.000  O 
  O46      1.0000 0.77514  0.62703  0.20585  Biso   1.000  O 
  O47      1.0000 0.71851  0.87387  0.45580  Biso   1.000  O 
  O48      1.0000 0.72275  0.87314  0.20603  Biso   1.000  O 
  Hf25     1.0000 0.13229  0.52082  0.67289  Biso   1.000  Hf
  Hf26     1.0000 0.12914  0.73014  0.92246  Biso   1.000  Hf
  Hf27     1.0000 0.35377  0.76955  0.67293  Biso   1.000  Hf
  Hf28     1.0000 0.35222  0.97720  0.92154  Biso   1.000  Hf
  Hf29     1.0000 0.63305  0.52152  0.57665  Biso   1.000  Hf
  Hf30     1.0000 0.63011  0.72828  0.82711  Biso   1.000  Hf
  Hf31     1.0000 0.85587  0.77047  0.57921  Biso   1.000  Hf
  Hf32     1.0000 0.85399  0.97832  0.82985  Biso   1.000  Hf
  O49      1.0000 0.02658  0.66433  0.58360  Biso   1.000  O 
  O50      1.0000 0.02603  0.58597  0.83363  Biso   1.000  O 
  O51      1.0000 0.46171  0.91105  0.58438  Biso   1.000  O 
  O52      1.0000 0.45720  0.83139  0.83317  Biso   1.000  O 
  O53      1.0000 0.26812  0.62423  0.79632  Biso   1.000  O 
  O54      1.0000 0.26938  0.62505  0.54641  Biso   1.000  O 
  O55      1.0000 0.21509  0.87352  0.79640  Biso   1.000  O 
  O56      1.0000 0.21722  0.87550  0.54721  Biso   1.000  O 
  O57      1.0000 0.52537  0.66278  0.66738  Biso   1.000  O 
  O58      1.0000 0.52252  0.58584  0.91881  Biso   1.000  O 
  O59      1.0000 0.96047  0.91351  0.66891  Biso   1.000  O 
  O60      1.0000 0.95788  0.83590  0.91856  Biso   1.000  O 
  O61      1.0000 0.76777  0.62813  0.95250  Biso   1.000  O 
  O62      1.0000 0.76926  0.62493  0.70348  Biso   1.000  O 
  O63      1.0000 0.71498  0.87365  0.95590  Biso   1.000  O 
  O64      1.0000 0.71747  0.87421  0.70665  Biso   1.000  O 
  K1       1.0000 0.56405  0.26430  0.02912  Biso   1.000  K 
