data_image0
_cell_length_a       5.08874
_cell_length_b       10.2667
_cell_length_c       10.1104
_cell_angle_alpha    90
_cell_angle_beta     90
_cell_angle_gamma    90

_symmetry_space_group_name_H-M    "P 1"
_symmetry_int_tables_number       1

loop_
  _symmetry_equiv_pos_as_xyz
  'x, y, z'

loop_
  _atom_site_label
  _atom_site_occupancy
  _atom_site_fract_x
  _atom_site_fract_y
  _atom_site_fract_z
  _atom_site_thermal_displace_type
  _atom_site_B_iso_or_equiv
  _atom_site_type_symbol
  K1       1.0000 0.33201  0.99565  0.11993  Biso   1.000  K 
  Hf1      1.0000 0.25970  0.02381  0.62623  Biso   1.000  Hf
  Hf2      1.0000 0.21494  0.50918  0.13897  Biso   1.000  Hf
  Hf3      1.0000 0.27300  0.51296  0.61862  Biso   1.000  Hf
  Hf4      1.0000 0.27061  0.25077  0.35710  Biso   1.000  Hf
  Hf5      1.0000 0.34767  0.28844  0.87622  Biso   1.000  Hf
  Hf6      1.0000 0.30335  0.75353  0.37826  Biso   1.000  Hf
  Hf7      1.0000 0.35549  0.78322  0.86781  Biso   1.000  Hf
  Hf8      1.0000 0.81825  0.23596  0.09571  Biso   1.000  Hf
  Hf9      1.0000 0.77873  0.28188  0.63036  Biso   1.000  Hf
  Hf10     1.0000 0.80600  0.76236  0.15465  Biso   1.000  Hf
  Hf11     1.0000 0.78278  0.79002  0.61740  Biso   1.000  Hf
  Hf12     1.0000 0.78037  0.03576  0.36073  Biso   1.000  Hf
  Hf13     1.0000 0.85847  0.00027  0.88235  Biso   1.000  Hf
  Hf14     1.0000 0.72562  0.49375  0.36434  Biso   1.000  Hf
  Hf15     1.0000 0.81343  0.52484  0.88080  Biso   1.000  Hf
  O1       1.0000 0.08532  0.15512  0.96307  Biso   1.000  O 
  O2       1.0000 0.96093  0.18799  0.47821  Biso   1.000  O 
  O3       1.0000 0.88966  0.60016  0.04394  Biso   1.000  O 
  O4       1.0000 0.07327  0.67861  0.53982  Biso   1.000  O 
  O5       1.0000 0.03477  0.13127  0.23863  Biso   1.000  O 
  O6       1.0000 0.94218  0.11656  0.72214  Biso   1.000  O 
  O7       1.0000 0.01961  0.62266  0.28491  Biso   1.000  O 
  O8       1.0000 0.15790  0.61782  0.79113  Biso   1.000  O 
  O9       1.0000 0.95531  0.37307  0.24321  Biso   1.000  O 
  O10      1.0000 0.04037  0.37828  0.75212  Biso   1.000  O 
  O11      1.0000 0.05010  0.87049  0.27549  Biso   1.000  O 
  O12      1.0000 0.06915  0.87442  0.74998  Biso   1.000  O 
  O13      1.0000 0.10933  0.40355  0.99889  Biso   1.000  O 
  O14      1.0000 0.98556  0.43234  0.50865  Biso   1.000  O 
  O15      1.0000 0.05741  0.84400  0.00046  Biso   1.000  O 
  O16      1.0000 0.95924  0.94202  0.51767  Biso   1.000  O 
  O17      1.0000 0.55958  0.16731  0.23770  Biso   1.000  O 
  O18      1.0000 0.44301  0.18794  0.70607  Biso   1.000  O 
  O19      1.0000 0.50944  0.64075  0.23758  Biso   1.000  O 
  O20      1.0000 0.66993  0.68119  0.77060  Biso   1.000  O 
  O21      1.0000 0.61232  0.14974  0.95956  Biso   1.000  O 
  O22      1.0000 0.44576  0.09698  0.46263  Biso   1.000  O 
  O23      1.0000 0.44421  0.61930  0.97925  Biso   1.000  O 
  O24      1.0000 0.55429  0.62028  0.50108  Biso   1.000  O 
  O25      1.0000 0.60962  0.38855  0.99644  Biso   1.000  O 
  O26      1.0000 0.49338  0.36551  0.49971  Biso   1.000  O 
  O27      1.0000 0.62637  0.86630  0.99926  Biso   1.000  O 
  O28      1.0000 0.44701  0.85749  0.53458  Biso   1.000  O 
  O29      1.0000 0.44178  0.40364  0.26025  Biso   1.000  O 
  O30      1.0000 0.54985  0.42859  0.74898  Biso   1.000  O 
  O31      1.0000 0.58136  0.87689  0.28760  Biso   1.000  O 
  O32      1.0000 0.55529  0.93292  0.75910  Biso   1.000  O 
