data_image0
_cell_length_a       10.1507
_cell_length_b       10.3002
_cell_length_c       10.5308
_cell_angle_alpha    90
_cell_angle_beta     80
_cell_angle_gamma    90

_symmetry_space_group_name_H-M    "P 1"
_symmetry_int_tables_number       1

loop_
  _symmetry_equiv_pos_as_xyz
  'x, y, z'

loop_
  _atom_site_label
  _atom_site_occupancy
  _atom_site_fract_x
  _atom_site_fract_y
  _atom_site_fract_z
  _atom_site_thermal_displace_type
  _atom_site_B_iso_or_equiv
  _atom_site_type_symbol
  Hf1      1.0000 0.13424  0.02075  0.14464  Biso   1.000  Hf
  Hf2      1.0000 0.13565  0.22665  0.39323  Biso   1.000  Hf
  Hf3      1.0000 0.34836  0.27335  0.08634  Biso   1.000  Hf
  Hf4      1.0000 0.36065  0.48925  0.35631  Biso   1.000  Hf
  O1       1.0000 0.03308  0.16766  0.07580  Biso   1.000  O 
  O2       1.0000 0.03047  0.08243  0.32839  Biso   1.000  O 
  O3       1.0000 0.45900  0.42758  0.16373  Biso   1.000  O 
  O4       1.0000 0.48189  0.36265  0.44420  Biso   1.000  O 
  O5       1.0000 0.26697  0.12513  0.23221  Biso   1.000  O 
  O6       1.0000 0.28604  0.12503  0.48114  Biso   1.000  O 
  O7       1.0000 0.21601  0.38292  0.00470  Biso   1.000  O 
  O8       1.0000 0.22600  0.36952  0.25763  Biso   1.000  O 
  Hf5      1.0000 0.14374  0.02323  0.64301  Biso   1.000  Hf
  Hf6      1.0000 0.13802  0.22956  0.88997  Biso   1.000  Hf
  Hf7      1.0000 0.36581  0.27875  0.60488  Biso   1.000  Hf
  Hf8      1.0000 0.36343  0.48337  0.85337  Biso   1.000  Hf
  O9       1.0000 0.04142  0.16954  0.57801  Biso   1.000  O 
  O10      1.0000 0.03752  0.08357  0.82540  Biso   1.000  O 
  O11      1.0000 0.47026  0.41723  0.68124  Biso   1.000  O 
  O12      1.0000 0.46862  0.33551  0.91868  Biso   1.000  O 
  O13      1.0000 0.27922  0.12993  0.73603  Biso   1.000  O 
  O14      1.0000 0.27735  0.12495  0.98264  Biso   1.000  O 
  O15      1.0000 0.22721  0.38082  0.50710  Biso   1.000  O 
  O16      1.0000 0.22659  0.37357  0.75769  Biso   1.000  O 
  Hf9      1.0000 0.13733  0.52293  0.14820  Biso   1.000  Hf
  Hf10     1.0000 0.13693  0.72982  0.39664  Biso   1.000  Hf
  Hf11     1.0000 0.35887  0.77329  0.10394  Biso   1.000  Hf
  Hf12     1.0000 0.36286  0.96867  0.35580  Biso   1.000  Hf
  O17      1.0000 0.03298  0.66685  0.07962  Biso   1.000  O 
  O18      1.0000 0.03458  0.58243  0.32962  Biso   1.000  O 
  O19      1.0000 0.46407  0.91746  0.17380  Biso   1.000  O 
  O20      1.0000 0.46429  0.82607  0.42362  Biso   1.000  O 
  O21      1.0000 0.27447  0.63110  0.24190  Biso   1.000  O 
  O22      1.0000 0.27579  0.62504  0.49172  Biso   1.000  O 
  O23      1.0000 0.22122  0.88033  0.00944  Biso   1.000  O 
  O24      1.0000 0.22069  0.87015  0.25980  Biso   1.000  O 
  Hf13     1.0000 0.14065  0.52310  0.64569  Biso   1.000  Hf
  Hf14     1.0000 0.14108  0.73007  0.89640  Biso   1.000  Hf
  Hf15     1.0000 0.36359  0.77157  0.60601  Biso   1.000  Hf
  Hf16     1.0000 0.36328  0.98001  0.85167  Biso   1.000  Hf
  O25      1.0000 0.03516  0.66807  0.57905  Biso   1.000  O 
  O26      1.0000 0.03758  0.58470  0.82845  Biso   1.000  O 
  O27      1.0000 0.46758  0.91807  0.67079  Biso   1.000  O 
  O28      1.0000 0.46806  0.83643  0.92112  Biso   1.000  O 
  O29      1.0000 0.27894  0.62946  0.74079  Biso   1.000  O 
  O30      1.0000 0.27981  0.62515  0.99158  Biso   1.000  O 
  O31      1.0000 0.22508  0.87944  0.51079  Biso   1.000  O 
  O32      1.0000 0.22589  0.87189  0.75956  Biso   1.000  O 
  Hf17     1.0000 0.64124  0.01804  0.14816  Biso   1.000  Hf
  Hf18     1.0000 0.65525  0.22850  0.40937  Biso   1.000  Hf
  Hf19     1.0000 0.85935  0.27206  0.10606  Biso   1.000  Hf
  Hf20     1.0000 0.86095  0.47879  0.35447  Biso   1.000  Hf
  O33      1.0000 0.53020  0.16283  0.07552  Biso   1.000  O 
  O34      1.0000 0.55261  0.06181  0.34244  Biso   1.000  O 
  O35      1.0000 0.96477  0.41704  0.17262  Biso   1.000  O 
  O36      1.0000 0.96538  0.33232  0.42200  Biso   1.000  O 
  O37      1.0000 0.77858  0.12962  0.24194  Biso   1.000  O 
  O38      1.0000 0.78650  0.11936  0.49690  Biso   1.000  O 
  O39      1.0000 0.72096  0.37807  0.01265  Biso   1.000  O 
  O40      1.0000 0.72046  0.37005  0.26266  Biso   1.000  O 
  Hf21     1.0000 0.64197  0.02247  0.64726  Biso   1.000  Hf
  Hf22     1.0000 0.64290  0.22814  0.89702  Biso   1.000  Hf
  Hf23     1.0000 0.86653  0.27295  0.60840  Biso   1.000  Hf
  Hf24     1.0000 0.86337  0.48060  0.85543  Biso   1.000  Hf
  O41      1.0000 0.53950  0.17027  0.58172  Biso   1.000  O 
  O42      1.0000 0.53731  0.08480  0.82730  Biso   1.000  O 
  O43      1.0000 0.96941  0.41859  0.67306  Biso   1.000  O 
  O44      1.0000 0.96641  0.33408  0.92059  Biso   1.000  O 
  O45      1.0000 0.78012  0.13015  0.74326  Biso   1.000  O 
  O46      1.0000 0.78055  0.12243  0.99157  Biso   1.000  O 
  O47      1.0000 0.73032  0.37981  0.51542  Biso   1.000  O 
  O48      1.0000 0.72784  0.37271  0.76289  Biso   1.000  O 
  Hf25     1.0000 0.63513  0.52297  0.14528  Biso   1.000  Hf
  Hf26     1.0000 0.64108  0.72713  0.39720  Biso   1.000  Hf
  Hf27     1.0000 0.85880  0.76978  0.10506  Biso   1.000  Hf
  Hf28     1.0000 0.85810  0.97647  0.35459  Biso   1.000  Hf
  O49      1.0000 0.53395  0.67192  0.07896  Biso   1.000  O 
  O50      1.0000 0.53418  0.58880  0.32485  Biso   1.000  O 
  O51      1.0000 0.96140  0.91530  0.17315  Biso   1.000  O 
  O52      1.0000 0.96464  0.83285  0.42210  Biso   1.000  O 
  O53      1.0000 0.77691  0.62675  0.24093  Biso   1.000  O 
  O54      1.0000 0.77760  0.62095  0.49094  Biso   1.000  O 
  O55      1.0000 0.72181  0.87827  0.01071  Biso   1.000  O 
  O56      1.0000 0.72286  0.86713  0.25921  Biso   1.000  O 
  Hf29     1.0000 0.64149  0.52298  0.64867  Biso   1.000  Hf
  Hf30     1.0000 0.64119  0.73129  0.89647  Biso   1.000  Hf
  Hf31     1.0000 0.86281  0.77320  0.60513  Biso   1.000  Hf
  Hf32     1.0000 0.86374  0.97923  0.85422  Biso   1.000  Hf
  O57      1.0000 0.53586  0.66565  0.57988  Biso   1.000  O 
  O58      1.0000 0.53704  0.58669  0.83010  Biso   1.000  O 
  O59      1.0000 0.96797  0.91842  0.67142  Biso   1.000  O 
  O60      1.0000 0.96854  0.83446  0.92200  Biso   1.000  O 
  O61      1.0000 0.77878  0.63058  0.74089  Biso   1.000  O 
  O62      1.0000 0.77889  0.62259  0.99001  Biso   1.000  O 
  O63      1.0000 0.72416  0.87813  0.51144  Biso   1.000  O 
  O64      1.0000 0.72634  0.87328  0.76058  Biso   1.000  O 
  K1       1.0000 0.44490  0.23515  0.28557  Biso   1.000  K 
