data_image0
_cell_length_a       10.1187
_cell_length_b       10.3238
_cell_length_c       5.2383
_cell_angle_alpha    90
_cell_angle_beta     90
_cell_angle_gamma    90

_symmetry_space_group_name_H-M    "P 1"
_symmetry_int_tables_number       1

loop_
  _symmetry_equiv_pos_as_xyz
  'x, y, z'

loop_
  _atom_site_label
  _atom_site_occupancy
  _atom_site_fract_x
  _atom_site_fract_y
  _atom_site_fract_z
  _atom_site_thermal_displace_type
  _atom_site_B_iso_or_equiv
  _atom_site_type_symbol
  La1      1.0000 0.13003  0.01163  0.32296  Biso   1.000  La
  Hf1      1.0000 0.13416  0.23229  0.83908  Biso   1.000  Hf
  Hf2      1.0000 0.35744  0.26856  0.34085  Biso   1.000  Hf
  Hf3      1.0000 0.35559  0.47675  0.84090  Biso   1.000  Hf
  Hf4      1.0000 0.63887  0.02141  0.16641  Biso   1.000  Hf
  Hf5      1.0000 0.63502  0.23018  0.65816  Biso   1.000  Hf
  Hf6      1.0000 0.85770  0.27464  0.15450  Biso   1.000  Hf
  Hf7      1.0000 0.85697  0.48015  0.65287  Biso   1.000  Hf
  O1       1.0000 0.03459  0.19574  0.17872  Biso   1.000  O 
  O2       1.0000 0.02426  0.08032  0.71519  Biso   1.000  O 
  O3       1.0000 0.46604  0.41215  0.16323  Biso   1.000  O 
  O4       1.0000 0.46454  0.33609  0.66337  Biso   1.000  O 
  O5       1.0000 0.27807  0.12812  0.59675  Biso   1.000  O 
  O6       1.0000 0.28479  0.13299  0.07092  Biso   1.000  O 
  O7       1.0000 0.21939  0.37372  0.58506  Biso   1.000  O 
  O8       1.0000 0.22229  0.37770  0.08707  Biso   1.000  O 
  O9       1.0000 0.53131  0.16553  0.33381  Biso   1.000  O 
  O10      1.0000 0.53441  0.08266  0.83132  Biso   1.000  O 
  O11      1.0000 0.95803  0.42832  0.31661  Biso   1.000  O 
  O12      1.0000 0.95814  0.33385  0.81520  Biso   1.000  O 
  O13      1.0000 0.77003  0.12620  0.92160  Biso   1.000  O 
  O14      1.0000 0.77391  0.12842  0.42104  Biso   1.000  O 
  O15      1.0000 0.71785  0.37585  0.90578  Biso   1.000  O 
  O16      1.0000 0.72033  0.37674  0.40809  Biso   1.000  O 
  Hf8      1.0000 0.13627  0.52013  0.34016  Biso   1.000  Hf
  Hf9      1.0000 0.13663  0.72589  0.83928  Biso   1.000  Hf
  Hf10     1.0000 0.36138  0.76659  0.33881  Biso   1.000  Hf
  Hf11     1.0000 0.35897  0.97923  0.83643  Biso   1.000  Hf
  Hf12     1.0000 0.63509  0.51832  0.15396  Biso   1.000  Hf
  Hf13     1.0000 0.63410  0.72753  0.65698  Biso   1.000  Hf
  Hf14     1.0000 0.85617  0.76499  0.15514  Biso   1.000  Hf
  Hf15     1.0000 0.84916  0.98055  0.67705  Biso   1.000  Hf
  O17      1.0000 0.03452  0.67328  0.17696  Biso   1.000  O 
  O18      1.0000 0.02992  0.58115  0.67067  Biso   1.000  O 
  O19      1.0000 0.46626  0.91612  0.16896  Biso   1.000  O 
  O20      1.0000 0.46789  0.83569  0.66217  Biso   1.000  O 
  O21      1.0000 0.27347  0.61945  0.58673  Biso   1.000  O 
  O22      1.0000 0.27258  0.61970  0.08943  Biso   1.000  O 
  O23      1.0000 0.22928  0.86151  0.59154  Biso   1.000  O 
  O24      1.0000 0.24009  0.86158  0.06762  Biso   1.000  O 
  O25      1.0000 0.53013  0.66053  0.33477  Biso   1.000  O 
  O26      1.0000 0.52510  0.58557  0.83548  Biso   1.000  O 
  O27      1.0000 0.92928  0.91765  0.33835  Biso   1.000  O 
  O28      1.0000 0.96328  0.83303  0.83590  Biso   1.000  O 
  O29      1.0000 0.76894  0.62186  0.90614  Biso   1.000  O 
  O30      1.0000 0.77119  0.62698  0.40735  Biso   1.000  O 
  O31      1.0000 0.71838  0.87231  0.91889  Biso   1.000  O 
  O32      1.0000 0.70679  0.87641  0.42113  Biso   1.000  O 
