data_image0
_cell_length_a       10.1313
_cell_length_b       5.25375
_cell_length_c       10.2158
_cell_angle_alpha    80
_cell_angle_beta     90
_cell_angle_gamma    90

_symmetry_space_group_name_H-M    "P 1"
_symmetry_int_tables_number       1

loop_
  _symmetry_equiv_pos_as_xyz
  'x, y, z'

loop_
  _atom_site_label
  _atom_site_occupancy
  _atom_site_fract_x
  _atom_site_fract_y
  _atom_site_fract_z
  _atom_site_thermal_displace_type
  _atom_site_B_iso_or_equiv
  _atom_site_type_symbol
  Hf1      1.0000 0.14775  0.07132  0.11753  Biso   1.000  Hf
  Hf2      1.0000 0.15405  0.39334  0.40083  Biso   1.000  Hf
  Hf3      1.0000 0.43075  0.48485  0.08052  Biso   1.000  Hf
  Hf4      1.0000 0.39286  0.93221  0.35544  Biso   1.000  Hf
  O1       1.0000 0.00407  0.26973  0.22135  Biso   1.000  O 
  O2       1.0000 0.04781  0.04527  0.45834  Biso   1.000  O 
  O3       1.0000 0.50391  0.71273  0.21274  Biso   1.000  O 
  O4       1.0000 0.45760  0.56831  0.45783  Biso   1.000  O 
  O5       1.0000 0.26391  0.26954  0.23989  Biso   1.000  O 
  O6       1.0000 0.28519  0.11207  0.49362  Biso   1.000  O 
  O7       1.0000 0.21714  0.58184  0.54848  Biso   1.000  O 
  O8       1.0000 0.21621  0.76477  0.28588  Biso   1.000  O 
  Hf5      1.0000 0.14972  0.90523  0.62985  Biso   1.000  Hf
  Hf6      1.0000 0.11910  0.32962  0.82087  Biso   1.000  Hf
  Hf7      1.0000 0.39309  0.45548  0.64739  Biso   1.000  Hf
  Hf8      1.0000 0.39842  0.88184  0.86887  Biso   1.000  Hf
  O9       1.0000 0.02405  0.20001  0.67856  Biso   1.000  O 
  O10      1.0000 0.06173  0.96142  0.94127  Biso   1.000  O 
  O11      1.0000 0.48988  0.75970  0.69109  Biso   1.000  O 
  O12      1.0000 0.51628  0.53860  0.92568  Biso   1.000  O 
  O13      1.0000 0.26893  0.12474  0.73968  Biso   1.000  O 
  O14      1.0000 0.28572  0.18043  0.98134  Biso   1.000  O 
  O15      1.0000 0.31553  0.85577  0.03604  Biso   1.000  O 
  O16      1.0000 0.26461  0.62046  0.78428  Biso   1.000  O 
  Hf9      1.0000 0.64458  0.00224  0.13501  Biso   1.000  Hf
  Hf10     1.0000 0.60391  0.40923  0.35384  Biso   1.000  Hf
  Hf11     1.0000 0.84020  0.48825  0.13513  Biso   1.000  Hf
  Hf12     1.0000 0.91771  0.91864  0.34796  Biso   1.000  Hf
  O17      1.0000 0.49966  0.19059  0.23004  Biso   1.000  O 
  O18      1.0000 0.53959  0.05049  0.46075  Biso   1.000  O 
  O19      1.0000 0.96764  0.82201  0.16626  Biso   1.000  O 
  O20      1.0000 0.97537  0.54745  0.43822  Biso   1.000  O 
  O21      1.0000 0.75468  0.17809  0.27057  Biso   1.000  O 
  O22      1.0000 0.71252  0.33910  0.52529  Biso   1.000  O 
  O23      1.0000 0.80590  0.83537  0.51960  Biso   1.000  O 
  O24      1.0000 0.74830  0.68596  0.26995  Biso   1.000  O 
  Hf13     1.0000 0.64929  0.96795  0.62801  Biso   1.000  Hf
  Hf14     1.0000 0.67110  0.32108  0.89047  Biso   1.000  Hf
  Hf15     1.0000 0.86772  0.46913  0.61366  Biso   1.000  Hf
  Hf16     1.0000 0.89699  0.81575  0.88313  Biso   1.000  Hf
  O25      1.0000 0.53016  0.20287  0.74490  Biso   1.000  O 
  O26      1.0000 0.53907  0.01970  0.98925  Biso   1.000  O 
  O27      1.0000 0.00930  0.67211  0.72346  Biso   1.000  O 
  O28      1.0000 0.97889  0.44033  0.95346  Biso   1.000  O 
  O29      1.0000 0.78522  0.11992  0.76101  Biso   1.000  O 
  O30      1.0000 0.78670  0.22569  0.00594  Biso   1.000  O 
  O31      1.0000 0.75733  0.61010  0.00862  Biso   1.000  O 
  O32      1.0000 0.75304  0.62752  0.75618  Biso   1.000  O 
  La1      1.0000 0.13807  0.59073  0.09033  Biso   1.000  La
