data_image0
_cell_length_a       10.1508
_cell_length_b       10.3046
_cell_length_c       5.32537
_cell_angle_alpha    90
_cell_angle_beta     90
_cell_angle_gamma    90

_symmetry_space_group_name_H-M    "P 1"
_symmetry_int_tables_number       1

loop_
  _symmetry_equiv_pos_as_xyz
  'x, y, z'

loop_
  _atom_site_label
  _atom_site_occupancy
  _atom_site_fract_x
  _atom_site_fract_y
  _atom_site_fract_z
  _atom_site_thermal_displace_type
  _atom_site_B_iso_or_equiv
  _atom_site_type_symbol
  Hf1      1.0000 0.13241  0.01943  0.34942  Biso   1.000  Hf
  Hf2      1.0000 0.12924  0.22840  0.85192  Biso   1.000  Hf
  Hf3      1.0000 0.34576  0.26895  0.37958  Biso   1.000  Hf
  Hf4      1.0000 0.34873  0.48325  0.86064  Biso   1.000  Hf
  Hf5      1.0000 0.63766  0.99560  0.16120  Biso   1.000  Hf
  Hf6      1.0000 0.63466  0.22255  0.60588  Biso   1.000  Hf
  Hf7      1.0000 0.87822  0.27667  0.13681  Biso   1.000  Hf
  Hf8      1.0000 0.85776  0.48315  0.64622  Biso   1.000  Hf
  O1       1.0000 0.03295  0.15674  0.15166  Biso   1.000  O 
  O2       1.0000 0.02007  0.09275  0.65361  Biso   1.000  O 
  O3       1.0000 0.45437  0.43409  0.20691  Biso   1.000  O 
  O4       1.0000 0.46206  0.33294  0.68867  Biso   1.000  O 
  O5       1.0000 0.25997  0.12422  0.60725  Biso   1.000  O 
  O6       1.0000 0.27531  0.12307  0.10460  Biso   1.000  O 
  O7       1.0000 0.21555  0.37682  0.61354  Biso   1.000  O 
  O8       1.0000 0.22326  0.37363  0.10828  Biso   1.000  O 
  O9       1.0000 0.50127  0.12162  0.38488  Biso   1.000  O 
  O10      1.0000 0.51486  0.07749  0.84952  Biso   1.000  O 
  O11      1.0000 0.97093  0.41323  0.34316  Biso   1.000  O 
  O12      1.0000 0.96711  0.34344  0.83654  Biso   1.000  O 
  O13      1.0000 0.76276  0.13083  0.87418  Biso   1.000  O 
  O14      1.0000 0.76680  0.12498  0.36649  Biso   1.000  O 
  O15      1.0000 0.72886  0.39195  0.89019  Biso   1.000  O 
  O16      1.0000 0.72327  0.38110  0.39272  Biso   1.000  O 
  Hf9      1.0000 0.13958  0.52178  0.35002  Biso   1.000  Hf
  Hf10     1.0000 0.12683  0.73126  0.84764  Biso   1.000  Hf
  Hf11     1.0000 0.35782  0.76834  0.35660  Biso   1.000  Hf
  Hf12     1.0000 0.35206  0.97570  0.85243  Biso   1.000  Hf
  Hf13     1.0000 0.64386  0.53887  0.15341  Biso   1.000  Hf
  Hf14     1.0000 0.63396  0.73178  0.65816  Biso   1.000  Hf
  Hf15     1.0000 0.87056  0.77228  0.15861  Biso   1.000  Hf
  Hf16     1.0000 0.85987  0.98500  0.65505  Biso   1.000  Hf
  O17      1.0000 0.03588  0.66169  0.16016  Biso   1.000  O 
  O18      1.0000 0.02663  0.59248  0.65798  Biso   1.000  O 
  O19      1.0000 0.47010  0.89410  0.15358  Biso   1.000  O 
  O20      1.0000 0.46347  0.83895  0.66161  Biso   1.000  O 
  O21      1.0000 0.26933  0.62538  0.59950  Biso   1.000  O 
  O22      1.0000 0.27618  0.62588  0.09538  Biso   1.000  O 
  O23      1.0000 0.21973  0.87352  0.60029  Biso   1.000  O 
  O24      1.0000 0.22695  0.87550  0.10218  Biso   1.000  O 
  O25      1.0000 0.53182  0.66689  0.34902  Biso   1.000  O 
  O26      1.0000 0.51951  0.59068  0.84253  Biso   1.000  O 
  O27      1.0000 0.97043  0.91382  0.34273  Biso   1.000  O 
  O28      1.0000 0.96063  0.84343  0.84421  Biso   1.000  O 
  O29      1.0000 0.76751  0.63342  0.90311  Biso   1.000  O 
  O30      1.0000 0.77818  0.63063  0.40717  Biso   1.000  O 
  O31      1.0000 0.71838  0.87641  0.91375  Biso   1.000  O 
  O32      1.0000 0.72957  0.87113  0.42149  Biso   1.000  O 
  La1      1.0000 0.58961  0.26218  0.08576  Biso   1.000  La
