data_image0
_cell_length_a       10.2286
_cell_length_b       10.4837
_cell_length_c       5.27696
_cell_angle_alpha    90
_cell_angle_beta     80
_cell_angle_gamma    90

_symmetry_space_group_name_H-M    "P 1"
_symmetry_int_tables_number       1

loop_
  _symmetry_equiv_pos_as_xyz
  'x, y, z'

loop_
  _atom_site_label
  _atom_site_occupancy
  _atom_site_fract_x
  _atom_site_fract_y
  _atom_site_fract_z
  _atom_site_thermal_displace_type
  _atom_site_B_iso_or_equiv
  _atom_site_type_symbol
  Hf1      1.0000 0.14388  0.02344  0.28694  Biso   1.000  Hf
  Hf2      1.0000 0.12188  0.23276  0.77925  Biso   1.000  Hf
  Hf3      1.0000 0.29888  0.29154  0.18318  Biso   1.000  Hf
  Hf4      1.0000 0.32026  0.49746  0.70905  Biso   1.000  Hf
  O1       1.0000 0.04070  0.18036  0.16914  Biso   1.000  O 
  O2       1.0000 0.04171  0.07710  0.65566  Biso   1.000  O 
  O3       1.0000 0.41607  0.44355  0.33618  Biso   1.000  O 
  O4       1.0000 0.42815  0.36109  0.87647  Biso   1.000  O 
  O5       1.0000 0.27697  0.13786  0.45947  Biso   1.000  O 
  O6       1.0000 0.27585  0.13253  0.95040  Biso   1.000  O 
  O7       1.0000 0.17090  0.39897  0.00213  Biso   1.000  O 
  O8       1.0000 0.18038  0.38074  0.51115  Biso   1.000  O 
  Hf5      1.0000 0.10464  0.53313  0.29800  Biso   1.000  Hf
  Hf6      1.0000 0.10620  0.73654  0.79441  Biso   1.000  Hf
  Hf7      1.0000 0.32685  0.77600  0.20882  Biso   1.000  Hf
  Hf8      1.0000 0.32768  0.97704  0.70620  Biso   1.000  Hf
  O9       1.0000 0.99906  0.67180  0.16325  Biso   1.000  O 
  O10      1.0000 0.00294  0.58737  0.66892  Biso   1.000  O 
  O11      1.0000 0.42948  0.91587  0.34892  Biso   1.000  O 
  O12      1.0000 0.43143  0.83111  0.84313  Biso   1.000  O 
  O13      1.0000 0.23887  0.64003  0.48700  Biso   1.000  O 
  O14      1.0000 0.24457  0.63612  0.98444  Biso   1.000  O 
  O15      1.0000 0.18748  0.88353  0.02113  Biso   1.000  O 
  O16      1.0000 0.18661  0.87663  0.51747  Biso   1.000  O 
  Hf9      1.0000 0.65739  0.00589  0.29878  Biso   1.000  Hf
  Hf10     1.0000 0.67873  0.21177  0.82461  Biso   1.000  Hf
  Hf11     1.0000 0.85573  0.27056  0.22864  Biso   1.000  Hf
  Hf12     1.0000 0.83378  0.47988  0.72092  Biso   1.000  Hf
  O17      1.0000 0.54944  0.14214  0.13119  Biso   1.000  O 
  O18      1.0000 0.56156  0.05982  0.67155  Biso   1.000  O 
  O19      1.0000 0.93595  0.42622  0.35223  Biso   1.000  O 
  O20      1.0000 0.93695  0.32298  0.83877  Biso   1.000  O 
  O21      1.0000 0.79730  0.12257  0.49675  Biso   1.000  O 
  O22      1.0000 0.80085  0.10051  0.00779  Biso   1.000  O 
  O23      1.0000 0.70173  0.37076  0.05747  Biso   1.000  O 
  O24      1.0000 0.70070  0.36549  0.54837  Biso   1.000  O 
  Hf13     1.0000 0.60354  0.52529  0.30164  Biso   1.000  Hf
  Hf14     1.0000 0.60437  0.72632  0.79904  Biso   1.000  Hf
  Hf15     1.0000 0.82503  0.76577  0.21346  Biso   1.000  Hf
  Hf16     1.0000 0.82657  0.96918  0.70985  Biso   1.000  Hf
  O25      1.0000 0.49980  0.67122  0.16472  Biso   1.000  O 
  O26      1.0000 0.50174  0.58643  0.65894  Biso   1.000  O 
  O27      1.0000 0.92829  0.91493  0.33895  Biso   1.000  O 
  O28      1.0000 0.93217  0.83051  0.84463  Biso   1.000  O 
  O29      1.0000 0.74461  0.62569  0.49039  Biso   1.000  O 
  O30      1.0000 0.74373  0.61876  0.98673  Biso   1.000  O 
  O31      1.0000 0.68666  0.86619  0.02340  Biso   1.000  O 
  O32      1.0000 0.69234  0.86227  0.52084  Biso   1.000  O 
  La1      1.0000 0.48888  0.25169  0.50372  Biso   1.000  La
