data_image0
_cell_length_a       10.0617
_cell_length_b       5.19795
_cell_length_c       10.0873
_cell_angle_alpha    90
_cell_angle_beta     90
_cell_angle_gamma    90

_symmetry_space_group_name_H-M    "P 1"
_symmetry_int_tables_number       1

loop_
  _symmetry_equiv_pos_as_xyz
  'x, y, z'

loop_
  _atom_site_label
  _atom_site_occupancy
  _atom_site_fract_x
  _atom_site_fract_y
  _atom_site_fract_z
  _atom_site_thermal_displace_type
  _atom_site_B_iso_or_equiv
  _atom_site_type_symbol
  La1      1.0000 0.12091  0.00911  0.12174  Biso   1.000  La
  Hf1      1.0000 0.13199  0.46494  0.37872  Biso   1.000  Hf
  Hf2      1.0000 0.36649  0.52102  0.12566  Biso   1.000  Hf
  Hf3      1.0000 0.36069  0.96387  0.37466  Biso   1.000  Hf
  O1       1.0000 0.02885  0.40836  0.20221  Biso   1.000  O 
  O2       1.0000 0.03162  0.12566  0.44015  Biso   1.000  O 
  O3       1.0000 0.46256  0.86551  0.19395  Biso   1.000  O 
  O4       1.0000 0.46045  0.62830  0.44837  Biso   1.000  O 
  O5       1.0000 0.27642  0.23982  0.25495  Biso   1.000  O 
  O6       1.0000 0.26548  0.25896  0.50141  Biso   1.000  O 
  O7       1.0000 0.22479  0.76383  0.49990  Biso   1.000  O 
  O8       1.0000 0.24036  0.71178  0.25701  Biso   1.000  O 
  Hf4      1.0000 0.12944  0.02948  0.62509  Biso   1.000  Hf
  Hf5      1.0000 0.13076  0.46591  0.87063  Biso   1.000  Hf
  Hf6      1.0000 0.36077  0.52769  0.62500  Biso   1.000  Hf
  Hf7      1.0000 0.36193  0.96045  0.87425  Biso   1.000  Hf
  O9       1.0000 0.03518  0.37378  0.68327  Biso   1.000  O 
  O10      1.0000 0.02252  0.15094  0.91802  Biso   1.000  O 
  O11      1.0000 0.46045  0.85942  0.69601  Biso   1.000  O 
  O12      1.0000 0.46633  0.62901  0.94598  Biso   1.000  O 
  O13      1.0000 0.26609  0.23045  0.74729  Biso   1.000  O 
  O14      1.0000 0.26911  0.25839  0.99152  Biso   1.000  O 
  O15      1.0000 0.23670  0.73768  0.98997  Biso   1.000  O 
  O16      1.0000 0.22476  0.73481  0.74510  Biso   1.000  O 
  Hf8      1.0000 0.63372  0.02786  0.12623  Biso   1.000  Hf
  Hf9      1.0000 0.62728  0.46151  0.37925  Biso   1.000  Hf
  Hf10     1.0000 0.85599  0.53115  0.13049  Biso   1.000  Hf
  Hf11     1.0000 0.85555  0.96561  0.38261  Biso   1.000  Hf
  O17      1.0000 0.53553  0.36099  0.19555  Biso   1.000  O 
  O18      1.0000 0.53153  0.12602  0.44759  Biso   1.000  O 
  O19      1.0000 0.92457  0.87942  0.19871  Biso   1.000  O 
  O20      1.0000 0.95875  0.63304  0.44584  Biso   1.000  O 
  O21      1.0000 0.76346  0.23721  0.25406  Biso   1.000  O 
  O22      1.0000 0.76407  0.26207  0.50193  Biso   1.000  O 
  O23      1.0000 0.72299  0.75883  0.50308  Biso   1.000  O 
  O24      1.0000 0.71285  0.73202  0.25365  Biso   1.000  O 
  Hf12     1.0000 0.62859  0.02775  0.62715  Biso   1.000  Hf
  Hf13     1.0000 0.62970  0.45847  0.87548  Biso   1.000  Hf
  Hf14     1.0000 0.86214  0.52954  0.62463  Biso   1.000  Hf
  Hf15     1.0000 0.85630  0.95844  0.87366  Biso   1.000  Hf
  O25      1.0000 0.52955  0.36033  0.69603  Biso   1.000  O 
  O26      1.0000 0.53182  0.12511  0.94490  Biso   1.000  O 
  O27      1.0000 0.95696  0.86515  0.69323  Biso   1.000  O 
  O28      1.0000 0.96659  0.64845  0.95570  Biso   1.000  O 
  O29      1.0000 0.76543  0.22976  0.74877  Biso   1.000  O 
  O30      1.0000 0.77201  0.26135  0.00004  Biso   1.000  O 
  O31      1.0000 0.72955  0.75989  0.00020  Biso   1.000  O 
  O32      1.0000 0.72502  0.72745  0.75036  Biso   1.000  O 
