data_image0
_cell_length_a       5.01511
_cell_length_b       10.4204
_cell_length_c       10.0994
_cell_angle_alpha    90
_cell_angle_beta     90
_cell_angle_gamma    90

_symmetry_space_group_name_H-M    "P 1"
_symmetry_int_tables_number       1

loop_
  _symmetry_equiv_pos_as_xyz
  'x, y, z'

loop_
  _atom_site_label
  _atom_site_occupancy
  _atom_site_fract_x
  _atom_site_fract_y
  _atom_site_fract_z
  _atom_site_thermal_displace_type
  _atom_site_B_iso_or_equiv
  _atom_site_type_symbol
  La1      1.0000 0.24754  0.00489  0.11823  Biso   1.000  La
  Hf1      1.0000 0.25976  0.23145  0.37655  Biso   1.000  Hf
  Hf2      1.0000 0.71911  0.26649  0.12879  Biso   1.000  Hf
  Hf3      1.0000 0.72089  0.48037  0.37709  Biso   1.000  Hf
  O1       1.0000 0.05930  0.19655  0.19968  Biso   1.000  O 
  O2       1.0000 0.06098  0.06193  0.44168  Biso   1.000  O 
  O3       1.0000 0.91889  0.43628  0.19577  Biso   1.000  O 
  O4       1.0000 0.91664  0.31501  0.44517  Biso   1.000  O 
  O5       1.0000 0.54827  0.12604  0.25854  Biso   1.000  O 
  O6       1.0000 0.52501  0.12915  0.50272  Biso   1.000  O 
  O7       1.0000 0.44915  0.38020  0.50007  Biso   1.000  O 
  O8       1.0000 0.44694  0.36839  0.25059  Biso   1.000  O 
  Hf4      1.0000 0.25467  0.01410  0.62604  Biso   1.000  Hf
  Hf5      1.0000 0.25784  0.23193  0.87004  Biso   1.000  Hf
  Hf6      1.0000 0.72251  0.26369  0.62312  Biso   1.000  Hf
  Hf7      1.0000 0.72010  0.47661  0.87749  Biso   1.000  Hf
  O9       1.0000 0.06916  0.18610  0.68287  Biso   1.000  O 
  O10      1.0000 0.06131  0.06704  0.91025  Biso   1.000  O 
  O11      1.0000 0.92197  0.42977  0.69827  Biso   1.000  O 
  O12      1.0000 0.92128  0.31388  0.94725  Biso   1.000  O 
  O13      1.0000 0.53365  0.11477  0.74594  Biso   1.000  O 
  O14      1.0000 0.54226  0.13079  0.99115  Biso   1.000  O 
  O15      1.0000 0.44288  0.37704  0.99910  Biso   1.000  O 
  O16      1.0000 0.45330  0.36479  0.74816  Biso   1.000  O 
  Hf8      1.0000 0.26345  0.51358  0.12594  Biso   1.000  Hf
  Hf9      1.0000 0.25593  0.72828  0.38166  Biso   1.000  Hf
  Hf10     1.0000 0.72719  0.75830  0.12987  Biso   1.000  Hf
  Hf11     1.0000 0.71469  0.98099  0.38075  Biso   1.000  Hf
  O17      1.0000 0.06861  0.68124  0.19913  Biso   1.000  O 
  O18      1.0000 0.05848  0.56183  0.44885  Biso   1.000  O 
  O19      1.0000 0.87303  0.92982  0.20292  Biso   1.000  O 
  O20      1.0000 0.91872  0.81217  0.44866  Biso   1.000  O 
  O21      1.0000 0.53209  0.61071  0.25038  Biso   1.000  O 
  O22      1.0000 0.52953  0.62816  0.50105  Biso   1.000  O 
  O23      1.0000 0.44480  0.87879  0.50257  Biso   1.000  O 
  O24      1.0000 0.45801  0.84939  0.25843  Biso   1.000  O 
  Hf12     1.0000 0.25696  0.51210  0.62708  Biso   1.000  Hf
  Hf13     1.0000 0.26246  0.72598  0.87525  Biso   1.000  Hf
  Hf14     1.0000 0.72130  0.76177  0.62484  Biso   1.000  Hf
  Hf15     1.0000 0.72125  0.97870  0.86814  Biso   1.000  Hf
  O25      1.0000 0.05959  0.67953  0.69655  Biso   1.000  O 
  O26      1.0000 0.05196  0.56470  0.94707  Biso   1.000  O 
  O27      1.0000 0.91376  0.92911  0.68990  Biso   1.000  O 
  O28      1.0000 0.95259  0.82214  0.95812  Biso   1.000  O 
  O29      1.0000 0.53134  0.61225  0.75017  Biso   1.000  O 
  O30      1.0000 0.54247  0.62714  0.00049  Biso   1.000  O 
  O31      1.0000 0.48323  0.86146  0.98960  Biso   1.000  O 
  O32      1.0000 0.44707  0.86308  0.74725  Biso   1.000  O 
