data_image0
_cell_length_a       9.96105
_cell_length_b       10.3915
_cell_length_c       10.0138
_cell_angle_alpha    90
_cell_angle_beta     90
_cell_angle_gamma    90

_symmetry_space_group_name_H-M    "P 1"
_symmetry_int_tables_number       1

loop_
  _symmetry_equiv_pos_as_xyz
  'x, y, z'

loop_
  _atom_site_label
  _atom_site_occupancy
  _atom_site_fract_x
  _atom_site_fract_y
  _atom_site_fract_z
  _atom_site_thermal_displace_type
  _atom_site_B_iso_or_equiv
  _atom_site_type_symbol
  Hf1      1.0000 0.13281  0.01759  0.12296  Biso   1.000  Hf
  Hf2      1.0000 0.13333  0.23275  0.38023  Biso   1.000  Hf
  Hf3      1.0000 0.36750  0.26569  0.12477  Biso   1.000  Hf
  Hf4      1.0000 0.36522  0.48375  0.37431  Biso   1.000  Hf
  O1       1.0000 0.02474  0.18087  0.20196  Biso   1.000  O 
  O2       1.0000 0.03566  0.06584  0.44565  Biso   1.000  O 
  O3       1.0000 0.45987  0.43589  0.19297  Biso   1.000  O 
  O4       1.0000 0.46356  0.31737  0.44501  Biso   1.000  O 
  O5       1.0000 0.26715  0.11933  0.24926  Biso   1.000  O 
  O6       1.0000 0.27087  0.13288  0.49950  Biso   1.000  O 
  O7       1.0000 0.22931  0.38304  0.49886  Biso   1.000  O 
  O8       1.0000 0.22184  0.36812  0.24615  Biso   1.000  O 
  Hf5      1.0000 0.13289  0.01578  0.62552  Biso   1.000  Hf
  Hf6      1.0000 0.13473  0.23182  0.86901  Biso   1.000  Hf
  Hf7      1.0000 0.36685  0.26797  0.62523  Biso   1.000  Hf
  Hf8      1.0000 0.36360  0.48388  0.87682  Biso   1.000  Hf
  O9       1.0000 0.03536  0.18349  0.69121  Biso   1.000  O 
  O10      1.0000 0.03640  0.06616  0.94166  Biso   1.000  O 
  O11      1.0000 0.46483  0.43464  0.69621  Biso   1.000  O 
  O12      1.0000 0.46275  0.31726  0.94445  Biso   1.000  O 
  O13      1.0000 0.27093  0.11749  0.74684  Biso   1.000  O 
  O14      1.0000 0.27473  0.13231  0.99593  Biso   1.000  O 
  O15      1.0000 0.22550  0.38224  0.00128  Biso   1.000  O 
  O16      1.0000 0.23077  0.36889  0.74857  Biso   1.000  O 
  Hf9      1.0000 0.13649  0.53294  0.12611  Biso   1.000  Hf
  Hf10     1.0000 0.13456  0.73670  0.37893  Biso   1.000  Hf
  Hf11     1.0000 0.36674  0.76929  0.12606  Biso   1.000  Hf
  Hf12     1.0000 0.36467  0.98509  0.37505  Biso   1.000  Hf
  O17      1.0000 0.03345  0.68736  0.19957  Biso   1.000  O 
  O18      1.0000 0.03598  0.56718  0.44460  Biso   1.000  O 
  O19      1.0000 0.46235  0.93619  0.19369  Biso   1.000  O 
  O20      1.0000 0.46322  0.81700  0.44338  Biso   1.000  O 
  O21      1.0000 0.27303  0.62373  0.25205  Biso   1.000  O 
  O22      1.0000 0.27013  0.63300  0.50067  Biso   1.000  O 
  O23      1.0000 0.22996  0.88351  0.49984  Biso   1.000  O 
  O24      1.0000 0.22808  0.86969  0.24985  Biso   1.000  O 
  Hf13     1.0000 0.13388  0.51731  0.62607  Biso   1.000  Hf
  Hf14     1.0000 0.13256  0.73714  0.87380  Biso   1.000  Hf
  Hf15     1.0000 0.36727  0.76688  0.62541  Biso   1.000  Hf
  Hf16     1.0000 0.36526  0.98418  0.87515  Biso   1.000  Hf
  O25      1.0000 0.03616  0.68481  0.69292  Biso   1.000  O 
  O26      1.0000 0.03478  0.57145  0.94579  Biso   1.000  O 
  O27      1.0000 0.46452  0.93428  0.69375  Biso   1.000  O 
  O28      1.0000 0.46404  0.81797  0.94499  Biso   1.000  O 
  O29      1.0000 0.27017  0.61828  0.75010  Biso   1.000  O 
  O30      1.0000 0.27095  0.63647  0.99891  Biso   1.000  O 
  O31      1.0000 0.22765  0.88377  0.99948  Biso   1.000  O 
  O32      1.0000 0.23015  0.86825  0.74866  Biso   1.000  O 
  Hf17     1.0000 0.63246  0.01556  0.12417  Biso   1.000  Hf
  Hf18     1.0000 0.63221  0.23301  0.37788  Biso   1.000  Hf
  Hf19     1.0000 0.85128  0.26386  0.12832  Biso   1.000  Hf
  Hf20     1.0000 0.86749  0.48399  0.37374  Biso   1.000  Hf
  O33      1.0000 0.53530  0.18409  0.19557  Biso   1.000  O 
  O34      1.0000 0.53480  0.06643  0.44506  Biso   1.000  O 
  O35      1.0000 0.96516  0.43246  0.19054  Biso   1.000  O 
  O36      1.0000 0.96472  0.31827  0.44728  Biso   1.000  O 
  O37      1.0000 0.76551  0.11635  0.25113  Biso   1.000  O 
  O38      1.0000 0.77061  0.13311  0.49954  Biso   1.000  O 
  O39      1.0000 0.73018  0.38341  0.50016  Biso   1.000  O 
  O40      1.0000 0.72490  0.36995  0.25155  Biso   1.000  O 
  Hf21     1.0000 0.63406  0.01634  0.62550  Biso   1.000  Hf
  Hf22     1.0000 0.63159  0.23388  0.87365  Biso   1.000  Hf
  Hf23     1.0000 0.86487  0.26779  0.62586  Biso   1.000  Hf
  Hf24     1.0000 0.86682  0.48233  0.87953  Biso   1.000  Hf
  O41      1.0000 0.53654  0.18483  0.69254  Biso   1.000  O 
  O42      1.0000 0.53593  0.06694  0.94267  Biso   1.000  O 
  O43      1.0000 0.96654  0.43259  0.70076  Biso   1.000  O 
  O44      1.0000 0.96795  0.31488  0.95520  Biso   1.000  O 
  O45      1.0000 0.77042  0.11808  0.74919  Biso   1.000  O 
  O46      1.0000 0.76941  0.13250  0.99879  Biso   1.000  O 
  O47      1.0000 0.72763  0.38010  0.00073  Biso   1.000  O 
  O48      1.0000 0.73051  0.36840  0.75094  Biso   1.000  O 
  Hf25     1.0000 0.63252  0.51800  0.12564  Biso   1.000  Hf
  Hf26     1.0000 0.63348  0.73348  0.37639  Biso   1.000  Hf
  Hf27     1.0000 0.86340  0.76724  0.12588  Biso   1.000  Hf
  Hf28     1.0000 0.86618  0.98389  0.37489  Biso   1.000  Hf
  O49      1.0000 0.53635  0.68502  0.19444  Biso   1.000  O 
  O50      1.0000 0.53444  0.56610  0.44458  Biso   1.000  O 
  O51      1.0000 0.96237  0.93484  0.19338  Biso   1.000  O 
  O52      1.0000 0.96381  0.81769  0.44608  Biso   1.000  O 
  O53      1.0000 0.77014  0.61831  0.25013  Biso   1.000  O 
  O54      1.0000 0.77021  0.63263  0.49988  Biso   1.000  O 
  O55      1.0000 0.72942  0.88297  0.49952  Biso   1.000  O 
  O56      1.0000 0.72804  0.86778  0.25002  Biso   1.000  O 
  Hf29     1.0000 0.63471  0.51674  0.62651  Biso   1.000  Hf
  Hf30     1.0000 0.63332  0.73391  0.87573  Biso   1.000  Hf
  Hf31     1.0000 0.86500  0.76657  0.62616  Biso   1.000  Hf
  Hf32     1.0000 0.86513  0.98400  0.87577  Biso   1.000  Hf
  O57      1.0000 0.53719  0.68484  0.69355  Biso   1.000  O 
  O58      1.0000 0.53407  0.56752  0.94405  Biso   1.000  O 
  O59      1.0000 0.96414  0.93335  0.69573  Biso   1.000  O 
  O60      1.0000 0.96258  0.81725  0.94558  Biso   1.000  O 
  O61      1.0000 0.77162  0.61694  0.75113  Biso   1.000  O 
  O62      1.0000 0.77152  0.63005  0.00023  Biso   1.000  O 
  O63      1.0000 0.72739  0.88277  0.99989  Biso   1.000  O 
  O64      1.0000 0.72920  0.86787  0.74985  Biso   1.000  O 
  Li1      1.0000 0.09692  0.30785  0.11280  Biso   1.000  Li
