data_image0
_cell_length_a       4.98901
_cell_length_b       10.3047
_cell_length_c       10.0557
_cell_angle_alpha    90
_cell_angle_beta     90
_cell_angle_gamma    90

_symmetry_space_group_name_H-M    "P 1"
_symmetry_int_tables_number       1

loop_
  _symmetry_equiv_pos_as_xyz
  'x, y, z'

loop_
  _atom_site_label
  _atom_site_occupancy
  _atom_site_fract_x
  _atom_site_fract_y
  _atom_site_fract_z
  _atom_site_thermal_displace_type
  _atom_site_B_iso_or_equiv
  _atom_site_type_symbol
  Li1      1.0000 0.24514  0.00865  0.10789  Biso   1.000  Li
  Hf1      1.0000 0.26600  0.01462  0.62568  Biso   1.000  Hf
  Hf2      1.0000 0.27134  0.51586  0.12597  Biso   1.000  Hf
  Hf3      1.0000 0.26892  0.51514  0.62632  Biso   1.000  Hf
  Hf4      1.0000 0.26897  0.22851  0.37272  Biso   1.000  Hf
  Hf5      1.0000 0.27334  0.22796  0.87681  Biso   1.000  Hf
  Hf6      1.0000 0.26995  0.73468  0.37624  Biso   1.000  Hf
  Hf7      1.0000 0.27494  0.73353  0.87821  Biso   1.000  Hf
  Hf8      1.0000 0.72178  0.26192  0.12567  Biso   1.000  Hf
  Hf9      1.0000 0.73015  0.26464  0.62414  Biso   1.000  Hf
  Hf10     1.0000 0.72565  0.77132  0.12547  Biso   1.000  Hf
  Hf11     1.0000 0.73269  0.76592  0.62609  Biso   1.000  Hf
  Hf12     1.0000 0.72943  0.48261  0.37673  Biso   1.000  Hf
  Hf13     1.0000 0.73240  0.48106  0.87586  Biso   1.000  Hf
  Hf14     1.0000 0.72627  0.98214  0.36855  Biso   1.000  Hf
  Hf15     1.0000 0.72154  0.98090  0.87848  Biso   1.000  Hf
  O1       1.0000 0.06328  0.18852  0.19970  Biso   1.000  O 
  O2       1.0000 0.07479  0.18543  0.69151  Biso   1.000  O 
  O3       1.0000 0.06484  0.68176  0.19710  Biso   1.000  O 
  O4       1.0000 0.07254  0.68256  0.69539  Biso   1.000  O 
  O5       1.0000 0.06593  0.06553  0.44773  Biso   1.000  O 
  O6       1.0000 0.07254  0.06489  0.92619  Biso   1.000  O 
  O7       1.0000 0.06979  0.56447  0.44626  Biso   1.000  O 
  O8       1.0000 0.07228  0.56423  0.94598  Biso   1.000  O 
  O9       1.0000 0.93074  0.43286  0.19659  Biso   1.000  O 
  O10      1.0000 0.92880  0.43298  0.69489  Biso   1.000  O 
  O11      1.0000 0.93733  0.93051  0.19877  Biso   1.000  O 
  O12      1.0000 0.92519  0.93240  0.69449  Biso   1.000  O 
  O13      1.0000 0.93109  0.31617  0.44589  Biso   1.000  O 
  O14      1.0000 0.93633  0.31568  0.94562  Biso   1.000  O 
  O15      1.0000 0.93280  0.81583  0.44874  Biso   1.000  O 
  O16      1.0000 0.93117  0.81406  0.94405  Biso   1.000  O 
  O17      1.0000 0.55661  0.12410  0.25240  Biso   1.000  O 
  O18      1.0000 0.54433  0.11586  0.74636  Biso   1.000  O 
  O19      1.0000 0.53974  0.61407  0.24891  Biso   1.000  O 
  O20      1.0000 0.54272  0.61618  0.74996  Biso   1.000  O 
  O21      1.0000 0.53909  0.13083  0.49911  Biso   1.000  O 
  O22      1.0000 0.55729  0.13267  0.99282  Biso   1.000  O 
  O23      1.0000 0.54063  0.63174  0.49946  Biso   1.000  O 
  O24      1.0000 0.54483  0.62737  0.99997  Biso   1.000  O 
  O25      1.0000 0.45967  0.38148  0.49922  Biso   1.000  O 
  O26      1.0000 0.46160  0.37987  0.99955  Biso   1.000  O 
  O27      1.0000 0.45894  0.88205  0.50057  Biso   1.000  O 
  O28      1.0000 0.46128  0.87483  0.99876  Biso   1.000  O 
  O29      1.0000 0.45500  0.36832  0.24912  Biso   1.000  O 
  O30      1.0000 0.46024  0.36606  0.74943  Biso   1.000  O 
  O31      1.0000 0.47268  0.85836  0.25581  Biso   1.000  O 
  O32      1.0000 0.45587  0.86607  0.74842  Biso   1.000  O 
