data_image0
_cell_length_a       10.0203
_cell_length_b       10.326
_cell_length_c       4.99705
_cell_angle_alpha    90
_cell_angle_beta     90
_cell_angle_gamma    90

_symmetry_space_group_name_H-M    "P 1"
_symmetry_int_tables_number       1

loop_
  _symmetry_equiv_pos_as_xyz
  'x, y, z'

loop_
  _atom_site_label
  _atom_site_occupancy
  _atom_site_fract_x
  _atom_site_fract_y
  _atom_site_fract_z
  _atom_site_thermal_displace_type
  _atom_site_B_iso_or_equiv
  _atom_site_type_symbol
  Li1      1.0000 0.11934  0.00794  0.22168  Biso   1.000  Li
  Hf1      1.0000 0.13559  0.51508  0.25330  Biso   1.000  Hf
  Hf2      1.0000 0.63216  0.01475  0.24386  Biso   1.000  Hf
  Hf3      1.0000 0.63225  0.51659  0.25209  Biso   1.000  Hf
  Hf4      1.0000 0.13472  0.22740  0.75659  Biso   1.000  Hf
  Hf5      1.0000 0.13510  0.73424  0.75796  Biso   1.000  Hf
  Hf6      1.0000 0.63236  0.23184  0.74692  Biso   1.000  Hf
  Hf7      1.0000 0.63330  0.73422  0.75034  Biso   1.000  Hf
  Hf8      1.0000 0.36310  0.26467  0.25576  Biso   1.000  Hf
  Hf9      1.0000 0.36213  0.76803  0.25453  Biso   1.000  Hf
  Hf10     1.0000 0.86246  0.26413  0.24800  Biso   1.000  Hf
  Hf11     1.0000 0.86568  0.76948  0.24967  Biso   1.000  Hf
  Hf12     1.0000 0.36432  0.48166  0.75357  Biso   1.000  Hf
  Hf13     1.0000 0.35714  0.98101  0.75530  Biso   1.000  Hf
  Hf14     1.0000 0.86393  0.48411  0.75372  Biso   1.000  Hf
  Hf15     1.0000 0.86728  0.98372  0.74188  Biso   1.000  Hf
  O1       1.0000 0.02859  0.19186  0.40825  Biso   1.000  O 
  O2       1.0000 0.03350  0.68292  0.39136  Biso   1.000  O 
  O3       1.0000 0.53837  0.18533  0.37998  Biso   1.000  O 
  O4       1.0000 0.53370  0.68254  0.39279  Biso   1.000  O 
  O5       1.0000 0.03107  0.07061  0.88025  Biso   1.000  O 
  O6       1.0000 0.03420  0.56439  0.89332  Biso   1.000  O 
  O7       1.0000 0.53575  0.06420  0.88240  Biso   1.000  O 
  O8       1.0000 0.53454  0.56559  0.89033  Biso   1.000  O 
  O9       1.0000 0.46370  0.43332  0.39196  Biso   1.000  O 
  O10      1.0000 0.46355  0.93371  0.39428  Biso   1.000  O 
  O11      1.0000 0.96405  0.43441  0.39147  Biso   1.000  O 
  O12      1.0000 0.96209  0.93148  0.39204  Biso   1.000  O 
  O13      1.0000 0.46521  0.31582  0.88911  Biso   1.000  O 
  O14      1.0000 0.46800  0.81744  0.89974  Biso   1.000  O 
  O15      1.0000 0.96569  0.31869  0.89602  Biso   1.000  O 
  O16      1.0000 0.96240  0.81419  0.88535  Biso   1.000  O 
  O17      1.0000 0.28123  0.12709  0.51633  Biso   1.000  O 
  O18      1.0000 0.26864  0.61513  0.50114  Biso   1.000  O 
  O19      1.0000 0.76834  0.11499  0.49134  Biso   1.000  O 
  O20      1.0000 0.77008  0.61649  0.49699  Biso   1.000  O 
  O21      1.0000 0.27784  0.13030  0.99982  Biso   1.000  O 
  O22      1.0000 0.27035  0.62926  0.00161  Biso   1.000  O 
  O23      1.0000 0.76902  0.13366  0.99125  Biso   1.000  O 
  O24      1.0000 0.76848  0.63228  0.99781  Biso   1.000  O 
  O25      1.0000 0.22942  0.38048  0.00216  Biso   1.000  O 
  O26      1.0000 0.22885  0.87572  0.00508  Biso   1.000  O 
  O27      1.0000 0.72834  0.38292  0.99678  Biso   1.000  O 
  O28      1.0000 0.73068  0.88280  0.99295  Biso   1.000  O 
  O29      1.0000 0.22671  0.36899  0.50133  Biso   1.000  O 
  O30      1.0000 0.23524  0.86026  0.51440  Biso   1.000  O 
  O31      1.0000 0.72984  0.36697  0.49790  Biso   1.000  O 
  O32      1.0000 0.72467  0.86570  0.49135  Biso   1.000  O 
