data_image0
_cell_length_a       10.0183
_cell_length_b       5.03498
_cell_length_c       10.0184
_cell_angle_alpha    90
_cell_angle_beta     90
_cell_angle_gamma    90

_symmetry_space_group_name_H-M    "P 1"
_symmetry_int_tables_number       1

loop_
  _symmetry_equiv_pos_as_xyz
  'x, y, z'

loop_
  _atom_site_label
  _atom_site_occupancy
  _atom_site_fract_x
  _atom_site_fract_y
  _atom_site_fract_z
  _atom_site_thermal_displace_type
  _atom_site_B_iso_or_equiv
  _atom_site_type_symbol
  Li1      1.0000 0.12483  0.00065  0.12483  Biso   1.000  Li
  Hf1      1.0000 0.12481  0.00063  0.62483  Biso   1.000  Hf
  Hf2      1.0000 0.62483  0.00066  0.12483  Biso   1.000  Hf
  Hf3      1.0000 0.62481  0.00063  0.62483  Biso   1.000  Hf
  Hf4      1.0000 0.12482  0.50061  0.36979  Biso   1.000  Hf
  Hf5      1.0000 0.12479  0.50062  0.87987  Biso   1.000  Hf
  Hf6      1.0000 0.62481  0.50063  0.37491  Biso   1.000  Hf
  Hf7      1.0000 0.62480  0.50061  0.87474  Biso   1.000  Hf
  Hf8      1.0000 0.36978  0.50063  0.12483  Biso   1.000  Hf
  Hf9      1.0000 0.37489  0.50063  0.62482  Biso   1.000  Hf
  Hf10     1.0000 0.87986  0.50065  0.12483  Biso   1.000  Hf
  Hf11     1.0000 0.87472  0.50062  0.62483  Biso   1.000  Hf
  Hf12     1.0000 0.37182  0.99762  0.37185  Biso   1.000  Hf
  Hf13     1.0000 0.37183  0.00363  0.87780  Biso   1.000  Hf
  Hf14     1.0000 0.87779  0.00365  0.37187  Biso   1.000  Hf
  Hf15     1.0000 0.87776  0.99760  0.87781  Biso   1.000  Hf
  O1       1.0000 0.99556  0.27514  0.99560  Biso   1.000  O 
  O2       1.0000 0.00246  0.28207  0.50249  Biso   1.000  O 
  O3       1.0000 0.50249  0.28210  0.00248  Biso   1.000  O 
  O4       1.0000 0.50235  0.28676  0.50237  Biso   1.000  O 
  O5       1.0000 0.99588  0.24043  0.25377  Biso   1.000  O 
  O6       1.0000 0.99777  0.21836  0.74960  Biso   1.000  O 
  O7       1.0000 0.50005  0.21837  0.25186  Biso   1.000  O 
  O8       1.0000 0.49821  0.21483  0.75142  Biso   1.000  O 
  O9       1.0000 0.99558  0.72614  0.25407  Biso   1.000  O 
  O10      1.0000 0.00244  0.71920  0.74718  Biso   1.000  O 
  O11      1.0000 0.50247  0.71921  0.24717  Biso   1.000  O 
  O12      1.0000 0.50233  0.71451  0.74729  Biso   1.000  O 
  O13      1.0000 0.99585  0.76084  0.99590  Biso   1.000  O 
  O14      1.0000 0.99777  0.78290  0.50007  Biso   1.000  O 
  O15      1.0000 0.50003  0.78288  0.99779  Biso   1.000  O 
  O16      1.0000 0.49821  0.78643  0.49824  Biso   1.000  O 
  O17      1.0000 0.25405  0.27514  0.25405  Biso   1.000  O 
  O18      1.0000 0.24715  0.28207  0.74717  Biso   1.000  O 
  O19      1.0000 0.74717  0.28209  0.24718  Biso   1.000  O 
  O20      1.0000 0.74727  0.28673  0.74730  Biso   1.000  O 
  O21      1.0000 0.25373  0.24040  0.99588  Biso   1.000  O 
  O22      1.0000 0.25184  0.21836  0.50005  Biso   1.000  O 
  O23      1.0000 0.74956  0.21835  0.99780  Biso   1.000  O 
  O24      1.0000 0.75140  0.21485  0.49824  Biso   1.000  O 
  O25      1.0000 0.25402  0.72611  0.99560  Biso   1.000  O 
  O26      1.0000 0.24715  0.71920  0.50249  Biso   1.000  O 
  O27      1.0000 0.74718  0.71924  0.00248  Biso   1.000  O 
  O28      1.0000 0.74726  0.71453  0.50237  Biso   1.000  O 
  O29      1.0000 0.25375  0.76083  0.25377  Biso   1.000  O 
  O30      1.0000 0.25182  0.78290  0.74960  Biso   1.000  O 
  O31      1.0000 0.74958  0.78291  0.25186  Biso   1.000  O 
  O32      1.0000 0.75138  0.78640  0.75142  Biso   1.000  O 
