data_image0
_cell_length_a       10.0578
_cell_length_b       5.10323
_cell_length_c       10.0578
_cell_angle_alpha    90
_cell_angle_beta     90
_cell_angle_gamma    90

_symmetry_space_group_name_H-M    "P 1"
_symmetry_int_tables_number       1

loop_
  _symmetry_equiv_pos_as_xyz
  'x, y, z'

loop_
  _atom_site_label
  _atom_site_occupancy
  _atom_site_fract_x
  _atom_site_fract_y
  _atom_site_fract_z
  _atom_site_thermal_displace_type
  _atom_site_B_iso_or_equiv
  _atom_site_type_symbol
  Hf1      1.0000 0.12491  0.00011  0.12491  Biso   1.000  Hf
  Hf2      1.0000 0.12491  0.50011  0.38566  Biso   1.000  Hf
  Hf3      1.0000 0.38566  0.50011  0.12491  Biso   1.000  Hf
  Hf4      1.0000 0.37652  0.00049  0.37652  Biso   1.000  Hf
  O1       1.0000 0.01574  0.31302  0.01575  Biso   1.000  O 
  O2       1.0000 0.99356  0.19684  0.25625  Biso   1.000  O 
  O3       1.0000 0.01575  0.68720  0.23407  Biso   1.000  O 
  O4       1.0000 0.99357  0.80339  0.99356  Biso   1.000  O 
  O5       1.0000 0.23407  0.31302  0.23407  Biso   1.000  O 
  O6       1.0000 0.25625  0.19684  0.99357  Biso   1.000  O 
  O7       1.0000 0.23407  0.68720  0.01574  Biso   1.000  O 
  O8       1.0000 0.25625  0.80338  0.25625  Biso   1.000  O 
  Hf5      1.0000 0.12491  0.00011  0.62491  Biso   1.000  Hf
  Hf6      1.0000 0.12491  0.50012  0.86416  Biso   1.000  Hf
  Hf7      1.0000 0.37760  0.50010  0.62491  Biso   1.000  Hf
  Hf8      1.0000 0.37652  0.99973  0.87330  Biso   1.000  Hf
  O9       1.0000 0.00679  0.28537  0.51306  Biso   1.000  O 
  O10      1.0000 0.99803  0.21436  0.75959  Biso   1.000  O 
  O11      1.0000 0.00679  0.71486  0.73676  Biso   1.000  O 
  O12      1.0000 0.99803  0.78586  0.49022  Biso   1.000  O 
  O13      1.0000 0.24303  0.28537  0.73676  Biso   1.000  O 
  O14      1.0000 0.25178  0.21436  0.49022  Biso   1.000  O 
  O15      1.0000 0.24303  0.71485  0.51306  Biso   1.000  O 
  O16      1.0000 0.25178  0.78587  0.75960  Biso   1.000  O 
  Hf9      1.0000 0.62491  0.00011  0.12491  Biso   1.000  Hf
  Hf10     1.0000 0.62491  0.50011  0.37760  Biso   1.000  Hf
  Hf11     1.0000 0.86416  0.50012  0.12491  Biso   1.000  Hf
  Hf12     1.0000 0.87330  0.99973  0.37652  Biso   1.000  Hf
  O17      1.0000 0.51306  0.28537  0.00679  Biso   1.000  O 
  O18      1.0000 0.49022  0.21436  0.25178  Biso   1.000  O 
  O19      1.0000 0.51306  0.71485  0.24303  Biso   1.000  O 
  O20      1.0000 0.49022  0.78587  0.99803  Biso   1.000  O 
  O21      1.0000 0.73676  0.28536  0.24303  Biso   1.000  O 
  O22      1.0000 0.75960  0.21437  0.99804  Biso   1.000  O 
  O23      1.0000 0.73676  0.71485  0.00679  Biso   1.000  O 
  O24      1.0000 0.75960  0.78586  0.25179  Biso   1.000  O 
  Hf13     1.0000 0.62491  0.00011  0.62491  Biso   1.000  Hf
  Hf14     1.0000 0.62491  0.50011  0.87221  Biso   1.000  Hf
  Hf15     1.0000 0.87221  0.50011  0.62491  Biso   1.000  Hf
  Hf16     1.0000 0.87330  0.00050  0.87330  Biso   1.000  Hf
  O25      1.0000 0.50771  0.28690  0.50771  Biso   1.000  O 
  O26      1.0000 0.49594  0.21330  0.75387  Biso   1.000  O 
  O27      1.0000 0.50771  0.71331  0.74211  Biso   1.000  O 
  O28      1.0000 0.49594  0.78692  0.49595  Biso   1.000  O 
  O29      1.0000 0.74211  0.28692  0.74211  Biso   1.000  O 
  O30      1.0000 0.75387  0.21330  0.49595  Biso   1.000  O 
  O31      1.0000 0.74211  0.71331  0.50771  Biso   1.000  O 
  O32      1.0000 0.75387  0.78693  0.75387  Biso   1.000  O 
  Li1      1.0000 0.12491  0.50011  0.12491  Biso   1.000  Li
