data_image0
_cell_length_a       10.0806
_cell_length_b       5.09291
_cell_length_c       10.4375
_cell_angle_alpha    90
_cell_angle_beta     90
_cell_angle_gamma    90

_symmetry_space_group_name_H-M    "P 1"
_symmetry_int_tables_number       1

loop_
  _symmetry_equiv_pos_as_xyz
  'x, y, z'

loop_
  _atom_site_label
  _atom_site_occupancy
  _atom_site_fract_x
  _atom_site_fract_y
  _atom_site_fract_z
  _atom_site_thermal_displace_type
  _atom_site_B_iso_or_equiv
  _atom_site_type_symbol
  Li1      1.0000 0.13071  0.01516  0.17174  Biso   1.000  Li
  Hf1      1.0000 0.14346  0.04369  0.67324  Biso   1.000  Hf
  Hf2      1.0000 0.14597  0.46246  0.41870  Biso   1.000  Hf
  Hf3      1.0000 0.14694  0.45897  0.92964  Biso   1.000  Hf
  Hf4      1.0000 0.35353  0.54048  0.17238  Biso   1.000  Hf
  Hf5      1.0000 0.36282  0.54616  0.67321  Biso   1.000  Hf
  Hf6      1.0000 0.35888  0.96222  0.41856  Biso   1.000  Hf
  Hf7      1.0000 0.36067  0.96104  0.92718  Biso   1.000  Hf
  Hf8      1.0000 0.63824  0.04140  0.07770  Biso   1.000  Hf
  Hf9      1.0000 0.64029  0.04385  0.57581  Biso   1.000  Hf
  Hf10     1.0000 0.63965  0.46216  0.32596  Biso   1.000  Hf
  Hf11     1.0000 0.64155  0.46155  0.82774  Biso   1.000  Hf
  Hf12     1.0000 0.86343  0.54111  0.07781  Biso   1.000  Hf
  Hf13     1.0000 0.86188  0.54345  0.57611  Biso   1.000  Hf
  Hf14     1.0000 0.86588  0.96230  0.32403  Biso   1.000  Hf
  Hf15     1.0000 0.86306  0.96135  0.82748  Biso   1.000  Hf
  O1       1.0000 0.02964  0.32126  0.08182  Biso   1.000  O 
  O2       1.0000 0.03257  0.32545  0.58175  Biso   1.000  O 
  O3       1.0000 0.02561  0.19496  0.33925  Biso   1.000  O 
  O4       1.0000 0.03201  0.18300  0.83104  Biso   1.000  O 
  O5       1.0000 0.47075  0.82401  0.08395  Biso   1.000  O 
  O6       1.0000 0.47020  0.83057  0.58269  Biso   1.000  O 
  O7       1.0000 0.47233  0.68043  0.33258  Biso   1.000  O 
  O8       1.0000 0.47189  0.67576  0.83298  Biso   1.000  O 
  O9       1.0000 0.28368  0.25780  0.30360  Biso   1.000  O 
  O10      1.0000 0.27743  0.24956  0.79610  Biso   1.000  O 
  O11      1.0000 0.28696  0.26166  0.04097  Biso   1.000  O 
  O12      1.0000 0.27779  0.25578  0.54833  Biso   1.000  O 
  O13      1.0000 0.22868  0.74633  0.29934  Biso   1.000  O 
  O14      1.0000 0.22733  0.75145  0.79576  Biso   1.000  O 
  O15      1.0000 0.22960  0.74302  0.04281  Biso   1.000  O 
  O16      1.0000 0.22630  0.75614  0.54751  Biso   1.000  O 
  O17      1.0000 0.53284  0.33031  0.16580  Biso   1.000  O 
  O18      1.0000 0.53461  0.33177  0.66578  Biso   1.000  O 
  O19      1.0000 0.53404  0.17380  0.41520  Biso   1.000  O 
  O20      1.0000 0.53666  0.17241  0.91543  Biso   1.000  O 
  O21      1.0000 0.97046  0.81281  0.17194  Biso   1.000  O 
  O22      1.0000 0.97217  0.82565  0.66795  Biso   1.000  O 
  O23      1.0000 0.97305  0.68457  0.41982  Biso   1.000  O 
  O24      1.0000 0.97435  0.68365  0.91855  Biso   1.000  O 
  O25      1.0000 0.77960  0.25018  0.95274  Biso   1.000  O 
  O26      1.0000 0.77613  0.25448  0.45349  Biso   1.000  O 
  O27      1.0000 0.77583  0.25301  0.20303  Biso   1.000  O 
  O28      1.0000 0.77777  0.25383  0.70297  Biso   1.000  O 
  O29      1.0000 0.72841  0.75015  0.95222  Biso   1.000  O 
  O30      1.0000 0.72787  0.75267  0.45230  Biso   1.000  O 
  O31      1.0000 0.72364  0.75487  0.20246  Biso   1.000  O 
  O32      1.0000 0.72748  0.75436  0.70233  Biso   1.000  O 
