data_image0
_cell_length_a       10.0107
_cell_length_b       5.13783
_cell_length_c       10.054
_cell_angle_alpha    90
_cell_angle_beta     90
_cell_angle_gamma    90

_symmetry_space_group_name_H-M    "P 1"
_symmetry_int_tables_number       1

loop_
  _symmetry_equiv_pos_as_xyz
  'x, y, z'

loop_
  _atom_site_label
  _atom_site_occupancy
  _atom_site_fract_x
  _atom_site_fract_y
  _atom_site_fract_z
  _atom_site_thermal_displace_type
  _atom_site_B_iso_or_equiv
  _atom_site_type_symbol
  Li1      1.0000 0.12627  0.01417  0.10925  Biso   1.000  Li
  Hf1      1.0000 0.13604  0.03310  0.62912  Biso   1.000  Hf
  Hf2      1.0000 0.63417  0.03104  0.12344  Biso   1.000  Hf
  Hf3      1.0000 0.63313  0.02865  0.62301  Biso   1.000  Hf
  Hf4      1.0000 0.13666  0.46344  0.37487  Biso   1.000  Hf
  Hf5      1.0000 0.13940  0.46313  0.88208  Biso   1.000  Hf
  Hf6      1.0000 0.63377  0.46735  0.37427  Biso   1.000  Hf
  Hf7      1.0000 0.63597  0.46373  0.87328  Biso   1.000  Hf
  Hf8      1.0000 0.35907  0.53078  0.12681  Biso   1.000  Hf
  Hf9      1.0000 0.36627  0.53433  0.62760  Biso   1.000  Hf
  Hf10     1.0000 0.86488  0.53374  0.12303  Biso   1.000  Hf
  Hf11     1.0000 0.86667  0.52968  0.62326  Biso   1.000  Hf
  Hf12     1.0000 0.36054  0.96567  0.37338  Biso   1.000  Hf
  Hf13     1.0000 0.36185  0.96245  0.88169  Biso   1.000  Hf
  Hf14     1.0000 0.86921  0.96748  0.37319  Biso   1.000  Hf
  Hf15     1.0000 0.86645  0.96621  0.87247  Biso   1.000  Hf
  O1       1.0000 0.02859  0.38521  0.20441  Biso   1.000  O 
  O2       1.0000 0.03803  0.37321  0.69361  Biso   1.000  O 
  O3       1.0000 0.53659  0.36886  0.19374  Biso   1.000  O 
  O4       1.0000 0.53682  0.36539  0.69383  Biso   1.000  O 
  O5       1.0000 0.03530  0.13179  0.45030  Biso   1.000  O 
  O6       1.0000 0.03485  0.13587  0.93050  Biso   1.000  O 
  O7       1.0000 0.53513  0.13150  0.44356  Biso   1.000  O 
  O8       1.0000 0.53855  0.12739  0.94390  Biso   1.000  O 
  O9       1.0000 0.46781  0.86571  0.19701  Biso   1.000  O 
  O10      1.0000 0.46474  0.86661  0.69740  Biso   1.000  O 
  O11      1.0000 0.96802  0.86173  0.19840  Biso   1.000  O 
  O12      1.0000 0.96363  0.86733  0.69214  Biso   1.000  O 
  O13      1.0000 0.46796  0.63406  0.44971  Biso   1.000  O 
  O14      1.0000 0.46993  0.63063  0.94601  Biso   1.000  O 
  O15      1.0000 0.96649  0.63351  0.44649  Biso   1.000  O 
  O16      1.0000 0.96605  0.63195  0.94317  Biso   1.000  O 
  O17      1.0000 0.27906  0.24487  0.25396  Biso   1.000  O 
  O18      1.0000 0.27303  0.23621  0.75096  Biso   1.000  O 
  O19      1.0000 0.77036  0.22972  0.24594  Biso   1.000  O 
  O20      1.0000 0.77117  0.23091  0.74539  Biso   1.000  O 
  O21      1.0000 0.27170  0.26156  0.50194  Biso   1.000  O 
  O22      1.0000 0.27926  0.26107  0.99759  Biso   1.000  O 
  O23      1.0000 0.76985  0.26713  0.49605  Biso   1.000  O 
  O24      1.0000 0.77270  0.26304  0.99594  Biso   1.000  O 
  O25      1.0000 0.22962  0.76341  0.50333  Biso   1.000  O 
  O26      1.0000 0.23094  0.75422  0.00128  Biso   1.000  O 
  O27      1.0000 0.73173  0.76668  0.49634  Biso   1.000  O 
  O28      1.0000 0.73133  0.76283  0.99693  Biso   1.000  O 
  O29      1.0000 0.23804  0.72265  0.25756  Biso   1.000  O 
  O30      1.0000 0.22943  0.73580  0.75168  Biso   1.000  O 
  O31      1.0000 0.72969  0.73191  0.24698  Biso   1.000  O 
  O32      1.0000 0.72990  0.73104  0.74609  Biso   1.000  O 
