data_image0
_cell_length_a       10.2221
_cell_length_b       10.2913
_cell_length_c       5.27562
_cell_angle_alpha    90
_cell_angle_beta     80
_cell_angle_gamma    90

_symmetry_space_group_name_H-M    "P 1"
_symmetry_int_tables_number       1

loop_
  _symmetry_equiv_pos_as_xyz
  'x, y, z'

loop_
  _atom_site_label
  _atom_site_occupancy
  _atom_site_fract_x
  _atom_site_fract_y
  _atom_site_fract_z
  _atom_site_thermal_displace_type
  _atom_site_B_iso_or_equiv
  _atom_site_type_symbol
  Hf1      1.0000 0.14142  0.02441  0.28962  Biso   1.000  Hf
  Hf2      1.0000 0.14974  0.23125  0.77044  Biso   1.000  Hf
  Hf3      1.0000 0.33870  0.27860  0.18229  Biso   1.000  Hf
  Hf4      1.0000 0.35026  0.47410  0.68469  Biso   1.000  Hf
  O1       1.0000 0.03752  0.16950  0.15184  Biso   1.000  O 
  O2       1.0000 0.04385  0.08122  0.64996  Biso   1.000  O 
  O3       1.0000 0.46268  0.41066  0.34060  Biso   1.000  O 
  O4       1.0000 0.48239  0.33082  0.84568  Biso   1.000  O 
  O5       1.0000 0.28916  0.11929  0.46392  Biso   1.000  O 
  O6       1.0000 0.29023  0.11957  0.95921  Biso   1.000  O 
  O7       1.0000 0.20664  0.38619  0.00235  Biso   1.000  O 
  O8       1.0000 0.19865  0.37559  0.48236  Biso   1.000  O 
  Hf5      1.0000 0.13052  0.52796  0.28565  Biso   1.000  Hf
  Hf6      1.0000 0.13419  0.72541  0.79267  Biso   1.000  Hf
  Hf7      1.0000 0.35007  0.76956  0.20945  Biso   1.000  Hf
  Hf8      1.0000 0.35143  0.96449  0.71130  Biso   1.000  Hf
  O9       1.0000 0.01751  0.66808  0.15441  Biso   1.000  O 
  O10      1.0000 0.02953  0.58535  0.65282  Biso   1.000  O 
  O11      1.0000 0.45909  0.91056  0.35415  Biso   1.000  O 
  O12      1.0000 0.46479  0.83036  0.84765  Biso   1.000  O 
  O13      1.0000 0.27084  0.62770  0.48085  Biso   1.000  O 
  O14      1.0000 0.27500  0.62159  0.97399  Biso   1.000  O 
  O15      1.0000 0.20852  0.87838  0.02526  Biso   1.000  O 
  O16      1.0000 0.21535  0.86772  0.52000  Biso   1.000  O 
  Hf9      1.0000 0.64731  0.01572  0.30643  Biso   1.000  Hf
  Hf10     1.0000 0.65988  0.22676  0.82857  Biso   1.000  Hf
  Hf11     1.0000 0.86537  0.27113  0.21932  Biso   1.000  Hf
  Hf12     1.0000 0.86298  0.47529  0.71188  Biso   1.000  Hf
  O17      1.0000 0.53368  0.17001  0.19220  Biso   1.000  O 
  O18      1.0000 0.54198  0.08192  0.67384  Biso   1.000  O 
  O19      1.0000 0.95629  0.42307  0.34232  Biso   1.000  O 
  O20      1.0000 0.96964  0.33075  0.84075  Biso   1.000  O 
  O21      1.0000 0.78285  0.12638  0.49931  Biso   1.000  O 
  O22      1.0000 0.77694  0.11727  0.00260  Biso   1.000  O 
  O23      1.0000 0.72163  0.37673  0.04186  Biso   1.000  O 
  O24      1.0000 0.72200  0.36580  0.53657  Biso   1.000  O 
  Hf13     1.0000 0.63171  0.52100  0.30266  Biso   1.000  Hf
  Hf14     1.0000 0.63460  0.72013  0.79580  Biso   1.000  Hf
  Hf15     1.0000 0.84780  0.77122  0.21097  Biso   1.000  Hf
  Hf16     1.0000 0.85703  0.97369  0.70964  Biso   1.000  Hf
  O25      1.0000 0.52039  0.66156  0.16010  Biso   1.000  O 
  O26      1.0000 0.52752  0.57934  0.65696  Biso   1.000  O 
  O27      1.0000 0.95436  0.91520  0.34566  Biso   1.000  O 
  O28      1.0000 0.96298  0.83238  0.84466  Biso   1.000  O 
  O29      1.0000 0.76930  0.62758  0.48597  Biso   1.000  O 
  O30      1.0000 0.77503  0.61681  0.98190  Biso   1.000  O 
  O31      1.0000 0.70784  0.87691  0.02741  Biso   1.000  O 
  O32      1.0000 0.71489  0.86977  0.52657  Biso   1.000  O 
  Mg1      1.0000 0.45601  0.22667  0.55226  Biso   1.000  Mg
