data_image0
_cell_length_a       10.0581
_cell_length_b       5.16267
_cell_length_c       10.4617
_cell_angle_alpha    90
_cell_angle_beta     90
_cell_angle_gamma    90

_symmetry_space_group_name_H-M    "P 1"
_symmetry_int_tables_number       1

loop_
  _symmetry_equiv_pos_as_xyz
  'x, y, z'

loop_
  _atom_site_label
  _atom_site_occupancy
  _atom_site_fract_x
  _atom_site_fract_y
  _atom_site_fract_z
  _atom_site_thermal_displace_type
  _atom_site_B_iso_or_equiv
  _atom_site_type_symbol
  Hf1      1.0000 0.12520  0.04282  0.17315  Biso   1.000  Hf
  Hf2      1.0000 0.11902  0.45709  0.42643  Biso   1.000  Hf
  Hf3      1.0000 0.33573  0.54697  0.18610  Biso   1.000  Hf
  Hf4      1.0000 0.34099  0.96007  0.42912  Biso   1.000  Hf
  Hf5      1.0000 0.64687  0.08915  0.06895  Biso   1.000  Hf
  Hf6      1.0000 0.62260  0.46334  0.33193  Biso   1.000  Hf
  Hf7      1.0000 0.85199  0.53617  0.07464  Biso   1.000  Hf
  Hf8      1.0000 0.84205  0.95660  0.32526  Biso   1.000  Hf
  O1       1.0000 0.03083  0.33694  0.08704  Biso   1.000  O 
  O2       1.0000 0.01897  0.16250  0.33753  Biso   1.000  O 
  O3       1.0000 0.45472  0.85558  0.09594  Biso   1.000  O 
  O4       1.0000 0.44717  0.66674  0.34384  Biso   1.000  O 
  O5       1.0000 0.25858  0.25194  0.30068  Biso   1.000  O 
  O6       1.0000 0.27272  0.25214  0.04881  Biso   1.000  O 
  O7       1.0000 0.20356  0.75359  0.30338  Biso   1.000  O 
  O8       1.0000 0.21495  0.75409  0.05201  Biso   1.000  O 
  O9       1.0000 0.51334  0.34787  0.16879  Biso   1.000  O 
  O10      1.0000 0.51654  0.16841  0.41611  Biso   1.000  O 
  O11      1.0000 0.94955  0.83790  0.16434  Biso   1.000  O 
  O12      1.0000 0.94792  0.66440  0.41435  Biso   1.000  O 
  O13      1.0000 0.75832  0.25071  0.45308  Biso   1.000  O 
  O14      1.0000 0.77085  0.26191  0.20985  Biso   1.000  O 
  O15      1.0000 0.70471  0.75240  0.45302  Biso   1.000  O 
  O16      1.0000 0.70421  0.75204  0.19938  Biso   1.000  O 
  Hf9      1.0000 0.12147  0.04422  0.67346  Biso   1.000  Hf
  Hf10     1.0000 0.10670  0.46642  0.92345  Biso   1.000  Hf
  Hf11     1.0000 0.34318  0.54380  0.67999  Biso   1.000  Hf
  Hf12     1.0000 0.32531  0.97388  0.92706  Biso   1.000  Hf
  Hf13     1.0000 0.62249  0.04396  0.57690  Biso   1.000  Hf
  Hf14     1.0000 0.62655  0.45037  0.82128  Biso   1.000  Hf
  Hf15     1.0000 0.84359  0.54397  0.57600  Biso   1.000  Hf
  Hf16     1.0000 0.83836  0.95752  0.82452  Biso   1.000  Hf
  O17      1.0000 0.01497  0.33418  0.58673  Biso   1.000  O 
  O18      1.0000 0.01531  0.16551  0.83504  Biso   1.000  O 
  O19      1.0000 0.44604  0.83922  0.59244  Biso   1.000  O 
  O20      1.0000 0.44437  0.65700  0.85398  Biso   1.000  O 
  O21      1.0000 0.25310  0.25818  0.79836  Biso   1.000  O 
  O22      1.0000 0.25912  0.25391  0.54993  Biso   1.000  O 
  O23      1.0000 0.20210  0.75517  0.80049  Biso   1.000  O 
  O24      1.0000 0.20547  0.74985  0.55161  Biso   1.000  O 
  O25      1.0000 0.51420  0.33707  0.66430  Biso   1.000  O 
  O26      1.0000 0.50485  0.16510  0.90822  Biso   1.000  O 
  O27      1.0000 0.94771  0.83320  0.66235  Biso   1.000  O 
  O28      1.0000 0.93656  0.66963  0.91354  Biso   1.000  O 
  O29      1.0000 0.76950  0.24447  0.94199  Biso   1.000  O 
  O30      1.0000 0.75973  0.24819  0.69787  Biso   1.000  O 
  O31      1.0000 0.69364  0.77634  0.94840  Biso   1.000  O 
  O32      1.0000 0.70346  0.74912  0.70025  Biso   1.000  O 
  Mg1      1.0000 0.56902  0.59438  0.04040  Biso   1.000  Mg
