data_image0
_cell_length_a       10.0421
_cell_length_b       10.2464
_cell_length_c       10.4993
_cell_angle_alpha    90
_cell_angle_beta     90
_cell_angle_gamma    90

_symmetry_space_group_name_H-M    "P 1"
_symmetry_int_tables_number       1

loop_
  _symmetry_equiv_pos_as_xyz
  'x, y, z'

loop_
  _atom_site_label
  _atom_site_occupancy
  _atom_site_fract_x
  _atom_site_fract_y
  _atom_site_fract_z
  _atom_site_thermal_displace_type
  _atom_site_B_iso_or_equiv
  _atom_site_type_symbol
  Hf1      1.0000 0.13255  0.02271  0.17264  Biso   1.000  Hf
  Hf2      1.0000 0.12727  0.22871  0.42790  Biso   1.000  Hf
  Hf3      1.0000 0.33846  0.27354  0.18860  Biso   1.000  Hf
  Hf4      1.0000 0.34917  0.48208  0.42773  Biso   1.000  Hf
  Hf5      1.0000 0.64627  0.02452  0.07195  Biso   1.000  Hf
  Hf6      1.0000 0.62773  0.22996  0.32870  Biso   1.000  Hf
  Hf7      1.0000 0.84764  0.26624  0.07368  Biso   1.000  Hf
  Hf8      1.0000 0.85080  0.47783  0.32604  Biso   1.000  Hf
  O1       1.0000 0.02990  0.16629  0.08432  Biso   1.000  O 
  O2       1.0000 0.02572  0.08498  0.33531  Biso   1.000  O 
  O3       1.0000 0.46167  0.41615  0.08877  Biso   1.000  O 
  O4       1.0000 0.45422  0.33684  0.33975  Biso   1.000  O 
  O5       1.0000 0.26471  0.12593  0.30196  Biso   1.000  O 
  O6       1.0000 0.27539  0.12925  0.04905  Biso   1.000  O 
  O7       1.0000 0.20790  0.37732  0.30412  Biso   1.000  O 
  O8       1.0000 0.21804  0.37883  0.05134  Biso   1.000  O 
  O9       1.0000 0.51394  0.16649  0.17160  Biso   1.000  O 
  O10      1.0000 0.52237  0.08685  0.41765  Biso   1.000  O 
  O11      1.0000 0.95447  0.41557  0.16568  Biso   1.000  O 
  O12      1.0000 0.95709  0.33617  0.41739  Biso   1.000  O 
  O13      1.0000 0.76549  0.12583  0.45243  Biso   1.000  O 
  O14      1.0000 0.77139  0.12701  0.20802  Biso   1.000  O 
  O15      1.0000 0.71186  0.37532  0.45271  Biso   1.000  O 
  O16      1.0000 0.70825  0.37805  0.20181  Biso   1.000  O 
  Hf9      1.0000 0.12910  0.02246  0.67378  Biso   1.000  Hf
  Hf10     1.0000 0.11661  0.23083  0.92424  Biso   1.000  Hf
  Hf11     1.0000 0.35216  0.27078  0.67866  Biso   1.000  Hf
  Hf12     1.0000 0.33750  0.48538  0.92463  Biso   1.000  Hf
  Hf13     1.0000 0.63000  0.02094  0.57569  Biso   1.000  Hf
  Hf14     1.0000 0.64465  0.22301  0.81720  Biso   1.000  Hf
  Hf15     1.0000 0.85119  0.27382  0.57559  Biso   1.000  Hf
  Hf16     1.0000 0.84609  0.48308  0.82810  Biso   1.000  Hf
  O17      1.0000 0.02186  0.16605  0.58515  Biso   1.000  O 
  O18      1.0000 0.02275  0.08368  0.83263  Biso   1.000  O 
  O19      1.0000 0.45584  0.41699  0.58945  Biso   1.000  O 
  O20      1.0000 0.45563  0.33040  0.84730  Biso   1.000  O 
  O21      1.0000 0.26322  0.12702  0.79862  Biso   1.000  O 
  O22      1.0000 0.26785  0.12693  0.54971  Biso   1.000  O 
  O23      1.0000 0.21131  0.37644  0.80010  Biso   1.000  O 
  O24      1.0000 0.21341  0.37611  0.55183  Biso   1.000  O 
  O25      1.0000 0.52391  0.16438  0.66764  Biso   1.000  O 
  O26      1.0000 0.51569  0.08768  0.91497  Biso   1.000  O 
  O27      1.0000 0.95444  0.41705  0.66729  Biso   1.000  O 
  O28      1.0000 0.94612  0.33627  0.91458  Biso   1.000  O 
  O29      1.0000 0.78158  0.11654  0.94292  Biso   1.000  O 
  O30      1.0000 0.77328  0.12325  0.69605  Biso   1.000  O 
  O31      1.0000 0.70265  0.38616  0.94847  Biso   1.000  O 
  O32      1.0000 0.71293  0.37641  0.70133  Biso   1.000  O 
  Hf17     1.0000 0.12659  0.52224  0.17279  Biso   1.000  Hf
  Hf18     1.0000 0.12607  0.72953  0.42181  Biso   1.000  Hf
  Hf19     1.0000 0.35408  0.77497  0.17378  Biso   1.000  Hf
  Hf20     1.0000 0.34731  0.97849  0.42461  Biso   1.000  Hf
  Hf21     1.0000 0.63812  0.53122  0.07896  Biso   1.000  Hf
  Hf22     1.0000 0.62910  0.73126  0.32869  Biso   1.000  Hf
  Hf23     1.0000 0.85725  0.77302  0.07941  Biso   1.000  Hf
  Hf24     1.0000 0.84841  0.98025  0.32862  Biso   1.000  Hf
  O33      1.0000 0.02927  0.66744  0.08484  Biso   1.000  O 
  O34      1.0000 0.02077  0.58523  0.33372  Biso   1.000  O 
  O35      1.0000 0.46300  0.91733  0.08554  Biso   1.000  O 
  O36      1.0000 0.45730  0.83687  0.33506  Biso   1.000  O 
  O37      1.0000 0.26538  0.62492  0.29636  Biso   1.000  O 
  O38      1.0000 0.27249  0.62634  0.04632  Biso   1.000  O 
  O39      1.0000 0.21355  0.87518  0.29710  Biso   1.000  O 
  O40      1.0000 0.21787  0.87763  0.04803  Biso   1.000  O 
  O41      1.0000 0.52514  0.66605  0.16842  Biso   1.000  O 
  O42      1.0000 0.52031  0.58760  0.41888  Biso   1.000  O 
  O43      1.0000 0.95808  0.91787  0.16695  Biso   1.000  O 
  O44      1.0000 0.95459  0.83426  0.41581  Biso   1.000  O 
  O45      1.0000 0.76425  0.62449  0.45342  Biso   1.000  O 
  O46      1.0000 0.77012  0.62886  0.20473  Biso   1.000  O 
  O47      1.0000 0.71150  0.87553  0.45477  Biso   1.000  O 
  O48      1.0000 0.71728  0.87536  0.20517  Biso   1.000  O 
  Hf25     1.0000 0.12509  0.52198  0.67306  Biso   1.000  Hf
  Hf26     1.0000 0.11917  0.73289  0.92282  Biso   1.000  Hf
  Hf27     1.0000 0.34598  0.77352  0.67375  Biso   1.000  Hf
  Hf28     1.0000 0.33992  0.98208  0.92532  Biso   1.000  Hf
  Hf29     1.0000 0.62618  0.52339  0.57795  Biso   1.000  Hf
  Hf30     1.0000 0.61962  0.73185  0.82727  Biso   1.000  Hf
  Hf31     1.0000 0.84881  0.77095  0.57715  Biso   1.000  Hf
  Hf32     1.0000 0.84517  0.97453  0.82507  Biso   1.000  Hf
  O49      1.0000 0.01981  0.66465  0.58304  Biso   1.000  O 
  O50      1.0000 0.01795  0.58664  0.83497  Biso   1.000  O 
  O51      1.0000 0.45355  0.91472  0.58292  Biso   1.000  O 
  O52      1.0000 0.44970  0.83944  0.83322  Biso   1.000  O 
  O53      1.0000 0.25960  0.62718  0.79641  Biso   1.000  O 
  O54      1.0000 0.26255  0.62730  0.54712  Biso   1.000  O 
  O55      1.0000 0.20648  0.87548  0.79720  Biso   1.000  O 
  O56      1.0000 0.20976  0.87664  0.54683  Biso   1.000  O 
  O57      1.0000 0.51659  0.66573  0.66765  Biso   1.000  O 
  O58      1.0000 0.50990  0.59031  0.91903  Biso   1.000  O 
  O59      1.0000 0.95489  0.91301  0.66474  Biso   1.000  O 
  O60      1.0000 0.94752  0.83529  0.91828  Biso   1.000  O 
  O61      1.0000 0.75625  0.62913  0.95444  Biso   1.000  O 
  O62      1.0000 0.76070  0.62762  0.70404  Biso   1.000  O 
  O63      1.0000 0.70235  0.87513  0.95498  Biso   1.000  O 
  O64      1.0000 0.70737  0.87541  0.70216  Biso   1.000  O 
  Mg1      1.0000 0.54066  0.26599  0.01813  Biso   1.000  Mg
