data_image0
_cell_length_a       10.0687
_cell_length_b       5.29485
_cell_length_c       10.064
_cell_angle_alpha    80
_cell_angle_beta     90
_cell_angle_gamma    90

_symmetry_space_group_name_H-M    "P 1"
_symmetry_int_tables_number       1

loop_
  _symmetry_equiv_pos_as_xyz
  'x, y, z'

loop_
  _atom_site_label
  _atom_site_occupancy
  _atom_site_fract_x
  _atom_site_fract_y
  _atom_site_fract_z
  _atom_site_thermal_displace_type
  _atom_site_B_iso_or_equiv
  _atom_site_type_symbol
  Hf1      1.0000 0.11006  0.86015  0.10475  Biso   1.000  Hf
  Hf2      1.0000 0.14873  0.48485  0.41022  Biso   1.000  Hf
  Hf3      1.0000 0.40782  0.42016  0.11270  Biso   1.000  Hf
  Hf4      1.0000 0.36370  0.98605  0.38523  Biso   1.000  Hf
  O1       1.0000 0.03342  0.08961  0.99448  Biso   1.000  O 
  O2       1.0000 0.98924  0.06106  0.22087  Biso   1.000  O 
  O3       1.0000 0.02870  0.53967  0.22522  Biso   1.000  O 
  O4       1.0000 0.98480  0.57525  0.98955  Biso   1.000  O 
  O5       1.0000 0.27768  0.32279  0.28083  Biso   1.000  O 
  O6       1.0000 0.27119  0.10789  0.04067  Biso   1.000  O 
  O7       1.0000 0.22598  0.59619  0.02652  Biso   1.000  O 
  O8       1.0000 0.22674  0.81595  0.28044  Biso   1.000  O 
  Hf5      1.0000 0.11684  0.87453  0.62079  Biso   1.000  Hf
  Hf6      1.0000 0.12100  0.39666  0.84983  Biso   1.000  Hf
  Hf7      1.0000 0.39168  0.39826  0.62361  Biso   1.000  Hf
  Hf8      1.0000 0.38529  0.89406  0.87724  Biso   1.000  Hf
  O9       1.0000 0.00728  0.20118  0.48145  Biso   1.000  O 
  O10      1.0000 0.02340  0.12340  0.74383  Biso   1.000  O 
  O11      1.0000 0.96893  0.65384  0.74317  Biso   1.000  O 
  O12      1.0000 0.00449  0.71887  0.47317  Biso   1.000  O 
  O13      1.0000 0.29397  0.24052  0.79711  Biso   1.000  O 
  O14      1.0000 0.25779  0.16880  0.53279  Biso   1.000  O 
  O15      1.0000 0.27136  0.69389  0.52338  Biso   1.000  O 
  O16      1.0000 0.22207  0.74784  0.79594  Biso   1.000  O 
  Hf9      1.0000 0.61367  0.91285  0.11126  Biso   1.000  Hf
  Hf10     1.0000 0.65005  0.48862  0.39355  Biso   1.000  Hf
  Hf11     1.0000 0.87270  0.41010  0.10256  Biso   1.000  Hf
  Hf12     1.0000 0.86444  0.98758  0.38543  Biso   1.000  Hf
  O17      1.0000 0.53128  0.09024  0.99164  Biso   1.000  O 
  O18      1.0000 0.48881  0.08312  0.22805  Biso   1.000  O 
  O19      1.0000 0.52532  0.58105  0.23301  Biso   1.000  O 
  O20      1.0000 0.49065  0.59228  0.99620  Biso   1.000  O 
  O21      1.0000 0.77593  0.31585  0.27860  Biso   1.000  O 
  O22      1.0000 0.77523  0.12094  0.02883  Biso   1.000  O 
  O23      1.0000 0.71628  0.62139  0.02427  Biso   1.000  O 
  O24      1.0000 0.73515  0.81281  0.27708  Biso   1.000  O 
  Hf13     1.0000 0.61705  0.90893  0.61697  Biso   1.000  Hf
  Hf14     1.0000 0.62836  0.40077  0.86491  Biso   1.000  Hf
  Hf15     1.0000 0.90916  0.40589  0.61596  Biso   1.000  Hf
  Hf16     1.0000 0.88560  0.89681  0.86907  Biso   1.000  Hf
  O25      1.0000 0.50474  0.21866  0.48793  Biso   1.000  O 
  O26      1.0000 0.52544  0.13729  0.74180  Biso   1.000  O 
  O27      1.0000 0.48536  0.63807  0.74158  Biso   1.000  O 
  O28      1.0000 0.51200  0.72040  0.48569  Biso   1.000  O 
  O29      1.0000 0.79049  0.25555  0.78810  Biso   1.000  O 
  O30      1.0000 0.75802  0.17476  0.52926  Biso   1.000  O 
  O31      1.0000 0.75923  0.67320  0.53159  Biso   1.000  O 
  O32      1.0000 0.71806  0.75981  0.79143  Biso   1.000  O 
  Mg1      1.0000 0.14192  0.31192  0.14624  Biso   1.000  Mg
