data_image0
_cell_length_a       10.0907
_cell_length_b       5.09582
_cell_length_c       10.0514
_cell_angle_alpha    90
_cell_angle_beta     90
_cell_angle_gamma    90

_symmetry_space_group_name_H-M    "P 1"
_symmetry_int_tables_number       1

loop_
  _symmetry_equiv_pos_as_xyz
  'x, y, z'

loop_
  _atom_site_label
  _atom_site_occupancy
  _atom_site_fract_x
  _atom_site_fract_y
  _atom_site_fract_z
  _atom_site_thermal_displace_type
  _atom_site_B_iso_or_equiv
  _atom_site_type_symbol
  Mg1      1.0000 0.10306  0.98307  0.11615  Biso   1.000  Mg
  Hf1      1.0000 0.15921  0.97739  0.61348  Biso   1.000  Hf
  Hf2      1.0000 0.59888  0.97641  0.11298  Biso   1.000  Hf
  Hf3      1.0000 0.65867  0.97708  0.61260  Biso   1.000  Hf
  Hf4      1.0000 0.12853  0.51576  0.35785  Biso   1.000  Hf
  Hf5      1.0000 0.15570  0.47066  0.88718  Biso   1.000  Hf
  Hf6      1.0000 0.62981  0.50948  0.36189  Biso   1.000  Hf
  Hf7      1.0000 0.65706  0.46842  0.87912  Biso   1.000  Hf
  Hf8      1.0000 0.34371  0.52846  0.11044  Biso   1.000  Hf
  Hf9      1.0000 0.40876  0.52165  0.61236  Biso   1.000  Hf
  Hf10     1.0000 0.85502  0.52704  0.11188  Biso   1.000  Hf
  Hf11     1.0000 0.90814  0.52330  0.61299  Biso   1.000  Hf
  Hf12     1.0000 0.37619  0.98495  0.35984  Biso   1.000  Hf
  Hf13     1.0000 0.40300  0.03034  0.88347  Biso   1.000  Hf
  Hf14     1.0000 0.88201  0.99096  0.35823  Biso   1.000  Hf
  Hf15     1.0000 0.91119  0.02274  0.88443  Biso   1.000  Hf
  O1       1.0000 0.97466  0.27041  0.01605  Biso   1.000  O 
  O2       1.0000 0.06384  0.31078  0.52676  Biso   1.000  O 
  O3       1.0000 0.47761  0.27316  0.01788  Biso   1.000  O 
  O4       1.0000 0.56323  0.30636  0.52518  Biso   1.000  O 
  O5       1.0000 0.03350  0.19701  0.27561  Biso   1.000  O 
  O6       1.0000 0.08199  0.13630  0.78087  Biso   1.000  O 
  O7       1.0000 0.53483  0.18196  0.27404  Biso   1.000  O 
  O8       1.0000 0.58138  0.13731  0.78156  Biso   1.000  O 
  O9       1.0000 0.98788  0.69799  0.24051  Biso   1.000  O 
  O10      1.0000 0.08221  0.64275  0.71851  Biso   1.000  O 
  O11      1.0000 0.49247  0.69035  0.23541  Biso   1.000  O 
  O12      1.0000 0.58145  0.64591  0.71878  Biso   1.000  O 
  O13      1.0000 0.03199  0.75750  0.98066  Biso   1.000  O 
  O14      1.0000 0.02193  0.80503  0.48607  Biso   1.000  O 
  O15      1.0000 0.53245  0.76580  0.98357  Biso   1.000  O 
  O16      1.0000 0.52174  0.80102  0.48373  Biso   1.000  O 
  O17      1.0000 0.28647  0.31398  0.27455  Biso   1.000  O 
  O18      1.0000 0.33060  0.35904  0.77917  Biso   1.000  O 
  O19      1.0000 0.78311  0.31342  0.27118  Biso   1.000  O 
  O20      1.0000 0.83142  0.35888  0.78096  Biso   1.000  O 
  O21      1.0000 0.22629  0.23648  0.01786  Biso   1.000  O 
  O22      1.0000 0.31284  0.19069  0.52425  Biso   1.000  O 
  O23      1.0000 0.72696  0.22732  0.01645  Biso   1.000  O 
  O24      1.0000 0.81361  0.19329  0.52375  Biso   1.000  O 
  O25      1.0000 0.28527  0.73446  0.97690  Biso   1.000  O 
  O26      1.0000 0.27178  0.69687  0.48518  Biso   1.000  O 
  O27      1.0000 0.78190  0.72988  0.98544  Biso   1.000  O 
  O28      1.0000 0.77171  0.69759  0.48496  Biso   1.000  O 
  O29      1.0000 0.24149  0.80052  0.23588  Biso   1.000  O 
  O30      1.0000 0.33242  0.85409  0.71768  Biso   1.000  O 
  O31      1.0000 0.74038  0.80728  0.23724  Biso   1.000  O 
  O32      1.0000 0.83079  0.85192  0.72070  Biso   1.000  O 
