data_image0
_cell_length_a       10.0666
_cell_length_b       10.2654
_cell_length_c       5.27217
_cell_angle_alpha    90
_cell_angle_beta     90
_cell_angle_gamma    90

_symmetry_space_group_name_H-M    "P 1"
_symmetry_int_tables_number       1

loop_
  _symmetry_equiv_pos_as_xyz
  'x, y, z'

loop_
  _atom_site_label
  _atom_site_occupancy
  _atom_site_fract_x
  _atom_site_fract_y
  _atom_site_fract_z
  _atom_site_thermal_displace_type
  _atom_site_B_iso_or_equiv
  _atom_site_type_symbol
  Hf1      1.0000 0.13342  0.02275  0.34989  Biso   1.000  Hf
  Hf2      1.0000 0.11579  0.22957  0.86125  Biso   1.000  Hf
  Hf3      1.0000 0.33996  0.27242  0.39187  Biso   1.000  Hf
  Hf4      1.0000 0.33589  0.48806  0.86094  Biso   1.000  Hf
  Hf5      1.0000 0.64787  0.02337  0.13790  Biso   1.000  Hf
  Hf6      1.0000 0.64422  0.22277  0.63520  Biso   1.000  Hf
  Hf7      1.0000 0.84691  0.26721  0.14131  Biso   1.000  Hf
  Hf8      1.0000 0.84636  0.48021  0.65154  Biso   1.000  Hf
  O1       1.0000 0.02786  0.16404  0.17084  Biso   1.000  O 
  O2       1.0000 0.02584  0.08371  0.66758  Biso   1.000  O 
  O3       1.0000 0.46125  0.41528  0.18566  Biso   1.000  O 
  O4       1.0000 0.45277  0.33269  0.70443  Biso   1.000  O 
  O5       1.0000 0.26182  0.12748  0.61173  Biso   1.000  O 
  O6       1.0000 0.27627  0.12895  0.10765  Biso   1.000  O 
  O7       1.0000 0.20624  0.37841  0.61772  Biso   1.000  O 
  O8       1.0000 0.21799  0.37744  0.11670  Biso   1.000  O 
  O9       1.0000 0.51429  0.16471  0.34735  Biso   1.000  O 
  O10      1.0000 0.51581  0.08827  0.83113  Biso   1.000  O 
  O11      1.0000 0.95250  0.41439  0.33504  Biso   1.000  O 
  O12      1.0000 0.94825  0.33807  0.83493  Biso   1.000  O 
  O13      1.0000 0.78170  0.11673  0.88133  Biso   1.000  O 
  O14      1.0000 0.77855  0.12227  0.39977  Biso   1.000  O 
  O15      1.0000 0.70267  0.38679  0.89061  Biso   1.000  O 
  O16      1.0000 0.70837  0.37682  0.39601  Biso   1.000  O 
  Hf9      1.0000 0.12263  0.52136  0.34877  Biso   1.000  Hf
  Hf10     1.0000 0.11708  0.73211  0.84630  Biso   1.000  Hf
  Hf11     1.0000 0.34904  0.77578  0.35186  Biso   1.000  Hf
  Hf12     1.0000 0.33666  0.97994  0.85651  Biso   1.000  Hf
  Hf13     1.0000 0.63509  0.53158  0.15705  Biso   1.000  Hf
  Hf14     1.0000 0.62069  0.73283  0.65505  Biso   1.000  Hf
  Hf15     1.0000 0.85429  0.77125  0.15636  Biso   1.000  Hf
  Hf16     1.0000 0.84372  0.97443  0.65050  Biso   1.000  Hf
  O17      1.0000 0.02514  0.66400  0.16670  Biso   1.000  O 
  O18      1.0000 0.01574  0.58709  0.66820  Biso   1.000  O 
  O19      1.0000 0.45953  0.91523  0.16987  Biso   1.000  O 
  O20      1.0000 0.45044  0.83992  0.66942  Biso   1.000  O 
  O21      1.0000 0.25882  0.62675  0.59538  Biso   1.000  O 
  O22      1.0000 0.26810  0.62626  0.09716  Biso   1.000  O 
  O23      1.0000 0.20696  0.87548  0.59860  Biso   1.000  O 
  O24      1.0000 0.21388  0.87649  0.09992  Biso   1.000  O 
  O25      1.0000 0.51888  0.66456  0.33943  Biso   1.000  O 
  O26      1.0000 0.50780  0.59219  0.84274  Biso   1.000  O 
  O27      1.0000 0.95691  0.91273  0.33287  Biso   1.000  O 
  O28      1.0000 0.94647  0.83463  0.83677  Biso   1.000  O 
  O29      1.0000 0.75431  0.62895  0.90667  Biso   1.000  O 
  O30      1.0000 0.76484  0.62897  0.40819  Biso   1.000  O 
  O31      1.0000 0.70161  0.87574  0.90871  Biso   1.000  O 
  O32      1.0000 0.71157  0.87329  0.40442  Biso   1.000  O 
  Mg1      1.0000 0.53727  0.26432  0.03925  Biso   1.000  Mg
