data_image0
_cell_length_a       10.0684
_cell_length_b       10.1938
_cell_length_c       5.2125
_cell_angle_alpha    90
_cell_angle_beta     90
_cell_angle_gamma    90

_symmetry_space_group_name_H-M    "P 1"
_symmetry_int_tables_number       1

loop_
  _symmetry_equiv_pos_as_xyz
  'x, y, z'

loop_
  _atom_site_label
  _atom_site_occupancy
  _atom_site_fract_x
  _atom_site_fract_y
  _atom_site_fract_z
  _atom_site_thermal_displace_type
  _atom_site_B_iso_or_equiv
  _atom_site_type_symbol
  Mg1      1.0000 0.13543  0.01257  0.35134  Biso   1.000  Mg
  Hf1      1.0000 0.14128  0.52192  0.34614  Biso   1.000  Hf
  Hf2      1.0000 0.14207  0.22623  0.84562  Biso   1.000  Hf
  Hf3      1.0000 0.14421  0.73376  0.84415  Biso   1.000  Hf
  Hf4      1.0000 0.35643  0.26648  0.34547  Biso   1.000  Hf
  Hf5      1.0000 0.35890  0.77525  0.34340  Biso   1.000  Hf
  Hf6      1.0000 0.36043  0.47884  0.84629  Biso   1.000  Hf
  Hf7      1.0000 0.35701  0.98151  0.84241  Biso   1.000  Hf
  Hf8      1.0000 0.63875  0.02105  0.15283  Biso   1.000  Hf
  Hf9      1.0000 0.63917  0.52037  0.15663  Biso   1.000  Hf
  Hf10     1.0000 0.63934  0.23009  0.65512  Biso   1.000  Hf
  Hf11     1.0000 0.63935  0.73055  0.65451  Biso   1.000  Hf
  Hf12     1.0000 0.86383  0.26874  0.15526  Biso   1.000  Hf
  Hf13     1.0000 0.86225  0.77194  0.15680  Biso   1.000  Hf
  Hf14     1.0000 0.86193  0.48022  0.65769  Biso   1.000  Hf
  Hf15     1.0000 0.86342  0.98019  0.65083  Biso   1.000  Hf
  O1       1.0000 0.03245  0.15932  0.16344  Biso   1.000  O 
  O2       1.0000 0.03265  0.66360  0.16658  Biso   1.000  O 
  O3       1.0000 0.02690  0.09100  0.67366  Biso   1.000  O 
  O4       1.0000 0.03237  0.58878  0.66660  Biso   1.000  O 
  O5       1.0000 0.46777  0.41380  0.17032  Biso   1.000  O 
  O6       1.0000 0.47070  0.91491  0.16652  Biso   1.000  O 
  O7       1.0000 0.46857  0.33583  0.66975  Biso   1.000  O 
  O8       1.0000 0.46998  0.83776  0.66670  Biso   1.000  O 
  O9       1.0000 0.27682  0.12533  0.59402  Biso   1.000  O 
  O10      1.0000 0.27776  0.62391  0.59260  Biso   1.000  O 
  O11      1.0000 0.28391  0.13197  0.08130  Biso   1.000  O 
  O12      1.0000 0.27713  0.62569  0.09352  Biso   1.000  O 
  O13      1.0000 0.22444  0.37520  0.59466  Biso   1.000  O 
  O14      1.0000 0.22621  0.87299  0.59076  Biso   1.000  O 
  O15      1.0000 0.22300  0.37749  0.09484  Biso   1.000  O 
  O16      1.0000 0.22909  0.87446  0.08665  Biso   1.000  O 
  O17      1.0000 0.53311  0.16624  0.32974  Biso   1.000  O 
  O18      1.0000 0.53238  0.66495  0.33168  Biso   1.000  O 
  O19      1.0000 0.53321  0.08471  0.82746  Biso   1.000  O 
  O20      1.0000 0.53230  0.58581  0.83218  Biso   1.000  O 
  O21      1.0000 0.97039  0.41236  0.33667  Biso   1.000  O 
  O22      1.0000 0.96646  0.91207  0.33530  Biso   1.000  O 
  O23      1.0000 0.97013  0.33925  0.83720  Biso   1.000  O 
  O24      1.0000 0.97017  0.83761  0.83409  Biso   1.000  O 
  O25      1.0000 0.77532  0.12595  0.90738  Biso   1.000  O 
  O26      1.0000 0.77565  0.62436  0.90751  Biso   1.000  O 
  O27      1.0000 0.77504  0.12626  0.40692  Biso   1.000  O 
  O28      1.0000 0.77657  0.62629  0.40770  Biso   1.000  O 
  O29      1.0000 0.72502  0.37478  0.90865  Biso   1.000  O 
  O30      1.0000 0.72637  0.87488  0.90608  Biso   1.000  O 
  O31      1.0000 0.72604  0.37667  0.40875  Biso   1.000  O 
  O32      1.0000 0.72244  0.87620  0.40629  Biso   1.000  O 
