data_image0
_cell_length_a       9.99243
_cell_length_b       5.14209
_cell_length_c       10.0441
_cell_angle_alpha    90
_cell_angle_beta     90
_cell_angle_gamma    90

_symmetry_space_group_name_H-M    "P 1"
_symmetry_int_tables_number       1

loop_
  _symmetry_equiv_pos_as_xyz
  'x, y, z'

loop_
  _atom_site_label
  _atom_site_occupancy
  _atom_site_fract_x
  _atom_site_fract_y
  _atom_site_fract_z
  _atom_site_thermal_displace_type
  _atom_site_B_iso_or_equiv
  _atom_site_type_symbol
  Mg1      1.0000 0.13312  0.03277  0.11800  Biso   1.000  Mg
  Hf1      1.0000 0.13588  0.03214  0.62790  Biso   1.000  Hf
  Hf2      1.0000 0.63422  0.03148  0.12406  Biso   1.000  Hf
  Hf3      1.0000 0.63404  0.02837  0.62329  Biso   1.000  Hf
  Hf4      1.0000 0.13642  0.46200  0.37345  Biso   1.000  Hf
  Hf5      1.0000 0.13854  0.46251  0.87994  Biso   1.000  Hf
  Hf6      1.0000 0.63417  0.46645  0.37438  Biso   1.000  Hf
  Hf7      1.0000 0.63514  0.46409  0.87412  Biso   1.000  Hf
  Hf8      1.0000 0.35925  0.52805  0.12689  Biso   1.000  Hf
  Hf9      1.0000 0.36587  0.53262  0.62662  Biso   1.000  Hf
  Hf10     1.0000 0.86682  0.53348  0.12481  Biso   1.000  Hf
  Hf11     1.0000 0.86716  0.52913  0.62347  Biso   1.000  Hf
  Hf12     1.0000 0.36020  0.96605  0.37291  Biso   1.000  Hf
  Hf13     1.0000 0.36226  0.96146  0.88054  Biso   1.000  Hf
  Hf14     1.0000 0.86921  0.96628  0.37243  Biso   1.000  Hf
  Hf15     1.0000 0.86598  0.96562  0.87356  Biso   1.000  Hf
  O1       1.0000 0.02900  0.36376  0.20128  Biso   1.000  O 
  O2       1.0000 0.03754  0.37029  0.69420  Biso   1.000  O 
  O3       1.0000 0.53478  0.36690  0.19447  Biso   1.000  O 
  O4       1.0000 0.53648  0.36475  0.69375  Biso   1.000  O 
  O5       1.0000 0.03507  0.13017  0.45009  Biso   1.000  O 
  O6       1.0000 0.03415  0.13371  0.93754  Biso   1.000  O 
  O7       1.0000 0.53441  0.13087  0.44391  Biso   1.000  O 
  O8       1.0000 0.53716  0.12792  0.94432  Biso   1.000  O 
  O9       1.0000 0.46690  0.86394  0.19618  Biso   1.000  O 
  O10      1.0000 0.46482  0.86548  0.69690  Biso   1.000  O 
  O11      1.0000 0.96945  0.86073  0.19764  Biso   1.000  O 
  O12      1.0000 0.96400  0.86616  0.69350  Biso   1.000  O 
  O13      1.0000 0.46682  0.63277  0.44812  Biso   1.000  O 
  O14      1.0000 0.46735  0.62902  0.94547  Biso   1.000  O 
  O15      1.0000 0.96568  0.63033  0.44511  Biso   1.000  O 
  O16      1.0000 0.96585  0.63008  0.94401  Biso   1.000  O 
  O17      1.0000 0.27309  0.23492  0.25053  Biso   1.000  O 
  O18      1.0000 0.27274  0.23402  0.75024  Biso   1.000  O 
  O19      1.0000 0.76920  0.23068  0.24729  Biso   1.000  O 
  O20      1.0000 0.77102  0.23056  0.74660  Biso   1.000  O 
  O21      1.0000 0.27110  0.26249  0.50064  Biso   1.000  O 
  O22      1.0000 0.27479  0.25761  0.99819  Biso   1.000  O 
  O23      1.0000 0.76981  0.26551  0.49693  Biso   1.000  O 
  O24      1.0000 0.77175  0.26276  0.99715  Biso   1.000  O 
  O25      1.0000 0.22939  0.76317  0.50201  Biso   1.000  O 
  O26      1.0000 0.22852  0.75887  0.00178  Biso   1.000  O 
  O27      1.0000 0.73132  0.76582  0.49641  Biso   1.000  O 
  O28      1.0000 0.73066  0.76208  0.99716  Biso   1.000  O 
  O29      1.0000 0.23514  0.72328  0.25482  Biso   1.000  O 
  O30      1.0000 0.22961  0.73420  0.75102  Biso   1.000  O 
  O31      1.0000 0.72986  0.73164  0.24704  Biso   1.000  O 
  O32      1.0000 0.72968  0.73018  0.74642  Biso   1.000  O 
