data_image0
_cell_length_a       5.07793
_cell_length_b       10.2352
_cell_length_c       10.4388
_cell_angle_alpha    90
_cell_angle_beta     80
_cell_angle_gamma    90

_symmetry_space_group_name_H-M    "P 1"
_symmetry_int_tables_number       1

loop_
  _symmetry_equiv_pos_as_xyz
  'x, y, z'

loop_
  _atom_site_label
  _atom_site_occupancy
  _atom_site_fract_x
  _atom_site_fract_y
  _atom_site_fract_z
  _atom_site_thermal_displace_type
  _atom_site_B_iso_or_equiv
  _atom_site_type_symbol
  Mg1      1.0000 0.27085  0.01447  0.15133  Biso   1.000  Mg
  Hf1      1.0000 0.27729  0.02095  0.64531  Biso   1.000  Hf
  Hf2      1.0000 0.27907  0.52034  0.14517  Biso   1.000  Hf
  Hf3      1.0000 0.27883  0.52196  0.64694  Biso   1.000  Hf
  Hf4      1.0000 0.27881  0.22699  0.39298  Biso   1.000  Hf
  Hf5      1.0000 0.27915  0.22648  0.89969  Biso   1.000  Hf
  Hf6      1.0000 0.28032  0.72970  0.39419  Biso   1.000  Hf
  Hf7      1.0000 0.28103  0.73212  0.89820  Biso   1.000  Hf
  Hf8      1.0000 0.72019  0.26368  0.10444  Biso   1.000  Hf
  Hf9      1.0000 0.71761  0.27153  0.60398  Biso   1.000  Hf
  Hf10     1.0000 0.71590  0.77548  0.10484  Biso   1.000  Hf
  Hf11     1.0000 0.72076  0.77189  0.60350  Biso   1.000  Hf
  Hf12     1.0000 0.71934  0.47865  0.35312  Biso   1.000  Hf
  Hf13     1.0000 0.72069  0.47865  0.85563  Biso   1.000  Hf
  Hf14     1.0000 0.71916  0.98017  0.34908  Biso   1.000  Hf
  Hf15     1.0000 0.71609  0.98030  0.85665  Biso   1.000  Hf
  O1       1.0000 0.07240  0.16615  0.08005  Biso   1.000  O 
  O2       1.0000 0.06619  0.16804  0.58027  Biso   1.000  O 
  O3       1.0000 0.06706  0.66690  0.07967  Biso   1.000  O 
  O4       1.0000 0.06851  0.66762  0.57993  Biso   1.000  O 
  O5       1.0000 0.06007  0.08466  0.33501  Biso   1.000  O 
  O6       1.0000 0.06829  0.08282  0.82894  Biso   1.000  O 
  O7       1.0000 0.06732  0.58283  0.32912  Biso   1.000  O 
  O8       1.0000 0.06785  0.58425  0.82997  Biso   1.000  O 
  O9       1.0000 0.93163  0.41535  0.17035  Biso   1.000  O 
  O10      1.0000 0.93136  0.41723  0.67104  Biso   1.000  O 
  O11      1.0000 0.92976  0.91578  0.17056  Biso   1.000  O 
  O12      1.0000 0.93058  0.91741  0.67063  Biso   1.000  O 
  O13      1.0000 0.93019  0.33386  0.42104  Biso   1.000  O 
  O14      1.0000 0.93500  0.33491  0.92126  Biso   1.000  O 
  O15      1.0000 0.93126  0.83280  0.42003  Biso   1.000  O 
  O16      1.0000 0.93430  0.83510  0.92069  Biso   1.000  O 
  O17      1.0000 0.55364  0.12868  0.24305  Biso   1.000  O 
  O18      1.0000 0.55005  0.12819  0.73899  Biso   1.000  O 
  O19      1.0000 0.55220  0.62699  0.23991  Biso   1.000  O 
  O20      1.0000 0.55254  0.62966  0.74094  Biso   1.000  O 
  O21      1.0000 0.54849  0.12214  0.49138  Biso   1.000  O 
  O22      1.0000 0.56788  0.12744  0.98369  Biso   1.000  O 
  O23      1.0000 0.55225  0.62175  0.49056  Biso   1.000  O 
  O24      1.0000 0.55031  0.62050  0.99073  Biso   1.000  O 
  O25      1.0000 0.44979  0.37886  0.00963  Biso   1.000  O 
  O26      1.0000 0.44619  0.37967  0.50969  Biso   1.000  O 
  O27      1.0000 0.45375  0.87854  0.00626  Biso   1.000  O 
  O28      1.0000 0.44725  0.87885  0.50897  Biso   1.000  O 
  O29      1.0000 0.44585  0.37140  0.25934  Biso   1.000  O 
  O30      1.0000 0.44823  0.37148  0.76005  Biso   1.000  O 
  O31      1.0000 0.44782  0.86797  0.26023  Biso   1.000  O 
  O32      1.0000 0.44708  0.87211  0.75779  Biso   1.000  O 
