data_image0
_cell_length_a       10.0091
_cell_length_b       5.24449
_cell_length_c       10.0496
_cell_angle_alpha    90
_cell_angle_beta     90
_cell_angle_gamma    90

_symmetry_space_group_name_H-M    "P 1"
_symmetry_int_tables_number       1

loop_
  _symmetry_equiv_pos_as_xyz
  'x, y, z'

loop_
  _atom_site_label
  _atom_site_occupancy
  _atom_site_fract_x
  _atom_site_fract_y
  _atom_site_fract_z
  _atom_site_thermal_displace_type
  _atom_site_B_iso_or_equiv
  _atom_site_type_symbol
  Hf1      1.0000 0.13470  0.12371  0.10922  Biso   1.000  Hf
  Hf2      1.0000 0.13309  0.46353  0.39097  Biso   1.000  Hf
  Hf3      1.0000 0.36419  0.53046  0.12176  Biso   1.000  Hf
  Hf4      1.0000 0.35992  0.96158  0.37423  Biso   1.000  Hf
  O1       1.0000 0.00992  0.37676  0.21740  Biso   1.000  O 
  O2       1.0000 0.03349  0.12948  0.45096  Biso   1.000  O 
  O3       1.0000 0.45782  0.86678  0.19419  Biso   1.000  O 
  O4       1.0000 0.46015  0.63067  0.44450  Biso   1.000  O 
  O5       1.0000 0.26771  0.23958  0.25180  Biso   1.000  O 
  O6       1.0000 0.27070  0.25820  0.50164  Biso   1.000  O 
  O7       1.0000 0.22735  0.76268  0.50363  Biso   1.000  O 
  O8       1.0000 0.22712  0.71614  0.25695  Biso   1.000  O 
  Hf5      1.0000 0.13111  0.02945  0.62962  Biso   1.000  Hf
  Hf6      1.0000 0.13761  0.46656  0.87128  Biso   1.000  Hf
  Hf7      1.0000 0.36625  0.53146  0.62565  Biso   1.000  Hf
  Hf8      1.0000 0.36666  0.96423  0.87199  Biso   1.000  Hf
  O9       1.0000 0.03517  0.36815  0.68911  Biso   1.000  O 
  O10      1.0000 0.03200  0.14239  0.93137  Biso   1.000  O 
  O11      1.0000 0.46664  0.86210  0.69174  Biso   1.000  O 
  O12      1.0000 0.46413  0.63491  0.94327  Biso   1.000  O 
  O13      1.0000 0.26902  0.23307  0.74601  Biso   1.000  O 
  O14      1.0000 0.28961  0.26037  0.98528  Biso   1.000  O 
  O15      1.0000 0.23330  0.78222  0.00015  Biso   1.000  O 
  O16      1.0000 0.23266  0.73583  0.74941  Biso   1.000  O 
  Hf9      1.0000 0.62603  0.02834  0.12479  Biso   1.000  Hf
  Hf10     1.0000 0.62716  0.46018  0.37844  Biso   1.000  Hf
  Hf11     1.0000 0.83806  0.52512  0.12952  Biso   1.000  Hf
  Hf12     1.0000 0.86745  0.96954  0.37244  Biso   1.000  Hf
  O17      1.0000 0.53299  0.36409  0.19339  Biso   1.000  O 
  O18      1.0000 0.53143  0.12788  0.44434  Biso   1.000  O 
  O19      1.0000 0.95977  0.88073  0.18917  Biso   1.000  O 
  O20      1.0000 0.96352  0.64074  0.44917  Biso   1.000  O 
  O21      1.0000 0.75831  0.22692  0.25124  Biso   1.000  O 
  O22      1.0000 0.76815  0.26693  0.49842  Biso   1.000  O 
  O23      1.0000 0.72960  0.76646  0.49921  Biso   1.000  O 
  O24      1.0000 0.72024  0.73449  0.25308  Biso   1.000  O 
  Hf13     1.0000 0.63512  0.02893  0.62343  Biso   1.000  Hf
  Hf14     1.0000 0.62896  0.46285  0.87167  Biso   1.000  Hf
  Hf15     1.0000 0.86446  0.53173  0.62519  Biso   1.000  Hf
  Hf16     1.0000 0.86148  0.96005  0.87767  Biso   1.000  Hf
  O25      1.0000 0.53561  0.36413  0.69185  Biso   1.000  O 
  O26      1.0000 0.53849  0.12839  0.93980  Biso   1.000  O 
  O27      1.0000 0.96479  0.85832  0.70334  Biso   1.000  O 
  O28      1.0000 0.96314  0.63523  0.95885  Biso   1.000  O 
  O29      1.0000 0.77009  0.22877  0.74920  Biso   1.000  O 
  O30      1.0000 0.76488  0.26341  0.99975  Biso   1.000  O 
  O31      1.0000 0.72660  0.75717  0.00071  Biso   1.000  O 
  O32      1.0000 0.72992  0.73022  0.75060  Biso   1.000  O 
  Mg1      1.0000 0.09316  0.64719  0.11885  Biso   1.000  Mg
