data_image0
_cell_length_a       10.2175
_cell_length_b       5.16468
_cell_length_c       10.4842
_cell_angle_alpha    90
_cell_angle_beta     80
_cell_angle_gamma    90

_symmetry_space_group_name_H-M    "P 1"
_symmetry_int_tables_number       1

loop_
  _symmetry_equiv_pos_as_xyz
  'x, y, z'

loop_
  _atom_site_label
  _atom_site_occupancy
  _atom_site_fract_x
  _atom_site_fract_y
  _atom_site_fract_z
  _atom_site_thermal_displace_type
  _atom_site_B_iso_or_equiv
  _atom_site_type_symbol
  Hf1      1.0000 0.13647  0.05483  0.14148  Biso   1.000  Hf
  Hf2      1.0000 0.14976  0.45861  0.39084  Biso   1.000  Hf
  Hf3      1.0000 0.34252  0.55835  0.09648  Biso   1.000  Hf
  Hf4      1.0000 0.35322  0.91030  0.34507  Biso   1.000  Hf
  O1       1.0000 0.02946  0.34844  0.07648  Biso   1.000  O 
  O2       1.0000 0.04076  0.16808  0.32607  Biso   1.000  O 
  O3       1.0000 0.46241  0.83773  0.16717  Biso   1.000  O 
  O4       1.0000 0.48456  0.64676  0.42130  Biso   1.000  O 
  O5       1.0000 0.28106  0.23829  0.23344  Biso   1.000  O 
  O6       1.0000 0.29349  0.23714  0.48101  Biso   1.000  O 
  O7       1.0000 0.21209  0.77275  0.00083  Biso   1.000  O 
  O8       1.0000 0.19846  0.74958  0.24530  Biso   1.000  O 
  Hf5      1.0000 0.15595  0.03900  0.63940  Biso   1.000  Hf
  Hf6      1.0000 0.15222  0.45163  0.88852  Biso   1.000  Hf
  Hf7      1.0000 0.37600  0.53260  0.60316  Biso   1.000  Hf
  Hf8      1.0000 0.37356  0.95156  0.84800  Biso   1.000  Hf
  O9       1.0000 0.05016  0.33047  0.57698  Biso   1.000  O 
  O10      1.0000 0.05339  0.15354  0.82494  Biso   1.000  O 
  O11      1.0000 0.47871  0.82845  0.66904  Biso   1.000  O 
  O12      1.0000 0.48098  0.65870  0.91710  Biso   1.000  O 
  O13      1.0000 0.29313  0.24703  0.73455  Biso   1.000  O 
  O14      1.0000 0.29380  0.24312  0.98125  Biso   1.000  O 
  O15      1.0000 0.23131  0.74544  0.50994  Biso   1.000  O 
  O16      1.0000 0.23840  0.73315  0.75234  Biso   1.000  O 
  Hf9      1.0000 0.64240  0.03843  0.15196  Biso   1.000  Hf
  Hf10     1.0000 0.66275  0.44949  0.40761  Biso   1.000  Hf
  Hf11     1.0000 0.85687  0.54590  0.10610  Biso   1.000  Hf
  Hf12     1.0000 0.86885  0.95052  0.35429  Biso   1.000  Hf
  O17      1.0000 0.52706  0.35125  0.09892  Biso   1.000  O 
  O18      1.0000 0.54601  0.14183  0.33847  Biso   1.000  O 
  O19      1.0000 0.95690  0.84740  0.16660  Biso   1.000  O 
  O20      1.0000 0.97203  0.66255  0.42152  Biso   1.000  O 
  O21      1.0000 0.78182  0.25782  0.24572  Biso   1.000  O 
  O22      1.0000 0.79306  0.22884  0.49637  Biso   1.000  O 
  O23      1.0000 0.71722  0.75906  0.01495  Biso   1.000  O 
  O24      1.0000 0.72447  0.73841  0.26447  Biso   1.000  O 
  Hf13     1.0000 0.65656  0.03489  0.65076  Biso   1.000  Hf
  Hf14     1.0000 0.65299  0.45097  0.90118  Biso   1.000  Hf
  Hf15     1.0000 0.87815  0.53659  0.60658  Biso   1.000  Hf
  Hf16     1.0000 0.87438  0.95014  0.85363  Biso   1.000  Hf
  O25      1.0000 0.55156  0.32889  0.58561  Biso   1.000  O 
  O26      1.0000 0.55233  0.15516  0.83369  Biso   1.000  O 
  O27      1.0000 0.97671  0.83353  0.66933  Biso   1.000  O 
  O28      1.0000 0.97855  0.65266  0.91439  Biso   1.000  O 
  O29      1.0000 0.79209  0.25260  0.74470  Biso   1.000  O 
  O30      1.0000 0.79141  0.23124  0.99255  Biso   1.000  O 
  O31      1.0000 0.73613  0.74721  0.51516  Biso   1.000  O 
  O32      1.0000 0.73729  0.73372  0.76309  Biso   1.000  O 
  Mg1      1.0000 0.43494  0.40558  0.29767  Biso   1.000  Mg
