data_image0
_cell_length_a       10.1496
_cell_length_b       10.2447
_cell_length_c       10.443
_cell_angle_alpha    90
_cell_angle_beta     80
_cell_angle_gamma    90

_symmetry_space_group_name_H-M    "P 1"
_symmetry_int_tables_number       1

loop_
  _symmetry_equiv_pos_as_xyz
  'x, y, z'

loop_
  _atom_site_label
  _atom_site_occupancy
  _atom_site_fract_x
  _atom_site_fract_y
  _atom_site_fract_z
  _atom_site_thermal_displace_type
  _atom_site_B_iso_or_equiv
  _atom_site_type_symbol
  Mg1      1.0000 0.13378  0.01461  0.15135  Biso   1.000  Mg
  Hf1      1.0000 0.13746  0.02134  0.64544  Biso   1.000  Hf
  Hf2      1.0000 0.14007  0.52112  0.14543  Biso   1.000  Hf
  Hf3      1.0000 0.13825  0.52155  0.64692  Biso   1.000  Hf
  Hf4      1.0000 0.63903  0.02104  0.14641  Biso   1.000  Hf
  Hf5      1.0000 0.63730  0.02121  0.64621  Biso   1.000  Hf
  Hf6      1.0000 0.63803  0.52004  0.14559  Biso   1.000  Hf
  Hf7      1.0000 0.63724  0.52139  0.64632  Biso   1.000  Hf
  Hf8      1.0000 0.13853  0.22638  0.39294  Biso   1.000  Hf
  Hf9      1.0000 0.13769  0.22541  0.89972  Biso   1.000  Hf
  Hf10     1.0000 0.14019  0.72918  0.39456  Biso   1.000  Hf
  Hf11     1.0000 0.13898  0.73248  0.89757  Biso   1.000  Hf
  Hf12     1.0000 0.63783  0.22829  0.39588  Biso   1.000  Hf
  Hf13     1.0000 0.63681  0.22954  0.89706  Biso   1.000  Hf
  Hf14     1.0000 0.63729  0.72986  0.39573  Biso   1.000  Hf
  Hf15     1.0000 0.63655  0.72873  0.89730  Biso   1.000  Hf
  Hf16     1.0000 0.35662  0.26569  0.10497  Biso   1.000  Hf
  Hf17     1.0000 0.35779  0.27107  0.60460  Biso   1.000  Hf
  Hf18     1.0000 0.35755  0.77450  0.10394  Biso   1.000  Hf
  Hf19     1.0000 0.35931  0.77257  0.60390  Biso   1.000  Hf
  Hf20     1.0000 0.86459  0.26834  0.10364  Biso   1.000  Hf
  Hf21     1.0000 0.85899  0.27140  0.60377  Biso   1.000  Hf
  Hf22     1.0000 0.86078  0.77271  0.10520  Biso   1.000  Hf
  Hf23     1.0000 0.85909  0.77086  0.60413  Biso   1.000  Hf
  Hf24     1.0000 0.35936  0.47800  0.35351  Biso   1.000  Hf
  Hf25     1.0000 0.35794  0.47829  0.85520  Biso   1.000  Hf
  Hf26     1.0000 0.35639  0.98025  0.35103  Biso   1.000  Hf
  Hf27     1.0000 0.35698  0.98034  0.85708  Biso   1.000  Hf
  Hf28     1.0000 0.85918  0.47925  0.35392  Biso   1.000  Hf
  Hf29     1.0000 0.85921  0.47891  0.85523  Biso   1.000  Hf
  Hf30     1.0000 0.86301  0.97923  0.35189  Biso   1.000  Hf
  Hf31     1.0000 0.85811  0.97884  0.85451  Biso   1.000  Hf
  O1       1.0000 0.03605  0.16701  0.07950  Biso   1.000  O 
  O2       1.0000 0.03317  0.16916  0.58059  Biso   1.000  O 
  O3       1.0000 0.03470  0.66800  0.08009  Biso   1.000  O 
  O4       1.0000 0.03356  0.66796  0.58064  Biso   1.000  O 
  O5       1.0000 0.53545  0.16805  0.07975  Biso   1.000  O 
  O6       1.0000 0.53219  0.16755  0.58008  Biso   1.000  O 
  O7       1.0000 0.53332  0.66663  0.07923  Biso   1.000  O 
  O8       1.0000 0.53289  0.66787  0.57986  Biso   1.000  O 
  O9       1.0000 0.03112  0.08315  0.33535  Biso   1.000  O 
  O10      1.0000 0.03166  0.08188  0.82940  Biso   1.000  O 
  O11      1.0000 0.03357  0.58281  0.32943  Biso   1.000  O 
  O12      1.0000 0.03325  0.58250  0.83121  Biso   1.000  O 
  O13      1.0000 0.53311  0.08253  0.32958  Biso   1.000  O 
  O14      1.0000 0.53411  0.08234  0.82996  Biso   1.000  O 
  O15      1.0000 0.53338  0.58211  0.32960  Biso   1.000  O 
  O16      1.0000 0.53185  0.58328  0.82932  Biso   1.000  O 
  O17      1.0000 0.46476  0.41523  0.17102  Biso   1.000  O 
  O18      1.0000 0.46350  0.41744  0.67100  Biso   1.000  O 
  O19      1.0000 0.46680  0.91711  0.17003  Biso   1.000  O 
  O20      1.0000 0.46399  0.91760  0.67136  Biso   1.000  O 
  O21      1.0000 0.96501  0.41855  0.16993  Biso   1.000  O 
  O22      1.0000 0.96375  0.41842  0.67042  Biso   1.000  O 
  O23      1.0000 0.96136  0.91629  0.17140  Biso   1.000  O 
  O24      1.0000 0.96306  0.91828  0.66968  Biso   1.000  O 
  O25      1.0000 0.46424  0.33268  0.42135  Biso   1.000  O 
  O26      1.0000 0.46471  0.33466  0.92144  Biso   1.000  O 
  O27      1.0000 0.46366  0.83311  0.42070  Biso   1.000  O 
  O28      1.0000 0.46567  0.83481  0.92150  Biso   1.000  O 
  O29      1.0000 0.96395  0.33333  0.42015  Biso   1.000  O 
  O30      1.0000 0.96361  0.33222  0.92031  Biso   1.000  O 
  O31      1.0000 0.96463  0.83094  0.42026  Biso   1.000  O 
  O32      1.0000 0.96224  0.83155  0.91983  Biso   1.000  O 
  O33      1.0000 0.27857  0.12949  0.24326  Biso   1.000  O 
  O34      1.0000 0.27334  0.12788  0.73964  Biso   1.000  O 
  O35      1.0000 0.27609  0.62689  0.23992  Biso   1.000  O 
  O36      1.0000 0.27462  0.62997  0.74129  Biso   1.000  O 
  O37      1.0000 0.77487  0.12865  0.24115  Biso   1.000  O 
  O38      1.0000 0.77485  0.12916  0.74077  Biso   1.000  O 
  O39      1.0000 0.77499  0.62876  0.24070  Biso   1.000  O 
  O40      1.0000 0.77425  0.62866  0.74083  Biso   1.000  O 
  O41      1.0000 0.27412  0.12139  0.49156  Biso   1.000  O 
  O42      1.0000 0.28241  0.12753  0.98412  Biso   1.000  O 
  O43      1.0000 0.27533  0.62146  0.49069  Biso   1.000  O 
  O44      1.0000 0.27391  0.62104  0.99111  Biso   1.000  O 
  O45      1.0000 0.77371  0.12208  0.49134  Biso   1.000  O 
  O46      1.0000 0.77387  0.12088  0.99095  Biso   1.000  O 
  O47      1.0000 0.77459  0.62145  0.49087  Biso   1.000  O 
  O48      1.0000 0.77273  0.62030  0.99089  Biso   1.000  O 
  O49      1.0000 0.22364  0.37948  0.00951  Biso   1.000  O 
  O50      1.0000 0.22245  0.37934  0.50964  Biso   1.000  O 
  O51      1.0000 0.22666  0.87836  0.00631  Biso   1.000  O 
  O52      1.0000 0.22170  0.87910  0.50937  Biso   1.000  O 
  O53      1.0000 0.72504  0.37823  0.00936  Biso   1.000  O 
  O54      1.0000 0.72193  0.37938  0.50973  Biso   1.000  O 
  O55      1.0000 0.72414  0.87882  0.00907  Biso   1.000  O 
  O56      1.0000 0.72308  0.87872  0.50945  Biso   1.000  O 
  O57      1.0000 0.22156  0.37155  0.25907  Biso   1.000  O 
  O58      1.0000 0.22210  0.37092  0.76033  Biso   1.000  O 
  O59      1.0000 0.22586  0.86744  0.26030  Biso   1.000  O 
  O60      1.0000 0.22150  0.87236  0.75817  Biso   1.000  O 
  O61      1.0000 0.72363  0.37092  0.25993  Biso   1.000  O 
  O62      1.0000 0.72224  0.37166  0.75950  Biso   1.000  O 
  O63      1.0000 0.71977  0.87091  0.25979  Biso   1.000  O 
  O64      1.0000 0.72228  0.87099  0.75951  Biso   1.000  O 
