data_image0
_cell_length_a       10.1666
_cell_length_b       10.2799
_cell_length_c       10.5017
_cell_angle_alpha    90
_cell_angle_beta     80
_cell_angle_gamma    90

_symmetry_space_group_name_H-M    "P 1"
_symmetry_int_tables_number       1

loop_
  _symmetry_equiv_pos_as_xyz
  'x, y, z'

loop_
  _atom_site_label
  _atom_site_occupancy
  _atom_site_fract_x
  _atom_site_fract_y
  _atom_site_fract_z
  _atom_site_thermal_displace_type
  _atom_site_B_iso_or_equiv
  _atom_site_type_symbol
  Hf1      1.0000 0.13906  0.02412  0.14638  Biso   1.000  Hf
  Hf2      1.0000 0.14956  0.23221  0.39106  Biso   1.000  Hf
  Hf3      1.0000 0.33747  0.27910  0.09195  Biso   1.000  Hf
  Hf4      1.0000 0.35237  0.47354  0.34745  Biso   1.000  Hf
  O1       1.0000 0.03245  0.16918  0.07726  Biso   1.000  O 
  O2       1.0000 0.04214  0.08139  0.32854  Biso   1.000  O 
  O3       1.0000 0.46155  0.41302  0.17106  Biso   1.000  O 
  O4       1.0000 0.48163  0.32925  0.42268  Biso   1.000  O 
  O5       1.0000 0.28652  0.12100  0.23524  Biso   1.000  O 
  O6       1.0000 0.28888  0.11882  0.48463  Biso   1.000  O 
  O7       1.0000 0.22154  0.38227  0.99681  Biso   1.000  O 
  O8       1.0000 0.19772  0.37547  0.24542  Biso   1.000  O 
  Hf5      1.0000 0.14646  0.01967  0.64316  Biso   1.000  Hf
  Hf6      1.0000 0.14294  0.22588  0.88919  Biso   1.000  Hf
  Hf7      1.0000 0.36920  0.26848  0.60208  Biso   1.000  Hf
  Hf8      1.0000 0.36491  0.47835  0.84853  Biso   1.000  Hf
  O9       1.0000 0.04727  0.16819  0.57819  Biso   1.000  O 
  O10      1.0000 0.04223  0.07844  0.82571  Biso   1.000  O 
  O11      1.0000 0.47163  0.41447  0.66988  Biso   1.000  O 
  O12      1.0000 0.47021  0.33302  0.91971  Biso   1.000  O 
  O13      1.0000 0.28435  0.12546  0.73660  Biso   1.000  O 
  O14      1.0000 0.28258  0.12081  0.98416  Biso   1.000  O 
  O15      1.0000 0.22891  0.37709  0.50882  Biso   1.000  O 
  O16      1.0000 0.23028  0.36768  0.75338  Biso   1.000  O 
  Hf9      1.0000 0.13334  0.52665  0.14291  Biso   1.000  Hf
  Hf10     1.0000 0.13703  0.72469  0.39654  Biso   1.000  Hf
  Hf11     1.0000 0.35535  0.77143  0.10361  Biso   1.000  Hf
  Hf12     1.0000 0.35504  0.96674  0.35574  Biso   1.000  Hf
  O17      1.0000 0.02702  0.67227  0.07784  Biso   1.000  O 
  O18      1.0000 0.03132  0.58447  0.32694  Biso   1.000  O 
  O19      1.0000 0.46302  0.91398  0.17413  Biso   1.000  O 
  O20      1.0000 0.46454  0.82927  0.42230  Biso   1.000  O 
  O21      1.0000 0.27352  0.62860  0.24048  Biso   1.000  O 
  O22      1.0000 0.27522  0.61995  0.48988  Biso   1.000  O 
  O23      1.0000 0.21710  0.88092  0.01037  Biso   1.000  O 
  O24      1.0000 0.21915  0.86810  0.26005  Biso   1.000  O 
  Hf13     1.0000 0.14356  0.52034  0.64367  Biso   1.000  Hf
  Hf14     1.0000 0.14156  0.72740  0.89458  Biso   1.000  Hf
  Hf15     1.0000 0.36293  0.76802  0.60383  Biso   1.000  Hf
  Hf16     1.0000 0.36309  0.97488  0.85278  Biso   1.000  Hf
  O25      1.0000 0.03378  0.66403  0.57856  Biso   1.000  O 
  O26      1.0000 0.04053  0.57947  0.82850  Biso   1.000  O 
  O27      1.0000 0.46729  0.91399  0.67224  Biso   1.000  O 
  O28      1.0000 0.47042  0.83077  0.92086  Biso   1.000  O 
  O29      1.0000 0.28049  0.62604  0.73880  Biso   1.000  O 
  O30      1.0000 0.28242  0.62132  0.98678  Biso   1.000  O 
  O31      1.0000 0.22238  0.87535  0.50993  Biso   1.000  O 
  O32      1.0000 0.22558  0.86863  0.75792  Biso   1.000  O 
  Hf17     1.0000 0.64296  0.01851  0.14851  Biso   1.000  Hf
  Hf18     1.0000 0.66027  0.22659  0.40966  Biso   1.000  Hf
  Hf19     1.0000 0.85889  0.27201  0.10609  Biso   1.000  Hf
  Hf20     1.0000 0.86331  0.47639  0.35376  Biso   1.000  Hf
  O33      1.0000 0.52855  0.17355  0.09244  Biso   1.000  O 
  O34      1.0000 0.54020  0.08121  0.33370  Biso   1.000  O 
  O35      1.0000 0.95628  0.42359  0.16731  Biso   1.000  O 
  O36      1.0000 0.96925  0.33302  0.42215  Biso   1.000  O 
  O37      1.0000 0.78083  0.12698  0.24538  Biso   1.000  O 
  O38      1.0000 0.79012  0.11535  0.49690  Biso   1.000  O 
  O39      1.0000 0.71876  0.37891  0.01414  Biso   1.000  O 
  O40      1.0000 0.72144  0.36706  0.26410  Biso   1.000  O 
  Hf21     1.0000 0.64820  0.01754  0.65024  Biso   1.000  Hf
  Hf22     1.0000 0.64425  0.22803  0.90045  Biso   1.000  Hf
  Hf23     1.0000 0.87329  0.26933  0.60757  Biso   1.000  Hf
  Hf24     1.0000 0.86644  0.47644  0.85537  Biso   1.000  Hf
  O41      1.0000 0.54499  0.16418  0.58345  Biso   1.000  O 
  O42      1.0000 0.54279  0.07998  0.83332  Biso   1.000  O 
  O43      1.0000 0.97075  0.41689  0.67243  Biso   1.000  O 
  O44      1.0000 0.96877  0.32651  0.91741  Biso   1.000  O 
  O45      1.0000 0.78391  0.12757  0.74457  Biso   1.000  O 
  O46      1.0000 0.78185  0.11714  0.99286  Biso   1.000  O 
  O47      1.0000 0.73254  0.37502  0.51554  Biso   1.000  O 
  O48      1.0000 0.72912  0.36885  0.76312  Biso   1.000  O 
  Hf25     1.0000 0.63348  0.52092  0.14994  Biso   1.000  Hf
  Hf26     1.0000 0.63723  0.72320  0.39674  Biso   1.000  Hf
  Hf27     1.0000 0.85400  0.77178  0.10502  Biso   1.000  Hf
  Hf28     1.0000 0.86195  0.97499  0.35491  Biso   1.000  Hf
  O49      1.0000 0.52690  0.66441  0.07923  Biso   1.000  O 
  O50      1.0000 0.53081  0.57852  0.33083  Biso   1.000  O 
  O51      1.0000 0.96022  0.91715  0.17177  Biso   1.000  O 
  O52      1.0000 0.96460  0.83037  0.42189  Biso   1.000  O 
  O53      1.0000 0.77232  0.62886  0.24174  Biso   1.000  O 
  O54      1.0000 0.77635  0.61805  0.49056  Biso   1.000  O 
  O55      1.0000 0.71547  0.87835  0.01185  Biso   1.000  O 
  O56      1.0000 0.71938  0.87120  0.26140  Biso   1.000  O 
  Hf29     1.0000 0.64352  0.51967  0.64702  Biso   1.000  Hf
  Hf30     1.0000 0.64227  0.72415  0.89674  Biso   1.000  Hf
  Hf31     1.0000 0.86186  0.76919  0.60374  Biso   1.000  Hf
  Hf32     1.0000 0.86189  0.97556  0.85359  Biso   1.000  Hf
  O57      1.0000 0.53606  0.66416  0.57975  Biso   1.000  O 
  O58      1.0000 0.53837  0.58112  0.82690  Biso   1.000  O 
  O59      1.0000 0.96498  0.91609  0.66973  Biso   1.000  O 
  O60      1.0000 0.96807  0.83073  0.91909  Biso   1.000  O 
  O61      1.0000 0.78018  0.62629  0.74114  Biso   1.000  O 
  O62      1.0000 0.78097  0.61831  0.99051  Biso   1.000  O 
  O63      1.0000 0.72293  0.87603  0.51070  Biso   1.000  O 
  O64      1.0000 0.72535  0.86816  0.76076  Biso   1.000  O 
  Mg1      1.0000 0.45375  0.22686  0.27631  Biso   1.000  Mg
