data_image0
_cell_length_a       5.04303
_cell_length_b       10.3832
_cell_length_c       10.0686
_cell_angle_alpha    90
_cell_angle_beta     90
_cell_angle_gamma    90

_symmetry_space_group_name_H-M    "P 1"
_symmetry_int_tables_number       1

loop_
  _symmetry_equiv_pos_as_xyz
  'x, y, z'

loop_
  _atom_site_label
  _atom_site_occupancy
  _atom_site_fract_x
  _atom_site_fract_y
  _atom_site_fract_z
  _atom_site_thermal_displace_type
  _atom_site_B_iso_or_equiv
  _atom_site_type_symbol
  Hf1      1.0000 0.24619  0.99518  0.13439  Biso   1.000  Hf
  Hf2      1.0000 0.24583  0.21820  0.39912  Biso   1.000  Hf
  Hf3      1.0000 0.86435  0.26411  0.06626  Biso   1.000  Hf
  Hf4      1.0000 0.70959  0.46469  0.37422  Biso   1.000  Hf
  O1       1.0000 0.05739  0.16980  0.21064  Biso   1.000  O 
  O2       1.0000 0.05345  0.04839  0.45062  Biso   1.000  O 
  O3       1.0000 0.91628  0.42175  0.18296  Biso   1.000  O 
  O4       1.0000 0.90536  0.30335  0.45036  Biso   1.000  O 
  O5       1.0000 0.49165  0.09933  0.26245  Biso   1.000  O 
  O6       1.0000 0.53090  0.11738  0.51167  Biso   1.000  O 
  O7       1.0000 0.44570  0.36615  0.50814  Biso   1.000  O 
  O8       1.0000 0.40049  0.37199  0.26878  Biso   1.000  O 
  Hf5      1.0000 0.24398  0.99727  0.62943  Biso   1.000  Hf
  Hf6      1.0000 0.24824  0.22143  0.86501  Biso   1.000  Hf
  Hf7      1.0000 0.71852  0.25665  0.63851  Biso   1.000  Hf
  Hf8      1.0000 0.69610  0.47580  0.86319  Biso   1.000  Hf
  O9       1.0000 0.06988  0.16906  0.67839  Biso   1.000  O 
  O10      1.0000 0.01476  0.05872  0.95982  Biso   1.000  O 
  O11      1.0000 0.88185  0.43605  0.67450  Biso   1.000  O 
  O12      1.0000 0.86147  0.28855  0.86531  Biso   1.000  O 
  O13      1.0000 0.51507  0.10021  0.75671  Biso   1.000  O 
  O14      1.0000 0.53807  0.13146  0.00644  Biso   1.000  O 
  O15      1.0000 0.51727  0.38783  0.00397  Biso   1.000  O 
  O16      1.0000 0.41127  0.36354  0.74981  Biso   1.000  O 
  Hf9      1.0000 0.26292  0.51415  0.12383  Biso   1.000  Hf
  Hf10     1.0000 0.24814  0.72084  0.37672  Biso   1.000  Hf
  Hf11     1.0000 0.72287  0.75839  0.12965  Biso   1.000  Hf
  Hf12     1.0000 0.70997  0.97537  0.38204  Biso   1.000  Hf
  O17      1.0000 0.06495  0.67665  0.19340  Biso   1.000  O 
  O18      1.0000 0.05231  0.55432  0.43691  Biso   1.000  O 
  O19      1.0000 0.91017  0.92458  0.20404  Biso   1.000  O 
  O20      1.0000 0.91252  0.80397  0.44973  Biso   1.000  O 
  O21      1.0000 0.54056  0.60936  0.24746  Biso   1.000  O 
  O22      1.0000 0.51770  0.61816  0.49725  Biso   1.000  O 
  O23      1.0000 0.44258  0.86862  0.50163  Biso   1.000  O 
  O24      1.0000 0.44594  0.85337  0.25200  Biso   1.000  O 
  Hf13     1.0000 0.23720  0.50474  0.61861  Biso   1.000  Hf
  Hf14     1.0000 0.23111  0.71600  0.87485  Biso   1.000  Hf
  Hf15     1.0000 0.70796  0.75365  0.62552  Biso   1.000  Hf
  Hf16     1.0000 0.69423  0.96428  0.88356  Biso   1.000  Hf
  O25      1.0000 0.04082  0.67110  0.69666  Biso   1.000  O 
  O26      1.0000 0.04098  0.53905  0.94041  Biso   1.000  O 
  O27      1.0000 0.90637  0.91881  0.70541  Biso   1.000  O 
  O28      1.0000 0.90220  0.79812  0.95469  Biso   1.000  O 
  O29      1.0000 0.50512  0.60816  0.74529  Biso   1.000  O 
  O30      1.0000 0.49808  0.61311  0.99561  Biso   1.000  O 
  O31      1.0000 0.45905  0.88239  0.00285  Biso   1.000  O 
  O32      1.0000 0.43460  0.85096  0.75356  Biso   1.000  O 
  Mg1      1.0000 0.38370  0.24767  0.13701  Biso   1.000  Mg
