data_image0
_cell_length_a       10.0182
_cell_length_b       10.1586
_cell_length_c       4.97943
_cell_angle_alpha    90
_cell_angle_beta     90
_cell_angle_gamma    90

_symmetry_space_group_name_H-M    "P 1"
_symmetry_int_tables_number       1

loop_
  _symmetry_equiv_pos_as_xyz
  'x, y, z'

loop_
  _atom_site_label
  _atom_site_occupancy
  _atom_site_fract_x
  _atom_site_fract_y
  _atom_site_fract_z
  _atom_site_thermal_displace_type
  _atom_site_B_iso_or_equiv
  _atom_site_type_symbol
  Mg1      1.0000 0.12490  0.99982  0.25050  Biso   1.000  Mg
  Hf1      1.0000 0.12488  0.49982  0.25052  Biso   1.000  Hf
  Hf2      1.0000 0.62491  0.99982  0.25051  Biso   1.000  Hf
  Hf3      1.0000 0.62487  0.49981  0.25053  Biso   1.000  Hf
  Hf4      1.0000 0.12487  0.24749  0.75055  Biso   1.000  Hf
  Hf5      1.0000 0.12490  0.75215  0.75053  Biso   1.000  Hf
  Hf6      1.0000 0.62487  0.24855  0.75055  Biso   1.000  Hf
  Hf7      1.0000 0.62490  0.75108  0.75054  Biso   1.000  Hf
  Hf8      1.0000 0.37305  0.24841  0.24969  Biso   1.000  Hf
  Hf9      1.0000 0.37309  0.75124  0.25139  Biso   1.000  Hf
  Hf10     1.0000 0.87667  0.24841  0.25140  Biso   1.000  Hf
  Hf11     1.0000 0.87669  0.75123  0.24967  Biso   1.000  Hf
  Hf12     1.0000 0.36872  0.99981  0.75050  Biso   1.000  Hf
  Hf13     1.0000 0.37520  0.49982  0.75052  Biso   1.000  Hf
  Hf14     1.0000 0.88111  0.99983  0.75049  Biso   1.000  Hf
  Hf15     1.0000 0.87457  0.49982  0.75052  Biso   1.000  Hf
  O1       1.0000 0.99518  0.14257  0.99026  Biso   1.000  O 
  O2       1.0000 0.00090  0.64056  0.00334  Biso   1.000  O 
  O3       1.0000 0.50122  0.14496  0.00522  Biso   1.000  O 
  O4       1.0000 0.50026  0.64478  0.00012  Biso   1.000  O 
  O5       1.0000 0.99914  0.11204  0.49789  Biso   1.000  O 
  O6       1.0000 0.99973  0.60751  0.50232  Biso   1.000  O 
  O7       1.0000 0.50070  0.10438  0.50467  Biso   1.000  O 
  O8       1.0000 0.49922  0.60482  0.49999  Biso   1.000  O 
  O9       1.0000 0.00092  0.35907  0.49770  Biso   1.000  O 
  O10      1.0000 0.99521  0.85707  0.51076  Biso   1.000  O 
  O11      1.0000 0.50027  0.35487  0.50092  Biso   1.000  O 
  O12      1.0000 0.50125  0.85469  0.49588  Biso   1.000  O 
  O13      1.0000 0.99973  0.39213  0.99872  Biso   1.000  O 
  O14      1.0000 0.99915  0.88759  0.00313  Biso   1.000  O 
  O15      1.0000 0.49921  0.39483  0.00106  Biso   1.000  O 
  O16      1.0000 0.50076  0.89527  0.99643  Biso   1.000  O 
  O17      1.0000 0.25454  0.14257  0.51077  Biso   1.000  O 
  O18      1.0000 0.24884  0.64057  0.49770  Biso   1.000  O 
  O19      1.0000 0.74850  0.14495  0.49583  Biso   1.000  O 
  O20      1.0000 0.74949  0.64477  0.50092  Biso   1.000  O 
  O21      1.0000 0.25058  0.11206  0.00314  Biso   1.000  O 
  O22      1.0000 0.25004  0.60751  0.99871  Biso   1.000  O 
  O23      1.0000 0.74900  0.10437  0.99638  Biso   1.000  O 
  O24      1.0000 0.75053  0.60481  0.00105  Biso   1.000  O 
  O25      1.0000 0.24882  0.35908  0.00334  Biso   1.000  O 
  O26      1.0000 0.25458  0.85707  0.99028  Biso   1.000  O 
  O27      1.0000 0.74947  0.35486  0.00009  Biso   1.000  O 
  O28      1.0000 0.74851  0.85468  0.00523  Biso   1.000  O 
  O29      1.0000 0.25004  0.39214  0.50231  Biso   1.000  O 
  O30      1.0000 0.25062  0.88760  0.49792  Biso   1.000  O 
  O31      1.0000 0.75056  0.39483  0.49996  Biso   1.000  O 
  O32      1.0000 0.74904  0.89526  0.50468  Biso   1.000  O 
