data_image0
_cell_length_a       10.0655
_cell_length_b       10.5395
_cell_length_c       5.06835
_cell_angle_alpha    90
_cell_angle_beta     90
_cell_angle_gamma    80

_symmetry_space_group_name_H-M    "P 1"
_symmetry_int_tables_number       1

loop_
  _symmetry_equiv_pos_as_xyz
  'x, y, z'

loop_
  _atom_site_label
  _atom_site_occupancy
  _atom_site_fract_x
  _atom_site_fract_y
  _atom_site_fract_z
  _atom_site_thermal_displace_type
  _atom_site_B_iso_or_equiv
  _atom_site_type_symbol
  Hf1      1.0000 0.13638  0.03363  0.22427  Biso   1.000  Hf
  Hf2      1.0000 0.12069  0.27918  0.78197  Biso   1.000  Hf
  Hf3      1.0000 0.38653  0.23175  0.22969  Biso   1.000  Hf
  Hf4      1.0000 0.30270  0.99165  0.75622  Biso   1.000  Hf
  O1       1.0000 0.00795  0.20630  0.06058  Biso   1.000  O 
  O2       1.0000 0.96277  0.06880  0.44525  Biso   1.000  O 
  O3       1.0000 0.94214  0.31906  0.55497  Biso   1.000  O 
  O4       1.0000 0.98647  0.45379  0.97777  Biso   1.000  O 
  O5       1.0000 0.20276  0.19446  0.44068  Biso   1.000  O 
  O6       1.0000 0.25204  0.12514  0.95919  Biso   1.000  O 
  O7       1.0000 0.23199  0.37356  0.04206  Biso   1.000  O 
  O8       1.0000 0.16960  0.44217  0.53845  Biso   1.000  O 
  Hf5      1.0000 0.09479  0.57316  0.21759  Biso   1.000  Hf
  Hf6      1.0000 0.07293  0.80288  0.77078  Biso   1.000  Hf
  Hf7      1.0000 0.33410  0.74482  0.23252  Biso   1.000  Hf
  Hf8      1.0000 0.33668  0.48809  0.73608  Biso   1.000  Hf
  O9       1.0000 0.96324  0.71448  0.04219  Biso   1.000  O 
  O10      1.0000 0.92298  0.57620  0.44957  Biso   1.000  O 
  O11      1.0000 0.90290  0.82632  0.54466  Biso   1.000  O 
  O12      1.0000 0.94478  0.96366  0.94754  Biso   1.000  O 
  O13      1.0000 0.16990  0.70161  0.44575  Biso   1.000  O 
  O14      1.0000 0.21294  0.63950  0.94596  Biso   1.000  O 
  O15      1.0000 0.19626  0.88459  0.03956  Biso   1.000  O 
  O16      1.0000 0.13959  0.95061  0.55125  Biso   1.000  O 
  Hf9      1.0000 0.63390  0.01099  0.21984  Biso   1.000  Hf
  Hf10     1.0000 0.61162  0.25103  0.80879  Biso   1.000  Hf
  Hf11     1.0000 0.82124  0.22389  0.29345  Biso   1.000  Hf
  Hf12     1.0000 0.78064  0.98582  0.71302  Biso   1.000  Hf
  O17      1.0000 0.49833  0.11507  0.91941  Biso   1.000  O 
  O18      1.0000 0.45570  0.05796  0.41657  Biso   1.000  O 
  O19      1.0000 0.43514  0.31593  0.56774  Biso   1.000  O 
  O20      1.0000 0.47468  0.38661  0.02144  Biso   1.000  O 
  O21      1.0000 0.71516  0.11449  0.53188  Biso   1.000  O 
  O22      1.0000 0.77289  0.10006  0.00398  Biso   1.000  O 
  O23      1.0000 0.74292  0.36347  0.00694  Biso   1.000  O 
  O24      1.0000 0.69121  0.37738  0.51779  Biso   1.000  O 
  Hf13     1.0000 0.59652  0.50031  0.22066  Biso   1.000  Hf
  Hf14     1.0000 0.57438  0.75906  0.78129  Biso   1.000  Hf
  Hf15     1.0000 0.79800  0.73778  0.28625  Biso   1.000  Hf
  Hf16     1.0000 0.82621  0.48420  0.72371  Biso   1.000  Hf
  O25      1.0000 0.46382  0.63425  0.96778  Biso   1.000  O 
  O26      1.0000 0.42001  0.56652  0.43101  Biso   1.000  O 
  O27      1.0000 0.40142  0.81947  0.56352  Biso   1.000  O 
  O28      1.0000 0.44564  0.88060  0.03569  Biso   1.000  O 
  O29      1.0000 0.67027  0.62834  0.50111  Biso   1.000  O 
  O30      1.0000 0.71986  0.61072  0.00423  Biso   1.000  O 
  O31      1.0000 0.69355  0.86544  0.99388  Biso   1.000  O 
  O32      1.0000 0.64921  0.88005  0.49192  Biso   1.000  O 
  Mg1      1.0000 0.07068  0.33371  0.28058  Biso   1.000  Mg
