data_image0
_cell_length_a       9.9669
_cell_length_b       10.1847
_cell_length_c       5.20008
_cell_angle_alpha    90
_cell_angle_beta     90
_cell_angle_gamma    90

_symmetry_space_group_name_H-M    "P 1"
_symmetry_int_tables_number       1

loop_
  _symmetry_equiv_pos_as_xyz
  'x, y, z'

loop_
  _atom_site_label
  _atom_site_occupancy
  _atom_site_fract_x
  _atom_site_fract_y
  _atom_site_fract_z
  _atom_site_thermal_displace_type
  _atom_site_B_iso_or_equiv
  _atom_site_type_symbol
  Mn1      1.0000 0.13361  0.02395  0.35620  Biso   1.000  Mn
  Hf1      1.0000 0.14015  0.52160  0.34435  Biso   1.000  Hf
  Hf2      1.0000 0.14018  0.22653  0.84760  Biso   1.000  Hf
  Hf3      1.0000 0.14054  0.73378  0.84058  Biso   1.000  Hf
  Hf4      1.0000 0.35839  0.26882  0.34645  Biso   1.000  Hf
  Hf5      1.0000 0.35704  0.77640  0.34029  Biso   1.000  Hf
  Hf6      1.0000 0.36160  0.48074  0.84431  Biso   1.000  Hf
  Hf7      1.0000 0.35688  0.97993  0.84445  Biso   1.000  Hf
  Hf8      1.0000 0.63794  0.02184  0.15312  Biso   1.000  Hf
  Hf9      1.0000 0.63839  0.52211  0.16165  Biso   1.000  Hf
  Hf10     1.0000 0.63873  0.23093  0.65793  Biso   1.000  Hf
  Hf11     1.0000 0.63816  0.73107  0.65715  Biso   1.000  Hf
  Hf12     1.0000 0.86426  0.26862  0.16093  Biso   1.000  Hf
  Hf13     1.0000 0.86470  0.77300  0.15499  Biso   1.000  Hf
  Hf14     1.0000 0.86209  0.48010  0.66071  Biso   1.000  Hf
  Hf15     1.0000 0.86365  0.98242  0.65080  Biso   1.000  Hf
  O1       1.0000 0.03331  0.15289  0.16170  Biso   1.000  O 
  O2       1.0000 0.03330  0.66521  0.16586  Biso   1.000  O 
  O3       1.0000 0.03714  0.08965  0.63369  Biso   1.000  O 
  O4       1.0000 0.03398  0.58569  0.66883  Biso   1.000  O 
  O5       1.0000 0.46508  0.41734  0.17454  Biso   1.000  O 
  O6       1.0000 0.46783  0.91607  0.16803  Biso   1.000  O 
  O7       1.0000 0.46484  0.33267  0.67373  Biso   1.000  O 
  O8       1.0000 0.46354  0.83527  0.67083  Biso   1.000  O 
  O9       1.0000 0.27372  0.12199  0.59258  Biso   1.000  O 
  O10      1.0000 0.27718  0.62735  0.59032  Biso   1.000  O 
  O11      1.0000 0.26795  0.11841  0.11049  Biso   1.000  O 
  O12      1.0000 0.27690  0.62680  0.08958  Biso   1.000  O 
  O13      1.0000 0.22360  0.37533  0.59213  Biso   1.000  O 
  O14      1.0000 0.21805  0.88204  0.57792  Biso   1.000  O 
  O15      1.0000 0.22338  0.37338  0.09037  Biso   1.000  O 
  O16      1.0000 0.22014  0.87720  0.08777  Biso   1.000  O 
  O17      1.0000 0.53313  0.16728  0.33151  Biso   1.000  O 
  O18      1.0000 0.53373  0.67021  0.32913  Biso   1.000  O 
  O19      1.0000 0.53084  0.08725  0.83371  Biso   1.000  O 
  O20      1.0000 0.53595  0.58342  0.82866  Biso   1.000  O 
  O21      1.0000 0.96882  0.41369  0.33548  Biso   1.000  O 
  O22      1.0000 0.98182  0.92183  0.32697  Biso   1.000  O 
  O23      1.0000 0.96875  0.33230  0.83487  Biso   1.000  O 
  O24      1.0000 0.96799  0.83853  0.82860  Biso   1.000  O 
  O25      1.0000 0.77864  0.12513  0.90457  Biso   1.000  O 
  O26      1.0000 0.77870  0.62762  0.91416  Biso   1.000  O 
  O27      1.0000 0.77579  0.12670  0.40698  Biso   1.000  O 
  O28      1.0000 0.77788  0.62723  0.41316  Biso   1.000  O 
  O29      1.0000 0.72512  0.37514  0.91462  Biso   1.000  O 
  O30      1.0000 0.72408  0.87664  0.90694  Biso   1.000  O 
  O31      1.0000 0.72444  0.37701  0.41305  Biso   1.000  O 
  O32      1.0000 0.73143  0.87788  0.40750  Biso   1.000  O 
