data_image0
_cell_length_a       9.99423
_cell_length_b       10.1895
_cell_length_c       9.99421
_cell_angle_alpha    90
_cell_angle_beta     90
_cell_angle_gamma    90

_symmetry_space_group_name_H-M    "P 1"
_symmetry_int_tables_number       1

loop_
  _symmetry_equiv_pos_as_xyz
  'x, y, z'

loop_
  _atom_site_label
  _atom_site_occupancy
  _atom_site_fract_x
  _atom_site_fract_y
  _atom_site_fract_z
  _atom_site_thermal_displace_type
  _atom_site_B_iso_or_equiv
  _atom_site_type_symbol
  Mn1      1.0000 0.12409  0.02035  0.12519  Biso   1.000  Mn
  Hf1      1.0000 0.11945  0.00486  0.62518  Biso   1.000  Hf
  Hf2      1.0000 0.12405  0.49572  0.12522  Biso   1.000  Hf
  Hf3      1.0000 0.11948  0.50041  0.62520  Biso   1.000  Hf
  Hf4      1.0000 0.62408  0.00490  0.12520  Biso   1.000  Hf
  Hf5      1.0000 0.61952  0.99780  0.62519  Biso   1.000  Hf
  Hf6      1.0000 0.62402  0.50045  0.12521  Biso   1.000  Hf
  Hf7      1.0000 0.61947  0.50288  0.62518  Biso   1.000  Hf
  Hf8      1.0000 0.12365  0.25062  0.37650  Biso   1.000  Hf
  Hf9      1.0000 0.11527  0.25060  0.87385  Biso   1.000  Hf
  Hf10     1.0000 0.11724  0.74652  0.37293  Biso   1.000  Hf
  Hf11     1.0000 0.12164  0.74651  0.87751  Biso   1.000  Hf
  Hf12     1.0000 0.62238  0.24849  0.37663  Biso   1.000  Hf
  Hf13     1.0000 0.61654  0.24846  0.87369  Biso   1.000  Hf
  Hf14     1.0000 0.61773  0.75316  0.37326  Biso   1.000  Hf
  Hf15     1.0000 0.62119  0.75312  0.87713  Biso   1.000  Hf
  Hf16     1.0000 0.37534  0.25064  0.12709  Biso   1.000  Hf
  Hf17     1.0000 0.37091  0.24846  0.62582  Biso   1.000  Hf
  Hf18     1.0000 0.37176  0.74657  0.12072  Biso   1.000  Hf
  Hf19     1.0000 0.36756  0.75315  0.62115  Biso   1.000  Hf
  Hf20     1.0000 0.87274  0.25066  0.12327  Biso   1.000  Hf
  Hf21     1.0000 0.86801  0.24848  0.62453  Biso   1.000  Hf
  Hf22     1.0000 0.87627  0.74653  0.12975  Biso   1.000  Hf
  Hf23     1.0000 0.87137  0.75313  0.62922  Biso   1.000  Hf
  Hf24     1.0000 0.36405  0.99986  0.36736  Biso   1.000  Hf
  Hf25     1.0000 0.36849  0.99565  0.87389  Biso   1.000  Hf
  Hf26     1.0000 0.37344  0.50184  0.37689  Biso   1.000  Hf
  Hf27     1.0000 0.36999  0.50055  0.87239  Biso   1.000  Hf
  Hf28     1.0000 0.87053  0.99569  0.37643  Biso   1.000  Hf
  Hf29     1.0000 0.87498  0.99981  0.88300  Biso   1.000  Hf
  Hf30     1.0000 0.86895  0.50051  0.37798  Biso   1.000  Hf
  Hf31     1.0000 0.86550  0.50181  0.87348  Biso   1.000  Hf
  O1       1.0000 0.98645  0.14851  0.99554  Biso   1.000  O 
  O2       1.0000 0.98806  0.14685  0.48992  Biso   1.000  O 
  O3       1.0000 0.00097  0.65017  0.00103  Biso   1.000  O 
  O4       1.0000 0.99375  0.64687  0.50140  Biso   1.000  O 
  O5       1.0000 0.48084  0.14685  0.99251  Biso   1.000  O 
  O6       1.0000 0.48812  0.14778  0.49262  Biso   1.000  O 
  O7       1.0000 0.49224  0.64688  0.99833  Biso   1.000  O 
  O8       1.0000 0.49355  0.64776  0.49810  Biso   1.000  O 
  O9       1.0000 0.00769  0.09104  0.24052  Biso   1.000  O 
  O10      1.0000 0.99718  0.10518  0.74698  Biso   1.000  O 
  O11      1.0000 0.99834  0.59648  0.24975  Biso   1.000  O 
  O12      1.0000 0.99480  0.60368  0.75027  Biso   1.000  O 
  O13      1.0000 0.50114  0.10521  0.24633  Biso   1.000  O 
  O14      1.0000 0.49777  0.10378  0.74572  Biso   1.000  O 
  O15      1.0000 0.49781  0.60372  0.24872  Biso   1.000  O 
  O16      1.0000 0.49471  0.60480  0.74881  Biso   1.000  O 
  O17      1.0000 0.00045  0.34654  0.24768  Biso   1.000  O 
  O18      1.0000 0.99153  0.35406  0.74913  Biso   1.000  O 
  O19      1.0000 0.96913  0.84038  0.27871  Biso   1.000  O 
  O20      1.0000 0.98771  0.85394  0.77042  Biso   1.000  O 
  O21      1.0000 0.49895  0.35409  0.25199  Biso   1.000  O 
  O22      1.0000 0.49124  0.35451  0.75222  Biso   1.000  O 
  O23      1.0000 0.47761  0.85396  0.25566  Biso   1.000  O 
  O24      1.0000 0.49089  0.85292  0.75261  Biso   1.000  O 
  O25      1.0000 0.98949  0.39824  0.99871  Biso   1.000  O 
  O26      1.0000 0.99781  0.39657  0.49851  Biso   1.000  O 
  O27      1.0000 0.02432  0.90745  0.02434  Biso   1.000  O 
  O28      1.0000 0.99404  0.89706  0.51654  Biso   1.000  O 
  O29      1.0000 0.49840  0.39664  0.00243  Biso   1.000  O 
  O30      1.0000 0.49727  0.39687  0.50189  Biso   1.000  O 
  O31      1.0000 0.50752  0.89708  0.99864  Biso   1.000  O 
  O32      1.0000 0.49583  0.89857  0.50033  Biso   1.000  O 
  O33      1.0000 0.25251  0.14856  0.25484  Biso   1.000  O 
  O34      1.0000 0.25086  0.14687  0.76045  Biso   1.000  O 
  O35      1.0000 0.24708  0.65014  0.24940  Biso   1.000  O 
  O36      1.0000 0.24518  0.64690  0.74898  Biso   1.000  O 
  O37      1.0000 0.75811  0.14687  0.25782  Biso   1.000  O 
  O38      1.0000 0.75076  0.14775  0.75769  Biso   1.000  O 
  O39      1.0000 0.74666  0.64689  0.25206  Biso   1.000  O 
  O40      1.0000 0.74540  0.64774  0.75228  Biso   1.000  O 
  O41      1.0000 0.24047  0.09106  0.00988  Biso   1.000  O 
  O42      1.0000 0.24172  0.10517  0.50338  Biso   1.000  O 
  O43      1.0000 0.24971  0.59651  0.00068  Biso   1.000  O 
  O44      1.0000 0.24413  0.60369  0.50014  Biso   1.000  O 
  O45      1.0000 0.74700  0.10522  0.00403  Biso   1.000  O 
  O46      1.0000 0.74114  0.10379  0.50458  Biso   1.000  O 
  O47      1.0000 0.75023  0.60373  0.00170  Biso   1.000  O 
  O48      1.0000 0.74423  0.60480  0.50158  Biso   1.000  O 
  O49      1.0000 0.24755  0.34656  0.00283  Biso   1.000  O 
  O50      1.0000 0.24736  0.35406  0.50131  Biso   1.000  O 
  O51      1.0000 0.26995  0.84027  0.97152  Biso   1.000  O 
  O52      1.0000 0.25135  0.85392  0.47983  Biso   1.000  O 
  O53      1.0000 0.73992  0.35402  0.99841  Biso   1.000  O 
  O54      1.0000 0.74765  0.35450  0.49816  Biso   1.000  O 
  O55      1.0000 0.76144  0.85388  0.99466  Biso   1.000  O 
  O56      1.0000 0.74814  0.85293  0.49771  Biso   1.000  O 
  O57      1.0000 0.24936  0.39828  0.25175  Biso   1.000  O 
  O58      1.0000 0.24107  0.39658  0.75195  Biso   1.000  O 
  O59      1.0000 0.22401  0.90742  0.22589  Biso   1.000  O 
  O60      1.0000 0.24503  0.89711  0.73371  Biso   1.000  O 
  O61      1.0000 0.74961  0.39659  0.24801  Biso   1.000  O 
  O62      1.0000 0.74162  0.39686  0.74850  Biso   1.000  O 
  O63      1.0000 0.73153  0.89708  0.25165  Biso   1.000  O 
  O64      1.0000 0.74322  0.89854  0.75000  Biso   1.000  O 
