data_image0
_cell_length_a       10.0786
_cell_length_b       10.2546
_cell_length_c       10.4086
_cell_angle_alpha    90
_cell_angle_beta     80
_cell_angle_gamma    90

_symmetry_space_group_name_H-M    "P 1"
_symmetry_int_tables_number       1

loop_
  _symmetry_equiv_pos_as_xyz
  'x, y, z'

loop_
  _atom_site_label
  _atom_site_occupancy
  _atom_site_fract_x
  _atom_site_fract_y
  _atom_site_fract_z
  _atom_site_thermal_displace_type
  _atom_site_B_iso_or_equiv
  _atom_site_type_symbol
  Mn1      1.0000 0.13573  0.02421  0.15067  Biso   1.000  Mn
  Hf1      1.0000 0.13517  0.02198  0.64616  Biso   1.000  Hf
  Hf2      1.0000 0.13913  0.52176  0.14643  Biso   1.000  Hf
  Hf3      1.0000 0.13553  0.52222  0.64668  Biso   1.000  Hf
  Hf4      1.0000 0.63792  0.02217  0.14571  Biso   1.000  Hf
  Hf5      1.0000 0.63406  0.02133  0.64669  Biso   1.000  Hf
  Hf6      1.0000 0.63818  0.52265  0.14570  Biso   1.000  Hf
  Hf7      1.0000 0.63538  0.52221  0.64711  Biso   1.000  Hf
  Hf8      1.0000 0.13734  0.22881  0.39338  Biso   1.000  Hf
  Hf9      1.0000 0.13331  0.22609  0.90025  Biso   1.000  Hf
  Hf10     1.0000 0.13674  0.73069  0.39507  Biso   1.000  Hf
  Hf11     1.0000 0.13425  0.73121  0.89741  Biso   1.000  Hf
  Hf12     1.0000 0.63639  0.22887  0.39603  Biso   1.000  Hf
  Hf13     1.0000 0.63317  0.22983  0.89703  Biso   1.000  Hf
  Hf14     1.0000 0.63804  0.73052  0.39585  Biso   1.000  Hf
  Hf15     1.0000 0.63253  0.72935  0.89864  Biso   1.000  Hf
  Hf16     1.0000 0.35868  0.26962  0.10530  Biso   1.000  Hf
  Hf17     1.0000 0.35713  0.27248  0.60554  Biso   1.000  Hf
  Hf18     1.0000 0.35617  0.77597  0.10491  Biso   1.000  Hf
  Hf19     1.0000 0.35831  0.77236  0.60427  Biso   1.000  Hf
  Hf20     1.0000 0.86371  0.26897  0.10569  Biso   1.000  Hf
  Hf21     1.0000 0.85730  0.27178  0.60412  Biso   1.000  Hf
  Hf22     1.0000 0.86531  0.77455  0.10381  Biso   1.000  Hf
  Hf23     1.0000 0.85704  0.77200  0.60496  Biso   1.000  Hf
  Hf24     1.0000 0.36012  0.47993  0.35469  Biso   1.000  Hf
  Hf25     1.0000 0.35495  0.47942  0.85556  Biso   1.000  Hf
  Hf26     1.0000 0.35683  0.97913  0.35199  Biso   1.000  Hf
  Hf27     1.0000 0.35343  0.97968  0.85799  Biso   1.000  Hf
  Hf28     1.0000 0.85889  0.47951  0.35411  Biso   1.000  Hf
  Hf29     1.0000 0.85675  0.47914  0.85648  Biso   1.000  Hf
  Hf30     1.0000 0.86318  0.98108  0.35134  Biso   1.000  Hf
  Hf31     1.0000 0.85534  0.97997  0.85459  Biso   1.000  Hf
  O1       1.0000 0.03823  0.16120  0.08370  Biso   1.000  O 
  O2       1.0000 0.03070  0.16555  0.57486  Biso   1.000  O 
  O3       1.0000 0.03637  0.66960  0.08144  Biso   1.000  O 
  O4       1.0000 0.03264  0.67039  0.58072  Biso   1.000  O 
  O5       1.0000 0.53570  0.17114  0.08211  Biso   1.000  O 
  O6       1.0000 0.53357  0.17180  0.58242  Biso   1.000  O 
  O7       1.0000 0.53439  0.67131  0.08205  Biso   1.000  O 
  O8       1.0000 0.53422  0.67215  0.58181  Biso   1.000  O 
  O9       1.0000 0.03986  0.08186  0.31579  Biso   1.000  O 
  O10      1.0000 0.02954  0.08294  0.82858  Biso   1.000  O 
  O11      1.0000 0.03476  0.58033  0.33148  Biso   1.000  O 
  O12      1.0000 0.03191  0.58119  0.83250  Biso   1.000  O 
  O13      1.0000 0.53297  0.08090  0.33084  Biso   1.000  O 
  O14      1.0000 0.53054  0.07933  0.83413  Biso   1.000  O 
  O15      1.0000 0.53616  0.57964  0.33238  Biso   1.000  O 
  O16      1.0000 0.53172  0.57910  0.83330  Biso   1.000  O 
  O17      1.0000 0.46240  0.42070  0.16855  Biso   1.000  O 
  O18      1.0000 0.45923  0.42206  0.66935  Biso   1.000  O 
  O19      1.0000 0.46442  0.91934  0.16950  Biso   1.000  O 
  O20      1.0000 0.45875  0.92163  0.67006  Biso   1.000  O 
  O21      1.0000 0.96443  0.41943  0.16948  Biso   1.000  O 
  O22      1.0000 0.96097  0.41838  0.67118  Biso   1.000  O 
  O23      1.0000 0.97717  0.92519  0.16469  Biso   1.000  O 
  O24      1.0000 0.96030  0.91996  0.66969  Biso   1.000  O 
  O25      1.0000 0.46112  0.33039  0.41969  Biso   1.000  O 
  O26      1.0000 0.45486  0.32693  0.91899  Biso   1.000  O 
  O27      1.0000 0.46165  0.83036  0.41779  Biso   1.000  O 
  O28      1.0000 0.45511  0.82957  0.91958  Biso   1.000  O 
  O29      1.0000 0.96132  0.32959  0.41823  Biso   1.000  O 
  O30      1.0000 0.96012  0.32963  0.92307  Biso   1.000  O 
  O31      1.0000 0.96189  0.83216  0.41880  Biso   1.000  O 
  O32      1.0000 0.95852  0.83143  0.91940  Biso   1.000  O 
  O33      1.0000 0.27077  0.12432  0.23720  Biso   1.000  O 
  O34      1.0000 0.27281  0.12972  0.74393  Biso   1.000  O 
  O35      1.0000 0.27559  0.63191  0.24164  Biso   1.000  O 
  O36      1.0000 0.27303  0.63033  0.74164  Biso   1.000  O 
  O37      1.0000 0.77508  0.12911  0.24101  Biso   1.000  O 
  O38      1.0000 0.77149  0.13000  0.74109  Biso   1.000  O 
  O39      1.0000 0.77665  0.63109  0.24068  Biso   1.000  O 
  O40      1.0000 0.77290  0.62968  0.74261  Biso   1.000  O 
  O41      1.0000 0.27444  0.12226  0.49025  Biso   1.000  O 
  O42      1.0000 0.26985  0.11521  0.00061  Biso   1.000  O 
  O43      1.0000 0.27438  0.62182  0.49120  Biso   1.000  O 
  O44      1.0000 0.27096  0.62294  0.99210  Biso   1.000  O 
  O45      1.0000 0.77539  0.12085  0.48957  Biso   1.000  O 
  O46      1.0000 0.77096  0.12230  0.99160  Biso   1.000  O 
  O47      1.0000 0.77456  0.62157  0.49140  Biso   1.000  O 
  O48      1.0000 0.77244  0.62331  0.99278  Biso   1.000  O 
  O49      1.0000 0.22262  0.37871  0.01038  Biso   1.000  O 
  O50      1.0000 0.21975  0.37956  0.50967  Biso   1.000  O 
  O51      1.0000 0.21784  0.88498  0.01287  Biso   1.000  O 
  O52      1.0000 0.22029  0.87996  0.50860  Biso   1.000  O 
  O53      1.0000 0.72413  0.37895  0.00982  Biso   1.000  O 
  O54      1.0000 0.72045  0.37983  0.51007  Biso   1.000  O 
  O55      1.0000 0.72337  0.87950  0.00964  Biso   1.000  O 
  O56      1.0000 0.72052  0.88019  0.50925  Biso   1.000  O 
  O57      1.0000 0.22298  0.37074  0.25981  Biso   1.000  O 
  O58      1.0000 0.21823  0.37069  0.76096  Biso   1.000  O 
  O59      1.0000 0.21703  0.87595  0.25614  Biso   1.000  O 
  O60      1.0000 0.21836  0.87190  0.76001  Biso   1.000  O 
  O61      1.0000 0.72268  0.37066  0.25930  Biso   1.000  O 
  O62      1.0000 0.71875  0.37178  0.76060  Biso   1.000  O 
  O63      1.0000 0.72955  0.87335  0.25802  Biso   1.000  O 
  O64      1.0000 0.71803  0.87136  0.76037  Biso   1.000  O 
