data_image0
_cell_length_a       10.1565
_cell_length_b       5.17668
_cell_length_c       10.4108
_cell_angle_alpha    90
_cell_angle_beta     80
_cell_angle_gamma    90

_symmetry_space_group_name_H-M    "P 1"
_symmetry_int_tables_number       1

loop_
  _symmetry_equiv_pos_as_xyz
  'x, y, z'

loop_
  _atom_site_label
  _atom_site_occupancy
  _atom_site_fract_x
  _atom_site_fract_y
  _atom_site_fract_z
  _atom_site_thermal_displace_type
  _atom_site_B_iso_or_equiv
  _atom_site_type_symbol
  Hf1      1.0000 0.13456  0.04918  0.14325  Biso   1.000  Hf
  Hf2      1.0000 0.14387  0.45482  0.39224  Biso   1.000  Hf
  Hf3      1.0000 0.35086  0.55255  0.09959  Biso   1.000  Hf
  Hf4      1.0000 0.36026  0.91030  0.34653  Biso   1.000  Hf
  O1       1.0000 0.03202  0.34894  0.07910  Biso   1.000  O 
  O2       1.0000 0.03570  0.16217  0.32917  Biso   1.000  O 
  O3       1.0000 0.45927  0.85997  0.15913  Biso   1.000  O 
  O4       1.0000 0.47578  0.64264  0.42000  Biso   1.000  O 
  O5       1.0000 0.27424  0.25280  0.23503  Biso   1.000  O 
  O6       1.0000 0.29495  0.24270  0.47460  Biso   1.000  O 
  O7       1.0000 0.21623  0.77166  0.00283  Biso   1.000  O 
  O8       1.0000 0.20678  0.74595  0.25008  Biso   1.000  O 
  Hf5      1.0000 0.14397  0.03013  0.64340  Biso   1.000  Hf
  Hf6      1.0000 0.14281  0.44473  0.89241  Biso   1.000  Hf
  Hf7      1.0000 0.36768  0.53065  0.60541  Biso   1.000  Hf
  Hf8      1.0000 0.36609  0.94441  0.85219  Biso   1.000  Hf
  O9       1.0000 0.04579  0.32929  0.57967  Biso   1.000  O 
  O10      1.0000 0.04312  0.14170  0.83018  Biso   1.000  O 
  O11      1.0000 0.46947  0.83135  0.66790  Biso   1.000  O 
  O12      1.0000 0.47003  0.64121  0.91540  Biso   1.000  O 
  O13      1.0000 0.28225  0.24190  0.73558  Biso   1.000  O 
  O14      1.0000 0.28237  0.23215  0.98482  Biso   1.000  O 
  O15      1.0000 0.22674  0.74751  0.51012  Biso   1.000  O 
  O16      1.0000 0.22960  0.72673  0.75564  Biso   1.000  O 
  Hf9      1.0000 0.63788  0.04139  0.15225  Biso   1.000  Hf
  Hf10     1.0000 0.65157  0.44462  0.40198  Biso   1.000  Hf
  Hf11     1.0000 0.85732  0.54465  0.10628  Biso   1.000  Hf
  Hf12     1.0000 0.86385  0.94984  0.35552  Biso   1.000  Hf
  O17      1.0000 0.52925  0.36360  0.10912  Biso   1.000  O 
  O18      1.0000 0.54796  0.11730  0.34804  Biso   1.000  O 
  O19      1.0000 0.95928  0.84602  0.16611  Biso   1.000  O 
  O20      1.0000 0.96707  0.65702  0.42101  Biso   1.000  O 
  O21      1.0000 0.78004  0.25674  0.24347  Biso   1.000  O 
  O22      1.0000 0.78609  0.22795  0.49661  Biso   1.000  O 
  O23      1.0000 0.71917  0.76330  0.01342  Biso   1.000  O 
  O24      1.0000 0.72480  0.73768  0.26248  Biso   1.000  O 
  Hf13     1.0000 0.64593  0.03229  0.64931  Biso   1.000  Hf
  Hf14     1.0000 0.64457  0.44781  0.90028  Biso   1.000  Hf
  Hf15     1.0000 0.86844  0.53109  0.60601  Biso   1.000  Hf
  Hf16     1.0000 0.86526  0.94420  0.85625  Biso   1.000  Hf
  O25      1.0000 0.54385  0.33307  0.58811  Biso   1.000  O 
  O26      1.0000 0.54383  0.14258  0.83860  Biso   1.000  O 
  O27      1.0000 0.96865  0.83008  0.67006  Biso   1.000  O 
  O28      1.0000 0.96692  0.64097  0.91549  Biso   1.000  O 
  O29      1.0000 0.78291  0.24711  0.74488  Biso   1.000  O 
  O30      1.0000 0.77806  0.22598  0.99435  Biso   1.000  O 
  O31      1.0000 0.72932  0.74639  0.51417  Biso   1.000  O 
  O32      1.0000 0.72900  0.72620  0.76278  Biso   1.000  O 
  Mn1      1.0000 0.42027  0.37328  0.30902  Biso   1.000  Mn
