data_image0
_cell_length_a       10.0545
_cell_length_b       10.2264
_cell_length_c       5.18892
_cell_angle_alpha    90
_cell_angle_beta     80
_cell_angle_gamma    90

_symmetry_space_group_name_H-M    "P 1"
_symmetry_int_tables_number       1

loop_
  _symmetry_equiv_pos_as_xyz
  'x, y, z'

loop_
  _atom_site_label
  _atom_site_occupancy
  _atom_site_fract_x
  _atom_site_fract_y
  _atom_site_fract_z
  _atom_site_thermal_displace_type
  _atom_site_B_iso_or_equiv
  _atom_site_type_symbol
  Mn1      1.0000 0.13462  0.02372  0.30141  Biso   1.000  Mn
  Hf1      1.0000 0.13981  0.52204  0.29334  Biso   1.000  Hf
  Hf2      1.0000 0.63705  0.02153  0.29214  Biso   1.000  Hf
  Hf3      1.0000 0.63845  0.52278  0.29265  Biso   1.000  Hf
  Hf4      1.0000 0.13802  0.22589  0.79398  Biso   1.000  Hf
  Hf5      1.0000 0.13824  0.73309  0.79120  Biso   1.000  Hf
  Hf6      1.0000 0.63627  0.22974  0.79277  Biso   1.000  Hf
  Hf7      1.0000 0.63732  0.73065  0.79544  Biso   1.000  Hf
  Hf8      1.0000 0.35803  0.26963  0.21285  Biso   1.000  Hf
  Hf9      1.0000 0.35688  0.77659  0.20846  Biso   1.000  Hf
  Hf10     1.0000 0.86365  0.26879  0.21014  Biso   1.000  Hf
  Hf11     1.0000 0.86486  0.77419  0.20761  Biso   1.000  Hf
  Hf12     1.0000 0.35938  0.48011  0.71040  Biso   1.000  Hf
  Hf13     1.0000 0.35486  0.97967  0.71006  Biso   1.000  Hf
  Hf14     1.0000 0.86018  0.47949  0.71094  Biso   1.000  Hf
  Hf15     1.0000 0.86277  0.98210  0.70243  Biso   1.000  Hf
  O1       1.0000 0.03624  0.15586  0.15348  Biso   1.000  O 
  O2       1.0000 0.03626  0.66916  0.16091  Biso   1.000  O 
  O3       1.0000 0.53672  0.17252  0.16684  Biso   1.000  O 
  O4       1.0000 0.53580  0.67280  0.16484  Biso   1.000  O 
  O5       1.0000 0.03809  0.08532  0.62341  Biso   1.000  O 
  O6       1.0000 0.03568  0.58124  0.66442  Biso   1.000  O 
  O7       1.0000 0.53278  0.07948  0.66723  Biso   1.000  O 
  O8       1.0000 0.53690  0.57804  0.66817  Biso   1.000  O 
  O9       1.0000 0.46182  0.42214  0.33579  Biso   1.000  O 
  O10      1.0000 0.46379  0.92019  0.33978  Biso   1.000  O 
  O11      1.0000 0.96568  0.41739  0.34158  Biso   1.000  O 
  O12      1.0000 0.97789  0.92438  0.32889  Biso   1.000  O 
  O13      1.0000 0.45772  0.32636  0.83666  Biso   1.000  O 
  O14      1.0000 0.45904  0.82935  0.83430  Biso   1.000  O 
  O15      1.0000 0.96365  0.32828  0.84194  Biso   1.000  O 
  O16      1.0000 0.96284  0.83350  0.83606  Biso   1.000  O 
  O17      1.0000 0.27226  0.12475  0.48087  Biso   1.000  O 
  O18      1.0000 0.27660  0.63283  0.48382  Biso   1.000  O 
  O19      1.0000 0.77447  0.12943  0.48158  Biso   1.000  O 
  O20      1.0000 0.77733  0.63093  0.48387  Biso   1.000  O 
  O21      1.0000 0.27037  0.11553  0.00111  Biso   1.000  O 
  O22      1.0000 0.27504  0.62324  0.98327  Biso   1.000  O 
  O23      1.0000 0.77589  0.12184  0.97919  Biso   1.000  O 
  O24      1.0000 0.77675  0.62372  0.98514  Biso   1.000  O 
  O25      1.0000 0.22197  0.37817  0.02046  Biso   1.000  O 
  O26      1.0000 0.21773  0.88450  0.02200  Biso   1.000  O 
  O27      1.0000 0.72456  0.37897  0.02006  Biso   1.000  O 
  O28      1.0000 0.72384  0.87989  0.01801  Biso   1.000  O 
  O29      1.0000 0.22246  0.37036  0.52146  Biso   1.000  O 
  O30      1.0000 0.21673  0.87720  0.51066  Biso   1.000  O 
  O31      1.0000 0.72297  0.37113  0.51956  Biso   1.000  O 
  O32      1.0000 0.72939  0.87335  0.51660  Biso   1.000  O 
