data_image0
_cell_length_a       9.98208
_cell_length_b       4.99301
_cell_length_c       10.1584
_cell_angle_alpha    90
_cell_angle_beta     90
_cell_angle_gamma    90

_symmetry_space_group_name_H-M    "P 1"
_symmetry_int_tables_number       1

loop_
  _symmetry_equiv_pos_as_xyz
  'x, y, z'

loop_
  _atom_site_label
  _atom_site_occupancy
  _atom_site_fract_x
  _atom_site_fract_y
  _atom_site_fract_z
  _atom_site_thermal_displace_type
  _atom_site_B_iso_or_equiv
  _atom_site_type_symbol
  Mn1      1.0000 0.11861  0.99983  0.14394  Biso   1.000  Mn
  Hf1      1.0000 0.11863  0.99990  0.62165  Biso   1.000  Hf
  Hf2      1.0000 0.61859  0.99982  0.12340  Biso   1.000  Hf
  Hf3      1.0000 0.61864  0.99992  0.62871  Biso   1.000  Hf
  Hf4      1.0000 0.12187  0.49994  0.37348  Biso   1.000  Hf
  Hf5      1.0000 0.12188  0.49993  0.86798  Biso   1.000  Hf
  Hf6      1.0000 0.62187  0.49997  0.37331  Biso   1.000  Hf
  Hf7      1.0000 0.62188  0.49997  0.87817  Biso   1.000  Hf
  Hf8      1.0000 0.36804  0.48350  0.12345  Biso   1.000  Hf
  Hf9      1.0000 0.37553  0.49738  0.62627  Biso   1.000  Hf
  Hf10     1.0000 0.87564  0.51624  0.12345  Biso   1.000  Hf
  Hf11     1.0000 0.86820  0.50253  0.62629  Biso   1.000  Hf
  Hf12     1.0000 0.37728  0.00376  0.37457  Biso   1.000  Hf
  Hf13     1.0000 0.36329  0.98348  0.87724  Biso   1.000  Hf
  Hf14     1.0000 0.86648  0.99612  0.37455  Biso   1.000  Hf
  Hf15     1.0000 0.88047  0.01646  0.87727  Biso   1.000  Hf
  O1       1.0000 0.97153  0.32850  0.96725  Biso   1.000  O 
  O2       1.0000 0.99827  0.24587  0.47315  Biso   1.000  O 
  O3       1.0000 0.48163  0.25194  0.98158  Biso   1.000  O 
  O4       1.0000 0.49651  0.25427  0.48197  Biso   1.000  O 
  O5       1.0000 0.01341  0.23290  0.21768  Biso   1.000  O 
  O6       1.0000 0.00237  0.25427  0.72354  Biso   1.000  O 
  O7       1.0000 0.50766  0.23582  0.23304  Biso   1.000  O 
  O8       1.0000 0.50304  0.25403  0.73206  Biso   1.000  O 
  O9       1.0000 0.98407  0.72870  0.27348  Biso   1.000  O 
  O10      1.0000 0.99277  0.75697  0.77380  Biso   1.000  O 
  O11      1.0000 0.47838  0.72338  0.27128  Biso   1.000  O 
  O12      1.0000 0.49217  0.74958  0.77163  Biso   1.000  O 
  O13      1.0000 0.01620  0.81399  0.03142  Biso   1.000  O 
  O14      1.0000 0.99660  0.74483  0.52204  Biso   1.000  O 
  O15      1.0000 0.50875  0.74021  0.02152  Biso   1.000  O 
  O16      1.0000 0.49717  0.75337  0.52034  Biso   1.000  O 
  O17      1.0000 0.25966  0.27108  0.27349  Biso   1.000  O 
  O18      1.0000 0.25100  0.24298  0.77379  Biso   1.000  O 
  O19      1.0000 0.76534  0.27652  0.27130  Biso   1.000  O 
  O20      1.0000 0.75156  0.25033  0.77164  Biso   1.000  O 
  O21      1.0000 0.22744  0.18586  0.03140  Biso   1.000  O 
  O22      1.0000 0.24718  0.25494  0.52204  Biso   1.000  O 
  O23      1.0000 0.73493  0.25948  0.02155  Biso   1.000  O 
  O24      1.0000 0.74661  0.24651  0.52035  Biso   1.000  O 
  O25      1.0000 0.27214  0.67164  0.96726  Biso   1.000  O 
  O26      1.0000 0.24553  0.75389  0.47315  Biso   1.000  O 
  O27      1.0000 0.76204  0.74812  0.98158  Biso   1.000  O 
  O28      1.0000 0.74726  0.74560  0.48196  Biso   1.000  O 
  O29      1.0000 0.23027  0.76686  0.21767  Biso   1.000  O 
  O30      1.0000 0.24139  0.74566  0.72353  Biso   1.000  O 
  O31      1.0000 0.73607  0.76405  0.23304  Biso   1.000  O 
  O32      1.0000 0.74070  0.74587  0.73206  Biso   1.000  O 
