data_image0
_cell_length_a       10.0596
_cell_length_b       5.16045
_cell_length_c       10.0596
_cell_angle_alpha    90
_cell_angle_beta     90
_cell_angle_gamma    90

_symmetry_space_group_name_H-M    "P 1"
_symmetry_int_tables_number       1

loop_
  _symmetry_equiv_pos_as_xyz
  'x, y, z'

loop_
  _atom_site_label
  _atom_site_occupancy
  _atom_site_fract_x
  _atom_site_fract_y
  _atom_site_fract_z
  _atom_site_thermal_displace_type
  _atom_site_B_iso_or_equiv
  _atom_site_type_symbol
  Hf1      1.0000 0.12962  0.88447  0.12168  Biso   1.000  Hf
  Hf2      1.0000 0.14362  0.50748  0.38965  Biso   1.000  Hf
  Hf3      1.0000 0.38113  0.50767  0.13171  Biso   1.000  Hf
  Hf4      1.0000 0.38582  0.01854  0.38167  Biso   1.000  Hf
  O1       1.0000 0.00563  0.30476  0.98957  Biso   1.000  O 
  O2       1.0000 0.01329  0.11585  0.24088  Biso   1.000  O 
  O3       1.0000 0.01508  0.61247  0.23867  Biso   1.000  O 
  O4       1.0000 0.00878  0.79834  0.98498  Biso   1.000  O 
  O5       1.0000 0.26475  0.30264  0.26291  Biso   1.000  O 
  O6       1.0000 0.23676  0.18863  0.01299  Biso   1.000  O 
  O7       1.0000 0.28700  0.69375  0.98094  Biso   1.000  O 
  O8       1.0000 0.26889  0.79622  0.25931  Biso   1.000  O 
  Hf5      1.0000 0.13337  0.00165  0.62526  Biso   1.000  Hf
  Hf6      1.0000 0.13440  0.50984  0.87052  Biso   1.000  Hf
  Hf7      1.0000 0.38547  0.51366  0.63418  Biso   1.000  Hf
  Hf8      1.0000 0.38445  0.01403  0.88211  Biso   1.000  Hf
  O9       1.0000 0.00293  0.30333  0.49233  Biso   1.000  O 
  O10      1.0000 0.01155  0.21757  0.74357  Biso   1.000  O 
  O11      1.0000 0.01273  0.71580  0.73980  Biso   1.000  O 
  O12      1.0000 0.01780  0.80603  0.48901  Biso   1.000  O 
  O13      1.0000 0.26651  0.30295  0.75751  Biso   1.000  O 
  O14      1.0000 0.25815  0.22116  0.50779  Biso   1.000  O 
  O15      1.0000 0.26819  0.72344  0.50517  Biso   1.000  O 
  O16      1.0000 0.26034  0.81051  0.74829  Biso   1.000  O 
  Hf9      1.0000 0.62598  0.00019  0.12761  Biso   1.000  Hf
  Hf10     1.0000 0.63434  0.51213  0.37709  Biso   1.000  Hf
  Hf11     1.0000 0.86173  0.50666  0.11317  Biso   1.000  Hf
  Hf12     1.0000 0.87850  0.01596  0.37839  Biso   1.000  Hf
  O17      1.0000 0.51110  0.30366  0.99739  Biso   1.000  O 
  O18      1.0000 0.51066  0.21612  0.25229  Biso   1.000  O 
  O19      1.0000 0.51403  0.71434  0.25064  Biso   1.000  O 
  O20      1.0000 0.50065  0.80834  0.00317  Biso   1.000  O 
  O21      1.0000 0.76195  0.30263  0.25596  Biso   1.000  O 
  O22      1.0000 0.74160  0.21966  0.00116  Biso   1.000  O 
  O23      1.0000 0.76302  0.72485  0.99050  Biso   1.000  O 
  O24      1.0000 0.76460  0.80529  0.24066  Biso   1.000  O 
  Hf13     1.0000 0.63320  0.01938  0.62849  Biso   1.000  Hf
  Hf14     1.0000 0.63193  0.51438  0.87589  Biso   1.000  Hf
  Hf15     1.0000 0.88414  0.51285  0.62209  Biso   1.000  Hf
  Hf16     1.0000 0.88477  0.01996  0.87105  Biso   1.000  Hf
  O25      1.0000 0.50606  0.31835  0.50089  Biso   1.000  O 
  O26      1.0000 0.51275  0.22204  0.75114  Biso   1.000  O 
  O27      1.0000 0.51070  0.72380  0.75284  Biso   1.000  O 
  O28      1.0000 0.51733  0.81633  0.49982  Biso   1.000  O 
  O29      1.0000 0.76302  0.31907  0.75290  Biso   1.000  O 
  O30      1.0000 0.75557  0.22133  0.50357  Biso   1.000  O 
  O31      1.0000 0.76764  0.71777  0.49088  Biso   1.000  O 
  O32      1.0000 0.76346  0.81703  0.74125  Biso   1.000  O 
  Mn1      1.0000 0.11837  0.35439  0.13355  Biso   1.000  Mn
