data_image0
_cell_length_a       10.1306
_cell_length_b       10.3145
_cell_length_c       10.4273
_cell_angle_alpha    90
_cell_angle_beta     80
_cell_angle_gamma    90

_symmetry_space_group_name_H-M    "P 1"
_symmetry_int_tables_number       1

loop_
  _symmetry_equiv_pos_as_xyz
  'x, y, z'

loop_
  _atom_site_label
  _atom_site_occupancy
  _atom_site_fract_x
  _atom_site_fract_y
  _atom_site_fract_z
  _atom_site_thermal_displace_type
  _atom_site_B_iso_or_equiv
  _atom_site_type_symbol
  Hf1      1.0000 0.13581  0.02191  0.14560  Biso   1.000  Hf
  Hf2      1.0000 0.14372  0.23043  0.39144  Biso   1.000  Hf
  Hf3      1.0000 0.35046  0.27715  0.09992  Biso   1.000  Hf
  Hf4      1.0000 0.35726  0.47098  0.34780  Biso   1.000  Hf
  O1       1.0000 0.03371  0.17095  0.07945  Biso   1.000  O 
  O2       1.0000 0.03701  0.07871  0.33064  Biso   1.000  O 
  O3       1.0000 0.45727  0.42981  0.16070  Biso   1.000  O 
  O4       1.0000 0.47525  0.33054  0.41849  Biso   1.000  O 
  O5       1.0000 0.27530  0.12626  0.23577  Biso   1.000  O 
  O6       1.0000 0.29667  0.12751  0.47307  Biso   1.000  O 
  O7       1.0000 0.21649  0.38472  0.00241  Biso   1.000  O 
  O8       1.0000 0.20688  0.37686  0.25116  Biso   1.000  O 
  Hf5      1.0000 0.13690  0.01609  0.64661  Biso   1.000  Hf
  Hf6      1.0000 0.13758  0.22430  0.89315  Biso   1.000  Hf
  Hf7      1.0000 0.36362  0.26921  0.60490  Biso   1.000  Hf
  Hf8      1.0000 0.36057  0.47524  0.85271  Biso   1.000  Hf
  O9       1.0000 0.04465  0.16722  0.57877  Biso   1.000  O 
  O10      1.0000 0.03564  0.07414  0.83112  Biso   1.000  O 
  O11      1.0000 0.46491  0.41779  0.66856  Biso   1.000  O 
  O12      1.0000 0.46384  0.32405  0.91802  Biso   1.000  O 
  O13      1.0000 0.27657  0.12420  0.73581  Biso   1.000  O 
  O14      1.0000 0.27542  0.11774  0.98668  Biso   1.000  O 
  O15      1.0000 0.22582  0.37615  0.50834  Biso   1.000  O 
  O16      1.0000 0.22464  0.36604  0.75629  Biso   1.000  O 
  Hf9      1.0000 0.13493  0.52450  0.14303  Biso   1.000  Hf
  Hf10     1.0000 0.13743  0.72459  0.39594  Biso   1.000  Hf
  Hf11     1.0000 0.35715  0.76999  0.10312  Biso   1.000  Hf
  Hf12     1.0000 0.35959  0.96402  0.35312  Biso   1.000  Hf
  O17      1.0000 0.03264  0.67441  0.08031  Biso   1.000  O 
  O18      1.0000 0.03220  0.58198  0.32924  Biso   1.000  O 
  O19      1.0000 0.46211  0.91857  0.16881  Biso   1.000  O 
  O20      1.0000 0.46125  0.81837  0.42032  Biso   1.000  O 
  O21      1.0000 0.27434  0.62798  0.24031  Biso   1.000  O 
  O22      1.0000 0.27403  0.61708  0.49020  Biso   1.000  O 
  O23      1.0000 0.22072  0.88118  0.00837  Biso   1.000  O 
  O24      1.0000 0.21808  0.86595  0.25705  Biso   1.000  O 
  Hf13     1.0000 0.13959  0.51838  0.64457  Biso   1.000  Hf
  Hf14     1.0000 0.13675  0.72554  0.89547  Biso   1.000  Hf
  Hf15     1.0000 0.36106  0.76623  0.60470  Biso   1.000  Hf
  Hf16     1.0000 0.36012  0.97399  0.85407  Biso   1.000  Hf
  O25      1.0000 0.03421  0.66649  0.58198  Biso   1.000  O 
  O26      1.0000 0.03662  0.57482  0.83171  Biso   1.000  O 
  O27      1.0000 0.46291  0.91749  0.66908  Biso   1.000  O 
  O28      1.0000 0.46248  0.82430  0.91773  Biso   1.000  O 
  O29      1.0000 0.27638  0.62437  0.74059  Biso   1.000  O 
  O30      1.0000 0.27630  0.61806  0.98921  Biso   1.000  O 
  O31      1.0000 0.22124  0.87811  0.51059  Biso   1.000  O 
  O32      1.0000 0.22220  0.86644  0.75884  Biso   1.000  O 
  Hf17     1.0000 0.63881  0.01956  0.15199  Biso   1.000  Hf
  Hf18     1.0000 0.64932  0.22533  0.40134  Biso   1.000  Hf
  Hf19     1.0000 0.85888  0.27210  0.10571  Biso   1.000  Hf
  Hf20     1.0000 0.86128  0.47643  0.35426  Biso   1.000  Hf
  O33      1.0000 0.52682  0.17883  0.11256  Biso   1.000  O 
  O34      1.0000 0.54769  0.06105  0.34864  Biso   1.000  O 
  O35      1.0000 0.95982  0.42310  0.16601  Biso   1.000  O 
  O36      1.0000 0.96503  0.32951  0.41968  Biso   1.000  O 
  O37      1.0000 0.77983  0.12796  0.24243  Biso   1.000  O 
  O38      1.0000 0.78374  0.11558  0.49595  Biso   1.000  O 
  O39      1.0000 0.72024  0.37981  0.01151  Biso   1.000  O 
  O40      1.0000 0.72407  0.36964  0.26125  Biso   1.000  O 
  Hf21     1.0000 0.64019  0.01817  0.64831  Biso   1.000  Hf
  Hf22     1.0000 0.63953  0.22766  0.89858  Biso   1.000  Hf
  Hf23     1.0000 0.86604  0.26729  0.60526  Biso   1.000  Hf
  Hf24     1.0000 0.86164  0.47463  0.85541  Biso   1.000  Hf
  O41      1.0000 0.54024  0.17001  0.58655  Biso   1.000  O 
  O42      1.0000 0.53772  0.07488  0.83831  Biso   1.000  O 
  O43      1.0000 0.96486  0.41681  0.66982  Biso   1.000  O 
  O44      1.0000 0.96131  0.32287  0.91730  Biso   1.000  O 
  O45      1.0000 0.77776  0.12637  0.74428  Biso   1.000  O 
  O46      1.0000 0.76963  0.11636  0.99497  Biso   1.000  O 
  O47      1.0000 0.72752  0.37546  0.51318  Biso   1.000  O 
  O48      1.0000 0.72400  0.36542  0.76178  Biso   1.000  O 
  Hf25     1.0000 0.63498  0.52191  0.14781  Biso   1.000  Hf
  Hf26     1.0000 0.63782  0.72337  0.39732  Biso   1.000  Hf
  Hf27     1.0000 0.85681  0.77120  0.10505  Biso   1.000  Hf
  Hf28     1.0000 0.86065  0.97568  0.35581  Biso   1.000  Hf
  O49      1.0000 0.53498  0.67382  0.08293  Biso   1.000  O 
  O50      1.0000 0.53419  0.57464  0.33298  Biso   1.000  O 
  O51      1.0000 0.96020  0.92016  0.16869  Biso   1.000  O 
  O52      1.0000 0.96299  0.82839  0.42108  Biso   1.000  O 
  O53      1.0000 0.77446  0.62855  0.24194  Biso   1.000  O 
  O54      1.0000 0.77579  0.61733  0.49203  Biso   1.000  O 
  O55      1.0000 0.71968  0.88083  0.01182  Biso   1.000  O 
  O56      1.0000 0.72128  0.86866  0.26106  Biso   1.000  O 
  Hf29     1.0000 0.64012  0.51781  0.64735  Biso   1.000  Hf
  Hf30     1.0000 0.63756  0.72391  0.89739  Biso   1.000  Hf
  Hf31     1.0000 0.85947  0.76791  0.60484  Biso   1.000  Hf
  Hf32     1.0000 0.85700  0.97457  0.85666  Biso   1.000  Hf
  O57      1.0000 0.53635  0.66649  0.58465  Biso   1.000  O 
  O58      1.0000 0.53658  0.57414  0.83323  Biso   1.000  O 
  O59      1.0000 0.96142  0.91680  0.67089  Biso   1.000  O 
  O60      1.0000 0.96120  0.82542  0.91800  Biso   1.000  O 
  O61      1.0000 0.77654  0.62498  0.74204  Biso   1.000  O 
  O62      1.0000 0.77577  0.61569  0.99162  Biso   1.000  O 
  O63      1.0000 0.72155  0.87553  0.51130  Biso   1.000  O 
  O64      1.0000 0.72203  0.86705  0.76110  Biso   1.000  O 
  Mn1      1.0000 0.42127  0.19429  0.30812  Biso   1.000  Mn
