data_image0
_cell_length_a       9.93821
_cell_length_b       5.19209
_cell_length_c       9.95624
_cell_angle_alpha    90
_cell_angle_beta     90
_cell_angle_gamma    90

_symmetry_space_group_name_H-M    "P 1"
_symmetry_int_tables_number       1

loop_
  _symmetry_equiv_pos_as_xyz
  'x, y, z'

loop_
  _atom_site_label
  _atom_site_occupancy
  _atom_site_fract_x
  _atom_site_fract_y
  _atom_site_fract_z
  _atom_site_thermal_displace_type
  _atom_site_B_iso_or_equiv
  _atom_site_type_symbol
  Mn1      1.0000 0.11798  0.06161  0.11135  Biso   1.000  Mn
  Hf1      1.0000 0.14403  0.99760  0.63012  Biso   1.000  Hf
  Hf2      1.0000 0.63906  0.03668  0.12659  Biso   1.000  Hf
  Hf3      1.0000 0.63204  0.98764  0.61672  Biso   1.000  Hf
  Hf4      1.0000 0.13985  0.41372  0.37273  Biso   1.000  Hf
  Hf5      1.0000 0.14063  0.42671  0.88577  Biso   1.000  Hf
  Hf6      1.0000 0.64198  0.44531  0.37897  Biso   1.000  Hf
  Hf7      1.0000 0.64464  0.41652  0.86722  Biso   1.000  Hf
  Hf8      1.0000 0.38849  0.52365  0.10745  Biso   1.000  Hf
  Hf9      1.0000 0.36964  0.50044  0.63044  Biso   1.000  Hf
  Hf10     1.0000 0.86989  0.53310  0.12019  Biso   1.000  Hf
  Hf11     1.0000 0.87867  0.49067  0.61889  Biso   1.000  Hf
  Hf12     1.0000 0.36686  0.91402  0.37218  Biso   1.000  Hf
  Hf13     1.0000 0.36300  0.92725  0.88604  Biso   1.000  Hf
  Hf14     1.0000 0.87333  0.94642  0.37299  Biso   1.000  Hf
  Hf15     1.0000 0.87083  0.91716  0.86845  Biso   1.000  Hf
  O1       1.0000 0.03840  0.35841  0.18495  Biso   1.000  O 
  O2       1.0000 0.04299  0.32799  0.70109  Biso   1.000  O 
  O3       1.0000 0.54195  0.36404  0.20266  Biso   1.000  O 
  O4       1.0000 0.54100  0.32632  0.69125  Biso   1.000  O 
  O5       1.0000 0.03615  0.10340  0.45786  Biso   1.000  O 
  O6       1.0000 0.04330  0.07540  0.94457  Biso   1.000  O 
  O7       1.0000 0.54181  0.10287  0.43592  Biso   1.000  O 
  O8       1.0000 0.52995  0.11448  0.95958  Biso   1.000  O 
  O9       1.0000 0.46820  0.86600  0.18829  Biso   1.000  O 
  O10      1.0000 0.46428  0.83798  0.70012  Biso   1.000  O 
  O11      1.0000 0.98192  0.86760  0.18428  Biso   1.000  O 
  O12      1.0000 0.97150  0.82549  0.69073  Biso   1.000  O 
  O13      1.0000 0.47961  0.61517  0.46078  Biso   1.000  O 
  O14      1.0000 0.47172  0.59952  0.92971  Biso   1.000  O 
  O15      1.0000 0.96984  0.59931  0.43344  Biso   1.000  O 
  O16      1.0000 0.96440  0.57711  0.93694  Biso   1.000  O 
  O17      1.0000 0.22305  0.08744  0.25517  Biso   1.000  O 
  O18      1.0000 0.27816  0.20332  0.75867  Biso   1.000  O 
  O19      1.0000 0.78086  0.22331  0.24664  Biso   1.000  O 
  O20      1.0000 0.77282  0.18075  0.74436  Biso   1.000  O 
  O21      1.0000 0.28122  0.22156  0.49959  Biso   1.000  O 
  O22      1.0000 0.25558  0.27297  0.01588  Biso   1.000  O 
  O23      1.0000 0.77434  0.23307  0.49691  Biso   1.000  O 
  O24      1.0000 0.77726  0.20973  0.99509  Biso   1.000  O 
  O25      1.0000 0.23013  0.72060  0.50396  Biso   1.000  O 
  O26      1.0000 0.22021  0.78410  0.01797  Biso   1.000  O 
  O27      1.0000 0.74220  0.73755  0.49572  Biso   1.000  O 
  O28      1.0000 0.73404  0.71226  0.99333  Biso   1.000  O 
  O29      1.0000 0.28077  0.59428  0.26837  Biso   1.000  O 
  O30      1.0000 0.23162  0.69952  0.75914  Biso   1.000  O 
  O31      1.0000 0.73703  0.72503  0.24531  Biso   1.000  O 
  O32      1.0000 0.73707  0.68320  0.74205  Biso   1.000  O 
