data_image0
_cell_length_a       10.0499
_cell_length_b       5.1141
_cell_length_c       10.3762
_cell_angle_alpha    90
_cell_angle_beta     80
_cell_angle_gamma    90

_symmetry_space_group_name_H-M    "P 1"
_symmetry_int_tables_number       1

loop_
  _symmetry_equiv_pos_as_xyz
  'x, y, z'

loop_
  _atom_site_label
  _atom_site_occupancy
  _atom_site_fract_x
  _atom_site_fract_y
  _atom_site_fract_z
  _atom_site_thermal_displace_type
  _atom_site_B_iso_or_equiv
  _atom_site_type_symbol
  Mn1      1.0000 0.13550  0.04832  0.15086  Biso   1.000  Mn
  Hf1      1.0000 0.13578  0.04590  0.64627  Biso   1.000  Hf
  Hf2      1.0000 0.63801  0.04642  0.14540  Biso   1.000  Hf
  Hf3      1.0000 0.63433  0.04431  0.64737  Biso   1.000  Hf
  Hf4      1.0000 0.13760  0.46198  0.39204  Biso   1.000  Hf
  Hf5      1.0000 0.13487  0.45800  0.90048  Biso   1.000  Hf
  Hf6      1.0000 0.63771  0.46143  0.39549  Biso   1.000  Hf
  Hf7      1.0000 0.63223  0.46119  0.89890  Biso   1.000  Hf
  Hf8      1.0000 0.35432  0.54802  0.10604  Biso   1.000  Hf
  Hf9      1.0000 0.35806  0.54717  0.60488  Biso   1.000  Hf
  Hf10     1.0000 0.86877  0.54324  0.10533  Biso   1.000  Hf
  Hf11     1.0000 0.85692  0.54481  0.60438  Biso   1.000  Hf
  Hf12     1.0000 0.35756  0.96110  0.35175  Biso   1.000  Hf
  Hf13     1.0000 0.35248  0.96115  0.85882  Biso   1.000  Hf
  Hf14     1.0000 0.86283  0.96400  0.35152  Biso   1.000  Hf
  Hf15     1.0000 0.85639  0.96091  0.85608  Biso   1.000  Hf
  O1       1.0000 0.03922  0.32141  0.08479  Biso   1.000  O 
  O2       1.0000 0.03062  0.33198  0.57427  Biso   1.000  O 
  O3       1.0000 0.53444  0.34521  0.08344  Biso   1.000  O 
  O4       1.0000 0.53521  0.34855  0.58299  Biso   1.000  O 
  O5       1.0000 0.03989  0.16415  0.31660  Biso   1.000  O 
  O6       1.0000 0.03055  0.16845  0.82970  Biso   1.000  O 
  O7       1.0000 0.53506  0.16027  0.33218  Biso   1.000  O 
  O8       1.0000 0.53140  0.15566  0.83620  Biso   1.000  O 
  O9       1.0000 0.46406  0.84008  0.16830  Biso   1.000  O 
  O10      1.0000 0.45809  0.84816  0.66930  Biso   1.000  O 
  O11      1.0000 0.98010  0.84706  0.16495  Biso   1.000  O 
  O12      1.0000 0.96159  0.83692  0.67100  Biso   1.000  O 
  O13      1.0000 0.46132  0.66116  0.41745  Biso   1.000  O 
  O14      1.0000 0.45103  0.65113  0.91796  Biso   1.000  O 
  O15      1.0000 0.96178  0.66330  0.41745  Biso   1.000  O 
  O16      1.0000 0.96064  0.66211  0.92238  Biso   1.000  O 
  O17      1.0000 0.27073  0.25355  0.23760  Biso   1.000  O 
  O18      1.0000 0.27377  0.26192  0.74395  Biso   1.000  O 
  O19      1.0000 0.77662  0.26116  0.24067  Biso   1.000  O 
  O20      1.0000 0.77213  0.26110  0.74240  Biso   1.000  O 
  O21      1.0000 0.27503  0.24678  0.49017  Biso   1.000  O 
  O22      1.0000 0.26990  0.23259  0.00079  Biso   1.000  O 
  O23      1.0000 0.77597  0.24317  0.48996  Biso   1.000  O 
  O24      1.0000 0.77297  0.24943  0.99273  Biso   1.000  O 
  O25      1.0000 0.21706  0.77003  0.01417  Biso   1.000  O 
  O26      1.0000 0.21980  0.76095  0.50834  Biso   1.000  O 
  O27      1.0000 0.72428  0.75844  0.01004  Biso   1.000  O 
  O28      1.0000 0.72071  0.76180  0.50942  Biso   1.000  O 
  O29      1.0000 0.21821  0.75152  0.25650  Biso   1.000  O 
  O30      1.0000 0.21793  0.74372  0.76087  Biso   1.000  O 
  O31      1.0000 0.73091  0.74561  0.25750  Biso   1.000  O 
  O32      1.0000 0.71815  0.74458  0.76084  Biso   1.000  O 
