data_image0
_cell_length_a       10.0142
_cell_length_b       10.5149
_cell_length_c       5.03205
_cell_angle_alpha    90
_cell_angle_beta     90
_cell_angle_gamma    90

_symmetry_space_group_name_H-M    "P 1"
_symmetry_int_tables_number       1

loop_
  _symmetry_equiv_pos_as_xyz
  'x, y, z'

loop_
  _atom_site_label
  _atom_site_occupancy
  _atom_site_fract_x
  _atom_site_fract_y
  _atom_site_fract_z
  _atom_site_thermal_displace_type
  _atom_site_B_iso_or_equiv
  _atom_site_type_symbol
  Hf1      1.0000 0.13606  0.01256  0.24636  Biso   1.000  Hf
  Hf2      1.0000 0.12998  0.22546  0.72610  Biso   1.000  Hf
  Hf3      1.0000 0.37595  0.27352  0.26431  Biso   1.000  Hf
  Hf4      1.0000 0.37463  0.49206  0.75285  Biso   1.000  Hf
  O1       1.0000 0.01835  0.16704  0.39861  Biso   1.000  O 
  O2       1.0000 0.03542  0.06355  0.89486  Biso   1.000  O 
  O3       1.0000 0.47825  0.43368  0.41032  Biso   1.000  O 
  O4       1.0000 0.47638  0.32431  0.90475  Biso   1.000  O 
  O5       1.0000 0.26982  0.10756  0.51671  Biso   1.000  O 
  O6       1.0000 0.24126  0.16465  0.04203  Biso   1.000  O 
  O7       1.0000 0.24823  0.40454  0.03217  Biso   1.000  O 
  O8       1.0000 0.24133  0.36813  0.52709  Biso   1.000  O 
  Hf5      1.0000 0.13783  0.53256  0.24444  Biso   1.000  Hf
  Hf6      1.0000 0.13957  0.74322  0.74108  Biso   1.000  Hf
  Hf7      1.0000 0.37501  0.76458  0.24185  Biso   1.000  Hf
  Hf8      1.0000 0.38559  0.98162  0.72950  Biso   1.000  Hf
  O9       1.0000 0.03326  0.68650  0.40295  Biso   1.000  O 
  O10      1.0000 0.04393  0.57484  0.88742  Biso   1.000  O 
  O11      1.0000 0.47490  0.92853  0.38481  Biso   1.000  O 
  O12      1.0000 0.47951  0.81998  0.88463  Biso   1.000  O 
  O13      1.0000 0.27908  0.62124  0.49363  Biso   1.000  O 
  O14      1.0000 0.27622  0.65360  0.98812  Biso   1.000  O 
  O15      1.0000 0.24726  0.90086  0.98446  Biso   1.000  O 
  O16      1.0000 0.23859  0.86419  0.48168  Biso   1.000  O 
  Hf9      1.0000 0.63799  0.01586  0.24722  Biso   1.000  Hf
  Hf10     1.0000 0.63657  0.23857  0.74752  Biso   1.000  Hf
  Hf11     1.0000 0.85897  0.26407  0.23923  Biso   1.000  Hf
  Hf12     1.0000 0.87777  0.48578  0.74508  Biso   1.000  Hf
  O17      1.0000 0.53491  0.17692  0.40884  Biso   1.000  O 
  O18      1.0000 0.53186  0.07541  0.90744  Biso   1.000  O 
  O19      1.0000 0.98110  0.42118  0.38534  Biso   1.000  O 
  O20      1.0000 0.97257  0.32413  0.89086  Biso   1.000  O 
  O21      1.0000 0.76845  0.11455  0.49520  Biso   1.000  O 
  O22      1.0000 0.77136  0.13864  0.99048  Biso   1.000  O 
  O23      1.0000 0.73737  0.39018  0.99291  Biso   1.000  O 
  O24      1.0000 0.73709  0.36790  0.49659  Biso   1.000  O 
  Hf13     1.0000 0.64036  0.51674  0.24980  Biso   1.000  Hf
  Hf14     1.0000 0.64431  0.73340  0.74714  Biso   1.000  Hf
  Hf15     1.0000 0.86831  0.76627  0.24656  Biso   1.000  Hf
  Hf16     1.0000 0.87378  0.98550  0.74226  Biso   1.000  Hf
  O25      1.0000 0.54196  0.68292  0.39339  Biso   1.000  O 
  O26      1.0000 0.54176  0.57394  0.90276  Biso   1.000  O 
  O27      1.0000 0.97162  0.92828  0.39483  Biso   1.000  O 
  O28      1.0000 0.97508  0.82193  0.89740  Biso   1.000  O 
  O29      1.0000 0.77651  0.61522  0.49377  Biso   1.000  O 
  O30      1.0000 0.78106  0.63820  0.99366  Biso   1.000  O 
  O31      1.0000 0.73948  0.88908  0.99402  Biso   1.000  O 
  O32      1.0000 0.73601  0.86611  0.49451  Biso   1.000  O 
  Mn1      1.0000 0.11645  0.29765  0.21073  Biso   1.000  Mn
