data_image0
_cell_length_a       5.00424
_cell_length_b       10.4243
_cell_length_c       10.0432
_cell_angle_alpha    90
_cell_angle_beta     90
_cell_angle_gamma    90

_symmetry_space_group_name_H-M    "P 1"
_symmetry_int_tables_number       1

loop_
  _symmetry_equiv_pos_as_xyz
  'x, y, z'

loop_
  _atom_site_label
  _atom_site_occupancy
  _atom_site_fract_x
  _atom_site_fract_y
  _atom_site_fract_z
  _atom_site_thermal_displace_type
  _atom_site_B_iso_or_equiv
  _atom_site_type_symbol
  Hf1      1.0000 0.26336  0.02277  0.11959  Biso   1.000  Hf
  Hf2      1.0000 0.26113  0.23148  0.38435  Biso   1.000  Hf
  Hf3      1.0000 0.69432  0.25905  0.12468  Biso   1.000  Hf
  Hf4      1.0000 0.73340  0.48524  0.37406  Biso   1.000  Hf
  O1       1.0000 0.03003  0.17794  0.21545  Biso   1.000  O 
  O2       1.0000 0.06747  0.06640  0.45103  Biso   1.000  O 
  O3       1.0000 0.91449  0.43268  0.19242  Biso   1.000  O 
  O4       1.0000 0.92913  0.32157  0.44970  Biso   1.000  O 
  O5       1.0000 0.51831  0.11614  0.25323  Biso   1.000  O 
  O6       1.0000 0.54241  0.13463  0.50040  Biso   1.000  O 
  O7       1.0000 0.46027  0.38563  0.49912  Biso   1.000  O 
  O8       1.0000 0.42753  0.36729  0.24792  Biso   1.000  O 
  Hf5      1.0000 0.26853  0.01703  0.62660  Biso   1.000  Hf
  Hf6      1.0000 0.27442  0.22985  0.87148  Biso   1.000  Hf
  Hf7      1.0000 0.73313  0.26915  0.62640  Biso   1.000  Hf
  Hf8      1.0000 0.72758  0.48730  0.87700  Biso   1.000  Hf
  O9       1.0000 0.07049  0.18477  0.69190  Biso   1.000  O 
  O10      1.0000 0.07995  0.06438  0.93563  Biso   1.000  O 
  O11      1.0000 0.93274  0.43494  0.70213  Biso   1.000  O 
  O12      1.0000 0.93516  0.31979  0.95371  Biso   1.000  O 
  O13      1.0000 0.54357  0.11775  0.74686  Biso   1.000  O 
  O14      1.0000 0.56740  0.12501  0.99234  Biso   1.000  O 
  O15      1.0000 0.44707  0.38823  0.99883  Biso   1.000  O 
  O16      1.0000 0.46395  0.36971  0.74960  Biso   1.000  O 
  Hf9      1.0000 0.26355  0.53533  0.12442  Biso   1.000  Hf
  Hf10     1.0000 0.26643  0.73792  0.37784  Biso   1.000  Hf
  Hf11     1.0000 0.72557  0.77138  0.12733  Biso   1.000  Hf
  Hf12     1.0000 0.72873  0.98635  0.37423  Biso   1.000  Hf
  O17      1.0000 0.06101  0.68880  0.20150  Biso   1.000  O 
  O18      1.0000 0.06300  0.56906  0.44676  Biso   1.000  O 
  O19      1.0000 0.92335  0.93719  0.19282  Biso   1.000  O 
  O20      1.0000 0.92469  0.81899  0.44404  Biso   1.000  O 
  O21      1.0000 0.54245  0.62314  0.25192  Biso   1.000  O 
  O22      1.0000 0.53413  0.63454  0.50018  Biso   1.000  O 
  O23      1.0000 0.45887  0.88561  0.49926  Biso   1.000  O 
  O24      1.0000 0.45431  0.87011  0.24980  Biso   1.000  O 
  Hf13     1.0000 0.26675  0.51764  0.62621  Biso   1.000  Hf
  Hf14     1.0000 0.26242  0.73969  0.87331  Biso   1.000  Hf
  Hf15     1.0000 0.73271  0.76704  0.62345  Biso   1.000  Hf
  Hf16     1.0000 0.73130  0.98146  0.87355  Biso   1.000  Hf
  O25      1.0000 0.07114  0.68552  0.69292  Biso   1.000  O 
  O26      1.0000 0.06265  0.57463  0.94420  Biso   1.000  O 
  O27      1.0000 0.93125  0.93189  0.69452  Biso   1.000  O 
  O28      1.0000 0.92416  0.81878  0.94711  Biso   1.000  O 
  O29      1.0000 0.53860  0.61829  0.75008  Biso   1.000  O 
  O30      1.0000 0.53515  0.64023  0.99818  Biso   1.000  O 
  O31      1.0000 0.44885  0.88560  0.99929  Biso   1.000  O 
  O32      1.0000 0.46213  0.86778  0.74785  Biso   1.000  O 
  Mn1      1.0000 0.18224  0.30933  0.10566  Biso   1.000  Mn
