data_image0
_cell_length_a       5.02557
_cell_length_b       10.2293
_cell_length_c       10.3792
_cell_angle_alpha    90
_cell_angle_beta     80
_cell_angle_gamma    90

_symmetry_space_group_name_H-M    "P 1"
_symmetry_int_tables_number       1

loop_
  _symmetry_equiv_pos_as_xyz
  'x, y, z'

loop_
  _atom_site_label
  _atom_site_occupancy
  _atom_site_fract_x
  _atom_site_fract_y
  _atom_site_fract_z
  _atom_site_thermal_displace_type
  _atom_site_B_iso_or_equiv
  _atom_site_type_symbol
  Mn1      1.0000 0.27064  0.02505  0.15026  Biso   1.000  Mn
  Hf1      1.0000 0.26903  0.02158  0.64627  Biso   1.000  Hf
  Hf2      1.0000 0.27878  0.52282  0.14620  Biso   1.000  Hf
  Hf3      1.0000 0.27253  0.52261  0.64743  Biso   1.000  Hf
  Hf4      1.0000 0.27473  0.22861  0.39284  Biso   1.000  Hf
  Hf5      1.0000 0.26752  0.22677  0.90038  Biso   1.000  Hf
  Hf6      1.0000 0.27702  0.73205  0.39469  Biso   1.000  Hf
  Hf7      1.0000 0.26785  0.73166  0.89949  Biso   1.000  Hf
  Hf8      1.0000 0.72430  0.26689  0.10650  Biso   1.000  Hf
  Hf9      1.0000 0.71457  0.27251  0.60477  Biso   1.000  Hf
  Hf10     1.0000 0.72299  0.77879  0.10471  Biso   1.000  Hf
  Hf11     1.0000 0.71632  0.77242  0.60458  Biso   1.000  Hf
  Hf12     1.0000 0.72045  0.48039  0.35429  Biso   1.000  Hf
  Hf13     1.0000 0.71262  0.47948  0.85709  Biso   1.000  Hf
  Hf14     1.0000 0.72198  0.98091  0.34900  Biso   1.000  Hf
  Hf15     1.0000 0.70696  0.98055  0.85751  Biso   1.000  Hf
  O1       1.0000 0.07625  0.16159  0.08486  Biso   1.000  O 
  O2       1.0000 0.06401  0.16716  0.57593  Biso   1.000  O 
  O3       1.0000 0.07041  0.67119  0.08306  Biso   1.000  O 
  O4       1.0000 0.06885  0.67215  0.58137  Biso   1.000  O 
  O5       1.0000 0.07588  0.08281  0.31534  Biso   1.000  O 
  O6       1.0000 0.05878  0.08176  0.83090  Biso   1.000  O 
  O7       1.0000 0.07410  0.57936  0.33286  Biso   1.000  O 
  O8       1.0000 0.06585  0.57996  0.83436  Biso   1.000  O 
  O9       1.0000 0.92877  0.41975  0.16863  Biso   1.000  O 
  O10      1.0000 0.92167  0.41995  0.67082  Biso   1.000  O 
  O11      1.0000 0.95665  0.92510  0.16429  Biso   1.000  O 
  O12      1.0000 0.91942  0.92121  0.66960  Biso   1.000  O 
  O13      1.0000 0.92311  0.32978  0.41839  Biso   1.000  O 
  O14      1.0000 0.91497  0.32629  0.92213  Biso   1.000  O 
  O15      1.0000 0.92438  0.83169  0.41651  Biso   1.000  O 
  O16      1.0000 0.91210  0.83042  0.91883  Biso   1.000  O 
  O17      1.0000 0.53969  0.12333  0.23630  Biso   1.000  O 
  O18      1.0000 0.54496  0.13008  0.74322  Biso   1.000  O 
  O19      1.0000 0.55478  0.63325  0.24149  Biso   1.000  O 
  O20      1.0000 0.54824  0.63036  0.74298  Biso   1.000  O 
  O21      1.0000 0.55284  0.12198  0.48809  Biso   1.000  O 
  O22      1.0000 0.54041  0.11586  0.00013  Biso   1.000  O 
  O23      1.0000 0.55088  0.62207  0.49160  Biso   1.000  O 
  O24      1.0000 0.54621  0.62499  0.99338  Biso   1.000  O 
  O25      1.0000 0.44730  0.37854  0.01084  Biso   1.000  O 
  O26      1.0000 0.44044  0.37977  0.50982  Biso   1.000  O 
  O27      1.0000 0.43678  0.88577  0.01354  Biso   1.000  O 
  O28      1.0000 0.44184  0.88059  0.50818  Biso   1.000  O 
  O29      1.0000 0.44863  0.36999  0.25936  Biso   1.000  O 
  O30      1.0000 0.43751  0.37114  0.76148  Biso   1.000  O 
  O31      1.0000 0.44835  0.87771  0.25501  Biso   1.000  O 
  O32      1.0000 0.43641  0.87194  0.76041  Biso   1.000  O 
