data_image0
_cell_length_a       9.99556
_cell_length_b       5.10192
_cell_length_c       10.4469
_cell_angle_alpha    90
_cell_angle_beta     90
_cell_angle_gamma    90

_symmetry_space_group_name_H-M    "P 1"
_symmetry_int_tables_number       1

loop_
  _symmetry_equiv_pos_as_xyz
  'x, y, z'

loop_
  _atom_site_label
  _atom_site_occupancy
  _atom_site_fract_x
  _atom_site_fract_y
  _atom_site_fract_z
  _atom_site_thermal_displace_type
  _atom_site_B_iso_or_equiv
  _atom_site_type_symbol
  Mo1      1.0000 0.13825  0.04560  0.17417  Biso   1.000  Mo
  Hf1      1.0000 0.14068  0.46031  0.42082  Biso   1.000  Hf
  Hf2      1.0000 0.35887  0.54829  0.17200  Biso   1.000  Hf
  Hf3      1.0000 0.36185  0.95995  0.42110  Biso   1.000  Hf
  Hf4      1.0000 0.63837  0.04417  0.07789  Biso   1.000  Hf
  Hf5      1.0000 0.63913  0.45758  0.32747  Biso   1.000  Hf
  Hf6      1.0000 0.86433  0.54174  0.07822  Biso   1.000  Hf
  Hf7      1.0000 0.86286  0.95824  0.32732  Biso   1.000  Hf
  O1       1.0000 0.03524  0.32439  0.08548  Biso   1.000  O 
  O2       1.0000 0.03693  0.16798  0.32820  Biso   1.000  O 
  O3       1.0000 0.46828  0.82969  0.08322  Biso   1.000  O 
  O4       1.0000 0.46694  0.66971  0.33386  Biso   1.000  O 
  O5       1.0000 0.27765  0.24761  0.29531  Biso   1.000  O 
  O6       1.0000 0.27472  0.24901  0.05022  Biso   1.000  O 
  O7       1.0000 0.22248  0.75215  0.29535  Biso   1.000  O 
  O8       1.0000 0.22055  0.75394  0.04592  Biso   1.000  O 
  O9       1.0000 0.53319  0.33424  0.16595  Biso   1.000  O 
  O10      1.0000 0.53455  0.16904  0.41584  Biso   1.000  O 
  O11      1.0000 0.97775  0.82767  0.16594  Biso   1.000  O 
  O12      1.0000 0.96823  0.66976  0.41536  Biso   1.000  O 
  O13      1.0000 0.77885  0.24612  0.45372  Biso   1.000  O 
  O14      1.0000 0.77761  0.25109  0.20427  Biso   1.000  O 
  O15      1.0000 0.72475  0.74712  0.45430  Biso   1.000  O 
  O16      1.0000 0.72876  0.75275  0.20450  Biso   1.000  O 
  Hf8      1.0000 0.14011  0.04285  0.67205  Biso   1.000  Hf
  Hf9      1.0000 0.14179  0.45578  0.92334  Biso   1.000  Hf
  Hf10     1.0000 0.36306  0.54363  0.67201  Biso   1.000  Hf
  Hf11     1.0000 0.36253  0.95740  0.92332  Biso   1.000  Hf
  Hf12     1.0000 0.63981  0.04245  0.57840  Biso   1.000  Hf
  Hf13     1.0000 0.64086  0.45916  0.82894  Biso   1.000  Hf
  Hf14     1.0000 0.86243  0.54194  0.57791  Biso   1.000  Hf
  Hf15     1.0000 0.86377  0.95744  0.82851  Biso   1.000  Hf
  O17      1.0000 0.03315  0.32550  0.57990  Biso   1.000  O 
  O18      1.0000 0.03361  0.17247  0.83204  Biso   1.000  O 
  O19      1.0000 0.46820  0.83289  0.58414  Biso   1.000  O 
  O20      1.0000 0.46864  0.67010  0.83439  Biso   1.000  O 
  O21      1.0000 0.27871  0.24754  0.79672  Biso   1.000  O 
  O22      1.0000 0.27812  0.25394  0.54569  Biso   1.000  O 
  O23      1.0000 0.22517  0.74762  0.79557  Biso   1.000  O 
  O24      1.0000 0.22471  0.75233  0.54485  Biso   1.000  O 
  O25      1.0000 0.53502  0.33266  0.66622  Biso   1.000  O 
  O26      1.0000 0.53423  0.17085  0.91672  Biso   1.000  O 
  O27      1.0000 0.96976  0.82731  0.66678  Biso   1.000  O 
  O28      1.0000 0.96997  0.66824  0.91721  Biso   1.000  O 
  O29      1.0000 0.77906  0.24983  0.95487  Biso   1.000  O 
  O30      1.0000 0.77827  0.25223  0.70459  Biso   1.000  O 
  O31      1.0000 0.72608  0.74940  0.95474  Biso   1.000  O 
  O32      1.0000 0.72529  0.75293  0.70468  Biso   1.000  O 
