data_image0
_cell_length_a       10.0913
_cell_length_b       10.2582
_cell_length_c       5.20925
_cell_angle_alpha    90
_cell_angle_beta     80
_cell_angle_gamma    90

_symmetry_space_group_name_H-M    "P 1"
_symmetry_int_tables_number       1

loop_
  _symmetry_equiv_pos_as_xyz
  'x, y, z'

loop_
  _atom_site_label
  _atom_site_occupancy
  _atom_site_fract_x
  _atom_site_fract_y
  _atom_site_fract_z
  _atom_site_thermal_displace_type
  _atom_site_B_iso_or_equiv
  _atom_site_type_symbol
  Mo1      1.0000 0.13856  0.02366  0.29530  Biso   1.000  Mo
  Hf1      1.0000 0.13920  0.22774  0.79252  Biso   1.000  Hf
  Hf2      1.0000 0.36015  0.27105  0.21113  Biso   1.000  Hf
  Hf3      1.0000 0.36075  0.47913  0.70930  Biso   1.000  Hf
  O1       1.0000 0.03641  0.16601  0.15783  Biso   1.000  O 
  O2       1.0000 0.04023  0.07852  0.64550  Biso   1.000  O 
  O3       1.0000 0.46343  0.42089  0.33778  Biso   1.000  O 
  O4       1.0000 0.46184  0.32866  0.83845  Biso   1.000  O 
  O5       1.0000 0.27783  0.12750  0.48621  Biso   1.000  O 
  O6       1.0000 0.27437  0.11931  0.99358  Biso   1.000  O 
  O7       1.0000 0.22292  0.37843  0.01924  Biso   1.000  O 
  O8       1.0000 0.22307  0.37085  0.51978  Biso   1.000  O 
  Hf4      1.0000 0.13948  0.52173  0.29201  Biso   1.000  Hf
  Hf5      1.0000 0.13887  0.72969  0.79153  Biso   1.000  Hf
  Hf6      1.0000 0.35963  0.77455  0.20962  Biso   1.000  Hf
  Hf7      1.0000 0.35960  0.97863  0.71009  Biso   1.000  Hf
  O9       1.0000 0.03617  0.66891  0.16036  Biso   1.000  O 
  O10      1.0000 0.03591  0.58014  0.66208  Biso   1.000  O 
  O11      1.0000 0.46539  0.91946  0.34200  Biso   1.000  O 
  O12      1.0000 0.46297  0.83032  0.83935  Biso   1.000  O 
  O13      1.0000 0.27677  0.63072  0.48231  Biso   1.000  O 
  O14      1.0000 0.27663  0.62179  0.98230  Biso   1.000  O 
  O15      1.0000 0.22033  0.88055  0.02074  Biso   1.000  O 
  O16      1.0000 0.22064  0.87357  0.51704  Biso   1.000  O 
  Hf8      1.0000 0.63828  0.02170  0.29228  Biso   1.000  Hf
  Hf9      1.0000 0.63821  0.22882  0.79190  Biso   1.000  Hf
  Hf10     1.0000 0.86183  0.27084  0.20725  Biso   1.000  Hf
  Hf11     1.0000 0.86087  0.47865  0.70780  Biso   1.000  Hf
  O17      1.0000 0.53690  0.17117  0.16430  Biso   1.000  O 
  O18      1.0000 0.53541  0.07961  0.66480  Biso   1.000  O 
  O19      1.0000 0.96474  0.41899  0.33785  Biso   1.000  O 
  O20      1.0000 0.96377  0.32839  0.83686  Biso   1.000  O 
  O21      1.0000 0.77703  0.12903  0.48063  Biso   1.000  O 
  O22      1.0000 0.77693  0.12068  0.97901  Biso   1.000  O 
  O23      1.0000 0.72380  0.37929  0.01819  Biso   1.000  O 
  O24      1.0000 0.72307  0.37076  0.51800  Biso   1.000  O 
  Hf12     1.0000 0.63894  0.52226  0.29179  Biso   1.000  Hf
  Hf13     1.0000 0.63865  0.72896  0.79367  Biso   1.000  Hf
  Hf14     1.0000 0.86301  0.77245  0.20695  Biso   1.000  Hf
  Hf15     1.0000 0.86177  0.97890  0.70522  Biso   1.000  Hf
  O25      1.0000 0.53593  0.67102  0.16310  Biso   1.000  O 
  O26      1.0000 0.53646  0.57952  0.66408  Biso   1.000  O 
  O27      1.0000 0.97105  0.92068  0.33160  Biso   1.000  O 
  O28      1.0000 0.96373  0.83089  0.83611  Biso   1.000  O 
  O29      1.0000 0.77713  0.62966  0.48171  Biso   1.000  O 
  O30      1.0000 0.77697  0.62169  0.98209  Biso   1.000  O 
  O31      1.0000 0.72374  0.87959  0.01779  Biso   1.000  O 
  O32      1.0000 0.72690  0.87172  0.51780  Biso   1.000  O 
