data_image0
_cell_length_a       10.1941
_cell_length_b       10.2589
_cell_length_c       10.5336
_cell_angle_alpha    90
_cell_angle_beta     80
_cell_angle_gamma    90

_symmetry_space_group_name_H-M    "P 1"
_symmetry_int_tables_number       1

loop_
  _symmetry_equiv_pos_as_xyz
  'x, y, z'

loop_
  _atom_site_label
  _atom_site_occupancy
  _atom_site_fract_x
  _atom_site_fract_y
  _atom_site_fract_z
  _atom_site_thermal_displace_type
  _atom_site_B_iso_or_equiv
  _atom_site_type_symbol
  Hf1      1.0000 0.13717  0.02093  0.14564  Biso   1.000  Hf
  Hf2      1.0000 0.13012  0.22820  0.39392  Biso   1.000  Hf
  Hf3      1.0000 0.35733  0.27175  0.10202  Biso   1.000  Hf
  Hf4      1.0000 0.36044  0.49674  0.34934  Biso   1.000  Hf
  O1       1.0000 0.03326  0.16521  0.07560  Biso   1.000  O 
  O2       1.0000 0.03164  0.08342  0.32289  Biso   1.000  O 
  O3       1.0000 0.47675  0.39105  0.19687  Biso   1.000  O 
  O4       1.0000 0.49245  0.37900  0.44861  Biso   1.000  O 
  O5       1.0000 0.27772  0.12641  0.24365  Biso   1.000  O 
  O6       1.0000 0.28475  0.11582  0.48856  Biso   1.000  O 
  O7       1.0000 0.22193  0.37886  0.00426  Biso   1.000  O 
  O8       1.0000 0.21460  0.37631  0.25014  Biso   1.000  O 
  Hf5      1.0000 0.14449  0.02354  0.64529  Biso   1.000  Hf
  Hf6      1.0000 0.14397  0.23074  0.89355  Biso   1.000  Hf
  Hf7      1.0000 0.37451  0.27472  0.60702  Biso   1.000  Hf
  Hf8      1.0000 0.36626  0.48152  0.85414  Biso   1.000  Hf
  O9       1.0000 0.03900  0.16636  0.57481  Biso   1.000  O 
  O10      1.0000 0.03888  0.08674  0.82446  Biso   1.000  O 
  O11      1.0000 0.47755  0.40922  0.68939  Biso   1.000  O 
  O12      1.0000 0.47767  0.34911  0.93433  Biso   1.000  O 
  O13      1.0000 0.28078  0.13004  0.74164  Biso   1.000  O 
  O14      1.0000 0.28155  0.12449  0.98986  Biso   1.000  O 
  O15      1.0000 0.24386  0.37097  0.49196  Biso   1.000  O 
  O16      1.0000 0.22861  0.37525  0.75490  Biso   1.000  O 
  Hf9      1.0000 0.13636  0.52104  0.14328  Biso   1.000  Hf
  Hf10     1.0000 0.13352  0.72956  0.39638  Biso   1.000  Hf
  Hf11     1.0000 0.36001  0.77117  0.10071  Biso   1.000  Hf
  Hf12     1.0000 0.35965  0.96720  0.35273  Biso   1.000  Hf
  O17      1.0000 0.02950  0.66530  0.07349  Biso   1.000  O 
  O18      1.0000 0.03241  0.58741  0.32376  Biso   1.000  O 
  O19      1.0000 0.46758  0.90752  0.17511  Biso   1.000  O 
  O20      1.0000 0.46925  0.83701  0.42746  Biso   1.000  O 
  O21      1.0000 0.27308  0.63113  0.23816  Biso   1.000  O 
  O22      1.0000 0.27246  0.62555  0.49280  Biso   1.000  O 
  O23      1.0000 0.22192  0.87868  0.00923  Biso   1.000  O 
  O24      1.0000 0.22110  0.87015  0.25829  Biso   1.000  O 
  Hf13     1.0000 0.14288  0.52166  0.64446  Biso   1.000  Hf
  Hf14     1.0000 0.14214  0.73048  0.89385  Biso   1.000  Hf
  Hf15     1.0000 0.36414  0.77301  0.60515  Biso   1.000  Hf
  Hf16     1.0000 0.36568  0.98119  0.85317  Biso   1.000  Hf
  O25      1.0000 0.03228  0.66396  0.57560  Biso   1.000  O 
  O26      1.0000 0.03864  0.58728  0.82141  Biso   1.000  O 
  O27      1.0000 0.47061  0.91475  0.67487  Biso   1.000  O 
  O28      1.0000 0.47341  0.83998  0.92391  Biso   1.000  O 
  O29      1.0000 0.27963  0.62957  0.73892  Biso   1.000  O 
  O30      1.0000 0.27939  0.62532  0.98825  Biso   1.000  O 
  O31      1.0000 0.22403  0.87653  0.51009  Biso   1.000  O 
  O32      1.0000 0.22781  0.87375  0.75902  Biso   1.000  O 
  Hf17     1.0000 0.63977  0.02179  0.14316  Biso   1.000  Hf
  Hf18     1.0000 0.64013  0.23471  0.40207  Biso   1.000  Hf
  Hf19     1.0000 0.86067  0.27179  0.10514  Biso   1.000  Hf
  Hf20     1.0000 0.86161  0.48005  0.35360  Biso   1.000  Hf
  O33      1.0000 0.52842  0.15719  0.07221  Biso   1.000  O 
  O34      1.0000 0.53439  0.08405  0.32256  Biso   1.000  O 
  O35      1.0000 0.96451  0.41676  0.17089  Biso   1.000  O 
  O36      1.0000 0.96723  0.33843  0.42276  Biso   1.000  O 
  O37      1.0000 0.77570  0.12851  0.23848  Biso   1.000  O 
  O38      1.0000 0.78275  0.12119  0.49111  Biso   1.000  O 
  O39      1.0000 0.72401  0.37719  0.01193  Biso   1.000  O 
  O40      1.0000 0.72711  0.37450  0.26148  Biso   1.000  O 
  Hf21     1.0000 0.64523  0.02207  0.64652  Biso   1.000  Hf
  Hf22     1.0000 0.64309  0.23046  0.89700  Biso   1.000  Hf
  Hf23     1.0000 0.86403  0.27237  0.60562  Biso   1.000  Hf
  Hf24     1.0000 0.86682  0.47921  0.85299  Biso   1.000  Hf
  O41      1.0000 0.54356  0.16772  0.58293  Biso   1.000  O 
  O42      1.0000 0.53760  0.08981  0.82546  Biso   1.000  O 
  O43      1.0000 0.97358  0.41416  0.67149  Biso   1.000  O 
  O44      1.0000 0.97224  0.33662  0.92104  Biso   1.000  O 
  O45      1.0000 0.78108  0.12966  0.74062  Biso   1.000  O 
  O46      1.0000 0.78158  0.12391  0.98816  Biso   1.000  O 
  O47      1.0000 0.73250  0.38043  0.51407  Biso   1.000  O 
  O48      1.0000 0.73118  0.37334  0.76158  Biso   1.000  O 
  Hf25     1.0000 0.63928  0.52054  0.14735  Biso   1.000  Hf
  Hf26     1.0000 0.64094  0.72972  0.39552  Biso   1.000  Hf
  Hf27     1.0000 0.85963  0.77180  0.10257  Biso   1.000  Hf
  Hf28     1.0000 0.85712  0.98009  0.35286  Biso   1.000  Hf
  O49      1.0000 0.52631  0.65319  0.07069  Biso   1.000  O 
  O50      1.0000 0.53138  0.60096  0.31560  Biso   1.000  O 
  O51      1.0000 0.96442  0.91520  0.17066  Biso   1.000  O 
  O52      1.0000 0.96503  0.83709  0.42235  Biso   1.000  O 
  O53      1.0000 0.77547  0.62852  0.23822  Biso   1.000  O 
  O54      1.0000 0.77683  0.62378  0.48816  Biso   1.000  O 
  O55      1.0000 0.72169  0.87743  0.00984  Biso   1.000  O 
  O56      1.0000 0.72276  0.87221  0.25952  Biso   1.000  O 
  Hf29     1.0000 0.64152  0.52344  0.64586  Biso   1.000  Hf
  Hf30     1.0000 0.64314  0.72861  0.89482  Biso   1.000  Hf
  Hf31     1.0000 0.86336  0.77353  0.60359  Biso   1.000  Hf
  Hf32     1.0000 0.86533  0.98036  0.85232  Biso   1.000  Hf
  O57      1.0000 0.53299  0.66082  0.57271  Biso   1.000  O 
  O58      1.0000 0.53510  0.59394  0.82177  Biso   1.000  O 
  O59      1.0000 0.97014  0.91689  0.67142  Biso   1.000  O 
  O60      1.0000 0.97058  0.83680  0.92011  Biso   1.000  O 
  O61      1.0000 0.77914  0.62922  0.73849  Biso   1.000  O 
  O62      1.0000 0.78047  0.62279  0.98824  Biso   1.000  O 
  O63      1.0000 0.72451  0.87894  0.50997  Biso   1.000  O 
  O64      1.0000 0.72860  0.87265  0.75950  Biso   1.000  O 
  Mo1      1.0000 0.39692  0.24461  0.35557  Biso   1.000  Mo
