data_image0
_cell_length_a       10.0605
_cell_length_b       10.2224
_cell_length_c       10.5366
_cell_angle_alpha    90
_cell_angle_beta     90
_cell_angle_gamma    90

_symmetry_space_group_name_H-M    "P 1"
_symmetry_int_tables_number       1

loop_
  _symmetry_equiv_pos_as_xyz
  'x, y, z'

loop_
  _atom_site_label
  _atom_site_occupancy
  _atom_site_fract_x
  _atom_site_fract_y
  _atom_site_fract_z
  _atom_site_thermal_displace_type
  _atom_site_B_iso_or_equiv
  _atom_site_type_symbol
  Hf1      1.0000 0.13713  0.02164  0.17287  Biso   1.000  Hf
  Hf2      1.0000 0.13153  0.22951  0.42295  Biso   1.000  Hf
  Hf3      1.0000 0.35993  0.26626  0.17794  Biso   1.000  Hf
  Hf4      1.0000 0.35257  0.47943  0.42394  Biso   1.000  Hf
  Hf5      1.0000 0.64075  0.00381  0.07484  Biso   1.000  Hf
  Hf6      1.0000 0.62557  0.22754  0.33462  Biso   1.000  Hf
  Hf7      1.0000 0.87108  0.27069  0.07178  Biso   1.000  Hf
  Hf8      1.0000 0.85477  0.47816  0.32807  Biso   1.000  Hf
  O1       1.0000 0.03365  0.15956  0.07621  Biso   1.000  O 
  O2       1.0000 0.02172  0.09241  0.32622  Biso   1.000  O 
  O3       1.0000 0.46622  0.41547  0.07714  Biso   1.000  O 
  O4       1.0000 0.45783  0.33670  0.33825  Biso   1.000  O 
  O5       1.0000 0.26513  0.12415  0.30037  Biso   1.000  O 
  O6       1.0000 0.27424  0.12296  0.04751  Biso   1.000  O 
  O7       1.0000 0.21613  0.37493  0.29742  Biso   1.000  O 
  O8       1.0000 0.22273  0.37611  0.04433  Biso   1.000  O 
  O9       1.0000 0.50852  0.12188  0.19838  Biso   1.000  O 
  O10      1.0000 0.51890  0.09582  0.43808  Biso   1.000  O 
  O11      1.0000 0.96354  0.41355  0.16905  Biso   1.000  O 
  O12      1.0000 0.96110  0.33797  0.41871  Biso   1.000  O 
  O13      1.0000 0.76967  0.12143  0.45090  Biso   1.000  O 
  O14      1.0000 0.75664  0.13561  0.19064  Biso   1.000  O 
  O15      1.0000 0.71803  0.37416  0.45885  Biso   1.000  O 
  O16      1.0000 0.71116  0.38404  0.20846  Biso   1.000  O 
  Hf9      1.0000 0.13207  0.02159  0.67132  Biso   1.000  Hf
  Hf10     1.0000 0.13177  0.22684  0.92063  Biso   1.000  Hf
  Hf11     1.0000 0.35529  0.27048  0.67372  Biso   1.000  Hf
  Hf12     1.0000 0.34765  0.47876  0.91940  Biso   1.000  Hf
  Hf13     1.0000 0.63227  0.01984  0.57946  Biso   1.000  Hf
  Hf14     1.0000 0.63212  0.22699  0.82705  Biso   1.000  Hf
  Hf15     1.0000 0.85417  0.27067  0.57765  Biso   1.000  Hf
  Hf16     1.0000 0.85191  0.47895  0.82750  Biso   1.000  Hf
  O17      1.0000 0.02397  0.16185  0.57974  Biso   1.000  O 
  O18      1.0000 0.02544  0.08581  0.82857  Biso   1.000  O 
  O19      1.0000 0.46233  0.40889  0.58027  Biso   1.000  O 
  O20      1.0000 0.46206  0.34427  0.82708  Biso   1.000  O 
  O21      1.0000 0.26814  0.12423  0.79714  Biso   1.000  O 
  O22      1.0000 0.26797  0.12581  0.54764  Biso   1.000  O 
  O23      1.0000 0.21496  0.37277  0.79397  Biso   1.000  O 
  O24      1.0000 0.21628  0.37651  0.54677  Biso   1.000  O 
  O25      1.0000 0.51897  0.14988  0.68333  Biso   1.000  O 
  O26      1.0000 0.51041  0.11031  0.94527  Biso   1.000  O 
  O27      1.0000 0.95835  0.41411  0.66727  Biso   1.000  O 
  O28      1.0000 0.95926  0.33550  0.91346  Biso   1.000  O 
  O29      1.0000 0.77333  0.11592  0.94293  Biso   1.000  O 
  O30      1.0000 0.76883  0.12523  0.69934  Biso   1.000  O 
  O31      1.0000 0.71231  0.37598  0.95985  Biso   1.000  O 
  O32      1.0000 0.71593  0.37481  0.70727  Biso   1.000  O 
  Hf17     1.0000 0.13689  0.51877  0.17216  Biso   1.000  Hf
  Hf18     1.0000 0.13028  0.72855  0.42105  Biso   1.000  Hf
  Hf19     1.0000 0.35546  0.77064  0.17334  Biso   1.000  Hf
  Hf20     1.0000 0.35404  0.97899  0.42383  Biso   1.000  Hf
  Hf21     1.0000 0.63795  0.53352  0.07674  Biso   1.000  Hf
  Hf22     1.0000 0.63206  0.72887  0.32980  Biso   1.000  Hf
  Hf23     1.0000 0.86438  0.77014  0.07810  Biso   1.000  Hf
  Hf24     1.0000 0.85451  0.97899  0.32752  Biso   1.000  Hf
  O33      1.0000 0.03209  0.66217  0.08079  Biso   1.000  O 
  O34      1.0000 0.02514  0.58716  0.33030  Biso   1.000  O 
  O35      1.0000 0.46815  0.89644  0.07059  Biso   1.000  O 
  O36      1.0000 0.46429  0.84317  0.32729  Biso   1.000  O 
  O37      1.0000 0.26934  0.62433  0.29606  Biso   1.000  O 
  O38      1.0000 0.27469  0.62508  0.04567  Biso   1.000  O 
  O39      1.0000 0.21720  0.87309  0.29558  Biso   1.000  O 
  O40      1.0000 0.22166  0.87685  0.04594  Biso   1.000  O 
  O41      1.0000 0.52526  0.66040  0.17483  Biso   1.000  O 
  O42      1.0000 0.52285  0.58994  0.42260  Biso   1.000  O 
  O43      1.0000 0.96306  0.91547  0.16738  Biso   1.000  O 
  O44      1.0000 0.95944  0.83880  0.41654  Biso   1.000  O 
  O45      1.0000 0.76851  0.62319  0.45334  Biso   1.000  O 
  O46      1.0000 0.77368  0.62961  0.20359  Biso   1.000  O 
  O47      1.0000 0.71582  0.87390  0.45526  Biso   1.000  O 
  O48      1.0000 0.72359  0.87248  0.20697  Biso   1.000  O 
  Hf25     1.0000 0.12900  0.52118  0.67054  Biso   1.000  Hf
  Hf26     1.0000 0.12737  0.72795  0.92144  Biso   1.000  Hf
  Hf27     1.0000 0.35203  0.77247  0.67218  Biso   1.000  Hf
  Hf28     1.0000 0.34794  0.97834  0.92470  Biso   1.000  Hf
  Hf29     1.0000 0.63019  0.52012  0.57800  Biso   1.000  Hf
  Hf30     1.0000 0.62728  0.72851  0.82481  Biso   1.000  Hf
  Hf31     1.0000 0.85269  0.77098  0.57702  Biso   1.000  Hf
  Hf32     1.0000 0.85332  0.97653  0.82549  Biso   1.000  Hf
  O49      1.0000 0.02287  0.66297  0.57944  Biso   1.000  O 
  O50      1.0000 0.02141  0.58651  0.82993  Biso   1.000  O 
  O51      1.0000 0.46207  0.90498  0.57640  Biso   1.000  O 
  O52      1.0000 0.46308  0.84886  0.82378  Biso   1.000  O 
  O53      1.0000 0.26475  0.62436  0.79503  Biso   1.000  O 
  O54      1.0000 0.26630  0.62652  0.54564  Biso   1.000  O 
  O55      1.0000 0.21446  0.87324  0.79631  Biso   1.000  O 
  O56      1.0000 0.21598  0.87642  0.54523  Biso   1.000  O 
  O57      1.0000 0.51953  0.65876  0.67168  Biso   1.000  O 
  O58      1.0000 0.51611  0.59520  0.92150  Biso   1.000  O 
  O59      1.0000 0.96074  0.91178  0.66514  Biso   1.000  O 
  O60      1.0000 0.95791  0.83548  0.91823  Biso   1.000  O 
  O61      1.0000 0.76485  0.62408  0.95172  Biso   1.000  O 
  O62      1.0000 0.76618  0.62540  0.70298  Biso   1.000  O 
  O63      1.0000 0.71427  0.86918  0.95278  Biso   1.000  O 
  O64      1.0000 0.71651  0.87369  0.70376  Biso   1.000  O 
  Mo1      1.0000 0.60440  0.25673  0.08863  Biso   1.000  Mo
