data_image0
_cell_length_a       10.0141
_cell_length_b       10.4486
_cell_length_c       10.0526
_cell_angle_alpha    90
_cell_angle_beta     90
_cell_angle_gamma    90

_symmetry_space_group_name_H-M    "P 1"
_symmetry_int_tables_number       1

loop_
  _symmetry_equiv_pos_as_xyz
  'x, y, z'

loop_
  _atom_site_label
  _atom_site_occupancy
  _atom_site_fract_x
  _atom_site_fract_y
  _atom_site_fract_z
  _atom_site_thermal_displace_type
  _atom_site_B_iso_or_equiv
  _atom_site_type_symbol
  Hf1      1.0000 0.13218  0.01998  0.12343  Biso   1.000  Hf
  Hf2      1.0000 0.13807  0.22840  0.37992  Biso   1.000  Hf
  Hf3      1.0000 0.38288  0.27045  0.12270  Biso   1.000  Hf
  Hf4      1.0000 0.36992  0.48268  0.37581  Biso   1.000  Hf
  O1       1.0000 0.00786  0.16945  0.22679  Biso   1.000  O 
  O2       1.0000 0.04078  0.06006  0.45102  Biso   1.000  O 
  O3       1.0000 0.47620  0.43382  0.20216  Biso   1.000  O 
  O4       1.0000 0.47183  0.31910  0.45226  Biso   1.000  O 
  O5       1.0000 0.26777  0.10853  0.25155  Biso   1.000  O 
  O6       1.0000 0.27719  0.13187  0.50287  Biso   1.000  O 
  O7       1.0000 0.23593  0.38426  0.50470  Biso   1.000  O 
  O8       1.0000 0.24883  0.35479  0.25942  Biso   1.000  O 
  Hf5      1.0000 0.13883  0.01236  0.62403  Biso   1.000  Hf
  Hf6      1.0000 0.13117  0.22959  0.85744  Biso   1.000  Hf
  Hf7      1.0000 0.37137  0.26891  0.62732  Biso   1.000  Hf
  Hf8      1.0000 0.37785  0.49542  0.87174  Biso   1.000  Hf
  O9       1.0000 0.03508  0.17762  0.68437  Biso   1.000  O 
  O10      1.0000 0.03601  0.06683  0.94125  Biso   1.000  O 
  O11      1.0000 0.47260  0.43441  0.69527  Biso   1.000  O 
  O12      1.0000 0.47658  0.32587  0.94252  Biso   1.000  O 
  O13      1.0000 0.27276  0.11490  0.75081  Biso   1.000  O 
  O14      1.0000 0.24975  0.16230  0.00775  Biso   1.000  O 
  O15      1.0000 0.25288  0.41322  0.01079  Biso   1.000  O 
  O16      1.0000 0.23815  0.36879  0.75496  Biso   1.000  O 
  Hf9      1.0000 0.13260  0.54281  0.11333  Biso   1.000  Hf
  Hf10     1.0000 0.13925  0.73466  0.37636  Biso   1.000  Hf
  Hf11     1.0000 0.37004  0.76994  0.12456  Biso   1.000  Hf
  Hf12     1.0000 0.37090  0.98450  0.37573  Biso   1.000  Hf
  O17      1.0000 0.03001  0.69007  0.20484  Biso   1.000  O 
  O18      1.0000 0.04008  0.56782  0.44733  Biso   1.000  O 
  O19      1.0000 0.46816  0.93287  0.19794  Biso   1.000  O 
  O20      1.0000 0.47230  0.81713  0.44572  Biso   1.000  O 
  O21      1.0000 0.27565  0.61855  0.24646  Biso   1.000  O 
  O22      1.0000 0.27586  0.63259  0.49729  Biso   1.000  O 
  O23      1.0000 0.23756  0.88152  0.49773  Biso   1.000  O 
  O24      1.0000 0.23188  0.86540  0.24675  Biso   1.000  O 
  Hf13     1.0000 0.13868  0.51645  0.62591  Biso   1.000  Hf
  Hf14     1.0000 0.13602  0.74555  0.86581  Biso   1.000  Hf
  Hf15     1.0000 0.37457  0.76373  0.62156  Biso   1.000  Hf
  Hf16     1.0000 0.38140  0.98479  0.86820  Biso   1.000  Hf
  O25      1.0000 0.04113  0.68523  0.69018  Biso   1.000  O 
  O26      1.0000 0.03940  0.57718  0.93774  Biso   1.000  O 
  O27      1.0000 0.47579  0.93145  0.69431  Biso   1.000  O 
  O28      1.0000 0.47757  0.82409  0.94518  Biso   1.000  O 
  O29      1.0000 0.27415  0.61834  0.74529  Biso   1.000  O 
  O30      1.0000 0.27392  0.66003  0.99038  Biso   1.000  O 
  O31      1.0000 0.24362  0.90365  0.99604  Biso   1.000  O 
  O32      1.0000 0.24288  0.86670  0.74487  Biso   1.000  O 
  Hf17     1.0000 0.63220  0.01299  0.12670  Biso   1.000  Hf
  Hf18     1.0000 0.63578  0.23398  0.37721  Biso   1.000  Hf
  Hf19     1.0000 0.85394  0.25989  0.12470  Biso   1.000  Hf
  Hf20     1.0000 0.87446  0.48255  0.37434  Biso   1.000  Hf
  O33      1.0000 0.53713  0.17999  0.20244  Biso   1.000  O 
  O34      1.0000 0.53766  0.06739  0.44771  Biso   1.000  O 
  O35      1.0000 0.97496  0.43040  0.19572  Biso   1.000  O 
  O36      1.0000 0.97241  0.32053  0.45042  Biso   1.000  O 
  O37      1.0000 0.76162  0.11140  0.24996  Biso   1.000  O 
  O38      1.0000 0.77426  0.13631  0.49746  Biso   1.000  O 
  O39      1.0000 0.73713  0.38591  0.49963  Biso   1.000  O 
  O40      1.0000 0.73423  0.36700  0.25217  Biso   1.000  O 
  Hf21     1.0000 0.64021  0.01725  0.62198  Biso   1.000  Hf
  Hf22     1.0000 0.63871  0.23665  0.87283  Biso   1.000  Hf
  Hf23     1.0000 0.86908  0.26936  0.62296  Biso   1.000  Hf
  Hf24     1.0000 0.87025  0.48706  0.87535  Biso   1.000  Hf
  O41      1.0000 0.53804  0.18165  0.69847  Biso   1.000  O 
  O42      1.0000 0.53081  0.07794  0.95382  Biso   1.000  O 
  O43      1.0000 0.97312  0.43120  0.70110  Biso   1.000  O 
  O44      1.0000 0.97218  0.32260  0.95005  Biso   1.000  O 
  O45      1.0000 0.77416  0.11772  0.74709  Biso   1.000  O 
  O46      1.0000 0.77121  0.13428  0.99679  Biso   1.000  O 
  O47      1.0000 0.73404  0.38760  0.99951  Biso   1.000  O 
  O48      1.0000 0.73605  0.36932  0.74973  Biso   1.000  O 
  Hf25     1.0000 0.63803  0.51828  0.12735  Biso   1.000  Hf
  Hf26     1.0000 0.63860  0.73377  0.37430  Biso   1.000  Hf
  Hf27     1.0000 0.86573  0.76759  0.12581  Biso   1.000  Hf
  Hf28     1.0000 0.87561  0.98713  0.37090  Biso   1.000  Hf
  O49      1.0000 0.53918  0.68536  0.19538  Biso   1.000  O 
  O50      1.0000 0.53864  0.56850  0.44690  Biso   1.000  O 
  O51      1.0000 0.96549  0.93302  0.19133  Biso   1.000  O 
  O52      1.0000 0.97090  0.81865  0.44502  Biso   1.000  O 
  O53      1.0000 0.77392  0.61523  0.24900  Biso   1.000  O 
  O54      1.0000 0.77428  0.63481  0.49798  Biso   1.000  O 
  O55      1.0000 0.73886  0.88658  0.49657  Biso   1.000  O 
  O56      1.0000 0.73295  0.86564  0.24852  Biso   1.000  O 
  Hf29     1.0000 0.63966  0.51810  0.62332  Biso   1.000  Hf
  Hf30     1.0000 0.64294  0.73653  0.87488  Biso   1.000  Hf
  Hf31     1.0000 0.87211  0.76774  0.62109  Biso   1.000  Hf
  Hf32     1.0000 0.87184  0.98457  0.87345  Biso   1.000  Hf
  O57      1.0000 0.54010  0.68236  0.69912  Biso   1.000  O 
  O58      1.0000 0.54212  0.57501  0.95059  Biso   1.000  O 
  O59      1.0000 0.97567  0.92877  0.70018  Biso   1.000  O 
  O60      1.0000 0.97175  0.82098  0.94813  Biso   1.000  O 
  O61      1.0000 0.77634  0.61790  0.74766  Biso   1.000  O 
  O62      1.0000 0.77895  0.63745  0.99813  Biso   1.000  O 
  O63      1.0000 0.73566  0.88714  0.99751  Biso   1.000  O 
  O64      1.0000 0.73771  0.86758  0.74651  Biso   1.000  O 
  Mo1      1.0000 0.11259  0.30184  0.10770  Biso   1.000  Mo
