data_image0
_cell_length_a       10.2598
_cell_length_b       10.2598
_cell_length_c       5.29534
_cell_angle_alpha    90
_cell_angle_beta     80
_cell_angle_gamma    90

_symmetry_space_group_name_H-M    "P 1"
_symmetry_int_tables_number       1

loop_
  _symmetry_equiv_pos_as_xyz
  'x, y, z'

loop_
  _atom_site_label
  _atom_site_occupancy
  _atom_site_fract_x
  _atom_site_fract_y
  _atom_site_fract_z
  _atom_site_thermal_displace_type
  _atom_site_B_iso_or_equiv
  _atom_site_type_symbol
  Hf1      1.0000 0.14040  0.02146  0.29106  Biso   1.000  Hf
  Hf2      1.0000 0.13427  0.22931  0.78465  Biso   1.000  Hf
  Hf3      1.0000 0.36692  0.27430  0.21624  Biso   1.000  Hf
  Hf4      1.0000 0.36107  0.49675  0.69627  Biso   1.000  Hf
  O1       1.0000 0.03394  0.16301  0.14419  Biso   1.000  O 
  O2       1.0000 0.03411  0.08640  0.63730  Biso   1.000  O 
  O3       1.0000 0.48300  0.38801  0.41450  Biso   1.000  O 
  O4       1.0000 0.49483  0.38068  0.91048  Biso   1.000  O 
  O5       1.0000 0.28046  0.12663  0.49780  Biso   1.000  O 
  O6       1.0000 0.29076  0.11605  0.98557  Biso   1.000  O 
  O7       1.0000 0.24786  0.36996  0.97293  Biso   1.000  O 
  O8       1.0000 0.21540  0.37877  0.48840  Biso   1.000  O 
  Hf5      1.0000 0.13537  0.52098  0.28439  Biso   1.000  Hf
  Hf6      1.0000 0.13398  0.73008  0.78851  Biso   1.000  Hf
  Hf7      1.0000 0.35788  0.77148  0.20451  Biso   1.000  Hf
  Hf8      1.0000 0.36022  0.96854  0.70521  Biso   1.000  Hf
  O9       1.0000 0.02140  0.66052  0.13938  Biso   1.000  O 
  O10      1.0000 0.03217  0.59098  0.63211  Biso   1.000  O 
  O11      1.0000 0.46662  0.90637  0.35423  Biso   1.000  O 
  O12      1.0000 0.47246  0.83890  0.85503  Biso   1.000  O 
  O13      1.0000 0.27224  0.63061  0.47562  Biso   1.000  O 
  O14      1.0000 0.27309  0.62641  0.98103  Biso   1.000  O 
  O15      1.0000 0.21637  0.87473  0.01898  Biso   1.000  O 
  O16      1.0000 0.22095  0.87165  0.51427  Biso   1.000  O 
  Hf9      1.0000 0.64379  0.02061  0.28962  Biso   1.000  Hf
  Hf10     1.0000 0.64305  0.23438  0.80791  Biso   1.000  Hf
  Hf11     1.0000 0.85998  0.27084  0.21317  Biso   1.000  Hf
  Hf12     1.0000 0.86403  0.47880  0.70410  Biso   1.000  Hf
  O17      1.0000 0.53583  0.16012  0.16269  Biso   1.000  O 
  O18      1.0000 0.53729  0.08597  0.64634  Biso   1.000  O 
  O19      1.0000 0.96788  0.41277  0.34178  Biso   1.000  O 
  O20      1.0000 0.97241  0.34085  0.84386  Biso   1.000  O 
  O21      1.0000 0.77857  0.12770  0.47934  Biso   1.000  O 
  O22      1.0000 0.78722  0.12074  0.97910  Biso   1.000  O 
  O23      1.0000 0.72769  0.37713  0.03167  Biso   1.000  O 
  O24      1.0000 0.72993  0.37404  0.52614  Biso   1.000  O 
  Hf13     1.0000 0.63702  0.52075  0.29390  Biso   1.000  Hf
  Hf14     1.0000 0.64139  0.72740  0.78925  Biso   1.000  Hf
  Hf15     1.0000 0.85632  0.77230  0.20401  Biso   1.000  Hf
  Hf16     1.0000 0.85767  0.97972  0.70214  Biso   1.000  Hf
  O25      1.0000 0.52223  0.65105  0.13822  Biso   1.000  O 
  O26      1.0000 0.53012  0.60346  0.62605  Biso   1.000  O 
  O27      1.0000 0.96458  0.91300  0.34134  Biso   1.000  O 
  O28      1.0000 0.96728  0.83941  0.84185  Biso   1.000  O 
  O29      1.0000 0.77371  0.62717  0.47300  Biso   1.000  O 
  O30      1.0000 0.77782  0.62228  0.97189  Biso   1.000  O 
  O31      1.0000 0.71680  0.87599  0.01992  Biso   1.000  O 
  O32      1.0000 0.72326  0.87151  0.51851  Biso   1.000  O 
  Mo1      1.0000 0.40000  0.24573  0.71994  Biso   1.000  Mo
