data_image0
_cell_length_a       9.94289
_cell_length_b       10.339
_cell_length_c       4.98805
_cell_angle_alpha    90
_cell_angle_beta     90
_cell_angle_gamma    90

_symmetry_space_group_name_H-M    "P 1"
_symmetry_int_tables_number       1

loop_
  _symmetry_equiv_pos_as_xyz
  'x, y, z'

loop_
  _atom_site_label
  _atom_site_occupancy
  _atom_site_fract_x
  _atom_site_fract_y
  _atom_site_fract_z
  _atom_site_thermal_displace_type
  _atom_site_B_iso_or_equiv
  _atom_site_type_symbol
  Mo1      1.0000 0.13488  0.02118  0.25408  Biso   1.000  Mo
  Hf1      1.0000 0.13397  0.23305  0.75549  Biso   1.000  Hf
  Hf2      1.0000 0.36606  0.26732  0.25034  Biso   1.000  Hf
  Hf3      1.0000 0.36583  0.48520  0.75162  Biso   1.000  Hf
  O1       1.0000 0.03438  0.18001  0.40482  Biso   1.000  O 
  O2       1.0000 0.03634  0.06700  0.92126  Biso   1.000  O 
  O3       1.0000 0.46279  0.43553  0.38583  Biso   1.000  O 
  O4       1.0000 0.46263  0.31636  0.88556  Biso   1.000  O 
  O5       1.0000 0.26998  0.11799  0.49033  Biso   1.000  O 
  O6       1.0000 0.27167  0.13054  0.99644  Biso   1.000  O 
  O7       1.0000 0.22900  0.38170  0.00056  Biso   1.000  O 
  O8       1.0000 0.22938  0.36780  0.50155  Biso   1.000  O 
  Hf4      1.0000 0.13407  0.51660  0.25281  Biso   1.000  Hf
  Hf5      1.0000 0.13363  0.73567  0.75187  Biso   1.000  Hf
  Hf6      1.0000 0.36436  0.76845  0.25203  Biso   1.000  Hf
  Hf7      1.0000 0.36384  0.98363  0.75205  Biso   1.000  Hf
  O9       1.0000 0.03660  0.68404  0.38677  Biso   1.000  O 
  O10      1.0000 0.03636  0.56687  0.88870  Biso   1.000  O 
  O11      1.0000 0.46403  0.93447  0.38938  Biso   1.000  O 
  O12      1.0000 0.46153  0.81671  0.88688  Biso   1.000  O 
  O13      1.0000 0.27072  0.61976  0.49981  Biso   1.000  O 
  O14      1.0000 0.27080  0.63376  0.99950  Biso   1.000  O 
  O15      1.0000 0.22393  0.88354  0.00312  Biso   1.000  O 
  O16      1.0000 0.22741  0.87121  0.49743  Biso   1.000  O 
  Hf8      1.0000 0.63387  0.01633  0.24928  Biso   1.000  Hf
  Hf9      1.0000 0.63360  0.23395  0.75120  Biso   1.000  Hf
  Hf10     1.0000 0.86565  0.26542  0.25351  Biso   1.000  Hf
  Hf11     1.0000 0.86589  0.48440  0.75256  Biso   1.000  Hf
  O17      1.0000 0.53645  0.18519  0.38600  Biso   1.000  O 
  O18      1.0000 0.53588  0.06647  0.88634  Biso   1.000  O 
  O19      1.0000 0.96450  0.43262  0.39092  Biso   1.000  O 
  O20      1.0000 0.96475  0.31641  0.89346  Biso   1.000  O 
  O21      1.0000 0.76964  0.11771  0.49815  Biso   1.000  O 
  O22      1.0000 0.77139  0.13358  0.99719  Biso   1.000  O 
  O23      1.0000 0.72916  0.38177  0.00033  Biso   1.000  O 
  O24      1.0000 0.72943  0.36828  0.49968  Biso   1.000  O 
  Hf12     1.0000 0.63413  0.51751  0.25145  Biso   1.000  Hf
  Hf13     1.0000 0.63418  0.73548  0.74929  Biso   1.000  Hf
  Hf14     1.0000 0.86785  0.76758  0.24880  Biso   1.000  Hf
  Hf15     1.0000 0.86918  0.98548  0.74884  Biso   1.000  Hf
  O25      1.0000 0.53643  0.68584  0.38605  Biso   1.000  O 
  O26      1.0000 0.53724  0.56686  0.88530  Biso   1.000  O 
  O27      1.0000 0.96916  0.93488  0.38500  Biso   1.000  O 
  O28      1.0000 0.96195  0.81652  0.88211  Biso   1.000  O 
  O29      1.0000 0.77100  0.61856  0.49901  Biso   1.000  O 
  O30      1.0000 0.77073  0.63405  0.99880  Biso   1.000  O 
  O31      1.0000 0.72947  0.88476  0.99416  Biso   1.000  O 
  O32      1.0000 0.73260  0.86914  0.49583  Biso   1.000  O 
