data_image0
_cell_length_a       5.08997
_cell_length_b       10.2518
_cell_length_c       10.6444
_cell_angle_alpha    90
_cell_angle_beta     80
_cell_angle_gamma    90

_symmetry_space_group_name_H-M    "P 1"
_symmetry_int_tables_number       1

loop_
  _symmetry_equiv_pos_as_xyz
  'x, y, z'

loop_
  _atom_site_label
  _atom_site_occupancy
  _atom_site_fract_x
  _atom_site_fract_y
  _atom_site_fract_z
  _atom_site_thermal_displace_type
  _atom_site_B_iso_or_equiv
  _atom_site_type_symbol
  Hf1      1.0000 0.27547  0.02111  0.14329  Biso   1.000  Hf
  Hf2      1.0000 0.25555  0.24585  0.41251  Biso   1.000  Hf
  Hf3      1.0000 0.72277  0.26525  0.08893  Biso   1.000  Hf
  Hf4      1.0000 0.70042  0.49682  0.36149  Biso   1.000  Hf
  O1       1.0000 0.06381  0.15263  0.06262  Biso   1.000  O 
  O2       1.0000 0.06628  0.09243  0.32736  Biso   1.000  O 
  O3       1.0000 0.94987  0.39234  0.18958  Biso   1.000  O 
  O4       1.0000 0.94272  0.37347  0.44463  Biso   1.000  O 
  O5       1.0000 0.56435  0.11724  0.22208  Biso   1.000  O 
  O6       1.0000 0.55387  0.12727  0.48234  Biso   1.000  O 
  O7       1.0000 0.44187  0.37824  0.00892  Biso   1.000  O 
  O8       1.0000 0.46886  0.36887  0.26311  Biso   1.000  O 
  Hf5      1.0000 0.26167  0.03058  0.64523  Biso   1.000  Hf
  Hf6      1.0000 0.25794  0.23765  0.89128  Biso   1.000  Hf
  Hf7      1.0000 0.70250  0.28721  0.60770  Biso   1.000  Hf
  Hf8      1.0000 0.69647  0.49076  0.85819  Biso   1.000  Hf
  O9       1.0000 0.04613  0.17345  0.58211  Biso   1.000  O 
  O10      1.0000 0.04631  0.09749  0.82114  Biso   1.000  O 
  O11      1.0000 0.91316  0.42249  0.68556  Biso   1.000  O 
  O12      1.0000 0.92501  0.35450  0.92527  Biso   1.000  O 
  O13      1.0000 0.53218  0.13821  0.73589  Biso   1.000  O 
  O14      1.0000 0.53135  0.13247  0.98038  Biso   1.000  O 
  O15      1.0000 0.42216  0.39511  0.52424  Biso   1.000  O 
  O16      1.0000 0.42923  0.38335  0.76382  Biso   1.000  O 
  Hf9      1.0000 0.26714  0.51837  0.14816  Biso   1.000  Hf
  Hf10     1.0000 0.25056  0.73452  0.39810  Biso   1.000  Hf
  Hf11     1.0000 0.71371  0.77058  0.10535  Biso   1.000  Hf
  Hf12     1.0000 0.70028  0.97525  0.35373  Biso   1.000  Hf
  O17      1.0000 0.04908  0.65374  0.07325  Biso   1.000  O 
  O18      1.0000 0.04983  0.59762  0.31895  Biso   1.000  O 
  O19      1.0000 0.92834  0.90682  0.18113  Biso   1.000  O 
  O20      1.0000 0.91518  0.84388  0.43145  Biso   1.000  O 
  O21      1.0000 0.53751  0.62840  0.23989  Biso   1.000  O 
  O22      1.0000 0.52213  0.63477  0.49446  Biso   1.000  O 
  O23      1.0000 0.44052  0.87724  0.01249  Biso   1.000  O 
  O24      1.0000 0.43209  0.86940  0.26113  Biso   1.000  O 
  Hf13     1.0000 0.24789  0.53483  0.65248  Biso   1.000  Hf
  Hf14     1.0000 0.24978  0.73923  0.90013  Biso   1.000  Hf
  Hf15     1.0000 0.69671  0.78091  0.60814  Biso   1.000  Hf
  Hf16     1.0000 0.69743  0.98771  0.85412  Biso   1.000  Hf
  O25      1.0000 0.03297  0.66825  0.57469  Biso   1.000  O 
  O26      1.0000 0.03430  0.60393  0.82706  Biso   1.000  O 
  O27      1.0000 0.91257  0.91954  0.67846  Biso   1.000  O 
  O28      1.0000 0.91014  0.85098  0.93139  Biso   1.000  O 
  O29      1.0000 0.52498  0.63980  0.74418  Biso   1.000  O 
  O30      1.0000 0.52213  0.63407  0.99343  Biso   1.000  O 
  O31      1.0000 0.42464  0.88579  0.51260  Biso   1.000  O 
  O32      1.0000 0.42186  0.88226  0.76307  Biso   1.000  O 
  Mo1      1.0000 0.77468  0.24371  0.32384  Biso   1.000  Mo
