data_image0
_cell_length_a       10.0874
_cell_length_b       10.2368
_cell_length_c       5.29834
_cell_angle_alpha    90
_cell_angle_beta     90
_cell_angle_gamma    90

_symmetry_space_group_name_H-M    "P 1"
_symmetry_int_tables_number       1

loop_
  _symmetry_equiv_pos_as_xyz
  'x, y, z'

loop_
  _atom_site_label
  _atom_site_occupancy
  _atom_site_fract_x
  _atom_site_fract_y
  _atom_site_fract_z
  _atom_site_thermal_displace_type
  _atom_site_B_iso_or_equiv
  _atom_site_type_symbol
  Hf1      1.0000 0.13740  0.02210  0.34348  Biso   1.000  Hf
  Hf2      1.0000 0.13022  0.22844  0.84220  Biso   1.000  Hf
  Hf3      1.0000 0.35894  0.26664  0.35986  Biso   1.000  Hf
  Hf4      1.0000 0.34348  0.48017  0.84378  Biso   1.000  Hf
  Hf5      1.0000 0.64173  0.00424  0.15079  Biso   1.000  Hf
  Hf6      1.0000 0.62454  0.22630  0.67166  Biso   1.000  Hf
  Hf7      1.0000 0.86961  0.26903  0.14217  Biso   1.000  Hf
  Hf8      1.0000 0.85007  0.47908  0.65468  Biso   1.000  Hf
  O1       1.0000 0.03135  0.15619  0.14450  Biso   1.000  O 
  O2       1.0000 0.02177  0.09303  0.64249  Biso   1.000  O 
  O3       1.0000 0.46400  0.41423  0.15708  Biso   1.000  O 
  O4       1.0000 0.45454  0.34107  0.67531  Biso   1.000  O 
  O5       1.0000 0.26412  0.12487  0.60191  Biso   1.000  O 
  O6       1.0000 0.27322  0.12363  0.09752  Biso   1.000  O 
  O7       1.0000 0.21145  0.37528  0.59265  Biso   1.000  O 
  O8       1.0000 0.21960  0.37656  0.09204  Biso   1.000  O 
  O9       1.0000 0.50860  0.12062  0.40979  Biso   1.000  O 
  O10      1.0000 0.50673  0.11291  0.91165  Biso   1.000  O 
  O11      1.0000 0.95841  0.41315  0.33752  Biso   1.000  O 
  O12      1.0000 0.95778  0.33801  0.82899  Biso   1.000  O 
  O13      1.0000 0.77292  0.11446  0.87840  Biso   1.000  O 
  O14      1.0000 0.75657  0.13619  0.37553  Biso   1.000  O 
  O15      1.0000 0.71177  0.37702  0.93232  Biso   1.000  O 
  O16      1.0000 0.70555  0.38512  0.42965  Biso   1.000  O 
  Hf9      1.0000 0.13157  0.51918  0.34152  Biso   1.000  Hf
  Hf10     1.0000 0.12366  0.72827  0.84093  Biso   1.000  Hf
  Hf11     1.0000 0.35091  0.77246  0.34749  Biso   1.000  Hf
  Hf12     1.0000 0.34480  0.97920  0.85205  Biso   1.000  Hf
  Hf13     1.0000 0.63399  0.53261  0.15352  Biso   1.000  Hf
  Hf14     1.0000 0.62539  0.72917  0.65309  Biso   1.000  Hf
  Hf15     1.0000 0.85983  0.76985  0.15401  Biso   1.000  Hf
  Hf16     1.0000 0.85141  0.97667  0.65015  Biso   1.000  Hf
  O17      1.0000 0.02677  0.66062  0.15400  Biso   1.000  O 
  O18      1.0000 0.01884  0.58881  0.65409  Biso   1.000  O 
  O19      1.0000 0.46457  0.89487  0.13900  Biso   1.000  O 
  O20      1.0000 0.46109  0.85041  0.64671  Biso   1.000  O 
  O21      1.0000 0.26263  0.62551  0.59013  Biso   1.000  O 
  O22      1.0000 0.26946  0.62605  0.09150  Biso   1.000  O 
  O23      1.0000 0.21213  0.87375  0.59275  Biso   1.000  O 
  O24      1.0000 0.21820  0.87702  0.09142  Biso   1.000  O 
  O25      1.0000 0.51893  0.65954  0.35072  Biso   1.000  O 
  O26      1.0000 0.51289  0.59646  0.84686  Biso   1.000  O 
  O27      1.0000 0.96077  0.91242  0.33150  Biso   1.000  O 
  O28      1.0000 0.95470  0.83907  0.83557  Biso   1.000  O 
  O29      1.0000 0.76175  0.62421  0.90024  Biso   1.000  O 
  O30      1.0000 0.76879  0.62979  0.40350  Biso   1.000  O 
  O31      1.0000 0.71078  0.86979  0.90772  Biso   1.000  O 
  O32      1.0000 0.71978  0.87195  0.41178  Biso   1.000  O 
  Mo1      1.0000 0.60313  0.25676  0.18736  Biso   1.000  Mo
