data_image0
_cell_length_a       10.066
_cell_length_b       10.2756
_cell_length_c       10.1226
_cell_angle_alpha    90
_cell_angle_beta     90
_cell_angle_gamma    90

_symmetry_space_group_name_H-M    "P 1"
_symmetry_int_tables_number       1

loop_
  _symmetry_equiv_pos_as_xyz
  'x, y, z'

loop_
  _atom_site_label
  _atom_site_occupancy
  _atom_site_fract_x
  _atom_site_fract_y
  _atom_site_fract_z
  _atom_site_thermal_displace_type
  _atom_site_B_iso_or_equiv
  _atom_site_type_symbol
  Hf1      1.0000 0.13566  0.95559  0.12200  Biso   1.000  Hf
  Hf2      1.0000 0.14702  0.25791  0.38269  Biso   1.000  Hf
  Hf3      1.0000 0.38648  0.26600  0.14665  Biso   1.000  Hf
  Hf4      1.0000 0.38797  0.99304  0.38374  Biso   1.000  Hf
  O1       1.0000 0.00881  0.15658  0.95560  Biso   1.000  O 
  O2       1.0000 0.98047  0.07677  0.20410  Biso   1.000  O 
  O3       1.0000 0.00817  0.33448  0.23899  Biso   1.000  O 
  O4       1.0000 0.04047  0.40619  0.98628  Biso   1.000  O 
  O5       1.0000 0.26495  0.14861  0.25416  Biso   1.000  O 
  O6       1.0000 0.25863  0.07246  0.98450  Biso   1.000  O 
  O7       1.0000 0.24798  0.33347  0.01060  Biso   1.000  O 
  O8       1.0000 0.26355  0.40684  0.26463  Biso   1.000  O 
  Hf5      1.0000 0.16018  0.98560  0.62873  Biso   1.000  Hf
  Hf6      1.0000 0.15927  0.25921  0.86159  Biso   1.000  Hf
  Hf7      1.0000 0.39962  0.25862  0.64282  Biso   1.000  Hf
  Hf8      1.0000 0.41280  0.97832  0.89151  Biso   1.000  Hf
  O9       1.0000 0.98574  0.15979  0.45224  Biso   1.000  O 
  O10      1.0000 0.99781  0.08825  0.70598  Biso   1.000  O 
  O11      1.0000 0.02611  0.34412  0.73247  Biso   1.000  O 
  O12      1.0000 0.02384  0.40219  0.49199  Biso   1.000  O 
  O13      1.0000 0.25711  0.14607  0.72884  Biso   1.000  O 
  O14      1.0000 0.23742  0.09153  0.48460  Biso   1.000  O 
  O15      1.0000 0.27329  0.34816  0.51166  Biso   1.000  O 
  O16      1.0000 0.28028  0.40360  0.76160  Biso   1.000  O 
  Hf9      1.0000 0.13233  0.49297  0.12248  Biso   1.000  Hf
  Hf10     1.0000 0.14170  0.74785  0.37635  Biso   1.000  Hf
  Hf11     1.0000 0.39523  0.73885  0.13271  Biso   1.000  Hf
  Hf12     1.0000 0.40283  0.50346  0.38210  Biso   1.000  Hf
  O17      1.0000 0.04259  0.66245  0.03460  Biso   1.000  O 
  O18      1.0000 0.04695  0.58427  0.28270  Biso   1.000  O 
  O19      1.0000 0.01060  0.83472  0.24898  Biso   1.000  O 
  O20      1.0000 0.03618  0.89026  0.98338  Biso   1.000  O 
  O21      1.0000 0.29807  0.65618  0.29228  Biso   1.000  O 
  O22      1.0000 0.29335  0.57894  0.04338  Biso   1.000  O 
  O23      1.0000 0.26145  0.83050  0.00470  Biso   1.000  O 
  O24      1.0000 0.26651  0.89032  0.25869  Biso   1.000  O 
  Hf13     1.0000 0.14918  0.49279  0.62137  Biso   1.000  Hf
  Hf14     1.0000 0.15794  0.74448  0.86873  Biso   1.000  Hf
  Hf15     1.0000 0.40905  0.74394  0.62779  Biso   1.000  Hf
  Hf16     1.0000 0.42538  0.50159  0.87587  Biso   1.000  Hf
  O25      1.0000 0.05450  0.65602  0.53342  Biso   1.000  O 
  O26      1.0000 0.06280  0.58738  0.78004  Biso   1.000  O 
  O27      1.0000 0.03302  0.84433  0.74237  Biso   1.000  O 
  O28      1.0000 0.02185  0.90333  0.49070  Biso   1.000  O 
  O29      1.0000 0.31777  0.65368  0.78956  Biso   1.000  O 
  O30      1.0000 0.30556  0.58831  0.54087  Biso   1.000  O 
  O31      1.0000 0.27155  0.84106  0.51063  Biso   1.000  O 
  O32      1.0000 0.28347  0.89227  0.75693  Biso   1.000  O 
  Hf17     1.0000 0.61748  0.99973  0.13451  Biso   1.000  Hf
  Hf18     1.0000 0.62732  0.24000  0.38879  Biso   1.000  Hf
  Hf19     1.0000 0.85928  0.24421  0.11551  Biso   1.000  Hf
  Hf20     1.0000 0.88144  0.00490  0.36653  Biso   1.000  Hf
  O33      1.0000 0.48170  0.14297  0.01379  Biso   1.000  O 
  O34      1.0000 0.50566  0.10171  0.26518  Biso   1.000  O 
  O35      1.0000 0.50892  0.35417  0.27721  Biso   1.000  O 
  O36      1.0000 0.50574  0.39717  0.01878  Biso   1.000  O 
  O37      1.0000 0.74784  0.14440  0.25696  Biso   1.000  O 
  O38      1.0000 0.73350  0.10484  0.00409  Biso   1.000  O 
  O39      1.0000 0.78686  0.34941  0.97532  Biso   1.000  O 
  O40      1.0000 0.76322  0.39537  0.22516  Biso   1.000  O 
  Hf21     1.0000 0.63145  0.99878  0.63205  Biso   1.000  Hf
  Hf22     1.0000 0.64064  0.23423  0.88898  Biso   1.000  Hf
  Hf23     1.0000 0.88831  0.23961  0.61432  Biso   1.000  Hf
  Hf24     1.0000 0.89735  0.00275  0.86267  Biso   1.000  Hf
  O41      1.0000 0.50126  0.14408  0.51250  Biso   1.000  O 
  O42      1.0000 0.51355  0.09683  0.76344  Biso   1.000  O 
  O43      1.0000 0.52096  0.34459  0.77501  Biso   1.000  O 
  O44      1.0000 0.52512  0.39546  0.52170  Biso   1.000  O 
  O45      1.0000 0.76416  0.14513  0.75495  Biso   1.000  O 
  O46      1.0000 0.75297  0.10092  0.50619  Biso   1.000  O 
  O47      1.0000 0.77168  0.35292  0.47691  Biso   1.000  O 
  O48      1.0000 0.78273  0.39171  0.72193  Biso   1.000  O 
  Hf25     1.0000 0.64937  0.50837  0.10682  Biso   1.000  Hf
  Hf26     1.0000 0.65844  0.74355  0.35810  Biso   1.000  Hf
  Hf27     1.0000 0.88168  0.76100  0.10420  Biso   1.000  Hf
  Hf28     1.0000 0.89289  0.48046  0.35410  Biso   1.000  Hf
  O49      1.0000 0.56218  0.64031  0.99403  Biso   1.000  O 
  O50      1.0000 0.53245  0.59881  0.24538  Biso   1.000  O 
  O51      1.0000 0.51850  0.85061  0.26260  Biso   1.000  O 
  O52      1.0000 0.50066  0.89522  0.01847  Biso   1.000  O 
  O53      1.0000 0.78317  0.64072  0.23574  Biso   1.000  O 
  O54      1.0000 0.81377  0.60203  0.98577  Biso   1.000  O 
  O55      1.0000 0.79211  0.85053  0.98006  Biso   1.000  O 
  O56      1.0000 0.76614  0.89261  0.23255  Biso   1.000  O 
  Hf29     1.0000 0.66987  0.50621  0.60489  Biso   1.000  Hf
  Hf30     1.0000 0.67568  0.74024  0.85893  Biso   1.000  Hf
  Hf31     1.0000 0.90240  0.76481  0.60524  Biso   1.000  Hf
  Hf32     1.0000 0.90864  0.47977  0.85178  Biso   1.000  Hf
  O57      1.0000 0.54337  0.65023  0.49616  Biso   1.000  O 
  O58      1.0000 0.55486  0.59330  0.74651  Biso   1.000  O 
  O59      1.0000 0.53668  0.84583  0.76135  Biso   1.000  O 
  O60      1.0000 0.51151  0.89949  0.51728  Biso   1.000  O 
  O61      1.0000 0.80343  0.64138  0.73573  Biso   1.000  O 
  O62      1.0000 0.79679  0.60643  0.48364  Biso   1.000  O 
  O63      1.0000 0.77192  0.85589  0.48117  Biso   1.000  O 
  O64      1.0000 0.78289  0.89365  0.73255  Biso   1.000  O 
  Mo1      1.0000 0.11671  0.19821  0.11195  Biso   1.000  Mo
