data_image0
_cell_length_a       10.0964
_cell_length_b       10.2665
_cell_length_c       10.4351
_cell_angle_alpha    90
_cell_angle_beta     80
_cell_angle_gamma    90

_symmetry_space_group_name_H-M    "P 1"
_symmetry_int_tables_number       1

loop_
  _symmetry_equiv_pos_as_xyz
  'x, y, z'

loop_
  _atom_site_label
  _atom_site_occupancy
  _atom_site_fract_x
  _atom_site_fract_y
  _atom_site_fract_z
  _atom_site_thermal_displace_type
  _atom_site_B_iso_or_equiv
  _atom_site_type_symbol
  Mo1      1.0000 0.13919  0.02322  0.14871  Biso   1.000  Mo
  Hf1      1.0000 0.13846  0.22936  0.39550  Biso   1.000  Hf
  Hf2      1.0000 0.36002  0.27107  0.10486  Biso   1.000  Hf
  Hf3      1.0000 0.36040  0.47920  0.35432  Biso   1.000  Hf
  O1       1.0000 0.03682  0.16643  0.08115  Biso   1.000  O 
  O2       1.0000 0.03899  0.07987  0.32377  Biso   1.000  O 
  O3       1.0000 0.46319  0.42024  0.16912  Biso   1.000  O 
  O4       1.0000 0.46218  0.33033  0.41975  Biso   1.000  O 
  O5       1.0000 0.27685  0.12777  0.24129  Biso   1.000  O 
  O6       1.0000 0.27527  0.12126  0.49153  Biso   1.000  O 
  O7       1.0000 0.22305  0.37886  0.00981  Biso   1.000  O 
  O8       1.0000 0.22286  0.37112  0.25969  Biso   1.000  O 
  Hf4      1.0000 0.13598  0.02143  0.64622  Biso   1.000  Hf
  Hf5      1.0000 0.13453  0.22740  0.89761  Biso   1.000  Hf
  Hf6      1.0000 0.35860  0.27169  0.60507  Biso   1.000  Hf
  Hf7      1.0000 0.35693  0.47883  0.85514  Biso   1.000  Hf
  O9       1.0000 0.03264  0.16752  0.57781  Biso   1.000  O 
  O10      1.0000 0.03124  0.08150  0.82946  Biso   1.000  O 
  O11      1.0000 0.46097  0.42045  0.66987  Biso   1.000  O 
  O12      1.0000 0.45851  0.32908  0.91986  Biso   1.000  O 
  O13      1.0000 0.27358  0.12920  0.74260  Biso   1.000  O 
  O14      1.0000 0.26985  0.11896  0.99625  Biso   1.000  O 
  O15      1.0000 0.22098  0.37900  0.50965  Biso   1.000  O 
  O16      1.0000 0.21974  0.37064  0.76029  Biso   1.000  O 
  Hf8      1.0000 0.13893  0.52169  0.14596  Biso   1.000  Hf
  Hf9      1.0000 0.13765  0.72903  0.39590  Biso   1.000  Hf
  Hf10     1.0000 0.35856  0.77474  0.10469  Biso   1.000  Hf
  Hf11     1.0000 0.35985  0.97855  0.35390  Biso   1.000  Hf
  O17      1.0000 0.03595  0.66864  0.08022  Biso   1.000  O 
  O18      1.0000 0.03489  0.58044  0.33088  Biso   1.000  O 
  O19      1.0000 0.46504  0.91919  0.17070  Biso   1.000  O 
  O20      1.0000 0.46332  0.83029  0.41959  Biso   1.000  O 
  O21      1.0000 0.27587  0.63072  0.24102  Biso   1.000  O 
  O22      1.0000 0.27522  0.62100  0.49109  Biso   1.000  O 
  O23      1.0000 0.21875  0.88108  0.01010  Biso   1.000  O 
  O24      1.0000 0.22009  0.87316  0.25877  Biso   1.000  O 
  Hf12     1.0000 0.13631  0.52156  0.64649  Biso   1.000  Hf
  Hf13     1.0000 0.13525  0.72921  0.89659  Biso   1.000  Hf
  Hf14     1.0000 0.35924  0.77157  0.60450  Biso   1.000  Hf
  Hf15     1.0000 0.35642  0.97886  0.85594  Biso   1.000  Hf
  O25      1.0000 0.03361  0.66952  0.58059  Biso   1.000  O 
  O26      1.0000 0.03241  0.58049  0.83108  Biso   1.000  O 
  O27      1.0000 0.46107  0.92010  0.67040  Biso   1.000  O 
  O28      1.0000 0.45860  0.83090  0.92071  Biso   1.000  O 
  O29      1.0000 0.27386  0.62932  0.74119  Biso   1.000  O 
  O30      1.0000 0.27264  0.62185  0.99151  Biso   1.000  O 
  O31      1.0000 0.22181  0.87909  0.50938  Biso   1.000  O 
  O32      1.0000 0.22022  0.87108  0.75976  Biso   1.000  O 
  Hf16     1.0000 0.63830  0.02193  0.14598  Biso   1.000  Hf
  Hf17     1.0000 0.63750  0.22870  0.39595  Biso   1.000  Hf
  Hf18     1.0000 0.86194  0.27070  0.10435  Biso   1.000  Hf
  Hf19     1.0000 0.85981  0.47866  0.35391  Biso   1.000  Hf
  O33      1.0000 0.53581  0.17026  0.08127  Biso   1.000  O 
  O34      1.0000 0.53511  0.08021  0.33134  Biso   1.000  O 
  O35      1.0000 0.96416  0.41930  0.16951  Biso   1.000  O 
  O36      1.0000 0.96225  0.32944  0.41868  Biso   1.000  O 
  O37      1.0000 0.77663  0.12895  0.24065  Biso   1.000  O 
  O38      1.0000 0.77573  0.12039  0.48999  Biso   1.000  O 
  O39      1.0000 0.72358  0.37926  0.00939  Biso   1.000  O 
  O40      1.0000 0.72250  0.37070  0.25923  Biso   1.000  O 
  Hf20     1.0000 0.63552  0.02130  0.64649  Biso   1.000  Hf
  Hf21     1.0000 0.63464  0.22885  0.89659  Biso   1.000  Hf
  Hf22     1.0000 0.85840  0.27132  0.60413  Biso   1.000  Hf
  Hf23     1.0000 0.85744  0.47866  0.85512  Biso   1.000  Hf
  O41      1.0000 0.53426  0.17060  0.58152  Biso   1.000  O 
  O42      1.0000 0.53156  0.08012  0.83209  Biso   1.000  O 
  O43      1.0000 0.96158  0.41866  0.67015  Biso   1.000  O 
  O44      1.0000 0.96059  0.33009  0.92102  Biso   1.000  O 
  O45      1.0000 0.77288  0.12928  0.74080  Biso   1.000  O 
  O46      1.0000 0.77210  0.12140  0.99103  Biso   1.000  O 
  O47      1.0000 0.72141  0.37925  0.50974  Biso   1.000  O 
  O48      1.0000 0.71992  0.37105  0.76006  Biso   1.000  O 
  Hf24     1.0000 0.63835  0.52233  0.14558  Biso   1.000  Hf
  Hf25     1.0000 0.63841  0.72894  0.39602  Biso   1.000  Hf
  Hf26     1.0000 0.86299  0.77258  0.10368  Biso   1.000  Hf
  Hf27     1.0000 0.86127  0.97894  0.35295  Biso   1.000  Hf
  O49      1.0000 0.53463  0.67056  0.08119  Biso   1.000  O 
  O50      1.0000 0.53561  0.58016  0.33126  Biso   1.000  O 
  O51      1.0000 0.97117  0.91992  0.16740  Biso   1.000  O 
  O52      1.0000 0.96328  0.83179  0.41978  Biso   1.000  O 
  O53      1.0000 0.77642  0.62972  0.24046  Biso   1.000  O 
  O54      1.0000 0.77543  0.62102  0.49096  Biso   1.000  O 
  O55      1.0000 0.72327  0.87944  0.00959  Biso   1.000  O 
  O56      1.0000 0.72658  0.87182  0.25908  Biso   1.000  O 
  Hf28     1.0000 0.63647  0.52162  0.64665  Biso   1.000  Hf
  Hf29     1.0000 0.63440  0.72888  0.89757  Biso   1.000  Hf
  Hf30     1.0000 0.85858  0.77162  0.60474  Biso   1.000  Hf
  Hf31     1.0000 0.85745  0.97885  0.85465  Biso   1.000  Hf
  O57      1.0000 0.53461  0.67032  0.58115  Biso   1.000  O 
  O58      1.0000 0.53249  0.58015  0.83181  Biso   1.000  O 
  O59      1.0000 0.96167  0.91944  0.66984  Biso   1.000  O 
  O60      1.0000 0.95976  0.83026  0.91948  Biso   1.000  O 
  O61      1.0000 0.77377  0.62926  0.74161  Biso   1.000  O 
  O62      1.0000 0.77266  0.62173  0.99164  Biso   1.000  O 
  O63      1.0000 0.72179  0.87945  0.50933  Biso   1.000  O 
  O64      1.0000 0.71985  0.87097  0.76009  Biso   1.000  O 
