data_image0
_cell_length_a       10.0578
_cell_length_b       10.6123
_cell_length_c       5.04832
_cell_angle_alpha    90
_cell_angle_beta     90
_cell_angle_gamma    90

_symmetry_space_group_name_H-M    "P 1"
_symmetry_int_tables_number       1

loop_
  _symmetry_equiv_pos_as_xyz
  'x, y, z'

loop_
  _atom_site_label
  _atom_site_occupancy
  _atom_site_fract_x
  _atom_site_fract_y
  _atom_site_fract_z
  _atom_site_thermal_displace_type
  _atom_site_B_iso_or_equiv
  _atom_site_type_symbol
  Hf1      1.0000 0.13324  0.00763  0.24701  Biso   1.000  Hf
  Hf2      1.0000 0.12910  0.21134  0.73355  Biso   1.000  Hf
  Hf3      1.0000 0.38623  0.27501  0.24681  Biso   1.000  Hf
  Hf4      1.0000 0.37211  0.49019  0.74138  Biso   1.000  Hf
  O1       1.0000 0.00744  0.16186  0.41487  Biso   1.000  O 
  O2       1.0000 0.02794  0.05892  0.91099  Biso   1.000  O 
  O3       1.0000 0.48243  0.43229  0.40935  Biso   1.000  O 
  O4       1.0000 0.48154  0.32509  0.90117  Biso   1.000  O 
  O5       1.0000 0.25539  0.08830  0.52823  Biso   1.000  O 
  O6       1.0000 0.25113  0.15936  0.04730  Biso   1.000  O 
  O7       1.0000 0.26113  0.41795  0.04381  Biso   1.000  O 
  O8       1.0000 0.25748  0.34222  0.54869  Biso   1.000  O 
  Hf5      1.0000 0.12853  0.54306  0.21758  Biso   1.000  Hf
  Hf6      1.0000 0.13275  0.74330  0.73130  Biso   1.000  Hf
  Hf7      1.0000 0.37335  0.76075  0.23595  Biso   1.000  Hf
  Hf8      1.0000 0.38132  0.97621  0.73212  Biso   1.000  Hf
  O9       1.0000 0.02669  0.68949  0.39792  Biso   1.000  O 
  O10      1.0000 0.03570  0.57445  0.86818  Biso   1.000  O 
  O11      1.0000 0.47229  0.92487  0.38685  Biso   1.000  O 
  O12      1.0000 0.47736  0.81696  0.88817  Biso   1.000  O 
  O13      1.0000 0.27302  0.61208  0.47980  Biso   1.000  O 
  O14      1.0000 0.27028  0.65472  0.97037  Biso   1.000  O 
  O15      1.0000 0.24145  0.89651  0.98085  Biso   1.000  O 
  O16      1.0000 0.23787  0.85417  0.47432  Biso   1.000  O 
  Hf9      1.0000 0.63365  0.01273  0.24500  Biso   1.000  Hf
  Hf10     1.0000 0.63498  0.23262  0.74549  Biso   1.000  Hf
  Hf11     1.0000 0.85650  0.26153  0.24025  Biso   1.000  Hf
  Hf12     1.0000 0.87235  0.48078  0.74117  Biso   1.000  Hf
  O17      1.0000 0.53005  0.17189  0.41447  Biso   1.000  O 
  O18      1.0000 0.52702  0.07272  0.91028  Biso   1.000  O 
  O19      1.0000 0.97507  0.42941  0.39304  Biso   1.000  O 
  O20      1.0000 0.97607  0.32072  0.90513  Biso   1.000  O 
  O21      1.0000 0.76173  0.10830  0.49520  Biso   1.000  O 
  O22      1.0000 0.76630  0.13440  0.99145  Biso   1.000  O 
  O23      1.0000 0.73778  0.38689  0.99490  Biso   1.000  O 
  O24      1.0000 0.73622  0.36173  0.50025  Biso   1.000  O 
  Hf13     1.0000 0.63883  0.51657  0.24344  Biso   1.000  Hf
  Hf14     1.0000 0.63984  0.73003  0.74435  Biso   1.000  Hf
  Hf15     1.0000 0.86407  0.76714  0.24368  Biso   1.000  Hf
  Hf16     1.0000 0.86902  0.98260  0.74208  Biso   1.000  Hf
  O25      1.0000 0.53776  0.67983  0.39600  Biso   1.000  O 
  O26      1.0000 0.53606  0.57237  0.90453  Biso   1.000  O 
  O27      1.0000 0.97026  0.92480  0.40537  Biso   1.000  O 
  O28      1.0000 0.97061  0.81967  0.90166  Biso   1.000  O 
  O29      1.0000 0.77212  0.61076  0.49375  Biso   1.000  O 
  O30      1.0000 0.77494  0.63540  0.99223  Biso   1.000  O 
  O31      1.0000 0.73528  0.88630  0.99254  Biso   1.000  O 
  O32      1.0000 0.73251  0.86196  0.49371  Biso   1.000  O 
  Mo1      1.0000 0.11890  0.30509  0.22616  Biso   1.000  Mo
