data_image0
_cell_length_a       9.94703
_cell_length_b       10.3536
_cell_length_c       9.98927
_cell_angle_alpha    90
_cell_angle_beta     90
_cell_angle_gamma    90

_symmetry_space_group_name_H-M    "P 1"
_symmetry_int_tables_number       1

loop_
  _symmetry_equiv_pos_as_xyz
  'x, y, z'

loop_
  _atom_site_label
  _atom_site_occupancy
  _atom_site_fract_x
  _atom_site_fract_y
  _atom_site_fract_z
  _atom_site_thermal_displace_type
  _atom_site_B_iso_or_equiv
  _atom_site_type_symbol
  Mo1      1.0000 0.13614  0.02053  0.12354  Biso   1.000  Mo
  Hf1      1.0000 0.13320  0.23288  0.37535  Biso   1.000  Hf
  Hf2      1.0000 0.36633  0.26712  0.12578  Biso   1.000  Hf
  Hf3      1.0000 0.36605  0.48433  0.37621  Biso   1.000  Hf
  O1       1.0000 0.03637  0.18094  0.19563  Biso   1.000  O 
  O2       1.0000 0.03509  0.06758  0.44883  Biso   1.000  O 
  O3       1.0000 0.46337  0.43495  0.19358  Biso   1.000  O 
  O4       1.0000 0.46355  0.31650  0.44382  Biso   1.000  O 
  O5       1.0000 0.26841  0.11734  0.24661  Biso   1.000  O 
  O6       1.0000 0.27103  0.13280  0.49864  Biso   1.000  O 
  O7       1.0000 0.22923  0.38265  0.49987  Biso   1.000  O 
  O8       1.0000 0.22982  0.36808  0.25014  Biso   1.000  O 
  Hf4      1.0000 0.13456  0.01709  0.62686  Biso   1.000  Hf
  Hf5      1.0000 0.13496  0.23438  0.87761  Biso   1.000  Hf
  Hf6      1.0000 0.36600  0.26722  0.62584  Biso   1.000  Hf
  Hf7      1.0000 0.36607  0.48470  0.87579  Biso   1.000  Hf
  O9       1.0000 0.03508  0.18323  0.69927  Biso   1.000  O 
  O10      1.0000 0.03743  0.06606  0.95407  Biso   1.000  O 
  O11      1.0000 0.46325  0.43538  0.69353  Biso   1.000  O 
  O12      1.0000 0.46276  0.31572  0.94335  Biso   1.000  O 
  O13      1.0000 0.27106  0.11873  0.75023  Biso   1.000  O 
  O14      1.0000 0.27154  0.12961  0.00052  Biso   1.000  O 
  O15      1.0000 0.22908  0.38166  0.00016  Biso   1.000  O 
  O16      1.0000 0.22907  0.36812  0.75033  Biso   1.000  O 
  Hf8      1.0000 0.13444  0.51653  0.12660  Biso   1.000  Hf
  Hf9      1.0000 0.13390  0.73501  0.37562  Biso   1.000  Hf
  Hf10     1.0000 0.36412  0.76821  0.12652  Biso   1.000  Hf
  Hf11     1.0000 0.36490  0.98389  0.37485  Biso   1.000  Hf
  O17      1.0000 0.03686  0.68360  0.19392  Biso   1.000  O 
  O18      1.0000 0.03649  0.56648  0.44362  Biso   1.000  O 
  O19      1.0000 0.46414  0.93418  0.19473  Biso   1.000  O 
  O20      1.0000 0.46332  0.81638  0.44335  Biso   1.000  O 
  O21      1.0000 0.27117  0.61949  0.25007  Biso   1.000  O 
  O22      1.0000 0.27066  0.63299  0.49967  Biso   1.000  O 
  O23      1.0000 0.22933  0.88297  0.49997  Biso   1.000  O 
  O24      1.0000 0.22642  0.87152  0.24881  Biso   1.000  O 
  Hf12     1.0000 0.13387  0.51699  0.62565  Biso   1.000  Hf
  Hf13     1.0000 0.13366  0.73394  0.87613  Biso   1.000  Hf
  Hf14     1.0000 0.36617  0.76716  0.62582  Biso   1.000  Hf
  Hf15     1.0000 0.36506  0.98353  0.87715  Biso   1.000  Hf
  O25      1.0000 0.03633  0.68478  0.69376  Biso   1.000  O 
  O26      1.0000 0.03658  0.56584  0.94472  Biso   1.000  O 
  O27      1.0000 0.46327  0.93519  0.69433  Biso   1.000  O 
  O28      1.0000 0.46227  0.81626  0.94447  Biso   1.000  O 
  O29      1.0000 0.27059  0.61835  0.74968  Biso   1.000  O 
  O30      1.0000 0.27118  0.63299  0.99993  Biso   1.000  O 
  O31      1.0000 0.22472  0.88228  0.00144  Biso   1.000  O 
  O32      1.0000 0.22971  0.86808  0.75047  Biso   1.000  O 
  Hf16     1.0000 0.63409  0.01657  0.12562  Biso   1.000  Hf
  Hf17     1.0000 0.63401  0.23391  0.37619  Biso   1.000  Hf
  Hf18     1.0000 0.86613  0.26574  0.12614  Biso   1.000  Hf
  Hf19     1.0000 0.86593  0.48400  0.37608  Biso   1.000  Hf
  O33      1.0000 0.53596  0.18441  0.19427  Biso   1.000  O 
  O34      1.0000 0.53596  0.06617  0.44351  Biso   1.000  O 
  O35      1.0000 0.96470  0.43260  0.19488  Biso   1.000  O 
  O36      1.0000 0.96393  0.31625  0.44503  Biso   1.000  O 
  O37      1.0000 0.77038  0.11808  0.24939  Biso   1.000  O 
  O38      1.0000 0.77080  0.13291  0.49934  Biso   1.000  O 
  O39      1.0000 0.72939  0.38284  0.49998  Biso   1.000  O 
  O40      1.0000 0.72945  0.36806  0.24980  Biso   1.000  O 
  Hf20     1.0000 0.63387  0.01678  0.62519  Biso   1.000  Hf
  Hf21     1.0000 0.63396  0.23400  0.87561  Biso   1.000  Hf
  Hf22     1.0000 0.86618  0.26638  0.62632  Biso   1.000  Hf
  Hf23     1.0000 0.86593  0.48416  0.87609  Biso   1.000  Hf
  O41      1.0000 0.53690  0.18539  0.69323  Biso   1.000  O 
  O42      1.0000 0.53659  0.06615  0.94392  Biso   1.000  O 
  O43      1.0000 0.96362  0.43457  0.69420  Biso   1.000  O 
  O44      1.0000 0.96396  0.31584  0.94464  Biso   1.000  O 
  O45      1.0000 0.77037  0.11784  0.74970  Biso   1.000  O 
  O46      1.0000 0.77109  0.13311  0.99940  Biso   1.000  O 
  O47      1.0000 0.72940  0.38272  0.99999  Biso   1.000  O 
  O48      1.0000 0.72949  0.36822  0.74976  Biso   1.000  O 
  Hf24     1.0000 0.63434  0.51720  0.12606  Biso   1.000  Hf
  Hf25     1.0000 0.63453  0.73472  0.37476  Biso   1.000  Hf
  Hf26     1.0000 0.86834  0.76751  0.12475  Biso   1.000  Hf
  Hf27     1.0000 0.86826  0.98478  0.37426  Biso   1.000  Hf
  O49      1.0000 0.53641  0.68535  0.19311  Biso   1.000  O 
  O50      1.0000 0.53691  0.56671  0.44352  Biso   1.000  O 
  O51      1.0000 0.97013  0.93455  0.19232  Biso   1.000  O 
  O52      1.0000 0.96411  0.81678  0.44455  Biso   1.000  O 
  O53      1.0000 0.77127  0.61822  0.24958  Biso   1.000  O 
  O54      1.0000 0.77073  0.63326  0.49967  Biso   1.000  O 
  O55      1.0000 0.72995  0.88349  0.49846  Biso   1.000  O 
  O56      1.0000 0.73257  0.86855  0.24833  Biso   1.000  O 
  Hf28     1.0000 0.63421  0.51731  0.62576  Biso   1.000  Hf
  Hf29     1.0000 0.63394  0.73447  0.87611  Biso   1.000  Hf
  Hf30     1.0000 0.86596  0.76744  0.62601  Biso   1.000  Hf
  Hf31     1.0000 0.86640  0.98441  0.87637  Biso   1.000  Hf
  O57      1.0000 0.53663  0.68533  0.69405  Biso   1.000  O 
  O58      1.0000 0.53718  0.56596  0.94322  Biso   1.000  O 
  O59      1.0000 0.96454  0.93474  0.69590  Biso   1.000  O 
  O60      1.0000 0.96192  0.81547  0.94151  Biso   1.000  O 
  O61      1.0000 0.77071  0.61850  0.74989  Biso   1.000  O 
  O62      1.0000 0.77109  0.63328  0.99984  Biso   1.000  O 
  O63      1.0000 0.72916  0.88367  0.99887  Biso   1.000  O 
  O64      1.0000 0.72933  0.86874  0.74950  Biso   1.000  O 
