data_image0
_cell_length_a       5.03749
_cell_length_b       10.2591
_cell_length_c       10.428
_cell_angle_alpha    90
_cell_angle_beta     80
_cell_angle_gamma    90

_symmetry_space_group_name_H-M    "P 1"
_symmetry_int_tables_number       1

loop_
  _symmetry_equiv_pos_as_xyz
  'x, y, z'

loop_
  _atom_site_label
  _atom_site_occupancy
  _atom_site_fract_x
  _atom_site_fract_y
  _atom_site_fract_z
  _atom_site_thermal_displace_type
  _atom_site_B_iso_or_equiv
  _atom_site_type_symbol
  Mo1      1.0000 0.28284  0.02201  0.14911  Biso   1.000  Mo
  Hf1      1.0000 0.27988  0.22976  0.39496  Biso   1.000  Hf
  Hf2      1.0000 0.72509  0.27024  0.10522  Biso   1.000  Hf
  Hf3      1.0000 0.72345  0.47939  0.35360  Biso   1.000  Hf
  O1       1.0000 0.07825  0.16800  0.08327  Biso   1.000  O 
  O2       1.0000 0.08310  0.07793  0.32397  Biso   1.000  O 
  O3       1.0000 0.92920  0.42057  0.16856  Biso   1.000  O 
  O4       1.0000 0.92604  0.32867  0.41779  Biso   1.000  O 
  O5       1.0000 0.55728  0.12903  0.24200  Biso   1.000  O 
  O6       1.0000 0.55525  0.12054  0.49036  Biso   1.000  O 
  O7       1.0000 0.44812  0.37893  0.00996  Biso   1.000  O 
  O8       1.0000 0.44781  0.37137  0.25919  Biso   1.000  O 
  Hf4      1.0000 0.27337  0.02121  0.64615  Biso   1.000  Hf
  Hf5      1.0000 0.27265  0.22739  0.89761  Biso   1.000  Hf
  Hf6      1.0000 0.71974  0.27141  0.60440  Biso   1.000  Hf
  Hf7      1.0000 0.71782  0.47865  0.85548  Biso   1.000  Hf
  O9       1.0000 0.06947  0.16839  0.57798  Biso   1.000  O 
  O10      1.0000 0.06396  0.08108  0.83046  Biso   1.000  O 
  O11      1.0000 0.92630  0.41925  0.66970  Biso   1.000  O 
  O12      1.0000 0.92273  0.32840  0.92058  Biso   1.000  O 
  O13      1.0000 0.54906  0.12924  0.74171  Biso   1.000  O 
  O14      1.0000 0.54344  0.11928  0.99476  Biso   1.000  O 
  O15      1.0000 0.44494  0.37887  0.50939  Biso   1.000  O 
  O16      1.0000 0.44304  0.37064  0.76028  Biso   1.000  O 
  Hf8      1.0000 0.27992  0.52286  0.14545  Biso   1.000  Hf
  Hf9      1.0000 0.28089  0.72894  0.39605  Biso   1.000  Hf
  Hf10     1.0000 0.72297  0.77683  0.10408  Biso   1.000  Hf
  Hf11     1.0000 0.72717  0.97924  0.35235  Biso   1.000  Hf
  O17      1.0000 0.07069  0.67023  0.08124  Biso   1.000  O 
  O18      1.0000 0.07445  0.57985  0.33163  Biso   1.000  O 
  O19      1.0000 0.94739  0.92246  0.16542  Biso   1.000  O 
  O20      1.0000 0.93200  0.83131  0.41884  Biso   1.000  O 
  O21      1.0000 0.55532  0.63156  0.24075  Biso   1.000  O 
  O22      1.0000 0.55558  0.62083  0.49125  Biso   1.000  O 
  O23      1.0000 0.43628  0.88029  0.01013  Biso   1.000  O 
  O24      1.0000 0.45044  0.87386  0.25935  Biso   1.000  O 
  Hf12     1.0000 0.27688  0.52146  0.64689  Biso   1.000  Hf
  Hf13     1.0000 0.27365  0.72926  0.89738  Biso   1.000  Hf
  Hf14     1.0000 0.72220  0.77168  0.60456  Biso   1.000  Hf
  Hf15     1.0000 0.71798  0.97902  0.85533  Biso   1.000  Hf
  O25      1.0000 0.07302  0.67018  0.58106  Biso   1.000  O 
  O26      1.0000 0.06924  0.57966  0.83184  Biso   1.000  O 
  O27      1.0000 0.92743  0.92008  0.66962  Biso   1.000  O 
  O28      1.0000 0.92109  0.83059  0.91925  Biso   1.000  O 
  O29      1.0000 0.55239  0.62931  0.74156  Biso   1.000  O 
  O30      1.0000 0.55077  0.62259  0.99166  Biso   1.000  O 
  O31      1.0000 0.44895  0.87938  0.50883  Biso   1.000  O 
  O32      1.0000 0.44440  0.87103  0.75965  Biso   1.000  O 
