data_image0
_cell_length_a       10.0912
_cell_length_b       5.12445
_cell_length_c       10.4388
_cell_angle_alpha    90
_cell_angle_beta     80
_cell_angle_gamma    90

_symmetry_space_group_name_H-M    "P 1"
_symmetry_int_tables_number       1

loop_
  _symmetry_equiv_pos_as_xyz
  'x, y, z'

loop_
  _atom_site_label
  _atom_site_occupancy
  _atom_site_fract_x
  _atom_site_fract_y
  _atom_site_fract_z
  _atom_site_thermal_displace_type
  _atom_site_B_iso_or_equiv
  _atom_site_type_symbol
  Mo1      1.0000 0.13797  0.04594  0.14850  Biso   1.000  Mo
  Hf1      1.0000 0.13979  0.45948  0.39509  Biso   1.000  Hf
  Hf2      1.0000 0.35821  0.54975  0.10518  Biso   1.000  Hf
  Hf3      1.0000 0.36189  0.95878  0.35332  Biso   1.000  Hf
  O1       1.0000 0.03760  0.32854  0.08018  Biso   1.000  O 
  O2       1.0000 0.03826  0.16232  0.32341  Biso   1.000  O 
  O3       1.0000 0.46686  0.83726  0.17096  Biso   1.000  O 
  O4       1.0000 0.46513  0.66273  0.41999  Biso   1.000  O 
  O5       1.0000 0.27639  0.25778  0.24017  Biso   1.000  O 
  O6       1.0000 0.27689  0.24344  0.49096  Biso   1.000  O 
  O7       1.0000 0.21767  0.76041  0.01040  Biso   1.000  O 
  O8       1.0000 0.22342  0.74605  0.25928  Biso   1.000  O 
  Hf4      1.0000 0.13764  0.04322  0.64615  Biso   1.000  Hf
  Hf5      1.0000 0.13826  0.45578  0.89715  Biso   1.000  Hf
  Hf6      1.0000 0.36105  0.54420  0.60453  Biso   1.000  Hf
  Hf7      1.0000 0.35832  0.95836  0.85618  Biso   1.000  Hf
  O9       1.0000 0.03371  0.33281  0.57659  Biso   1.000  O 
  O10      1.0000 0.03293  0.16501  0.82842  Biso   1.000  O 
  O11      1.0000 0.46344  0.84009  0.67074  Biso   1.000  O 
  O12      1.0000 0.46003  0.66092  0.92074  Biso   1.000  O 
  O13      1.0000 0.27592  0.25840  0.74187  Biso   1.000  O 
  O14      1.0000 0.27348  0.24033  0.99584  Biso   1.000  O 
  O15      1.0000 0.22326  0.75785  0.50897  Biso   1.000  O 
  O16      1.0000 0.22241  0.74209  0.75968  Biso   1.000  O 
  Hf8      1.0000 0.63851  0.04574  0.14539  Biso   1.000  Hf
  Hf9      1.0000 0.63980  0.45791  0.39552  Biso   1.000  Hf
  Hf10     1.0000 0.86433  0.54267  0.10329  Biso   1.000  Hf
  Hf11     1.0000 0.86257  0.95781  0.35291  Biso   1.000  Hf
  O17      1.0000 0.53464  0.34107  0.08120  Biso   1.000  O 
  O18      1.0000 0.53648  0.16230  0.33079  Biso   1.000  O 
  O19      1.0000 0.97602  0.83090  0.16853  Biso   1.000  O 
  O20      1.0000 0.96502  0.66357  0.41963  Biso   1.000  O 
  O21      1.0000 0.77829  0.25702  0.23975  Biso   1.000  O 
  O22      1.0000 0.77758  0.24113  0.48974  Biso   1.000  O 
  O23      1.0000 0.72370  0.75943  0.00949  Biso   1.000  O 
  O24      1.0000 0.72868  0.74270  0.25856  Biso   1.000  O 
  Hf12     1.0000 0.63717  0.04295  0.64674  Biso   1.000  Hf
  Hf13     1.0000 0.63655  0.45797  0.89719  Biso   1.000  Hf
  Hf14     1.0000 0.86013  0.54290  0.60423  Biso   1.000  Hf
  Hf15     1.0000 0.86052  0.95716  0.85450  Biso   1.000  Hf
  O25      1.0000 0.53643  0.34093  0.58065  Biso   1.000  O 
  O26      1.0000 0.53324  0.16133  0.83185  Biso   1.000  O 
  O27      1.0000 0.96477  0.83478  0.67046  Biso   1.000  O 
  O28      1.0000 0.96372  0.66127  0.92085  Biso   1.000  O 
  O29      1.0000 0.77486  0.25822  0.74084  Biso   1.000  O 
  O30      1.0000 0.77538  0.24456  0.99058  Biso   1.000  O 
  O31      1.0000 0.72370  0.75889  0.50924  Biso   1.000  O 
  O32      1.0000 0.72215  0.74230  0.75998  Biso   1.000  O 
