data_image0
_cell_length_a       5.02847
_cell_length_b       10.2299
_cell_length_c       10.1568
_cell_angle_alpha    90
_cell_angle_beta     90
_cell_angle_gamma    90

_symmetry_space_group_name_H-M    "P 1"
_symmetry_int_tables_number       1

loop_
  _symmetry_equiv_pos_as_xyz
  'x, y, z'

loop_
  _atom_site_label
  _atom_site_occupancy
  _atom_site_fract_x
  _atom_site_fract_y
  _atom_site_fract_z
  _atom_site_thermal_displace_type
  _atom_site_B_iso_or_equiv
  _atom_site_type_symbol
  Hf1      1.0000 0.28736  0.98797  0.13327  Biso   1.000  Hf
  Hf2      1.0000 0.21835  0.22734  0.36441  Biso   1.000  Hf
  Hf3      1.0000 0.68043  0.27204  0.12279  Biso   1.000  Hf
  Hf4      1.0000 0.72088  0.00273  0.38729  Biso   1.000  Hf
  O1       1.0000 0.86936  0.16999  0.97184  Biso   1.000  O 
  O2       1.0000 0.06898  0.04818  0.29743  Biso   1.000  O 
  O3       1.0000 0.89959  0.32606  0.29241  Biso   1.000  O 
  O4       1.0000 0.89592  0.42885  0.04252  Biso   1.000  O 
  O5       1.0000 0.51817  0.13676  0.25356  Biso   1.000  O 
  O6       1.0000 0.40508  0.09495  0.99155  Biso   1.000  O 
  O7       1.0000 0.40431  0.36495  0.00098  Biso   1.000  O 
  O8       1.0000 0.42075  0.38828  0.24905  Biso   1.000  O 
  Hf5      1.0000 0.19574  0.99105  0.61825  Biso   1.000  Hf
  Hf6      1.0000 0.19994  0.22933  0.85209  Biso   1.000  Hf
  Hf7      1.0000 0.68956  0.25039  0.62203  Biso   1.000  Hf
  Hf8      1.0000 0.67508  0.98679  0.86796  Biso   1.000  Hf
  O9       1.0000 0.95436  0.14761  0.50883  Biso   1.000  O 
  O10      1.0000 0.96015  0.08941  0.74863  Biso   1.000  O 
  O11      1.0000 0.89928  0.34173  0.77841  Biso   1.000  O 
  O12      1.0000 0.89346  0.40457  0.53403  Biso   1.000  O 
  O13      1.0000 0.46535  0.13049  0.74430  Biso   1.000  O 
  O14      1.0000 0.45492  0.10041  0.50340  Biso   1.000  O 
  O15      1.0000 0.41263  0.34546  0.50111  Biso   1.000  O 
  O16      1.0000 0.41465  0.38401  0.75009  Biso   1.000  O 
  Hf9      1.0000 0.23442  0.51432  0.11372  Biso   1.000  Hf
  Hf10     1.0000 0.21190  0.73572  0.37627  Biso   1.000  Hf
  Hf11     1.0000 0.74179  0.73670  0.13238  Biso   1.000  Hf
  Hf12     1.0000 0.70157  0.48622  0.37437  Biso   1.000  Hf
  O17      1.0000 0.91099  0.64436  0.99028  Biso   1.000  O 
  O18      1.0000 0.96848  0.58691  0.25536  Biso   1.000  O 
  O19      1.0000 0.08122  0.81932  0.20813  Biso   1.000  O 
  O20      1.0000 0.97849  0.90992  0.97221  Biso   1.000  O 
  O21      1.0000 0.47793  0.63498  0.25083  Biso   1.000  O 
  O22      1.0000 0.40249  0.59722  0.99530  Biso   1.000  O 
  O23      1.0000 0.46332  0.84164  0.99406  Biso   1.000  O 
  O24      1.0000 0.57501  0.88581  0.24549  Biso   1.000  O 
  Hf13     1.0000 0.19658  0.49716  0.62167  Biso   1.000  Hf
  Hf14     1.0000 0.17920  0.74907  0.87261  Biso   1.000  Hf
  Hf15     1.0000 0.69281  0.73831  0.61898  Biso   1.000  Hf
  Hf16     1.0000 0.67751  0.49909  0.86821  Biso   1.000  Hf
  O25      1.0000 0.94680  0.63995  0.49509  Biso   1.000  O 
  O26      1.0000 0.94237  0.59461  0.74832  Biso   1.000  O 
  O27      1.0000 0.92181  0.84320  0.74102  Biso   1.000  O 
  O28      1.0000 0.96180  0.88110  0.49253  Biso   1.000  O 
  O29      1.0000 0.44264  0.63780  0.74743  Biso   1.000  O 
  O30      1.0000 0.44297  0.59659  0.49777  Biso   1.000  O 
  O31      1.0000 0.45965  0.84979  0.49454  Biso   1.000  O 
  O32      1.0000 0.42005  0.88462  0.74681  Biso   1.000  O 
  N1       1.0000 0.02333  0.15454  0.09759  Biso   1.000  N 
