data_image0
_cell_length_a       9.99572
_cell_length_b       5.19325
_cell_length_c       10.0025
_cell_angle_alpha    90
_cell_angle_beta     90
_cell_angle_gamma    90

_symmetry_space_group_name_H-M    "P 1"
_symmetry_int_tables_number       1

loop_
  _symmetry_equiv_pos_as_xyz
  'x, y, z'

loop_
  _atom_site_label
  _atom_site_occupancy
  _atom_site_fract_x
  _atom_site_fract_y
  _atom_site_fract_z
  _atom_site_thermal_displace_type
  _atom_site_B_iso_or_equiv
  _atom_site_type_symbol
  N1       1.0000 0.06203  0.04520  0.09497  Biso   1.000  N 
  Hf1      1.0000 0.14195  0.47966  0.37146  Biso   1.000  Hf
  Hf2      1.0000 0.36590  0.53336  0.12813  Biso   1.000  Hf
  Hf3      1.0000 0.36698  0.97655  0.37232  Biso   1.000  Hf
  O1       1.0000 0.03088  0.42944  0.20405  Biso   1.000  O 
  O2       1.0000 0.03353  0.15490  0.45278  Biso   1.000  O 
  O3       1.0000 0.48210  0.86042  0.20385  Biso   1.000  O 
  O4       1.0000 0.47495  0.64885  0.45428  Biso   1.000  O 
  O5       1.0000 0.28685  0.25933  0.25634  Biso   1.000  O 
  O6       1.0000 0.27230  0.27590  0.50415  Biso   1.000  O 
  O7       1.0000 0.23440  0.77858  0.50439  Biso   1.000  O 
  O8       1.0000 0.25010  0.73141  0.26025  Biso   1.000  O 
  Hf4      1.0000 0.13634  0.04892  0.62774  Biso   1.000  Hf
  Hf5      1.0000 0.14968  0.49391  0.88418  Biso   1.000  Hf
  Hf6      1.0000 0.36815  0.54997  0.62724  Biso   1.000  Hf
  Hf7      1.0000 0.36962  0.98733  0.88453  Biso   1.000  Hf
  O9       1.0000 0.03174  0.36337  0.71463  Biso   1.000  O 
  O10      1.0000 0.03485  0.12852  0.97387  Biso   1.000  O 
  O11      1.0000 0.46670  0.88353  0.69825  Biso   1.000  O 
  O12      1.0000 0.47416  0.65668  0.94503  Biso   1.000  O 
  O13      1.0000 0.27021  0.25147  0.75199  Biso   1.000  O 
  O14      1.0000 0.28650  0.29386  0.99492  Biso   1.000  O 
  O15      1.0000 0.23671  0.75555  0.00286  Biso   1.000  O 
  O16      1.0000 0.23304  0.75281  0.75434  Biso   1.000  O 
  Hf8      1.0000 0.63642  0.02963  0.12619  Biso   1.000  Hf
  Hf9      1.0000 0.63459  0.48335  0.37015  Biso   1.000  Hf
  Hf10     1.0000 0.86435  0.51867  0.11625  Biso   1.000  Hf
  Hf11     1.0000 0.86884  0.98760  0.38634  Biso   1.000  Hf
  O17      1.0000 0.54972  0.37629  0.18836  Biso   1.000  O 
  O18      1.0000 0.53909  0.14961  0.44039  Biso   1.000  O 
  O19      1.0000 0.98062  0.91599  0.15364  Biso   1.000  O 
  O20      1.0000 0.97344  0.65770  0.44869  Biso   1.000  O 
  O21      1.0000 0.77826  0.22790  0.24551  Biso   1.000  O 
  O22      1.0000 0.77136  0.28470  0.49556  Biso   1.000  O 
  O23      1.0000 0.73587  0.78293  0.49969  Biso   1.000  O 
  O24      1.0000 0.75641  0.74043  0.24918  Biso   1.000  O 
  Hf12     1.0000 0.62585  0.04314  0.62046  Biso   1.000  Hf
  Hf13     1.0000 0.63324  0.47468  0.87378  Biso   1.000  Hf
  Hf14     1.0000 0.87494  0.53646  0.62373  Biso   1.000  Hf
  Hf15     1.0000 0.86074  0.96490  0.86531  Biso   1.000  Hf
  O25      1.0000 0.53555  0.37938  0.69621  Biso   1.000  O 
  O26      1.0000 0.54252  0.14534  0.94669  Biso   1.000  O 
  O27      1.0000 0.97100  0.87175  0.69613  Biso   1.000  O 
  O28      1.0000 0.96971  0.64141  0.94051  Biso   1.000  O 
  O29      1.0000 0.76693  0.23304  0.74285  Biso   1.000  O 
  O30      1.0000 0.77979  0.27229  0.99300  Biso   1.000  O 
  O31      1.0000 0.73320  0.77565  0.99636  Biso   1.000  O 
  O32      1.0000 0.73585  0.73417  0.74664  Biso   1.000  O 
