data_image0
_cell_length_a       10.0413
_cell_length_b       10.2205
_cell_length_c       10.0611
_cell_angle_alpha    90
_cell_angle_beta     90
_cell_angle_gamma    90

_symmetry_space_group_name_H-M    "P 1"
_symmetry_int_tables_number       1

loop_
  _symmetry_equiv_pos_as_xyz
  'x, y, z'

loop_
  _atom_site_label
  _atom_site_occupancy
  _atom_site_fract_x
  _atom_site_fract_y
  _atom_site_fract_z
  _atom_site_thermal_displace_type
  _atom_site_B_iso_or_equiv
  _atom_site_type_symbol
  N1       1.0000 0.07085  0.98571  0.18202  Biso   1.000  N 
  Hf1      1.0000 0.12508  0.24456  0.35816  Biso   1.000  Hf
  Hf2      1.0000 0.35090  0.26679  0.10444  Biso   1.000  Hf
  Hf3      1.0000 0.33325  0.00724  0.37421  Biso   1.000  Hf
  O1       1.0000 0.97174  0.19225  0.97121  Biso   1.000  O 
  O2       1.0000 0.03276  0.06878  0.25773  Biso   1.000  O 
  O3       1.0000 0.01476  0.33349  0.22244  Biso   1.000  O 
  O4       1.0000 0.95701  0.43250  0.00901  Biso   1.000  O 
  O5       1.0000 0.28333  0.16188  0.26260  Biso   1.000  O 
  O6       1.0000 0.23782  0.15010  0.98805  Biso   1.000  O 
  O7       1.0000 0.20353  0.39033  0.98341  Biso   1.000  O 
  O8       1.0000 0.25510  0.41060  0.22564  Biso   1.000  O 
  Hf4      1.0000 0.10103  0.99868  0.63978  Biso   1.000  Hf
  Hf5      1.0000 0.11923  0.26034  0.85331  Biso   1.000  Hf
  Hf6      1.0000 0.34798  0.26455  0.60175  Biso   1.000  Hf
  Hf7      1.0000 0.36216  0.02746  0.89636  Biso   1.000  Hf
  O9       1.0000 0.96781  0.16754  0.46096  Biso   1.000  O 
  O10      1.0000 0.00185  0.14105  0.71859  Biso   1.000  O 
  O11      1.0000 0.96944  0.38909  0.75501  Biso   1.000  O 
  O12      1.0000 0.97753  0.41273  0.50165  Biso   1.000  O 
  O13      1.0000 0.25480  0.14846  0.74624  Biso   1.000  O 
  O14      1.0000 0.22702  0.11178  0.49990  Biso   1.000  O 
  O15      1.0000 0.23489  0.36319  0.47343  Biso   1.000  O 
  O16      1.0000 0.22316  0.40256  0.72809  Biso   1.000  O 
  Hf8      1.0000 0.10291  0.50771  0.12212  Biso   1.000  Hf
  Hf9      1.0000 0.09654  0.74271  0.37545  Biso   1.000  Hf
  Hf10     1.0000 0.36758  0.73532  0.10569  Biso   1.000  Hf
  Hf11     1.0000 0.34227  0.51576  0.37431  Biso   1.000  Hf
  O17      1.0000 0.00590  0.68130  0.03073  Biso   1.000  O 
  O18      1.0000 0.98041  0.59287  0.26264  Biso   1.000  O 
  O19      1.0000 0.92742  0.83121  0.31467  Biso   1.000  O 
  O20      1.0000 0.00219  0.92459  0.09647  Biso   1.000  O 
  O21      1.0000 0.22698  0.65964  0.24631  Biso   1.000  O 
  O22      1.0000 0.23186  0.62659  0.99830  Biso   1.000  O 
  O23      1.0000 0.23826  0.87728  0.99807  Biso   1.000  O 
  O24      1.0000 0.16183  0.91770  0.25256  Biso   1.000  O 
  Hf12     1.0000 0.07774  0.52820  0.63895  Biso   1.000  Hf
  Hf13     1.0000 0.10965  0.77273  0.88493  Biso   1.000  Hf
  Hf14     1.0000 0.34906  0.75706  0.62398  Biso   1.000  Hf
  Hf15     1.0000 0.33739  0.51501  0.86502  Biso   1.000  Hf
  O25      1.0000 0.96709  0.66024  0.51333  Biso   1.000  O 
  O26      1.0000 0.95620  0.64660  0.76196  Biso   1.000  O 
  O27      1.0000 0.99524  0.91651  0.81654  Biso   1.000  O 
  O28      1.0000 0.93881  0.91984  0.55304  Biso   1.000  O 
  O29      1.0000 0.20657  0.65729  0.75031  Biso   1.000  O 
  O30      1.0000 0.21372  0.60858  0.49960  Biso   1.000  O 
  O31      1.0000 0.20505  0.86094  0.49835  Biso   1.000  O 
  O32      1.0000 0.24225  0.90137  0.74657  Biso   1.000  O 
  Hf16     1.0000 0.63373  0.01683  0.12402  Biso   1.000  Hf
  Hf17     1.0000 0.61309  0.24443  0.36866  Biso   1.000  Hf
  Hf18     1.0000 0.86187  0.26975  0.10583  Biso   1.000  Hf
  Hf19     1.0000 0.83207  0.00099  0.38813  Biso   1.000  Hf
  O33      1.0000 0.49502  0.14257  0.01340  Biso   1.000  O 
  O34      1.0000 0.52664  0.08252  0.27593  Biso   1.000  O 
  O35      1.0000 0.51427  0.33601  0.22067  Biso   1.000  O 
  O36      1.0000 0.46276  0.41426  0.98376  Biso   1.000  O 
  O37      1.0000 0.76848  0.15100  0.25128  Biso   1.000  O 
  O38      1.0000 0.73516  0.13920  0.99700  Biso   1.000  O 
  O39      1.0000 0.71057  0.38388  0.98753  Biso   1.000  O 
  O40      1.0000 0.75628  0.40568  0.23441  Biso   1.000  O 
  Hf20     1.0000 0.58177  0.99951  0.62854  Biso   1.000  Hf
  Hf21     1.0000 0.60486  0.25806  0.86236  Biso   1.000  Hf
  Hf22     1.0000 0.86612  0.26378  0.60766  Biso   1.000  Hf
  Hf23     1.0000 0.87346  0.04406  0.86809  Biso   1.000  Hf
  O41      1.0000 0.48218  0.15053  0.50544  Biso   1.000  O 
  O42      1.0000 0.51236  0.09182  0.77385  Biso   1.000  O 
  O43      1.0000 0.47760  0.34630  0.73237  Biso   1.000  O 
  O44      1.0000 0.47955  0.40065  0.47747  Biso   1.000  O 
  O45      1.0000 0.75241  0.16412  0.75244  Biso   1.000  O 
  O46      1.0000 0.73354  0.11144  0.50642  Biso   1.000  O 
  O47      1.0000 0.72947  0.36414  0.48862  Biso   1.000  O 
  O48      1.0000 0.71763  0.40549  0.73890  Biso   1.000  O 
  Hf24     1.0000 0.60861  0.49316  0.11748  Biso   1.000  Hf
  Hf25     1.0000 0.58351  0.75935  0.36127  Biso   1.000  Hf
  Hf26     1.0000 0.85364  0.75420  0.14233  Biso   1.000  Hf
  Hf27     1.0000 0.84084  0.51164  0.38442  Biso   1.000  Hf
  O49      1.0000 0.48166  0.65823  0.97610  Biso   1.000  O 
  O50      1.0000 0.47609  0.59867  0.23209  Biso   1.000  O 
  O51      1.0000 0.42655  0.84741  0.26305  Biso   1.000  O 
  O52      1.0000 0.49917  0.88719  0.00514  Biso   1.000  O 
  O53      1.0000 0.71953  0.64727  0.25738  Biso   1.000  O 
  O54      1.0000 0.74469  0.61838  0.00702  Biso   1.000  O 
  O55      1.0000 0.75713  0.89243  0.99524  Biso   1.000  O 
  O56      1.0000 0.70184  0.89503  0.24538  Biso   1.000  O 
  Hf28     1.0000 0.58765  0.50176  0.61733  Biso   1.000  Hf
  Hf29     1.0000 0.62015  0.78276  0.88789  Biso   1.000  Hf
  Hf30     1.0000 0.82419  0.75970  0.62104  Biso   1.000  Hf
  Hf31     1.0000 0.82867  0.51851  0.86234  Biso   1.000  Hf
  O57      1.0000 0.46412  0.65395  0.48202  Biso   1.000  O 
  O58      1.0000 0.44057  0.59126  0.71423  Biso   1.000  O 
  O59      1.0000 0.49411  0.83616  0.73935  Biso   1.000  O 
  O60      1.0000 0.45244  0.90423  0.50708  Biso   1.000  O 
  O61      1.0000 0.70018  0.65323  0.75250  Biso   1.000  O 
  O62      1.0000 0.71968  0.61629  0.50779  Biso   1.000  O 
  O63      1.0000 0.70086  0.86169  0.49424  Biso   1.000  O 
  O64      1.0000 0.73343  0.90973  0.74524  Biso   1.000  O 
