data_image0
_cell_length_a       10.0517
_cell_length_b       10.2408
_cell_length_c       5.24716
_cell_angle_alpha    90
_cell_angle_beta     90
_cell_angle_gamma    90

_symmetry_space_group_name_H-M    "P 1"
_symmetry_int_tables_number       1

loop_
  _symmetry_equiv_pos_as_xyz
  'x, y, z'

loop_
  _atom_site_label
  _atom_site_occupancy
  _atom_site_fract_x
  _atom_site_fract_y
  _atom_site_fract_z
  _atom_site_thermal_displace_type
  _atom_site_B_iso_or_equiv
  _atom_site_type_symbol
  Hf1      1.0000 0.14299  0.02549  0.33528  Biso   1.000  Hf
  Hf2      1.0000 0.13726  0.23304  0.83917  Biso   1.000  Hf
  Hf3      1.0000 0.34812  0.28336  0.33836  Biso   1.000  Hf
  Hf4      1.0000 0.35971  0.48445  0.83702  Biso   1.000  Hf
  Hf5      1.0000 0.64840  0.01719  0.15797  Biso   1.000  Hf
  Hf6      1.0000 0.64052  0.23505  0.66294  Biso   1.000  Hf
  Hf7      1.0000 0.86038  0.27387  0.15516  Biso   1.000  Hf
  Hf8      1.0000 0.86028  0.48332  0.65246  Biso   1.000  Hf
  O1       1.0000 0.03248  0.17012  0.16456  Biso   1.000  O 
  O2       1.0000 0.03584  0.08864  0.66064  Biso   1.000  O 
  O3       1.0000 0.46489  0.41385  0.15488  Biso   1.000  O 
  O4       1.0000 0.46602  0.34306  0.65386  Biso   1.000  O 
  O5       1.0000 0.27515  0.13332  0.58530  Biso   1.000  O 
  O6       1.0000 0.27428  0.13190  0.08397  Biso   1.000  O 
  O7       1.0000 0.21844  0.38174  0.58840  Biso   1.000  O 
  O8       1.0000 0.21736  0.38428  0.08350  Biso   1.000  O 
  O9       1.0000 0.52343  0.05809  0.48035  Biso   1.000  O 
  O10      1.0000 0.52858  0.11397  0.89385  Biso   1.000  O 
  O11      1.0000 0.96458  0.42029  0.32853  Biso   1.000  O 
  O12      1.0000 0.96535  0.33896  0.82860  Biso   1.000  O 
  O13      1.0000 0.78068  0.12628  0.90649  Biso   1.000  O 
  O14      1.0000 0.77863  0.13007  0.41045  Biso   1.000  O 
  O15      1.0000 0.72305  0.37734  0.90762  Biso   1.000  O 
  O16      1.0000 0.72205  0.37866  0.40809  Biso   1.000  O 
  Hf9      1.0000 0.13427  0.52888  0.33820  Biso   1.000  Hf
  Hf10     1.0000 0.13811  0.73669  0.83475  Biso   1.000  Hf
  Hf11     1.0000 0.35893  0.77568  0.33183  Biso   1.000  Hf
  Hf12     1.0000 0.36230  0.98762  0.82871  Biso   1.000  Hf
  Hf13     1.0000 0.63543  0.52317  0.15436  Biso   1.000  Hf
  Hf14     1.0000 0.63474  0.73087  0.65117  Biso   1.000  Hf
  Hf15     1.0000 0.85841  0.77296  0.14946  Biso   1.000  Hf
  Hf16     1.0000 0.85609  0.98239  0.65035  Biso   1.000  Hf
  O17      1.0000 0.03073  0.67108  0.15935  Biso   1.000  O 
  O18      1.0000 0.02955  0.59196  0.66058  Biso   1.000  O 
  O19      1.0000 0.46788  0.90570  0.13154  Biso   1.000  O 
  O20      1.0000 0.46401  0.83748  0.65492  Biso   1.000  O 
  O21      1.0000 0.27314  0.62935  0.58370  Biso   1.000  O 
  O22      1.0000 0.27303  0.63154  0.08303  Biso   1.000  O 
  O23      1.0000 0.22173  0.88020  0.57576  Biso   1.000  O 
  O24      1.0000 0.22093  0.88344  0.07587  Biso   1.000  O 
  O25      1.0000 0.52806  0.66333  0.33451  Biso   1.000  O 
  O26      1.0000 0.53056  0.58980  0.83533  Biso   1.000  O 
  O27      1.0000 0.96196  0.91972  0.32416  Biso   1.000  O 
  O28      1.0000 0.96428  0.83924  0.82563  Biso   1.000  O 
  O29      1.0000 0.77383  0.62727  0.90541  Biso   1.000  O 
  O30      1.0000 0.77291  0.62738  0.40402  Biso   1.000  O 
  O31      1.0000 0.72050  0.87785  0.90347  Biso   1.000  O 
  O32      1.0000 0.72435  0.87312  0.40483  Biso   1.000  O 
  N1       1.0000 0.52322  0.16677  0.33402  Biso   1.000  N 
