data_image0
_cell_length_a       10.0634
_cell_length_b       10.192
_cell_length_c       5.22642
_cell_angle_alpha    90
_cell_angle_beta     90
_cell_angle_gamma    90

_symmetry_space_group_name_H-M    "P 1"
_symmetry_int_tables_number       1

loop_
  _symmetry_equiv_pos_as_xyz
  'x, y, z'

loop_
  _atom_site_label
  _atom_site_occupancy
  _atom_site_fract_x
  _atom_site_fract_y
  _atom_site_fract_z
  _atom_site_thermal_displace_type
  _atom_site_B_iso_or_equiv
  _atom_site_type_symbol
  N1       1.0000 0.04438  0.05272  0.35292  Biso   1.000  N 
  Hf1      1.0000 0.15801  0.23186  0.83978  Biso   1.000  Hf
  Hf2      1.0000 0.35863  0.26273  0.34414  Biso   1.000  Hf
  Hf3      1.0000 0.36466  0.48154  0.84667  Biso   1.000  Hf
  Hf4      1.0000 0.63473  0.02021  0.15795  Biso   1.000  Hf
  Hf5      1.0000 0.63650  0.23220  0.65940  Biso   1.000  Hf
  Hf6      1.0000 0.85656  0.27363  0.16138  Biso   1.000  Hf
  Hf7      1.0000 0.87140  0.47674  0.66121  Biso   1.000  Hf
  O1       1.0000 0.03050  0.13862  0.16437  Biso   1.000  O 
  O2       1.0000 0.02465  0.10413  0.58816  Biso   1.000  O 
  O3       1.0000 0.46872  0.41416  0.17172  Biso   1.000  O 
  O4       1.0000 0.47114  0.33891  0.66933  Biso   1.000  O 
  O5       1.0000 0.28206  0.13101  0.60157  Biso   1.000  O 
  O6       1.0000 0.29133  0.13662  0.07214  Biso   1.000  O 
  O7       1.0000 0.22702  0.37613  0.59368  Biso   1.000  O 
  O8       1.0000 0.22288  0.37523  0.09127  Biso   1.000  O 
  O9       1.0000 0.53725  0.16770  0.33383  Biso   1.000  O 
  O10      1.0000 0.53941  0.08545  0.83154  Biso   1.000  O 
  O11      1.0000 0.97425  0.40745  0.34220  Biso   1.000  O 
  O12      1.0000 0.97237  0.32627  0.84997  Biso   1.000  O 
  O13      1.0000 0.78078  0.12503  0.91559  Biso   1.000  O 
  O14      1.0000 0.77749  0.12627  0.41297  Biso   1.000  O 
  O15      1.0000 0.72825  0.37672  0.91394  Biso   1.000  O 
  O16      1.0000 0.72806  0.37678  0.41211  Biso   1.000  O 
  Hf8      1.0000 0.14462  0.52332  0.34709  Biso   1.000  Hf
  Hf9      1.0000 0.15145  0.73841  0.84059  Biso   1.000  Hf
  Hf10     1.0000 0.35996  0.77999  0.34301  Biso   1.000  Hf
  Hf11     1.0000 0.36243  0.98158  0.83916  Biso   1.000  Hf
  Hf12     1.0000 0.63686  0.52031  0.16469  Biso   1.000  Hf
  Hf13     1.0000 0.63876  0.72885  0.65231  Biso   1.000  Hf
  Hf14     1.0000 0.86511  0.76091  0.14531  Biso   1.000  Hf
  Hf15     1.0000 0.85492  0.97953  0.67190  Biso   1.000  Hf
  O17      1.0000 0.03852  0.67269  0.18125  Biso   1.000  O 
  O18      1.0000 0.03765  0.58463  0.67538  Biso   1.000  O 
  O19      1.0000 0.47829  0.91399  0.16398  Biso   1.000  O 
  O20      1.0000 0.48044  0.84474  0.65465  Biso   1.000  O 
  O21      1.0000 0.28220  0.62307  0.58972  Biso   1.000  O 
  O22      1.0000 0.27914  0.62185  0.09371  Biso   1.000  O 
  O23      1.0000 0.23432  0.87002  0.59544  Biso   1.000  O 
  O24      1.0000 0.24180  0.86795  0.07348  Biso   1.000  O 
  O25      1.0000 0.53736  0.66687  0.33334  Biso   1.000  O 
  O26      1.0000 0.53747  0.58714  0.83615  Biso   1.000  O 
  O27      1.0000 0.97769  0.94690  0.32988  Biso   1.000  O 
  O28      1.0000 0.97348  0.84486  0.83344  Biso   1.000  O 
  O29      1.0000 0.78198  0.62598  0.91603  Biso   1.000  O 
  O30      1.0000 0.78181  0.62277  0.41373  Biso   1.000  O 
  O31      1.0000 0.72666  0.87430  0.90934  Biso   1.000  O 
  O32      1.0000 0.74500  0.87364  0.40780  Biso   1.000  O 
