data_image0
_cell_length_a       10.0729
_cell_length_b       5.09798
_cell_length_c       10.4589
_cell_angle_alpha    90
_cell_angle_beta     90
_cell_angle_gamma    90

_symmetry_space_group_name_H-M    "P 1"
_symmetry_int_tables_number       1

loop_
  _symmetry_equiv_pos_as_xyz
  'x, y, z'

loop_
  _atom_site_label
  _atom_site_occupancy
  _atom_site_fract_x
  _atom_site_fract_y
  _atom_site_fract_z
  _atom_site_thermal_displace_type
  _atom_site_B_iso_or_equiv
  _atom_site_type_symbol
  N1       1.0000 0.04348  0.12375  0.18459  Biso   1.000  N 
  Hf1      1.0000 0.15370  0.47710  0.41867  Biso   1.000  Hf
  Hf2      1.0000 0.35195  0.54374  0.17208  Biso   1.000  Hf
  Hf3      1.0000 0.36122  0.96862  0.41506  Biso   1.000  Hf
  Hf4      1.0000 0.63220  0.04244  0.07917  Biso   1.000  Hf
  Hf5      1.0000 0.63325  0.45951  0.32742  Biso   1.000  Hf
  Hf6      1.0000 0.85081  0.53297  0.07091  Biso   1.000  Hf
  Hf7      1.0000 0.85188  0.95847  0.33739  Biso   1.000  Hf
  O1       1.0000 0.03432  0.32046  0.10168  Biso   1.000  O 
  O2       1.0000 0.02545  0.20249  0.30567  Biso   1.000  O 
  O3       1.0000 0.47425  0.82097  0.08358  Biso   1.000  O 
  O4       1.0000 0.47644  0.69164  0.32833  Biso   1.000  O 
  O5       1.0000 0.28535  0.26963  0.30737  Biso   1.000  O 
  O6       1.0000 0.29046  0.26331  0.03581  Biso   1.000  O 
  O7       1.0000 0.23071  0.75161  0.30077  Biso   1.000  O 
  O8       1.0000 0.23355  0.73533  0.03818  Biso   1.000  O 
  O9       1.0000 0.53453  0.33374  0.16657  Biso   1.000  O 
  O10      1.0000 0.53739  0.17276  0.41752  Biso   1.000  O 
  O11      1.0000 0.97328  0.91765  0.16206  Biso   1.000  O 
  O12      1.0000 0.97134  0.68664  0.41351  Biso   1.000  O 
  O13      1.0000 0.77799  0.24671  0.45684  Biso   1.000  O 
  O14      1.0000 0.77676  0.25253  0.20649  Biso   1.000  O 
  O15      1.0000 0.72542  0.74453  0.45682  Biso   1.000  O 
  O16      1.0000 0.73925  0.75338  0.20405  Biso   1.000  O 
  Hf8      1.0000 0.14150  0.05185  0.67174  Biso   1.000  Hf
  Hf9      1.0000 0.15618  0.46914  0.92285  Biso   1.000  Hf
  Hf10     1.0000 0.36532  0.55290  0.67147  Biso   1.000  Hf
  Hf11     1.0000 0.36084  0.96839  0.92879  Biso   1.000  Hf
  Hf12     1.0000 0.63661  0.04349  0.58138  Biso   1.000  Hf
  Hf13     1.0000 0.63816  0.46738  0.82664  Biso   1.000  Hf
  Hf14     1.0000 0.86687  0.54011  0.57765  Biso   1.000  Hf
  Hf15     1.0000 0.87146  0.96070  0.82765  Biso   1.000  Hf
  O17      1.0000 0.03003  0.30687  0.56547  Biso   1.000  O 
  O18      1.0000 0.03383  0.18585  0.83201  Biso   1.000  O 
  O19      1.0000 0.46989  0.83650  0.58177  Biso   1.000  O 
  O20      1.0000 0.47169  0.68200  0.83122  Biso   1.000  O 
  O21      1.0000 0.27803  0.25184  0.79193  Biso   1.000  O 
  O22      1.0000 0.27849  0.26224  0.54876  Biso   1.000  O 
  O23      1.0000 0.22777  0.75228  0.79349  Biso   1.000  O 
  O24      1.0000 0.22655  0.76120  0.54560  Biso   1.000  O 
  O25      1.0000 0.53661  0.33822  0.66630  Biso   1.000  O 
  O26      1.0000 0.53827  0.17662  0.91578  Biso   1.000  O 
  O27      1.0000 0.97669  0.81397  0.67372  Biso   1.000  O 
  O28      1.0000 0.97480  0.67597  0.93241  Biso   1.000  O 
  O29      1.0000 0.77996  0.26208  0.95808  Biso   1.000  O 
  O30      1.0000 0.78007  0.25363  0.70647  Biso   1.000  O 
  O31      1.0000 0.72725  0.76169  0.95324  Biso   1.000  O 
  O32      1.0000 0.73149  0.75558  0.70426  Biso   1.000  O 
