data_image0
_cell_length_a       5.05235
_cell_length_b       10.2401
_cell_length_c       10.0069
_cell_angle_alpha    90
_cell_angle_beta     90
_cell_angle_gamma    90

_symmetry_space_group_name_H-M    "P 1"
_symmetry_int_tables_number       1

loop_
  _symmetry_equiv_pos_as_xyz
  'x, y, z'

loop_
  _atom_site_label
  _atom_site_occupancy
  _atom_site_fract_x
  _atom_site_fract_y
  _atom_site_fract_z
  _atom_site_thermal_displace_type
  _atom_site_B_iso_or_equiv
  _atom_site_type_symbol
  N1       1.0000 0.13548  0.99627  0.13843  Biso   1.000  N 
  Hf1      1.0000 0.28601  0.23879  0.34639  Biso   1.000  Hf
  Hf2      1.0000 0.70864  0.26513  0.09917  Biso   1.000  Hf
  Hf3      1.0000 0.63458  0.98464  0.37069  Biso   1.000  Hf
  O1       1.0000 0.89370  0.18794  0.96907  Biso   1.000  O 
  O2       1.0000 0.09702  0.06020  0.22551  Biso   1.000  O 
  O3       1.0000 0.03507  0.31753  0.21485  Biso   1.000  O 
  O4       1.0000 0.90392  0.43032  0.00757  Biso   1.000  O 
  O5       1.0000 0.59458  0.14646  0.25467  Biso   1.000  O 
  O6       1.0000 0.41510  0.14269  0.98488  Biso   1.000  O 
  O7       1.0000 0.36229  0.38608  0.98908  Biso   1.000  O 
  O8       1.0000 0.50003  0.39668  0.23829  Biso   1.000  O 
  Hf4      1.0000 0.22968  0.01898  0.61493  Biso   1.000  Hf
  Hf5      1.0000 0.18910  0.26226  0.85362  Biso   1.000  Hf
  Hf6      1.0000 0.74234  0.25361  0.59388  Biso   1.000  Hf
  Hf7      1.0000 0.68435  0.04259  0.86973  Biso   1.000  Hf
  O9       1.0000 0.99386  0.15279  0.46562  Biso   1.000  O 
  O10      1.0000 0.96565  0.12623  0.72634  Biso   1.000  O 
  O11      1.0000 0.87667  0.37741  0.75009  Biso   1.000  O 
  O12      1.0000 0.93936  0.40871  0.49969  Biso   1.000  O 
  O13      1.0000 0.46778  0.16567  0.73692  Biso   1.000  O 
  O14      1.0000 0.49268  0.10541  0.49426  Biso   1.000  O 
  O15      1.0000 0.46338  0.34967  0.48438  Biso   1.000  O 
  O16      1.0000 0.36865  0.41465  0.73999  Biso   1.000  O 
  Hf8      1.0000 0.19498  0.49858  0.12848  Biso   1.000  Hf
  Hf9      1.0000 0.16732  0.73568  0.37193  Biso   1.000  Hf
  Hf10     1.0000 0.66919  0.74889  0.13176  Biso   1.000  Hf
  Hf11     1.0000 0.65373  0.50993  0.39308  Biso   1.000  Hf
  O17      1.0000 0.00216  0.68493  0.03889  Biso   1.000  O 
  O18      1.0000 0.95139  0.57868  0.27110  Biso   1.000  O 
  O19      1.0000 0.85637  0.83216  0.29104  Biso   1.000  O 
  O20      1.0000 0.01056  0.93064  0.05820  Biso   1.000  O 
  O21      1.0000 0.43703  0.63858  0.25588  Biso   1.000  O 
  O22      1.0000 0.46736  0.60981  0.00450  Biso   1.000  O 
  O23      1.0000 0.46302  0.88050  0.98347  Biso   1.000  O 
  O24      1.0000 0.38100  0.88139  0.24429  Biso   1.000  O 
  Hf12     1.0000 0.10689  0.52750  0.63933  Biso   1.000  Hf
  Hf13     1.0000 0.16730  0.77802  0.88730  Biso   1.000  Hf
  Hf14     1.0000 0.65552  0.78025  0.64815  Biso   1.000  Hf
  Hf15     1.0000 0.60556  0.51604  0.86326  Biso   1.000  Hf
  O25      1.0000 0.87329  0.66299  0.51473  Biso   1.000  O 
  O26      1.0000 0.87783  0.63608  0.76884  Biso   1.000  O 
  O27      1.0000 0.86931  0.88211  0.79475  Biso   1.000  O 
  O28      1.0000 0.85451  0.91624  0.53422  Biso   1.000  O 
  O29      1.0000 0.37417  0.66607  0.75269  Biso   1.000  O 
  O30      1.0000 0.36830  0.60077  0.50160  Biso   1.000  O 
  O31      1.0000 0.38105  0.85750  0.49741  Biso   1.000  O 
  O32      1.0000 0.37575  0.91574  0.74328  Biso   1.000  O 
