data_image0
_cell_length_a       5.05108
_cell_length_b       10.3392
_cell_length_c       10.4081
_cell_angle_alpha    90
_cell_angle_beta     80
_cell_angle_gamma    90

_symmetry_space_group_name_H-M    "P 1"
_symmetry_int_tables_number       1

loop_
  _symmetry_equiv_pos_as_xyz
  'x, y, z'

loop_
  _atom_site_label
  _atom_site_occupancy
  _atom_site_fract_x
  _atom_site_fract_y
  _atom_site_fract_z
  _atom_site_thermal_displace_type
  _atom_site_B_iso_or_equiv
  _atom_site_type_symbol
  Hf1      1.0000 0.27122  0.01858  0.14723  Biso   1.000  Hf
  Hf2      1.0000 0.31302  0.22480  0.39403  Biso   1.000  Hf
  Hf3      1.0000 0.72161  0.26950  0.11144  Biso   1.000  Hf
  Hf4      1.0000 0.68074  0.48458  0.34738  Biso   1.000  Hf
  O1       1.0000 0.07093  0.16995  0.08343  Biso   1.000  O 
  O2       1.0000 0.07663  0.07313  0.33839  Biso   1.000  O 
  O3       1.0000 0.88503  0.44161  0.15339  Biso   1.000  O 
  O4       1.0000 0.92618  0.31755  0.41375  Biso   1.000  O 
  O5       1.0000 0.54282  0.11799  0.23883  Biso   1.000  O 
  O6       1.0000 0.55547  0.11456  0.49805  Biso   1.000  O 
  O7       1.0000 0.43775  0.37869  0.00917  Biso   1.000  O 
  O8       1.0000 0.38930  0.37216  0.25375  Biso   1.000  O 
  Hf5      1.0000 0.25940  0.01851  0.64803  Biso   1.000  Hf
  Hf6      1.0000 0.25305  0.22563  0.90102  Biso   1.000  Hf
  Hf7      1.0000 0.70521  0.26551  0.61508  Biso   1.000  Hf
  Hf8      1.0000 0.69290  0.47411  0.86019  Biso   1.000  Hf
  O9       1.0000 0.07091  0.17402  0.58324  Biso   1.000  O 
  O10      1.0000 0.05489  0.07429  0.83439  Biso   1.000  O 
  O11      1.0000 0.90525  0.41785  0.66973  Biso   1.000  O 
  O12      1.0000 0.89776  0.32273  0.92110  Biso   1.000  O 
  O13      1.0000 0.53526  0.12681  0.74618  Biso   1.000  O 
  O14      1.0000 0.52960  0.11722  0.99486  Biso   1.000  O 
  O15      1.0000 0.44235  0.37748  0.51385  Biso   1.000  O 
  O16      1.0000 0.42367  0.36727  0.76274  Biso   1.000  O 
  Hf9      1.0000 0.25353  0.51978  0.14233  Biso   1.000  Hf
  Hf10     1.0000 0.24440  0.72693  0.39837  Biso   1.000  Hf
  Hf11     1.0000 0.69893  0.77064  0.10505  Biso   1.000  Hf
  Hf12     1.0000 0.70082  0.97497  0.35633  Biso   1.000  Hf
  O17      1.0000 0.05756  0.67824  0.08464  Biso   1.000  O 
  O18      1.0000 0.04243  0.57269  0.33509  Biso   1.000  O 
  O19      1.0000 0.89847  0.92035  0.17030  Biso   1.000  O 
  O20      1.0000 0.89174  0.82244  0.41972  Biso   1.000  O 
  O21      1.0000 0.52016  0.62916  0.24299  Biso   1.000  O 
  O22      1.0000 0.51821  0.61909  0.49287  Biso   1.000  O 
  O23      1.0000 0.42770  0.87924  0.00984  Biso   1.000  O 
  O24      1.0000 0.42010  0.86631  0.26081  Biso   1.000  O 
  Hf13     1.0000 0.25341  0.51916  0.64911  Biso   1.000  Hf
  Hf14     1.0000 0.23875  0.72677  0.89883  Biso   1.000  Hf
  Hf15     1.0000 0.68796  0.76825  0.60747  Biso   1.000  Hf
  Hf16     1.0000 0.68087  0.97614  0.85825  Biso   1.000  Hf
  O25      1.0000 0.04153  0.66887  0.58667  Biso   1.000  O 
  O26      1.0000 0.04433  0.57384  0.83648  Biso   1.000  O 
  O27      1.0000 0.88666  0.92072  0.66870  Biso   1.000  O 
  O28      1.0000 0.88453  0.82502  0.91960  Biso   1.000  O 
  O29      1.0000 0.52398  0.62632  0.74401  Biso   1.000  O 
  O30      1.0000 0.51343  0.61716  0.99339  Biso   1.000  O 
  O31      1.0000 0.41251  0.87661  0.51124  Biso   1.000  O 
  O32      1.0000 0.40834  0.86806  0.76161  Biso   1.000  O 
  N1       1.0000 0.77494  0.27932  0.32634  Biso   1.000  N 
