data_image0
_cell_length_a       9.96255
_cell_length_b       10.4064
_cell_length_c       5.03906
_cell_angle_alpha    90
_cell_angle_beta     90
_cell_angle_gamma    90

_symmetry_space_group_name_H-M    "P 1"
_symmetry_int_tables_number       1

loop_
  _symmetry_equiv_pos_as_xyz
  'x, y, z'

loop_
  _atom_site_label
  _atom_site_occupancy
  _atom_site_fract_x
  _atom_site_fract_y
  _atom_site_fract_z
  _atom_site_thermal_displace_type
  _atom_site_B_iso_or_equiv
  _atom_site_type_symbol
  Hf1      1.0000 0.15054  0.00457  0.24308  Biso   1.000  Hf
  Hf2      1.0000 0.14268  0.23642  0.80753  Biso   1.000  Hf
  Hf3      1.0000 0.36344  0.26723  0.26950  Biso   1.000  Hf
  Hf4      1.0000 0.36852  0.48579  0.75685  Biso   1.000  Hf
  O1       1.0000 0.01201  0.20979  0.48681  Biso   1.000  O 
  O2       1.0000 0.05434  0.05666  0.87006  Biso   1.000  O 
  O3       1.0000 0.46160  0.43550  0.39366  Biso   1.000  O 
  O4       1.0000 0.46801  0.31913  0.89243  Biso   1.000  O 
  O5       1.0000 0.26343  0.12044  0.51237  Biso   1.000  O 
  O6       1.0000 0.28621  0.12503  0.01048  Biso   1.000  O 
  O7       1.0000 0.22978  0.38329  0.02376  Biso   1.000  O 
  O8       1.0000 0.22587  0.36696  0.52389  Biso   1.000  O 
  Hf5      1.0000 0.13100  0.51980  0.25826  Biso   1.000  Hf
  Hf6      1.0000 0.13409  0.73492  0.75062  Biso   1.000  Hf
  Hf7      1.0000 0.36504  0.76389  0.24670  Biso   1.000  Hf
  Hf8      1.0000 0.36664  0.98684  0.74346  Biso   1.000  Hf
  O9       1.0000 0.03455  0.68996  0.38586  Biso   1.000  O 
  O10      1.0000 0.03954  0.57094  0.88812  Biso   1.000  O 
  O11      1.0000 0.45855  0.93618  0.38061  Biso   1.000  O 
  O12      1.0000 0.46738  0.82090  0.88617  Biso   1.000  O 
  O13      1.0000 0.26939  0.61748  0.50118  Biso   1.000  O 
  O14      1.0000 0.26485  0.63183  0.00004  Biso   1.000  O 
  O15      1.0000 0.23424  0.88099  0.99085  Biso   1.000  O 
  O16      1.0000 0.23138  0.86501  0.49553  Biso   1.000  O 
  Hf9      1.0000 0.63979  0.01839  0.24206  Biso   1.000  Hf
  Hf10     1.0000 0.63626  0.23748  0.74284  Biso   1.000  Hf
  Hf11     1.0000 0.85659  0.27718  0.22743  Biso   1.000  Hf
  Hf12     1.0000 0.86808  0.49147  0.74174  Biso   1.000  Hf
  O17      1.0000 0.53534  0.18436  0.38887  Biso   1.000  O 
  O18      1.0000 0.54878  0.06763  0.88031  Biso   1.000  O 
  O19      1.0000 0.95740  0.44366  0.37349  Biso   1.000  O 
  O20      1.0000 0.96746  0.33195  0.87559  Biso   1.000  O 
  O21      1.0000 0.77174  0.12075  0.48408  Biso   1.000  O 
  O22      1.0000 0.77993  0.14030  0.98171  Biso   1.000  O 
  O23      1.0000 0.73094  0.39025  0.99343  Biso   1.000  O 
  O24      1.0000 0.72515  0.37561  0.49755  Biso   1.000  O 
  Hf13     1.0000 0.63054  0.52041  0.25178  Biso   1.000  Hf
  Hf14     1.0000 0.63647  0.73844  0.74949  Biso   1.000  Hf
  Hf15     1.0000 0.86289  0.77032  0.24378  Biso   1.000  Hf
  Hf16     1.0000 0.86463  0.99052  0.73843  Biso   1.000  Hf
  O25      1.0000 0.53361  0.68639  0.39197  Biso   1.000  O 
  O26      1.0000 0.53713  0.57199  0.89271  Biso   1.000  O 
  O27      1.0000 0.96057  0.94031  0.37908  Biso   1.000  O 
  O28      1.0000 0.96395  0.81987  0.87957  Biso   1.000  O 
  O29      1.0000 0.76845  0.62396  0.49334  Biso   1.000  O 
  O30      1.0000 0.77309  0.63919  0.99583  Biso   1.000  O 
  O31      1.0000 0.73261  0.88885  0.99349  Biso   1.000  O 
  O32      1.0000 0.72716  0.87159  0.49232  Biso   1.000  O 
  N1       1.0000 0.04573  0.18459  0.23991  Biso   1.000  N 
