data_image0
_cell_length_a       9.96571
_cell_length_b       5.19865
_cell_length_c       10.076
_cell_angle_alpha    90
_cell_angle_beta     90
_cell_angle_gamma    90

_symmetry_space_group_name_H-M    "P 1"
_symmetry_int_tables_number       1

loop_
  _symmetry_equiv_pos_as_xyz
  'x, y, z'

loop_
  _atom_site_label
  _atom_site_occupancy
  _atom_site_fract_x
  _atom_site_fract_y
  _atom_site_fract_z
  _atom_site_thermal_displace_type
  _atom_site_B_iso_or_equiv
  _atom_site_type_symbol
  Hf1      1.0000 0.14811  0.01062  0.12095  Biso   1.000  Hf
  Hf2      1.0000 0.14854  0.48133  0.39805  Biso   1.000  Hf
  Hf3      1.0000 0.36482  0.52517  0.12787  Biso   1.000  Hf
  Hf4      1.0000 0.37164  0.97707  0.37557  Biso   1.000  Hf
  O1       1.0000 0.01053  0.43131  0.24314  Biso   1.000  O 
  O2       1.0000 0.04723  0.14541  0.45107  Biso   1.000  O 
  O3       1.0000 0.45813  0.87383  0.19100  Biso   1.000  O 
  O4       1.0000 0.47089  0.64353  0.44389  Biso   1.000  O 
  O5       1.0000 0.26165  0.23759  0.25501  Biso   1.000  O 
  O6       1.0000 0.28783  0.27188  0.50638  Biso   1.000  O 
  O7       1.0000 0.24119  0.78135  0.50664  Biso   1.000  O 
  O8       1.0000 0.23063  0.72923  0.25489  Biso   1.000  O 
  Hf5      1.0000 0.14840  0.04721  0.63323  Biso   1.000  Hf
  Hf6      1.0000 0.14532  0.47294  0.87981  Biso   1.000  Hf
  Hf7      1.0000 0.37890  0.54786  0.63038  Biso   1.000  Hf
  Hf8      1.0000 0.37941  0.97841  0.87540  Biso   1.000  Hf
  O9       1.0000 0.05312  0.39149  0.68969  Biso   1.000  O 
  O10      1.0000 0.06448  0.11835  0.92228  Biso   1.000  O 
  O11      1.0000 0.47567  0.88229  0.69530  Biso   1.000  O 
  O12      1.0000 0.47828  0.64498  0.94502  Biso   1.000  O 
  O13      1.0000 0.28659  0.25322  0.75364  Biso   1.000  O 
  O14      1.0000 0.27913  0.24769  0.00147  Biso   1.000  O 
  O15      1.0000 0.22856  0.74515  0.00016  Biso   1.000  O 
  O16      1.0000 0.24039  0.74826  0.75356  Biso   1.000  O 
  Hf9      1.0000 0.63550  0.03987  0.12533  Biso   1.000  Hf
  Hf10     1.0000 0.64182  0.47806  0.37517  Biso   1.000  Hf
  Hf11     1.0000 0.85429  0.55031  0.11243  Biso   1.000  Hf
  Hf12     1.0000 0.87288  0.98366  0.37290  Biso   1.000  Hf
  O17      1.0000 0.53457  0.37060  0.19736  Biso   1.000  O 
  O18      1.0000 0.54674  0.14037  0.44320  Biso   1.000  O 
  O19      1.0000 0.96271  0.89270  0.18649  Biso   1.000  O 
  O20      1.0000 0.97619  0.65983  0.45064  Biso   1.000  O 
  O21      1.0000 0.77077  0.24632  0.24534  Biso   1.000  O 
  O22      1.0000 0.78229  0.28150  0.49546  Biso   1.000  O 
  O23      1.0000 0.73871  0.77874  0.49706  Biso   1.000  O 
  O24      1.0000 0.72716  0.75252  0.24912  Biso   1.000  O 
  Hf13     1.0000 0.64975  0.04651  0.62256  Biso   1.000  Hf
  Hf14     1.0000 0.64607  0.48307  0.87134  Biso   1.000  Hf
  Hf15     1.0000 0.87864  0.55158  0.62444  Biso   1.000  Hf
  Hf16     1.0000 0.87714  0.98810  0.86881  Biso   1.000  Hf
  O25      1.0000 0.55016  0.38183  0.69176  Biso   1.000  O 
  O26      1.0000 0.55365  0.14763  0.94222  Biso   1.000  O 
  O27      1.0000 0.96901  0.89041  0.68846  Biso   1.000  O 
  O28      1.0000 0.96741  0.64519  0.92447  Biso   1.000  O 
  O29      1.0000 0.78418  0.25288  0.74514  Biso   1.000  O 
  O30      1.0000 0.78409  0.28502  0.99481  Biso   1.000  O 
  O31      1.0000 0.73928  0.78875  0.99654  Biso   1.000  O 
  O32      1.0000 0.73885  0.75355  0.74643  Biso   1.000  O 
  N1       1.0000 0.03907  0.36097  0.12052  Biso   1.000  N 
