data_image0
_cell_length_a       10.011
_cell_length_b       10.3499
_cell_length_c       4.99013
_cell_angle_alpha    90
_cell_angle_beta     90
_cell_angle_gamma    90

_symmetry_space_group_name_H-M    "P 1"
_symmetry_int_tables_number       1

loop_
  _symmetry_equiv_pos_as_xyz
  'x, y, z'

loop_
  _atom_site_label
  _atom_site_occupancy
  _atom_site_fract_x
  _atom_site_fract_y
  _atom_site_fract_z
  _atom_site_thermal_displace_type
  _atom_site_B_iso_or_equiv
  _atom_site_type_symbol
  N1       1.0000 0.06615  0.01496  0.21754  Biso   1.000  N 
  Hf1      1.0000 0.14388  0.24574  0.75563  Biso   1.000  Hf
  Hf2      1.0000 0.36574  0.26746  0.25111  Biso   1.000  Hf
  Hf3      1.0000 0.37281  0.49429  0.74971  Biso   1.000  Hf
  O1       1.0000 0.99253  0.16908  0.53072  Biso   1.000  O 
  O2       1.0000 0.03318  0.06781  0.99130  Biso   1.000  O 
  O3       1.0000 0.46665  0.43826  0.38651  Biso   1.000  O 
  O4       1.0000 0.46977  0.32872  0.88481  Biso   1.000  O 
  O5       1.0000 0.27770  0.13519  0.51134  Biso   1.000  O 
  O6       1.0000 0.27972  0.14804  0.98875  Biso   1.000  O 
  O7       1.0000 0.23463  0.38683  0.00086  Biso   1.000  O 
  O8       1.0000 0.23016  0.37335  0.50028  Biso   1.000  O 
  Hf4      1.0000 0.13542  0.51852  0.25034  Biso   1.000  Hf
  Hf5      1.0000 0.14151  0.74339  0.74945  Biso   1.000  Hf
  Hf6      1.0000 0.36581  0.77029  0.24910  Biso   1.000  Hf
  Hf7      1.0000 0.36303  0.99119  0.74933  Biso   1.000  Hf
  O9       1.0000 0.03942  0.69226  0.37952  Biso   1.000  O 
  O10      1.0000 0.03224  0.58136  0.90099  Biso   1.000  O 
  O11      1.0000 0.47637  0.93294  0.40556  Biso   1.000  O 
  O12      1.0000 0.47745  0.83070  0.90343  Biso   1.000  O 
  O13      1.0000 0.26967  0.61899  0.49481  Biso   1.000  O 
  O14      1.0000 0.27673  0.64154  0.99609  Biso   1.000  O 
  O15      1.0000 0.23410  0.87573  0.00118  Biso   1.000  O 
  O16      1.0000 0.24780  0.86458  0.51711  Biso   1.000  O 
  Hf8      1.0000 0.62798  0.01361  0.22976  Biso   1.000  Hf
  Hf9      1.0000 0.63083  0.23972  0.74215  Biso   1.000  Hf
  Hf10     1.0000 0.86640  0.26598  0.26600  Biso   1.000  Hf
  Hf11     1.0000 0.87021  0.48883  0.75363  Biso   1.000  Hf
  O17      1.0000 0.53831  0.18919  0.37329  Biso   1.000  O 
  O18      1.0000 0.53612  0.07651  0.88024  Biso   1.000  O 
  O19      1.0000 0.97340  0.42901  0.41691  Biso   1.000  O 
  O20      1.0000 0.98122  0.32875  0.94270  Biso   1.000  O 
  O21      1.0000 0.75583  0.11396  0.47684  Biso   1.000  O 
  O22      1.0000 0.77985  0.14533  0.97840  Biso   1.000  O 
  O23      1.0000 0.73376  0.38168  0.00245  Biso   1.000  O 
  O24      1.0000 0.73460  0.37037  0.50165  Biso   1.000  O 
  Hf12     1.0000 0.63477  0.51816  0.24627  Biso   1.000  Hf
  Hf13     1.0000 0.63639  0.74668  0.73096  Biso   1.000  Hf
  Hf14     1.0000 0.87096  0.76044  0.21502  Biso   1.000  Hf
  Hf15     1.0000 0.87032  0.00304  0.72780  Biso   1.000  Hf
  O25      1.0000 0.54067  0.68731  0.38500  Biso   1.000  O 
  O26      1.0000 0.54193  0.57842  0.88243  Biso   1.000  O 
  O27      1.0000 0.98244  0.94260  0.32425  Biso   1.000  O 
  O28      1.0000 0.97061  0.83547  0.85341  Biso   1.000  O 
  O29      1.0000 0.77671  0.61714  0.48341  Biso   1.000  O 
  O30      1.0000 0.77175  0.64595  0.98090  Biso   1.000  O 
  O31      1.0000 0.73816  0.89804  0.97510  Biso   1.000  O 
  O32      1.0000 0.75494  0.86988  0.47701  Biso   1.000  O 
