data_image0
_cell_length_a       5.097
_cell_length_b       10.1848
_cell_length_c       10.4806
_cell_angle_alpha    90
_cell_angle_beta     80
_cell_angle_gamma    90

_symmetry_space_group_name_H-M    "P 1"
_symmetry_int_tables_number       1

loop_
  _symmetry_equiv_pos_as_xyz
  'x, y, z'

loop_
  _atom_site_label
  _atom_site_occupancy
  _atom_site_fract_x
  _atom_site_fract_y
  _atom_site_fract_z
  _atom_site_thermal_displace_type
  _atom_site_B_iso_or_equiv
  _atom_site_type_symbol
  N1       1.0000 0.09246  0.05424  0.16961  Biso   1.000  N 
  Hf1      1.0000 0.29383  0.23109  0.39544  Biso   1.000  Hf
  Hf2      1.0000 0.69371  0.26823  0.10779  Biso   1.000  Hf
  Hf3      1.0000 0.72714  0.47702  0.35087  Biso   1.000  Hf
  O1       1.0000 0.06381  0.15015  0.08997  Biso   1.000  O 
  O2       1.0000 0.07168  0.09230  0.29459  Biso   1.000  O 
  O3       1.0000 0.92850  0.41036  0.17311  Biso   1.000  O 
  O4       1.0000 0.93805  0.33313  0.42246  Biso   1.000  O 
  O5       1.0000 0.58169  0.13932  0.25691  Biso   1.000  O 
  O6       1.0000 0.54550  0.11809  0.49651  Biso   1.000  O 
  O7       1.0000 0.44381  0.37891  0.00988  Biso   1.000  O 
  O8       1.0000 0.43511  0.37386  0.25835  Biso   1.000  O 
  Hf4      1.0000 0.27256  0.01753  0.64894  Biso   1.000  Hf
  Hf5      1.0000 0.29308  0.22582  0.89299  Biso   1.000  Hf
  Hf6      1.0000 0.73253  0.26777  0.60229  Biso   1.000  Hf
  Hf7      1.0000 0.73894  0.47347  0.85652  Biso   1.000  Hf
  O9       1.0000 0.05711  0.14806  0.55941  Biso   1.000  O 
  O10      1.0000 0.06818  0.08832  0.82504  Biso   1.000  O 
  O11      1.0000 0.95142  0.40467  0.67735  Biso   1.000  O 
  O12      1.0000 0.94307  0.33161  0.93412  Biso   1.000  O 
  O13      1.0000 0.55303  0.12561  0.73721  Biso   1.000  O 
  O14      1.0000 0.56997  0.13256  0.98012  Biso   1.000  O 
  O15      1.0000 0.45330  0.37394  0.50882  Biso   1.000  O 
  O16      1.0000 0.46228  0.36821  0.75986  Biso   1.000  O 
  Hf8      1.0000 0.26929  0.52176  0.14477  Biso   1.000  Hf
  Hf9      1.0000 0.28740  0.72615  0.39351  Biso   1.000  Hf
  Hf10     1.0000 0.71637  0.77009  0.09684  Biso   1.000  Hf
  Hf11     1.0000 0.70756  0.97749  0.36108  Biso   1.000  Hf
  O17      1.0000 0.07317  0.67277  0.08031  Biso   1.000  O 
  O18      1.0000 0.06333  0.58602  0.32615  Biso   1.000  O 
  O19      1.0000 0.94596  0.95132  0.16640  Biso   1.000  O 
  O20      1.0000 0.95288  0.84286  0.42179  Biso   1.000  O 
  O21      1.0000 0.54854  0.62221  0.23718  Biso   1.000  O 
  O22      1.0000 0.55854  0.61939  0.48906  Biso   1.000  O 
  O23      1.0000 0.47257  0.87051  0.99907  Biso   1.000  O 
  O24      1.0000 0.50304  0.85957  0.26397  Biso   1.000  O 
  Hf12     1.0000 0.28596  0.52105  0.64818  Biso   1.000  Hf
  Hf13     1.0000 0.28902  0.73337  0.89724  Biso   1.000  Hf
  Hf14     1.0000 0.73355  0.76975  0.60387  Biso   1.000  Hf
  Hf15     1.0000 0.72325  0.97895  0.85842  Biso   1.000  Hf
  O25      1.0000 0.07382  0.66051  0.57519  Biso   1.000  O 
  O26      1.0000 0.07684  0.58271  0.82795  Biso   1.000  O 
  O27      1.0000 0.93997  0.90928  0.67784  Biso   1.000  O 
  O28      1.0000 0.95327  0.84085  0.92641  Biso   1.000  O 
  O29      1.0000 0.56431  0.62581  0.74000  Biso   1.000  O 
  O30      1.0000 0.56084  0.61843  0.99202  Biso   1.000  O 
  O31      1.0000 0.45331  0.87487  0.51154  Biso   1.000  O 
  O32      1.0000 0.45575  0.87041  0.75624  Biso   1.000  O 
