data_image0
_cell_length_a       10.0148
_cell_length_b       5.14195
_cell_length_c       10.4463
_cell_angle_alpha    90
_cell_angle_beta     90
_cell_angle_gamma    90

_symmetry_space_group_name_H-M    "P 1"
_symmetry_int_tables_number       1

loop_
  _symmetry_equiv_pos_as_xyz
  'x, y, z'

loop_
  _atom_site_label
  _atom_site_occupancy
  _atom_site_fract_x
  _atom_site_fract_y
  _atom_site_fract_z
  _atom_site_thermal_displace_type
  _atom_site_B_iso_or_equiv
  _atom_site_type_symbol
  Hf1      1.0000 0.14163  0.04914  0.17095  Biso   1.000  Hf
  Hf2      1.0000 0.14254  0.46875  0.42045  Biso   1.000  Hf
  Hf3      1.0000 0.36206  0.55472  0.16699  Biso   1.000  Hf
  Hf4      1.0000 0.36569  0.96864  0.42011  Biso   1.000  Hf
  Hf5      1.0000 0.64405  0.03381  0.07256  Biso   1.000  Hf
  Hf6      1.0000 0.64776  0.47082  0.33918  Biso   1.000  Hf
  Hf7      1.0000 0.86113  0.54114  0.08039  Biso   1.000  Hf
  Hf8      1.0000 0.86384  0.96617  0.32923  Biso   1.000  Hf
  O1       1.0000 0.03450  0.33786  0.08543  Biso   1.000  O 
  O2       1.0000 0.03577  0.17571  0.33472  Biso   1.000  O 
  O3       1.0000 0.45713  0.87237  0.08554  Biso   1.000  O 
  O4       1.0000 0.47272  0.67795  0.32991  Biso   1.000  O 
  O5       1.0000 0.27666  0.26234  0.29455  Biso   1.000  O 
  O6       1.0000 0.27694  0.25811  0.04239  Biso   1.000  O 
  O7       1.0000 0.22694  0.76240  0.29433  Biso   1.000  O 
  O8       1.0000 0.22115  0.75513  0.04386  Biso   1.000  O 
  O9       1.0000 0.52085  0.27362  0.19653  Biso   1.000  O 
  O10      1.0000 0.53910  0.18153  0.42235  Biso   1.000  O 
  O11      1.0000 0.96616  0.83963  0.16526  Biso   1.000  O 
  O12      1.0000 0.96821  0.67311  0.41512  Biso   1.000  O 
  O13      1.0000 0.78252  0.25623  0.45934  Biso   1.000  O 
  O14      1.0000 0.77381  0.25865  0.20853  Biso   1.000  O 
  O15      1.0000 0.72696  0.75761  0.45971  Biso   1.000  O 
  O16      1.0000 0.72540  0.75528  0.20817  Biso   1.000  O 
  Hf9      1.0000 0.14620  0.05216  0.67003  Biso   1.000  Hf
  Hf10     1.0000 0.14474  0.47060  0.92048  Biso   1.000  Hf
  Hf11     1.0000 0.36685  0.54982  0.67059  Biso   1.000  Hf
  Hf12     1.0000 0.36610  0.97071  0.91772  Biso   1.000  Hf
  Hf13     1.0000 0.64433  0.05317  0.58435  Biso   1.000  Hf
  Hf14     1.0000 0.64359  0.46562  0.83277  Biso   1.000  Hf
  Hf15     1.0000 0.86734  0.55120  0.58227  Biso   1.000  Hf
  Hf16     1.0000 0.86798  0.96854  0.82922  Biso   1.000  Hf
  O17      1.0000 0.04023  0.34558  0.58566  Biso   1.000  O 
  O18      1.0000 0.04236  0.17573  0.83442  Biso   1.000  O 
  O19      1.0000 0.46941  0.84656  0.58647  Biso   1.000  O 
  O20      1.0000 0.46729  0.65883  0.84015  Biso   1.000  O 
  O21      1.0000 0.28317  0.25778  0.79264  Biso   1.000  O 
  O22      1.0000 0.28226  0.26222  0.54322  Biso   1.000  O 
  O23      1.0000 0.22867  0.75850  0.79281  Biso   1.000  O 
  O24      1.0000 0.22863  0.76199  0.54278  Biso   1.000  O 
  O25      1.0000 0.54216  0.35395  0.66376  Biso   1.000  O 
  O26      1.0000 0.54990  0.13710  0.89505  Biso   1.000  O 
  O27      1.0000 0.97149  0.84576  0.66425  Biso   1.000  O 
  O28      1.0000 0.97228  0.67645  0.91532  Biso   1.000  O 
  O29      1.0000 0.78943  0.25566  0.95466  Biso   1.000  O 
  O30      1.0000 0.78314  0.26196  0.70741  Biso   1.000  O 
  O31      1.0000 0.73209  0.75722  0.95669  Biso   1.000  O 
  O32      1.0000 0.72871  0.75940  0.70867  Biso   1.000  O 
  N1       1.0000 0.54869  0.41385  0.08747  Biso   1.000  N 
