data_image0
_cell_length_a       5.09067
_cell_length_b       10.3775
_cell_length_c       10.0836
_cell_angle_alpha    90
_cell_angle_beta     90
_cell_angle_gamma    90

_symmetry_space_group_name_H-M    "P 1"
_symmetry_int_tables_number       1

loop_
  _symmetry_equiv_pos_as_xyz
  'x, y, z'

loop_
  _atom_site_label
  _atom_site_occupancy
  _atom_site_fract_x
  _atom_site_fract_y
  _atom_site_fract_z
  _atom_site_thermal_displace_type
  _atom_site_B_iso_or_equiv
  _atom_site_type_symbol
  Hf1      1.0000 0.36446  0.97337  0.09682  Biso   1.000  Hf
  Hf2      1.0000 0.31352  0.23501  0.40665  Biso   1.000  Hf
  Hf3      1.0000 0.87386  0.27041  0.14309  Biso   1.000  Hf
  Hf4      1.0000 0.78951  0.02104  0.35211  Biso   1.000  Hf
  O1       1.0000 0.97596  0.12476  0.01067  Biso   1.000  O 
  O2       1.0000 0.10567  0.11629  0.24981  Biso   1.000  O 
  O3       1.0000 0.14542  0.36634  0.26213  Biso   1.000  O 
  O4       1.0000 0.12909  0.38336  0.01234  Biso   1.000  O 
  O5       1.0000 0.62289  0.18729  0.27268  Biso   1.000  O 
  O6       1.0000 0.46382  0.08316  0.97016  Biso   1.000  O 
  O7       1.0000 0.65209  0.32084  0.97926  Biso   1.000  O 
  O8       1.0000 0.65471  0.43221  0.21383  Biso   1.000  O 
  Hf5      1.0000 0.38239  0.98011  0.60846  Biso   1.000  Hf
  Hf6      1.0000 0.35257  0.25457  0.84864  Biso   1.000  Hf
  Hf7      1.0000 0.85601  0.26722  0.63314  Biso   1.000  Hf
  Hf8      1.0000 0.78551  0.02071  0.85928  Biso   1.000  Hf
  O9       1.0000 0.00413  0.13452  0.50011  Biso   1.000  O 
  O10      1.0000 0.09087  0.11783  0.75389  Biso   1.000  O 
  O11      1.0000 0.07653  0.37493  0.76156  Biso   1.000  O 
  O12      1.0000 0.10453  0.39032  0.50805  Biso   1.000  O 
  O13      1.0000 0.60944  0.15891  0.73901  Biso   1.000  O 
  O14      1.0000 0.48784  0.07068  0.48232  Biso   1.000  O 
  O15      1.0000 0.62265  0.33469  0.48446  Biso   1.000  O 
  O16      1.0000 0.58135  0.40715  0.74477  Biso   1.000  O 
  Hf9      1.0000 0.31578  0.52227  0.14546  Biso   1.000  Hf
  Hf10     1.0000 0.29900  0.73476  0.39434  Biso   1.000  Hf
  Hf11     1.0000 0.84067  0.76545  0.14385  Biso   1.000  Hf
  Hf12     1.0000 0.82883  0.48956  0.39105  Biso   1.000  Hf
  O17      1.0000 0.03441  0.63083  0.01736  Biso   1.000  O 
  O18      1.0000 0.04174  0.61748  0.26713  Biso   1.000  O 
  O19      1.0000 0.14525  0.86324  0.24840  Biso   1.000  O 
  O20      1.0000 0.07908  0.87759  0.99518  Biso   1.000  O 
  O21      1.0000 0.52774  0.67632  0.23252  Biso   1.000  O 
  O22      1.0000 0.52084  0.57430  0.97279  Biso   1.000  O 
  O23      1.0000 0.55757  0.81975  0.00621  Biso   1.000  O 
  O24      1.0000 0.67648  0.93220  0.22511  Biso   1.000  O 
  Hf13     1.0000 0.30655  0.51612  0.64134  Biso   1.000  Hf
  Hf14     1.0000 0.30753  0.72961  0.88809  Biso   1.000  Hf
  Hf15     1.0000 0.84266  0.76550  0.64634  Biso   1.000  Hf
  Hf16     1.0000 0.84278  0.48163  0.90178  Biso   1.000  Hf
  O25      1.0000 0.03303  0.63642  0.51594  Biso   1.000  O 
  O26      1.0000 0.03665  0.61419  0.76674  Biso   1.000  O 
  O27      1.0000 0.14614  0.86319  0.74867  Biso   1.000  O 
  O28      1.0000 0.08203  0.88641  0.49872  Biso   1.000  O 
  O29      1.0000 0.52549  0.66587  0.72531  Biso   1.000  O 
  O30      1.0000 0.50725  0.57320  0.47093  Biso   1.000  O 
  O31      1.0000 0.56647  0.82240  0.50956  Biso   1.000  O 
  O32      1.0000 0.66335  0.91697  0.74147  Biso   1.000  O 
  Na1      1.0000 0.36959  0.23342  0.11823  Biso   1.000  Na
