data_image0
_cell_length_a       10.0035
_cell_length_b       10.4094
_cell_length_c       5.06116
_cell_angle_alpha    90
_cell_angle_beta     90
_cell_angle_gamma    90

_symmetry_space_group_name_H-M    "P 1"
_symmetry_int_tables_number       1

loop_
  _symmetry_equiv_pos_as_xyz
  'x, y, z'

loop_
  _atom_site_label
  _atom_site_occupancy
  _atom_site_fract_x
  _atom_site_fract_y
  _atom_site_fract_z
  _atom_site_thermal_displace_type
  _atom_site_B_iso_or_equiv
  _atom_site_type_symbol
  Hf1      1.0000 0.12857  0.00411  0.24268  Biso   1.000  Hf
  Hf2      1.0000 0.13642  0.22798  0.71540  Biso   1.000  Hf
  Hf3      1.0000 0.39528  0.25983  0.22797  Biso   1.000  Hf
  Hf4      1.0000 0.37376  0.48331  0.73646  Biso   1.000  Hf
  O1       1.0000 0.01308  0.16213  0.41604  Biso   1.000  O 
  O2       1.0000 0.03796  0.06353  0.89752  Biso   1.000  O 
  O3       1.0000 0.47339  0.42991  0.38318  Biso   1.000  O 
  O4       1.0000 0.47277  0.32433  0.88229  Biso   1.000  O 
  O5       1.0000 0.26029  0.10695  0.48087  Biso   1.000  O 
  O6       1.0000 0.26525  0.14321  0.98816  Biso   1.000  O 
  O7       1.0000 0.23578  0.39515  0.96958  Biso   1.000  O 
  O8       1.0000 0.24250  0.35949  0.47350  Biso   1.000  O 
  Hf5      1.0000 0.14368  0.52857  0.24193  Biso   1.000  Hf
  Hf6      1.0000 0.14149  0.73664  0.74542  Biso   1.000  Hf
  Hf7      1.0000 0.37772  0.76800  0.24485  Biso   1.000  Hf
  Hf8      1.0000 0.37746  0.99030  0.74430  Biso   1.000  Hf
  O9       1.0000 0.03825  0.68013  0.39730  Biso   1.000  O 
  O10      1.0000 0.03979  0.57046  0.89300  Biso   1.000  O 
  O11      1.0000 0.47591  0.92719  0.40696  Biso   1.000  O 
  O12      1.0000 0.47814  0.82315  0.89661  Biso   1.000  O 
  O13      1.0000 0.27775  0.61766  0.49196  Biso   1.000  O 
  O14      1.0000 0.27527  0.64013  0.99269  Biso   1.000  O 
  O15      1.0000 0.24441  0.88674  0.98720  Biso   1.000  O 
  O16      1.0000 0.23856  0.86195  0.48831  Biso   1.000  O 
  Hf9      1.0000 0.63449  0.01491  0.26215  Biso   1.000  Hf
  Hf10     1.0000 0.63924  0.23002  0.77549  Biso   1.000  Hf
  Hf11     1.0000 0.84987  0.26242  0.25721  Biso   1.000  Hf
  Hf12     1.0000 0.87826  0.47938  0.74675  Biso   1.000  Hf
  O17      1.0000 0.52106  0.16565  0.46450  Biso   1.000  O 
  O18      1.0000 0.52211  0.07729  0.95045  Biso   1.000  O 
  O19      1.0000 0.97821  0.42253  0.38950  Biso   1.000  O 
  O20      1.0000 0.97099  0.31103  0.89117  Biso   1.000  O 
  O21      1.0000 0.76336  0.11458  0.50828  Biso   1.000  O 
  O22      1.0000 0.77634  0.12459  0.00160  Biso   1.000  O 
  O23      1.0000 0.74160  0.38460  0.99924  Biso   1.000  O 
  O24      1.0000 0.72947  0.36523  0.50724  Biso   1.000  O 
  Hf13     1.0000 0.63943  0.51668  0.24901  Biso   1.000  Hf
  Hf14     1.0000 0.64103  0.73165  0.75311  Biso   1.000  Hf
  Hf15     1.0000 0.86880  0.76296  0.25107  Biso   1.000  Hf
  Hf16     1.0000 0.87691  0.98094  0.75292  Biso   1.000  Hf
  O25      1.0000 0.54174  0.68081  0.39642  Biso   1.000  O 
  O26      1.0000 0.53865  0.56963  0.89693  Biso   1.000  O 
  O27      1.0000 0.97304  0.92247  0.40293  Biso   1.000  O 
  O28      1.0000 0.97760  0.81813  0.90682  Biso   1.000  O 
  O29      1.0000 0.77791  0.61253  0.49599  Biso   1.000  O 
  O30      1.0000 0.77685  0.63100  0.99439  Biso   1.000  O 
  O31      1.0000 0.73700  0.88262  0.00216  Biso   1.000  O 
  O32      1.0000 0.73826  0.86332  0.50283  Biso   1.000  O 
  Na1      1.0000 0.11635  0.28047  0.19062  Biso   1.000  Na
