data_image0
_cell_length_a       10.0434
_cell_length_b       5.04543
_cell_length_c       10.0433
_cell_angle_alpha    90
_cell_angle_beta     90
_cell_angle_gamma    90

_symmetry_space_group_name_H-M    "P 1"
_symmetry_int_tables_number       1

loop_
  _symmetry_equiv_pos_as_xyz
  'x, y, z'

loop_
  _atom_site_label
  _atom_site_occupancy
  _atom_site_fract_x
  _atom_site_fract_y
  _atom_site_fract_z
  _atom_site_thermal_displace_type
  _atom_site_B_iso_or_equiv
  _atom_site_type_symbol
  Na1      1.0000 0.12498  0.00046  0.12500  Biso   1.000  Na
  Hf1      1.0000 0.12499  0.00047  0.62499  Biso   1.000  Hf
  Hf2      1.0000 0.62498  0.00045  0.12500  Biso   1.000  Hf
  Hf3      1.0000 0.62499  0.00049  0.62500  Biso   1.000  Hf
  Hf4      1.0000 0.12499  0.50049  0.37165  Biso   1.000  Hf
  Hf5      1.0000 0.12500  0.50046  0.87835  Biso   1.000  Hf
  Hf6      1.0000 0.62501  0.50048  0.37493  Biso   1.000  Hf
  Hf7      1.0000 0.62501  0.50048  0.87507  Biso   1.000  Hf
  Hf8      1.0000 0.37165  0.50048  0.12499  Biso   1.000  Hf
  Hf9      1.0000 0.37494  0.50049  0.62500  Biso   1.000  Hf
  Hf10     1.0000 0.87835  0.50043  0.12499  Biso   1.000  Hf
  Hf11     1.0000 0.87508  0.50047  0.62500  Biso   1.000  Hf
  Hf12     1.0000 0.37304  0.99925  0.37301  Biso   1.000  Hf
  Hf13     1.0000 0.37301  0.00168  0.87697  Biso   1.000  Hf
  Hf14     1.0000 0.87697  0.00168  0.37301  Biso   1.000  Hf
  Hf15     1.0000 0.87702  0.99928  0.87698  Biso   1.000  Hf
  O1       1.0000 0.99495  0.27701  0.99494  Biso   1.000  O 
  O2       1.0000 0.00402  0.28197  0.50532  Biso   1.000  O 
  O3       1.0000 0.50530  0.28194  0.00402  Biso   1.000  O 
  O4       1.0000 0.50345  0.28770  0.50345  Biso   1.000  O 
  O5       1.0000 0.99163  0.24674  0.25838  Biso   1.000  O 
  O6       1.0000 0.99732  0.21785  0.75053  Biso   1.000  O 
  O7       1.0000 0.49949  0.21786  0.25271  Biso   1.000  O 
  O8       1.0000 0.49804  0.21399  0.75198  Biso   1.000  O 
  O9       1.0000 0.99493  0.72393  0.25505  Biso   1.000  O 
  O10      1.0000 0.00404  0.71897  0.74467  Biso   1.000  O 
  O11      1.0000 0.50530  0.71900  0.24600  Biso   1.000  O 
  O12      1.0000 0.50346  0.71327  0.74656  Biso   1.000  O 
  O13      1.0000 0.99164  0.75421  0.99162  Biso   1.000  O 
  O14      1.0000 0.99733  0.78310  0.49947  Biso   1.000  O 
  O15      1.0000 0.49949  0.78313  0.99732  Biso   1.000  O 
  O16      1.0000 0.49804  0.78700  0.49803  Biso   1.000  O 
  O17      1.0000 0.25506  0.27697  0.25506  Biso   1.000  O 
  O18      1.0000 0.24599  0.28196  0.74469  Biso   1.000  O 
  O19      1.0000 0.74469  0.28194  0.24598  Biso   1.000  O 
  O20      1.0000 0.74656  0.28774  0.74655  Biso   1.000  O 
  O21      1.0000 0.25838  0.24678  0.99163  Biso   1.000  O 
  O22      1.0000 0.25270  0.21788  0.49948  Biso   1.000  O 
  O23      1.0000 0.75053  0.21784  0.99730  Biso   1.000  O 
  O24      1.0000 0.75198  0.21396  0.49802  Biso   1.000  O 
  O25      1.0000 0.25508  0.72397  0.99492  Biso   1.000  O 
  O26      1.0000 0.24600  0.71901  0.50530  Biso   1.000  O 
  O27      1.0000 0.74468  0.71893  0.00403  Biso   1.000  O 
  O28      1.0000 0.74656  0.71324  0.50346  Biso   1.000  O 
  O29      1.0000 0.25837  0.75417  0.25836  Biso   1.000  O 
  O30      1.0000 0.25272  0.78309  0.75051  Biso   1.000  O 
  O31      1.0000 0.75051  0.78308  0.25271  Biso   1.000  O 
  O32      1.0000 0.75199  0.78703  0.75199  Biso   1.000  O 
