data_image0
_cell_length_a       10.0357
_cell_length_b       10.3652
_cell_length_c       5.01362
_cell_angle_alpha    90
_cell_angle_beta     90
_cell_angle_gamma    90

_symmetry_space_group_name_H-M    "P 1"
_symmetry_int_tables_number       1

loop_
  _symmetry_equiv_pos_as_xyz
  'x, y, z'

loop_
  _atom_site_label
  _atom_site_occupancy
  _atom_site_fract_x
  _atom_site_fract_y
  _atom_site_fract_z
  _atom_site_thermal_displace_type
  _atom_site_B_iso_or_equiv
  _atom_site_type_symbol
  Na1      1.0000 0.12858  0.01503  0.24959  Biso   1.000  Na
  Hf1      1.0000 0.13727  0.51589  0.25184  Biso   1.000  Hf
  Hf2      1.0000 0.63186  0.01440  0.24439  Biso   1.000  Hf
  Hf3      1.0000 0.63308  0.51591  0.25174  Biso   1.000  Hf
  Hf4      1.0000 0.13493  0.23212  0.75492  Biso   1.000  Hf
  Hf5      1.0000 0.13694  0.73392  0.75612  Biso   1.000  Hf
  Hf6      1.0000 0.63191  0.23143  0.74657  Biso   1.000  Hf
  Hf7      1.0000 0.63354  0.73246  0.75142  Biso   1.000  Hf
  Hf8      1.0000 0.36520  0.26566  0.25418  Biso   1.000  Hf
  Hf9      1.0000 0.36504  0.76717  0.25216  Biso   1.000  Hf
  Hf10     1.0000 0.85955  0.26522  0.24769  Biso   1.000  Hf
  Hf11     1.0000 0.86575  0.76628  0.25059  Biso   1.000  Hf
  Hf12     1.0000 0.36507  0.48192  0.75274  Biso   1.000  Hf
  Hf13     1.0000 0.36091  0.98157  0.75149  Biso   1.000  Hf
  Hf14     1.0000 0.86449  0.48359  0.75592  Biso   1.000  Hf
  Hf15     1.0000 0.86594  0.98104  0.74571  Biso   1.000  Hf
  O1       1.0000 0.02947  0.20497  0.40576  Biso   1.000  O 
  O2       1.0000 0.03527  0.68223  0.39127  Biso   1.000  O 
  O3       1.0000 0.53978  0.18548  0.37867  Biso   1.000  O 
  O4       1.0000 0.53573  0.68170  0.39243  Biso   1.000  O 
  O5       1.0000 0.03108  0.07172  0.84312  Biso   1.000  O 
  O6       1.0000 0.03458  0.56560  0.89244  Biso   1.000  O 
  O7       1.0000 0.53554  0.06424  0.88093  Biso   1.000  O 
  O8       1.0000 0.53407  0.56569  0.89146  Biso   1.000  O 
  O9       1.0000 0.46509  0.43314  0.39190  Biso   1.000  O 
  O10      1.0000 0.46512  0.93432  0.39116  Biso   1.000  O 
  O11      1.0000 0.96440  0.43652  0.39164  Biso   1.000  O 
  O12      1.0000 0.94894  0.92797  0.39376  Biso   1.000  O 
  O13      1.0000 0.46571  0.31652  0.88823  Biso   1.000  O 
  O14      1.0000 0.47077  0.81826  0.89931  Biso   1.000  O 
  O15      1.0000 0.96493  0.31980  0.89891  Biso   1.000  O 
  O16      1.0000 0.96530  0.81476  0.89131  Biso   1.000  O 
  O17      1.0000 0.28306  0.12980  0.51582  Biso   1.000  O 
  O18      1.0000 0.27035  0.61495  0.49980  Biso   1.000  O 
  O19      1.0000 0.76838  0.11528  0.49275  Biso   1.000  O 
  O20      1.0000 0.77115  0.61552  0.49674  Biso   1.000  O 
  O21      1.0000 0.27833  0.13287  0.99503  Biso   1.000  O 
  O22      1.0000 0.27239  0.62845  0.00097  Biso   1.000  O 
  O23      1.0000 0.76807  0.13273  0.99325  Biso   1.000  O 
  O24      1.0000 0.76830  0.63022  0.99635  Biso   1.000  O 
  O25      1.0000 0.23184  0.38162  0.00171  Biso   1.000  O 
  O26      1.0000 0.23556  0.87186  0.99515  Biso   1.000  O 
  O27      1.0000 0.72735  0.38250  0.99752  Biso   1.000  O 
  O28      1.0000 0.73025  0.88020  0.99618  Biso   1.000  O 
  O29      1.0000 0.22837  0.37050  0.50015  Biso   1.000  O 
  O30      1.0000 0.23884  0.85881  0.51115  Biso   1.000  O 
  O31      1.0000 0.73009  0.36742  0.49978  Biso   1.000  O 
  O32      1.0000 0.72151  0.86491  0.49416  Biso   1.000  O 
