data_image0
_cell_length_a       10.0412
_cell_length_b       10.2422
_cell_length_c       5.2875
_cell_angle_alpha    90
_cell_angle_beta     90
_cell_angle_gamma    90

_symmetry_space_group_name_H-M    "P 1"
_symmetry_int_tables_number       1

loop_
  _symmetry_equiv_pos_as_xyz
  'x, y, z'

loop_
  _atom_site_label
  _atom_site_occupancy
  _atom_site_fract_x
  _atom_site_fract_y
  _atom_site_fract_z
  _atom_site_thermal_displace_type
  _atom_site_B_iso_or_equiv
  _atom_site_type_symbol
  Hf1      1.0000 0.13823  0.02132  0.35087  Biso   1.000  Hf
  Hf2      1.0000 0.13179  0.22780  0.85691  Biso   1.000  Hf
  Hf3      1.0000 0.34677  0.27435  0.37627  Biso   1.000  Hf
  Hf4      1.0000 0.34882  0.48289  0.85738  Biso   1.000  Hf
  Hf5      1.0000 0.64268  0.01148  0.15140  Biso   1.000  Hf
  Hf6      1.0000 0.64388  0.22187  0.62210  Biso   1.000  Hf
  Hf7      1.0000 0.86331  0.27273  0.14771  Biso   1.000  Hf
  Hf8      1.0000 0.85297  0.47798  0.65620  Biso   1.000  Hf
  O1       1.0000 0.03221  0.16288  0.16799  Biso   1.000  O 
  O2       1.0000 0.02822  0.08702  0.66603  Biso   1.000  O 
  O3       1.0000 0.45770  0.42441  0.19000  Biso   1.000  O 
  O4       1.0000 0.46279  0.33545  0.67726  Biso   1.000  O 
  O5       1.0000 0.27147  0.12493  0.60666  Biso   1.000  O 
  O6       1.0000 0.27987  0.12773  0.10468  Biso   1.000  O 
  O7       1.0000 0.21358  0.37594  0.61180  Biso   1.000  O 
  O8       1.0000 0.21811  0.37678  0.10966  Biso   1.000  O 
  O9       1.0000 0.52350  0.15440  0.34645  Biso   1.000  O 
  O10      1.0000 0.52890  0.08529  0.83834  Biso   1.000  O 
  O11      1.0000 0.96244  0.41401  0.34142  Biso   1.000  O 
  O12      1.0000 0.96082  0.33685  0.83825  Biso   1.000  O 
  O13      1.0000 0.77135  0.12357  0.89498  Biso   1.000  O 
  O14      1.0000 0.77771  0.12259  0.38944  Biso   1.000  O 
  O15      1.0000 0.71214  0.37348  0.90071  Biso   1.000  O 
  O16      1.0000 0.71608  0.37362  0.39356  Biso   1.000  O 
  Hf9      1.0000 0.13273  0.52277  0.35187  Biso   1.000  Hf
  Hf10     1.0000 0.12790  0.72960  0.84949  Biso   1.000  Hf
  Hf11     1.0000 0.35363  0.77231  0.35336  Biso   1.000  Hf
  Hf12     1.0000 0.34928  0.97844  0.85309  Biso   1.000  Hf
  Hf13     1.0000 0.63653  0.52921  0.15863  Biso   1.000  Hf
  Hf14     1.0000 0.62967  0.72890  0.65823  Biso   1.000  Hf
  Hf15     1.0000 0.85880  0.76972  0.15950  Biso   1.000  Hf
  Hf16     1.0000 0.85377  0.97729  0.65725  Biso   1.000  Hf
  O17      1.0000 0.02874  0.66345  0.16817  Biso   1.000  O 
  O18      1.0000 0.02320  0.58665  0.66987  Biso   1.000  O 
  O19      1.0000 0.46423  0.90966  0.16572  Biso   1.000  O 
  O20      1.0000 0.45925  0.83814  0.66897  Biso   1.000  O 
  O21      1.0000 0.26788  0.62556  0.59998  Biso   1.000  O 
  O22      1.0000 0.27231  0.62723  0.09823  Biso   1.000  O 
  O23      1.0000 0.21419  0.87468  0.60021  Biso   1.000  O 
  O24      1.0000 0.21847  0.87716  0.10065  Biso   1.000  O 
  O25      1.0000 0.52628  0.66634  0.34144  Biso   1.000  O 
  O26      1.0000 0.52068  0.58833  0.84189  Biso   1.000  O 
  O27      1.0000 0.96189  0.91306  0.33948  Biso   1.000  O 
  O28      1.0000 0.95688  0.83669  0.84091  Biso   1.000  O 
  O29      1.0000 0.76706  0.62431  0.90747  Biso   1.000  O 
  O30      1.0000 0.77163  0.62584  0.41076  Biso   1.000  O 
  O31      1.0000 0.71335  0.87316  0.91084  Biso   1.000  O 
  O32      1.0000 0.71838  0.87293  0.41130  Biso   1.000  O 
  Na1      1.0000 0.54617  0.26762  0.03356  Biso   1.000  Na
