data_image0
_cell_length_a       4.98989
_cell_length_b       10.352
_cell_length_c       10.0862
_cell_angle_alpha    90
_cell_angle_beta     90
_cell_angle_gamma    90

_symmetry_space_group_name_H-M    "P 1"
_symmetry_int_tables_number       1

loop_
  _symmetry_equiv_pos_as_xyz
  'x, y, z'

loop_
  _atom_site_label
  _atom_site_occupancy
  _atom_site_fract_x
  _atom_site_fract_y
  _atom_site_fract_z
  _atom_site_thermal_displace_type
  _atom_site_B_iso_or_equiv
  _atom_site_type_symbol
  Na1      1.0000 0.26264  0.01345  0.11793  Biso   1.000  Na
  Hf1      1.0000 0.25892  0.01575  0.62747  Biso   1.000  Hf
  Hf2      1.0000 0.27230  0.51536  0.12562  Biso   1.000  Hf
  Hf3      1.0000 0.26390  0.51560  0.62654  Biso   1.000  Hf
  Hf4      1.0000 0.26539  0.23085  0.37459  Biso   1.000  Hf
  Hf5      1.0000 0.26985  0.22982  0.87529  Biso   1.000  Hf
  Hf6      1.0000 0.26477  0.73403  0.37705  Biso   1.000  Hf
  Hf7      1.0000 0.27186  0.73153  0.87676  Biso   1.000  Hf
  Hf8      1.0000 0.72011  0.26308  0.12703  Biso   1.000  Hf
  Hf9      1.0000 0.72479  0.26590  0.62413  Biso   1.000  Hf
  Hf10     1.0000 0.72651  0.76825  0.12700  Biso   1.000  Hf
  Hf11     1.0000 0.72765  0.76560  0.62572  Biso   1.000  Hf
  Hf12     1.0000 0.72651  0.48320  0.37732  Biso   1.000  Hf
  Hf13     1.0000 0.72796  0.48035  0.87679  Biso   1.000  Hf
  Hf14     1.0000 0.72151  0.98221  0.37393  Biso   1.000  Hf
  Hf15     1.0000 0.72301  0.98185  0.87521  Biso   1.000  Hf
  O1       1.0000 0.06537  0.19793  0.20062  Biso   1.000  O 
  O2       1.0000 0.07238  0.18804  0.68833  Biso   1.000  O 
  O3       1.0000 0.06883  0.68075  0.19690  Biso   1.000  O 
  O4       1.0000 0.06777  0.68272  0.69550  Biso   1.000  O 
  O5       1.0000 0.06042  0.06613  0.44656  Biso   1.000  O 
  O6       1.0000 0.07458  0.06446  0.91029  Biso   1.000  O 
  O7       1.0000 0.06641  0.56498  0.44691  Biso   1.000  O 
  O8       1.0000 0.06634  0.56509  0.94575  Biso   1.000  O 
  O9       1.0000 0.92734  0.43540  0.19642  Biso   1.000  O 
  O10      1.0000 0.92516  0.43334  0.69579  Biso   1.000  O 
  O11      1.0000 0.90965  0.92852  0.20361  Biso   1.000  O 
  O12      1.0000 0.91907  0.93238  0.69080  Biso   1.000  O 
  O13      1.0000 0.92724  0.31771  0.44688  Biso   1.000  O 
  O14      1.0000 0.93093  0.31596  0.94597  Biso   1.000  O 
  O15      1.0000 0.92697  0.81491  0.44898  Biso   1.000  O 
  O16      1.0000 0.93767  0.81747  0.94864  Biso   1.000  O 
  O17      1.0000 0.56099  0.12720  0.25652  Biso   1.000  O 
  O18      1.0000 0.54183  0.11756  0.74572  Biso   1.000  O 
  O19      1.0000 0.53988  0.61429  0.24936  Biso   1.000  O 
  O20      1.0000 0.53894  0.61596  0.74986  Biso   1.000  O 
  O21      1.0000 0.53079  0.13128  0.50152  Biso   1.000  O 
  O22      1.0000 0.55753  0.13392  0.99138  Biso   1.000  O 
  O23      1.0000 0.53625  0.63180  0.49960  Biso   1.000  O 
  O24      1.0000 0.53934  0.62529  0.99992  Biso   1.000  O 
  O25      1.0000 0.45625  0.38241  0.49992  Biso   1.000  O 
  O26      1.0000 0.46148  0.38172  0.00010  Biso   1.000  O 
  O27      1.0000 0.45112  0.88185  0.50118  Biso   1.000  O 
  O28      1.0000 0.47140  0.86878  0.99327  Biso   1.000  O 
  O29      1.0000 0.45300  0.36993  0.25047  Biso   1.000  O 
  O30      1.0000 0.45608  0.36712  0.74947  Biso   1.000  O 
  O31      1.0000 0.46427  0.85774  0.25512  Biso   1.000  O 
  O32      1.0000 0.45274  0.86659  0.74770  Biso   1.000  O 
