data_image0
_cell_length_a       10.1149
_cell_length_b       5.10804
_cell_length_c       10.4668
_cell_angle_alpha    90
_cell_angle_beta     90
_cell_angle_gamma    90

_symmetry_space_group_name_H-M    "P 1"
_symmetry_int_tables_number       1

loop_
  _symmetry_equiv_pos_as_xyz
  'x, y, z'

loop_
  _atom_site_label
  _atom_site_occupancy
  _atom_site_fract_x
  _atom_site_fract_y
  _atom_site_fract_z
  _atom_site_thermal_displace_type
  _atom_site_B_iso_or_equiv
  _atom_site_type_symbol
  Na1      1.0000 0.14224  0.02993  0.17216  Biso   1.000  Na
  Hf1      1.0000 0.14520  0.04172  0.67356  Biso   1.000  Hf
  Hf2      1.0000 0.14740  0.45964  0.42098  Biso   1.000  Hf
  Hf3      1.0000 0.14804  0.45985  0.92794  Biso   1.000  Hf
  Hf4      1.0000 0.35646  0.53599  0.17193  Biso   1.000  Hf
  Hf5      1.0000 0.36404  0.54397  0.67334  Biso   1.000  Hf
  Hf6      1.0000 0.36053  0.95950  0.41968  Biso   1.000  Hf
  Hf7      1.0000 0.36316  0.95960  0.92591  Biso   1.000  Hf
  Hf8      1.0000 0.63791  0.04012  0.07744  Biso   1.000  Hf
  Hf9      1.0000 0.64141  0.04275  0.57594  Biso   1.000  Hf
  Hf10     1.0000 0.64038  0.46045  0.32622  Biso   1.000  Hf
  Hf11     1.0000 0.64232  0.45929  0.82679  Biso   1.000  Hf
  Hf12     1.0000 0.85908  0.54096  0.07534  Biso   1.000  Hf
  Hf13     1.0000 0.86295  0.54254  0.57610  Biso   1.000  Hf
  Hf14     1.0000 0.86397  0.96115  0.32557  Biso   1.000  Hf
  Hf15     1.0000 0.86333  0.96079  0.82640  Biso   1.000  Hf
  O1       1.0000 0.02685  0.33732  0.07775  Biso   1.000  O 
  O2       1.0000 0.03403  0.32780  0.58514  Biso   1.000  O 
  O3       1.0000 0.02340  0.19351  0.34741  Biso   1.000  O 
  O4       1.0000 0.03338  0.18171  0.83024  Biso   1.000  O 
  O5       1.0000 0.47042  0.82310  0.08288  Biso   1.000  O 
  O6       1.0000 0.47149  0.82718  0.58226  Biso   1.000  O 
  O7       1.0000 0.47470  0.68083  0.33183  Biso   1.000  O 
  O8       1.0000 0.47345  0.67427  0.83161  Biso   1.000  O 
  O9       1.0000 0.28623  0.25568  0.30599  Biso   1.000  O 
  O10      1.0000 0.27857  0.24881  0.79591  Biso   1.000  O 
  O11      1.0000 0.28697  0.25962  0.03979  Biso   1.000  O 
  O12      1.0000 0.27855  0.25253  0.54939  Biso   1.000  O 
  O13      1.0000 0.23372  0.73624  0.30212  Biso   1.000  O 
  O14      1.0000 0.22891  0.75149  0.79495  Biso   1.000  O 
  O15      1.0000 0.23413  0.73454  0.04009  Biso   1.000  O 
  O16      1.0000 0.22761  0.75371  0.54834  Biso   1.000  O 
  O17      1.0000 0.53350  0.32704  0.16656  Biso   1.000  O 
  O18      1.0000 0.53530  0.32852  0.66603  Biso   1.000  O 
  O19      1.0000 0.53524  0.17227  0.41589  Biso   1.000  O 
  O20      1.0000 0.53862  0.17128  0.91547  Biso   1.000  O 
  O21      1.0000 0.95968  0.80977  0.17273  Biso   1.000  O 
  O22      1.0000 0.97249  0.82664  0.66683  Biso   1.000  O 
  O23      1.0000 0.97428  0.68357  0.42011  Biso   1.000  O 
  O24      1.0000 0.97513  0.68554  0.91610  Biso   1.000  O 
  O25      1.0000 0.78002  0.24755  0.95154  Biso   1.000  O 
  O26      1.0000 0.77555  0.25522  0.45439  Biso   1.000  O 
  O27      1.0000 0.77615  0.25248  0.20321  Biso   1.000  O 
  O28      1.0000 0.77849  0.25293  0.70253  Biso   1.000  O 
  O29      1.0000 0.72888  0.74870  0.95076  Biso   1.000  O 
  O30      1.0000 0.72907  0.75215  0.45230  Biso   1.000  O 
  O31      1.0000 0.71840  0.75468  0.20252  Biso   1.000  O 
  O32      1.0000 0.72868  0.75267  0.70155  Biso   1.000  O 
