data_image0
_cell_length_a       10.0325
_cell_length_b       5.12556
_cell_length_c       10.5711
_cell_angle_alpha    90
_cell_angle_beta     90
_cell_angle_gamma    90

_symmetry_space_group_name_H-M    "P 1"
_symmetry_int_tables_number       1

loop_
  _symmetry_equiv_pos_as_xyz
  'x, y, z'

loop_
  _atom_site_label
  _atom_site_occupancy
  _atom_site_fract_x
  _atom_site_fract_y
  _atom_site_fract_z
  _atom_site_thermal_displace_type
  _atom_site_B_iso_or_equiv
  _atom_site_type_symbol
  Hf1      1.0000 0.13568  0.04599  0.17481  Biso   1.000  Hf
  Hf2      1.0000 0.13001  0.45500  0.42769  Biso   1.000  Hf
  Hf3      1.0000 0.34549  0.54928  0.18749  Biso   1.000  Hf
  Hf4      1.0000 0.35020  0.95801  0.42910  Biso   1.000  Hf
  Hf5      1.0000 0.64261  0.04236  0.08111  Biso   1.000  Hf
  Hf6      1.0000 0.63124  0.45620  0.32996  Biso   1.000  Hf
  Hf7      1.0000 0.86142  0.54094  0.07846  Biso   1.000  Hf
  Hf8      1.0000 0.85306  0.95735  0.32776  Biso   1.000  Hf
  O1       1.0000 0.03260  0.32900  0.08417  Biso   1.000  O 
  O2       1.0000 0.02576  0.17389  0.33382  Biso   1.000  O 
  O3       1.0000 0.45750  0.84830  0.09399  Biso   1.000  O 
  O4       1.0000 0.45888  0.67237  0.33916  Biso   1.000  O 
  O5       1.0000 0.26911  0.24982  0.30241  Biso   1.000  O 
  O6       1.0000 0.27906  0.26055  0.04942  Biso   1.000  O 
  O7       1.0000 0.21165  0.75202  0.30461  Biso   1.000  O 
  O8       1.0000 0.21767  0.75735  0.05261  Biso   1.000  O 
  O9       1.0000 0.52389  0.32360  0.17580  Biso   1.000  O 
  O10      1.0000 0.52407  0.17228  0.42026  Biso   1.000  O 
  O11      1.0000 0.96134  0.83056  0.16907  Biso   1.000  O 
  O12      1.0000 0.95998  0.67416  0.41942  Biso   1.000  O 
  O13      1.0000 0.76962  0.24878  0.45145  Biso   1.000  O 
  O14      1.0000 0.77355  0.25268  0.20328  Biso   1.000  O 
  O15      1.0000 0.71459  0.74935  0.45334  Biso   1.000  O 
  O16      1.0000 0.71596  0.74668  0.20301  Biso   1.000  O 
  Hf9      1.0000 0.12964  0.04377  0.67630  Biso   1.000  Hf
  Hf10     1.0000 0.12385  0.46179  0.92520  Biso   1.000  Hf
  Hf11     1.0000 0.34979  0.54576  0.67694  Biso   1.000  Hf
  Hf12     1.0000 0.34164  0.96672  0.92607  Biso   1.000  Hf
  Hf13     1.0000 0.63224  0.03931  0.57412  Biso   1.000  Hf
  Hf14     1.0000 0.63640  0.44739  0.81049  Biso   1.000  Hf
  Hf15     1.0000 0.85428  0.54512  0.57573  Biso   1.000  Hf
  Hf16     1.0000 0.84769  0.95499  0.82999  Biso   1.000  Hf
  O17      1.0000 0.02313  0.32666  0.58446  Biso   1.000  O 
  O18      1.0000 0.02069  0.17283  0.83509  Biso   1.000  O 
  O19      1.0000 0.45857  0.82508  0.58490  Biso   1.000  O 
  O20      1.0000 0.45709  0.67347  0.83404  Biso   1.000  O 
  O21      1.0000 0.26480  0.25322  0.80029  Biso   1.000  O 
  O22      1.0000 0.26835  0.25166  0.55100  Biso   1.000  O 
  O23      1.0000 0.21024  0.75107  0.80140  Biso   1.000  O 
  O24      1.0000 0.21286  0.75188  0.55276  Biso   1.000  O 
  O25      1.0000 0.52157  0.32350  0.66570  Biso   1.000  O 
  O26      1.0000 0.52102  0.16988  0.91753  Biso   1.000  O 
  O27      1.0000 0.95690  0.82645  0.67097  Biso   1.000  O 
  O28      1.0000 0.95077  0.67213  0.91980  Biso   1.000  O 
  O29      1.0000 0.76348  0.24754  0.95016  Biso   1.000  O 
  O30      1.0000 0.77097  0.24540  0.69774  Biso   1.000  O 
  O31      1.0000 0.70331  0.74424  0.95465  Biso   1.000  O 
  O32      1.0000 0.71380  0.74907  0.70147  Biso   1.000  O 
  Na1      1.0000 0.53847  0.53137  0.01269  Biso   1.000  Na
