data_image0
_cell_length_a       10.084
_cell_length_b       10.2924
_cell_length_c       10.0618
_cell_angle_alpha    90
_cell_angle_beta     90
_cell_angle_gamma    90

_symmetry_space_group_name_H-M    "P 1"
_symmetry_int_tables_number       1

loop_
  _symmetry_equiv_pos_as_xyz
  'x, y, z'

loop_
  _atom_site_label
  _atom_site_occupancy
  _atom_site_fract_x
  _atom_site_fract_y
  _atom_site_fract_z
  _atom_site_thermal_displace_type
  _atom_site_B_iso_or_equiv
  _atom_site_type_symbol
  Hf1      1.0000 0.12683  0.97554  0.11595  Biso   1.000  Hf
  Hf2      1.0000 0.12255  0.24622  0.38565  Biso   1.000  Hf
  Hf3      1.0000 0.41891  0.26834  0.12870  Biso   1.000  Hf
  Hf4      1.0000 0.38114  0.02914  0.37105  Biso   1.000  Hf
  O1       1.0000 0.99702  0.14789  0.00425  Biso   1.000  O 
  O2       1.0000 0.03782  0.09480  0.26544  Biso   1.000  O 
  O3       1.0000 0.02042  0.35210  0.23926  Biso   1.000  O 
  O4       1.0000 0.03742  0.43555  0.98517  Biso   1.000  O 
  O5       1.0000 0.28779  0.17692  0.26254  Biso   1.000  O 
  O6       1.0000 0.23223  0.11344  0.98686  Biso   1.000  O 
  O7       1.0000 0.29483  0.35253  0.96580  Biso   1.000  O 
  O8       1.0000 0.27228  0.41441  0.20847  Biso   1.000  O 
  Hf5      1.0000 0.14481  0.02056  0.63455  Biso   1.000  Hf
  Hf6      1.0000 0.13188  0.27631  0.85866  Biso   1.000  Hf
  Hf7      1.0000 0.38703  0.28024  0.61636  Biso   1.000  Hf
  Hf8      1.0000 0.37792  0.04629  0.86619  Biso   1.000  Hf
  O9       1.0000 0.99805  0.16041  0.51283  Biso   1.000  O 
  O10      1.0000 0.00652  0.12706  0.75976  Biso   1.000  O 
  O11      1.0000 0.00415  0.37666  0.73779  Biso   1.000  O 
  O12      1.0000 0.99645  0.40928  0.48964  Biso   1.000  O 
  O13      1.0000 0.25309  0.17282  0.73711  Biso   1.000  O 
  O14      1.0000 0.24772  0.11606  0.49877  Biso   1.000  O 
  O15      1.0000 0.24660  0.37017  0.48230  Biso   1.000  O 
  O16      1.0000 0.25413  0.42177  0.73210  Biso   1.000  O 
  Hf9      1.0000 0.11835  0.51825  0.12529  Biso   1.000  Hf
  Hf10     1.0000 0.15185  0.77547  0.38994  Biso   1.000  Hf
  Hf11     1.0000 0.38509  0.76317  0.14005  Biso   1.000  Hf
  Hf12     1.0000 0.36137  0.50723  0.36128  Biso   1.000  Hf
  O17      1.0000 0.00703  0.68746  0.99055  Biso   1.000  O 
  O18      1.0000 0.97648  0.60263  0.23360  Biso   1.000  O 
  O19      1.0000 0.00863  0.84820  0.25726  Biso   1.000  O 
  O20      1.0000 0.97834  0.89626  0.01321  Biso   1.000  O 
  O21      1.0000 0.23689  0.65654  0.24587  Biso   1.000  O 
  O22      1.0000 0.25709  0.61728  0.98589  Biso   1.000  O 
  O23      1.0000 0.22632  0.82107  0.02470  Biso   1.000  O 
  O24      1.0000 0.26532  0.91113  0.25910  Biso   1.000  O 
  Hf13     1.0000 0.12673  0.51525  0.60527  Biso   1.000  Hf
  Hf14     1.0000 0.15238  0.76427  0.86682  Biso   1.000  Hf
  Hf15     1.0000 0.40231  0.78385  0.63977  Biso   1.000  Hf
  Hf16     1.0000 0.37769  0.51441  0.86476  Biso   1.000  Hf
  O25      1.0000 0.00940  0.66244  0.49003  Biso   1.000  O 
  O26      1.0000 0.02809  0.62635  0.74174  Biso   1.000  O 
  O27      1.0000 0.02359  0.87670  0.75297  Biso   1.000  O 
  O28      1.0000 0.03025  0.91275  0.50394  Biso   1.000  O 
  O29      1.0000 0.28142  0.66893  0.74630  Biso   1.000  O 
  O30      1.0000 0.25734  0.62281  0.49330  Biso   1.000  O 
  O31      1.0000 0.27896  0.87385  0.51090  Biso   1.000  O 
  O32      1.0000 0.27027  0.91984  0.76447  Biso   1.000  O 
  Hf17     1.0000 0.62748  0.99247  0.11272  Biso   1.000  Hf
  Hf18     1.0000 0.64686  0.25816  0.35938  Biso   1.000  Hf
  Hf19     1.0000 0.87524  0.26087  0.12098  Biso   1.000  Hf
  Hf20     1.0000 0.89791  0.00793  0.37313  Biso   1.000  Hf
  O33      1.0000 0.50202  0.18065  0.98445  Biso   1.000  O 
  O34      1.0000 0.52687  0.12065  0.24459  Biso   1.000  O 
  O35      1.0000 0.51370  0.38397  0.26547  Biso   1.000  O 
  O36      1.0000 0.52330  0.40717  0.00256  Biso   1.000  O 
  O37      1.0000 0.79312  0.16023  0.26802  Biso   1.000  O 
  O38      1.0000 0.74715  0.10536  0.00833  Biso   1.000  O 
  O39      1.0000 0.78632  0.39172  0.97581  Biso   1.000  O 
  O40      1.0000 0.76252  0.41042  0.23954  Biso   1.000  O 
  Hf21     1.0000 0.63305  0.02804  0.62981  Biso   1.000  Hf
  Hf22     1.0000 0.64061  0.29431  0.88405  Biso   1.000  Hf
  Hf23     1.0000 0.86875  0.27890  0.62191  Biso   1.000  Hf
  Hf24     1.0000 0.86930  0.04082  0.87708  Biso   1.000  Hf
  O41      1.0000 0.49781  0.18550  0.47996  Biso   1.000  O 
  O42      1.0000 0.49669  0.13356  0.72908  Biso   1.000  O 
  O43      1.0000 0.50744  0.37779  0.75193  Biso   1.000  O 
  O44      1.0000 0.48034  0.44085  0.51538  Biso   1.000  O 
  O45      1.0000 0.75116  0.17899  0.75421  Biso   1.000  O 
  O46      1.0000 0.75289  0.12441  0.50295  Biso   1.000  O 
  O47      1.0000 0.74199  0.37666  0.49542  Biso   1.000  O 
  O48      1.0000 0.76051  0.43159  0.74006  Biso   1.000  O 
  Hf25     1.0000 0.61906  0.52828  0.14107  Biso   1.000  Hf
  Hf26     1.0000 0.64148  0.78002  0.38859  Biso   1.000  Hf
  Hf27     1.0000 0.87855  0.75189  0.12574  Biso   1.000  Hf
  Hf28     1.0000 0.86868  0.51799  0.37647  Biso   1.000  Hf
  O49      1.0000 0.51487  0.66243  0.02029  Biso   1.000  O 
  O50      1.0000 0.49061  0.62769  0.26593  Biso   1.000  O 
  O51      1.0000 0.51253  0.87278  0.25829  Biso   1.000  O 
  O52      1.0000 0.47411  0.90603  0.01749  Biso   1.000  O 
  O53      1.0000 0.73829  0.66395  0.25319  Biso   1.000  O 
  O54      1.0000 0.76025  0.59762  0.00551  Biso   1.000  O 
  O55      1.0000 0.73432  0.85030  0.00605  Biso   1.000  O 
  O56      1.0000 0.76363  0.91428  0.25008  Biso   1.000  O 
  Hf29     1.0000 0.62375  0.52599  0.62127  Biso   1.000  Hf
  Hf30     1.0000 0.64725  0.76863  0.87397  Biso   1.000  Hf
  Hf31     1.0000 0.90388  0.77365  0.62738  Biso   1.000  Hf
  Hf32     1.0000 0.89091  0.53370  0.87105  Biso   1.000  Hf
  O57      1.0000 0.52598  0.68694  0.52265  Biso   1.000  O 
  O58      1.0000 0.52752  0.62802  0.76948  Biso   1.000  O 
  O59      1.0000 0.52324  0.88716  0.76261  Biso   1.000  O 
  O60      1.0000 0.52890  0.93304  0.50283  Biso   1.000  O 
  O61      1.0000 0.78242  0.67925  0.75756  Biso   1.000  O 
  O62      1.0000 0.76077  0.62545  0.50376  Biso   1.000  O 
  O63      1.0000 0.78005  0.87461  0.50077  Biso   1.000  O 
  O64      1.0000 0.77372  0.92696  0.75188  Biso   1.000  O 
  Na1      1.0000 0.15468  0.24406  0.11737  Biso   1.000  Na
