data_image0
_cell_length_a       9.98592
_cell_length_b       10.404
_cell_length_c       10.04
_cell_angle_alpha    90
_cell_angle_beta     90
_cell_angle_gamma    90

_symmetry_space_group_name_H-M    "P 1"
_symmetry_int_tables_number       1

loop_
  _symmetry_equiv_pos_as_xyz
  'x, y, z'

loop_
  _atom_site_label
  _atom_site_occupancy
  _atom_site_fract_x
  _atom_site_fract_y
  _atom_site_fract_z
  _atom_site_thermal_displace_type
  _atom_site_B_iso_or_equiv
  _atom_site_type_symbol
  Hf1      1.0000 0.12996  0.01144  0.12540  Biso   1.000  Hf
  Hf2      1.0000 0.13541  0.22989  0.38246  Biso   1.000  Hf
  Hf3      1.0000 0.37874  0.26878  0.12032  Biso   1.000  Hf
  Hf4      1.0000 0.36813  0.48249  0.37574  Biso   1.000  Hf
  O1       1.0000 0.01204  0.16722  0.21685  Biso   1.000  O 
  O2       1.0000 0.03802  0.06214  0.44913  Biso   1.000  O 
  O3       1.0000 0.46725  0.43516  0.19553  Biso   1.000  O 
  O4       1.0000 0.46585  0.31696  0.44532  Biso   1.000  O 
  O5       1.0000 0.26355  0.11724  0.24657  Biso   1.000  O 
  O6       1.0000 0.27394  0.13097  0.49927  Biso   1.000  O 
  O7       1.0000 0.23035  0.38134  0.49948  Biso   1.000  O 
  O8       1.0000 0.23236  0.36551  0.24935  Biso   1.000  O 
  Hf5      1.0000 0.13579  0.01170  0.62440  Biso   1.000  Hf
  Hf6      1.0000 0.13099  0.23255  0.85290  Biso   1.000  Hf
  Hf7      1.0000 0.37083  0.26813  0.62426  Biso   1.000  Hf
  Hf8      1.0000 0.37160  0.48950  0.87317  Biso   1.000  Hf
  O9       1.0000 0.03754  0.18110  0.68455  Biso   1.000  O 
  O10      1.0000 0.03320  0.06872  0.94598  Biso   1.000  O 
  O11      1.0000 0.46965  0.43507  0.69420  Biso   1.000  O 
  O12      1.0000 0.46995  0.32051  0.94256  Biso   1.000  O 
  O13      1.0000 0.27404  0.11774  0.74517  Biso   1.000  O 
  O14      1.0000 0.26121  0.14611  0.99813  Biso   1.000  O 
  O15      1.0000 0.24058  0.40067  0.99870  Biso   1.000  O 
  O16      1.0000 0.23636  0.37032  0.74822  Biso   1.000  O 
  Hf9      1.0000 0.13939  0.53155  0.12589  Biso   1.000  Hf
  Hf10     1.0000 0.13867  0.73441  0.37864  Biso   1.000  Hf
  Hf11     1.0000 0.37148  0.76913  0.12521  Biso   1.000  Hf
  Hf12     1.0000 0.36972  0.98513  0.37466  Biso   1.000  Hf
  O17      1.0000 0.03668  0.68533  0.19970  Biso   1.000  O 
  O18      1.0000 0.03963  0.56597  0.44453  Biso   1.000  O 
  O19      1.0000 0.46599  0.93570  0.19592  Biso   1.000  O 
  O20      1.0000 0.46948  0.81809  0.44551  Biso   1.000  O 
  O21      1.0000 0.27647  0.62094  0.25054  Biso   1.000  O 
  O22      1.0000 0.27492  0.63192  0.50049  Biso   1.000  O 
  O23      1.0000 0.23556  0.88115  0.49867  Biso   1.000  O 
  O24      1.0000 0.23191  0.86683  0.24915  Biso   1.000  O 
  Hf13     1.0000 0.13839  0.51717  0.62575  Biso   1.000  Hf
  Hf14     1.0000 0.13571  0.73832  0.87254  Biso   1.000  Hf
  Hf15     1.0000 0.37251  0.76757  0.62533  Biso   1.000  Hf
  Hf16     1.0000 0.36982  0.98781  0.87569  Biso   1.000  Hf
  O25      1.0000 0.03987  0.68368  0.69337  Biso   1.000  O 
  O26      1.0000 0.03767  0.57192  0.94707  Biso   1.000  O 
  O27      1.0000 0.47113  0.93435  0.69760  Biso   1.000  O 
  O28      1.0000 0.47050  0.82136  0.94629  Biso   1.000  O 
  O29      1.0000 0.27392  0.61955  0.74916  Biso   1.000  O 
  O30      1.0000 0.27154  0.64427  0.99887  Biso   1.000  O 
  O31      1.0000 0.23480  0.88927  0.99891  Biso   1.000  O 
  O32      1.0000 0.23663  0.86783  0.74939  Biso   1.000  O 
  Hf17     1.0000 0.63105  0.01339  0.12522  Biso   1.000  Hf
  Hf18     1.0000 0.63419  0.23182  0.37956  Biso   1.000  Hf
  Hf19     1.0000 0.85028  0.26222  0.12964  Biso   1.000  Hf
  Hf20     1.0000 0.87177  0.48234  0.37373  Biso   1.000  Hf
  O33      1.0000 0.53583  0.18303  0.19918  Biso   1.000  O 
  O34      1.0000 0.53499  0.06632  0.44671  Biso   1.000  O 
  O35      1.0000 0.96988  0.42836  0.19033  Biso   1.000  O 
  O36      1.0000 0.96671  0.31753  0.44759  Biso   1.000  O 
  O37      1.0000 0.76143  0.11393  0.25080  Biso   1.000  O 
  O38      1.0000 0.77308  0.13241  0.49903  Biso   1.000  O 
  O39      1.0000 0.73200  0.38290  0.49978  Biso   1.000  O 
  O40      1.0000 0.72816  0.36757  0.25210  Biso   1.000  O 
  Hf21     1.0000 0.63594  0.01622  0.62548  Biso   1.000  Hf
  Hf22     1.0000 0.63677  0.23371  0.87201  Biso   1.000  Hf
  Hf23     1.0000 0.86470  0.26913  0.62442  Biso   1.000  Hf
  Hf24     1.0000 0.87074  0.48357  0.87827  Biso   1.000  Hf
  O41      1.0000 0.54003  0.18474  0.69432  Biso   1.000  O 
  O42      1.0000 0.53054  0.07254  0.94966  Biso   1.000  O 
  O43      1.0000 0.97259  0.43055  0.70131  Biso   1.000  O 
  O44      1.0000 0.96706  0.31359  0.94597  Biso   1.000  O 
  O45      1.0000 0.77587  0.11934  0.74802  Biso   1.000  O 
  O46      1.0000 0.76866  0.13250  0.99995  Biso   1.000  O 
  O47      1.0000 0.73078  0.38193  0.00103  Biso   1.000  O 
  O48      1.0000 0.73326  0.37124  0.75118  Biso   1.000  O 
  Hf25     1.0000 0.63594  0.51878  0.12632  Biso   1.000  Hf
  Hf26     1.0000 0.63811  0.73335  0.37691  Biso   1.000  Hf
  Hf27     1.0000 0.86635  0.76523  0.12595  Biso   1.000  Hf
  Hf28     1.0000 0.87318  0.98500  0.37349  Biso   1.000  Hf
  O49      1.0000 0.54008  0.68580  0.19557  Biso   1.000  O 
  O50      1.0000 0.53826  0.56670  0.44487  Biso   1.000  O 
  O51      1.0000 0.96628  0.92879  0.19483  Biso   1.000  O 
  O52      1.0000 0.96959  0.81729  0.44660  Biso   1.000  O 
  O53      1.0000 0.77408  0.61623  0.24950  Biso   1.000  O 
  O54      1.0000 0.77526  0.63218  0.49946  Biso   1.000  O 
  O55      1.0000 0.73580  0.88344  0.49868  Biso   1.000  O 
  O56      1.0000 0.73218  0.86600  0.24960  Biso   1.000  O 
  Hf29     1.0000 0.63907  0.51796  0.62568  Biso   1.000  Hf
  Hf30     1.0000 0.63833  0.73560  0.87537  Biso   1.000  Hf
  Hf31     1.0000 0.86986  0.76732  0.62521  Biso   1.000  Hf
  Hf32     1.0000 0.87013  0.98427  0.87621  Biso   1.000  Hf
  O57      1.0000 0.54059  0.68438  0.69607  Biso   1.000  O 
  O58      1.0000 0.53768  0.57153  0.94832  Biso   1.000  O 
  O59      1.0000 0.97234  0.93125  0.69959  Biso   1.000  O 
  O60      1.0000 0.96860  0.81824  0.94801  Biso   1.000  O 
  O61      1.0000 0.77625  0.61822  0.75033  Biso   1.000  O 
  O62      1.0000 0.77306  0.63380  0.99946  Biso   1.000  O 
  O63      1.0000 0.73290  0.88364  0.99965  Biso   1.000  O 
  O64      1.0000 0.73476  0.86835  0.74952  Biso   1.000  O 
  Na1      1.0000 0.11174  0.28431  0.10046  Biso   1.000  Na
