data_image0
_cell_length_a       10.0129
_cell_length_b       10.1675
_cell_length_c       10.0129
_cell_angle_alpha    90
_cell_angle_beta     90
_cell_angle_gamma    90

_symmetry_space_group_name_H-M    "P 1"
_symmetry_int_tables_number       1

loop_
  _symmetry_equiv_pos_as_xyz
  'x, y, z'

loop_
  _atom_site_label
  _atom_site_occupancy
  _atom_site_fract_x
  _atom_site_fract_y
  _atom_site_fract_z
  _atom_site_thermal_displace_type
  _atom_site_B_iso_or_equiv
  _atom_site_type_symbol
  Na1      1.0000 0.12510  0.99997  0.12492  Biso   1.000  Na
  Hf1      1.0000 0.12511  0.99997  0.62491  Biso   1.000  Hf
  Hf2      1.0000 0.12508  0.49998  0.12492  Biso   1.000  Hf
  Hf3      1.0000 0.12508  0.49997  0.62492  Biso   1.000  Hf
  Hf4      1.0000 0.62511  0.99997  0.12492  Biso   1.000  Hf
  Hf5      1.0000 0.62511  0.99997  0.62492  Biso   1.000  Hf
  Hf6      1.0000 0.62508  0.49997  0.12492  Biso   1.000  Hf
  Hf7      1.0000 0.62508  0.49997  0.62492  Biso   1.000  Hf
  Hf8      1.0000 0.12498  0.24865  0.37196  Biso   1.000  Hf
  Hf9      1.0000 0.12516  0.24864  0.87791  Biso   1.000  Hf
  Hf10     1.0000 0.12517  0.75130  0.37195  Biso   1.000  Hf
  Hf11     1.0000 0.12500  0.75130  0.87790  Biso   1.000  Hf
  Hf12     1.0000 0.62530  0.24880  0.37454  Biso   1.000  Hf
  Hf13     1.0000 0.62484  0.24880  0.87532  Biso   1.000  Hf
  Hf14     1.0000 0.62486  0.75114  0.37453  Biso   1.000  Hf
  Hf15     1.0000 0.62532  0.75114  0.87532  Biso   1.000  Hf
  Hf16     1.0000 0.37209  0.24865  0.12484  Biso   1.000  Hf
  Hf17     1.0000 0.37468  0.24880  0.62516  Biso   1.000  Hf
  Hf18     1.0000 0.37211  0.75130  0.12501  Biso   1.000  Hf
  Hf19     1.0000 0.37470  0.75114  0.62470  Biso   1.000  Hf
  Hf20     1.0000 0.87804  0.24865  0.12502  Biso   1.000  Hf
  Hf21     1.0000 0.87546  0.24880  0.62470  Biso   1.000  Hf
  Hf22     1.0000 0.87806  0.75130  0.12483  Biso   1.000  Hf
  Hf23     1.0000 0.87549  0.75114  0.62516  Biso   1.000  Hf
  Hf24     1.0000 0.37109  0.99855  0.37090  Biso   1.000  Hf
  Hf25     1.0000 0.37104  0.00138  0.87893  Biso   1.000  Hf
  Hf26     1.0000 0.37524  0.49886  0.37507  Biso   1.000  Hf
  Hf27     1.0000 0.37522  0.50109  0.87477  Biso   1.000  Hf
  Hf28     1.0000 0.87906  0.00139  0.37090  Biso   1.000  Hf
  Hf29     1.0000 0.87912  0.99856  0.87893  Biso   1.000  Hf
  Hf30     1.0000 0.87492  0.50108  0.37507  Biso   1.000  Hf
  Hf31     1.0000 0.87493  0.49885  0.87477  Biso   1.000  Hf
  O1       1.0000 0.99362  0.14410  0.99349  Biso   1.000  O 
  O2       1.0000 0.00573  0.14430  0.50534  Biso   1.000  O 
  O3       1.0000 0.00449  0.63642  0.00434  Biso   1.000  O 
  O4       1.0000 0.00187  0.64425  0.50326  Biso   1.000  O 
  O5       1.0000 0.50547  0.14430  0.00560  Biso   1.000  O 
  O6       1.0000 0.50504  0.14657  0.50490  Biso   1.000  O 
  O7       1.0000 0.50342  0.64425  0.00171  Biso   1.000  O 
  O8       1.0000 0.50146  0.64536  0.50130  Biso   1.000  O 
  O9       1.0000 0.99160  0.12306  0.25839  Biso   1.000  O 
  O10      1.0000 0.99670  0.10500  0.74984  Biso   1.000  O 
  O11      1.0000 0.99786  0.60956  0.25215  Biso   1.000  O 
  O12      1.0000 0.99907  0.60550  0.75261  Biso   1.000  O 
  O13      1.0000 0.50015  0.10499  0.25330  Biso   1.000  O 
  O14      1.0000 0.49707  0.10391  0.75293  Biso   1.000  O 
  O15      1.0000 0.49740  0.60550  0.25093  Biso   1.000  O 
  O16      1.0000 0.49929  0.60448  0.75071  Biso   1.000  O 
  O17      1.0000 0.00449  0.36352  0.24551  Biso   1.000  O 
  O18      1.0000 0.00186  0.35569  0.74659  Biso   1.000  O 
  O19      1.0000 0.99365  0.85584  0.25636  Biso   1.000  O 
  O20      1.0000 0.00577  0.85564  0.74451  Biso   1.000  O 
  O21      1.0000 0.50341  0.35569  0.24813  Biso   1.000  O 
  O22      1.0000 0.50145  0.35458  0.74854  Biso   1.000  O 
  O23      1.0000 0.50550  0.85564  0.24425  Biso   1.000  O 
  O24      1.0000 0.50507  0.85338  0.74495  Biso   1.000  O 
  O25      1.0000 0.99786  0.39038  0.99771  Biso   1.000  O 
  O26      1.0000 0.99907  0.39445  0.49724  Biso   1.000  O 
  O27      1.0000 0.99164  0.87688  0.99146  Biso   1.000  O 
  O28      1.0000 0.99673  0.89495  0.50001  Biso   1.000  O 
  O29      1.0000 0.49740  0.39445  0.99891  Biso   1.000  O 
  O30      1.0000 0.49929  0.39546  0.49914  Biso   1.000  O 
  O31      1.0000 0.50019  0.89495  0.99656  Biso   1.000  O 
  O32      1.0000 0.49710  0.89604  0.49693  Biso   1.000  O 
  O33      1.0000 0.25650  0.14410  0.25636  Biso   1.000  O 
  O34      1.0000 0.24439  0.14430  0.74451  Biso   1.000  O 
  O35      1.0000 0.24567  0.63642  0.24551  Biso   1.000  O 
  O36      1.0000 0.24829  0.64425  0.74658  Biso   1.000  O 
  O37      1.0000 0.74465  0.14430  0.24426  Biso   1.000  O 
  O38      1.0000 0.74510  0.14656  0.74496  Biso   1.000  O 
  O39      1.0000 0.74675  0.64425  0.24813  Biso   1.000  O 
  O40      1.0000 0.74870  0.64536  0.74853  Biso   1.000  O 
  O41      1.0000 0.25852  0.12306  0.99147  Biso   1.000  O 
  O42      1.0000 0.25343  0.10500  0.50001  Biso   1.000  O 
  O43      1.0000 0.25231  0.60956  0.99770  Biso   1.000  O 
  O44      1.0000 0.25109  0.60550  0.49724  Biso   1.000  O 
  O45      1.0000 0.74997  0.10499  0.99657  Biso   1.000  O 
  O46      1.0000 0.75306  0.10391  0.49694  Biso   1.000  O 
  O47      1.0000 0.75277  0.60549  0.99891  Biso   1.000  O 
  O48      1.0000 0.75087  0.60448  0.49913  Biso   1.000  O 
  O49      1.0000 0.24566  0.36352  0.00434  Biso   1.000  O 
  O50      1.0000 0.24828  0.35569  0.50327  Biso   1.000  O 
  O51      1.0000 0.25653  0.85584  0.99348  Biso   1.000  O 
  O52      1.0000 0.24443  0.85564  0.50533  Biso   1.000  O 
  O53      1.0000 0.74673  0.35569  0.00171  Biso   1.000  O 
  O54      1.0000 0.74869  0.35458  0.50131  Biso   1.000  O 
  O55      1.0000 0.74468  0.85564  0.00560  Biso   1.000  O 
  O56      1.0000 0.74513  0.85337  0.50489  Biso   1.000  O 
  O57      1.0000 0.25229  0.39038  0.25215  Biso   1.000  O 
  O58      1.0000 0.25109  0.39445  0.75261  Biso   1.000  O 
  O59      1.0000 0.25855  0.87689  0.25838  Biso   1.000  O 
  O60      1.0000 0.25346  0.89495  0.74983  Biso   1.000  O 
  O61      1.0000 0.75276  0.39445  0.25094  Biso   1.000  O 
  O62      1.0000 0.75087  0.39546  0.75071  Biso   1.000  O 
  O63      1.0000 0.75000  0.89495  0.25329  Biso   1.000  O 
  O64      1.0000 0.75309  0.89603  0.75292  Biso   1.000  O 
