data_image0
_cell_length_a       5.08515
_cell_length_b       10.2797
_cell_length_c       10.5708
_cell_angle_alpha    90
_cell_angle_beta     80
_cell_angle_gamma    90

_symmetry_space_group_name_H-M    "P 1"
_symmetry_int_tables_number       1

loop_
  _symmetry_equiv_pos_as_xyz
  'x, y, z'

loop_
  _atom_site_label
  _atom_site_occupancy
  _atom_site_fract_x
  _atom_site_fract_y
  _atom_site_fract_z
  _atom_site_thermal_displace_type
  _atom_site_B_iso_or_equiv
  _atom_site_type_symbol
  Hf1      1.0000 0.28512  0.02000  0.14859  Biso   1.000  Hf
  Hf2      1.0000 0.31232  0.22780  0.40762  Biso   1.000  Hf
  Hf3      1.0000 0.68517  0.27491  0.09157  Biso   1.000  Hf
  Hf4      1.0000 0.71385  0.48248  0.35506  Biso   1.000  Hf
  O1       1.0000 0.05434  0.16560  0.07631  Biso   1.000  O 
  O2       1.0000 0.09644  0.07586  0.33581  Biso   1.000  O 
  O3       1.0000 0.90765  0.41949  0.17061  Biso   1.000  O 
  O4       1.0000 0.94986  0.33922  0.42953  Biso   1.000  O 
  O5       1.0000 0.57522  0.13129  0.24236  Biso   1.000  O 
  O6       1.0000 0.58498  0.12042  0.49279  Biso   1.000  O 
  O7       1.0000 0.41587  0.38189  0.00735  Biso   1.000  O 
  O8       1.0000 0.42504  0.36930  0.25897  Biso   1.000  O 
  Hf5      1.0000 0.30090  0.02069  0.64729  Biso   1.000  Hf
  Hf6      1.0000 0.29031  0.22817  0.89267  Biso   1.000  Hf
  Hf7      1.0000 0.74426  0.27384  0.60719  Biso   1.000  Hf
  Hf8      1.0000 0.73275  0.48260  0.85170  Biso   1.000  Hf
  O9       1.0000 0.09427  0.16892  0.58303  Biso   1.000  O 
  O10      1.0000 0.08777  0.08294  0.82648  Biso   1.000  O 
  O11      1.0000 0.94615  0.41926  0.67384  Biso   1.000  O 
  O12      1.0000 0.94175  0.33418  0.91633  Biso   1.000  O 
  O13      1.0000 0.57247  0.12922  0.74098  Biso   1.000  O 
  O14      1.0000 0.57289  0.12266  0.98653  Biso   1.000  O 
  O15      1.0000 0.46307  0.37961  0.51243  Biso   1.000  O 
  O16      1.0000 0.46174  0.37237  0.75823  Biso   1.000  O 
  Hf9      1.0000 0.26116  0.52408  0.14846  Biso   1.000  Hf
  Hf10     1.0000 0.27349  0.72772  0.39786  Biso   1.000  Hf
  Hf11     1.0000 0.70572  0.77247  0.10558  Biso   1.000  Hf
  Hf12     1.0000 0.71653  0.97335  0.35552  Biso   1.000  Hf
  O17      1.0000 0.05003  0.66768  0.08049  Biso   1.000  O 
  O18      1.0000 0.05937  0.58464  0.32889  Biso   1.000  O 
  O19      1.0000 0.92014  0.91644  0.17436  Biso   1.000  O 
  O20      1.0000 0.92786  0.83121  0.42307  Biso   1.000  O 
  O21      1.0000 0.54183  0.62881  0.24248  Biso   1.000  O 
  O22      1.0000 0.55356  0.62289  0.49127  Biso   1.000  O 
  O23      1.0000 0.42581  0.87873  0.01255  Biso   1.000  O 
  O24      1.0000 0.43718  0.87063  0.26073  Biso   1.000  O 
  Hf13     1.0000 0.28835  0.52394  0.64706  Biso   1.000  Hf
  Hf14     1.0000 0.28839  0.72967  0.89658  Biso   1.000  Hf
  Hf15     1.0000 0.72634  0.77214  0.60442  Biso   1.000  Hf
  Hf16     1.0000 0.72695  0.97753  0.85279  Biso   1.000  Hf
  O25      1.0000 0.07088  0.66659  0.57884  Biso   1.000  O 
  O26      1.0000 0.08168  0.58521  0.82794  Biso   1.000  O 
  O27      1.0000 0.93405  0.91698  0.67198  Biso   1.000  O 
  O28      1.0000 0.94388  0.83508  0.92166  Biso   1.000  O 
  O29      1.0000 0.56432  0.62999  0.74079  Biso   1.000  O 
  O30      1.0000 0.56803  0.62360  0.99005  Biso   1.000  O 
  O31      1.0000 0.44629  0.87846  0.51063  Biso   1.000  O 
  O32      1.0000 0.45079  0.87184  0.75968  Biso   1.000  O 
  Na1      1.0000 0.95419  0.23989  0.26218  Biso   1.000  Na
