data_image0
_cell_length_a       5.11157
_cell_length_b       10.2774
_cell_length_c       10.6117
_cell_angle_alpha    90
_cell_angle_beta     80
_cell_angle_gamma    90

_symmetry_space_group_name_H-M    "P 1"
_symmetry_int_tables_number       1

loop_
  _symmetry_equiv_pos_as_xyz
  'x, y, z'

loop_
  _atom_site_label
  _atom_site_occupancy
  _atom_site_fract_x
  _atom_site_fract_y
  _atom_site_fract_z
  _atom_site_thermal_displace_type
  _atom_site_B_iso_or_equiv
  _atom_site_type_symbol
  Hf1      1.0000 0.27463  0.02053  0.14461  Biso   1.000  Hf
  Hf2      1.0000 0.27211  0.23830  0.40569  Biso   1.000  Hf
  Hf3      1.0000 0.71558  0.26821  0.08927  Biso   1.000  Hf
  Hf4      1.0000 0.72695  0.49771  0.35773  Biso   1.000  Hf
  O1       1.0000 0.05952  0.15707  0.07006  Biso   1.000  O 
  O2       1.0000 0.07157  0.08125  0.33203  Biso   1.000  O 
  O3       1.0000 0.96054  0.39664  0.18745  Biso   1.000  O 
  O4       1.0000 0.96821  0.37244  0.44257  Biso   1.000  O 
  O5       1.0000 0.55561  0.11960  0.22809  Biso   1.000  O 
  O6       1.0000 0.57134  0.12254  0.48336  Biso   1.000  O 
  O7       1.0000 0.44077  0.38040  0.00730  Biso   1.000  O 
  O8       1.0000 0.48748  0.36905  0.26202  Biso   1.000  O 
  Hf5      1.0000 0.28236  0.02766  0.64463  Biso   1.000  Hf
  Hf6      1.0000 0.28184  0.23433  0.89137  Biso   1.000  Hf
  Hf7      1.0000 0.73103  0.28252  0.60747  Biso   1.000  Hf
  Hf8      1.0000 0.72783  0.48739  0.85458  Biso   1.000  Hf
  O9       1.0000 0.07170  0.17117  0.58085  Biso   1.000  O 
  O10      1.0000 0.06912  0.09332  0.82249  Biso   1.000  O 
  O11      1.0000 0.94264  0.41880  0.68313  Biso   1.000  O 
  O12      1.0000 0.94953  0.34910  0.92315  Biso   1.000  O 
  O13      1.0000 0.55422  0.13428  0.73670  Biso   1.000  O 
  O14      1.0000 0.55392  0.12870  0.98159  Biso   1.000  O 
  O15      1.0000 0.45870  0.38780  0.51704  Biso   1.000  O 
  O16      1.0000 0.45658  0.37906  0.76133  Biso   1.000  O 
  Hf9      1.0000 0.27939  0.52017  0.14738  Biso   1.000  Hf
  Hf10     1.0000 0.27483  0.73258  0.39809  Biso   1.000  Hf
  Hf11     1.0000 0.72415  0.77084  0.10347  Biso   1.000  Hf
  Hf12     1.0000 0.71828  0.97011  0.35329  Biso   1.000  Hf
  O17      1.0000 0.06078  0.65574  0.07295  Biso   1.000  O 
  O18      1.0000 0.07118  0.59827  0.31802  Biso   1.000  O 
  O19      1.0000 0.93881  0.90817  0.17763  Biso   1.000  O 
  O20      1.0000 0.93534  0.83798  0.42914  Biso   1.000  O 
  O21      1.0000 0.55579  0.62849  0.23936  Biso   1.000  O 
  O22      1.0000 0.54665  0.63141  0.49380  Biso   1.000  O 
  O23      1.0000 0.45018  0.87833  0.01140  Biso   1.000  O 
  O24      1.0000 0.44612  0.86787  0.25911  Biso   1.000  O 
  Hf13     1.0000 0.27909  0.52859  0.64855  Biso   1.000  Hf
  Hf14     1.0000 0.28397  0.73448  0.89685  Biso   1.000  Hf
  Hf15     1.0000 0.72681  0.77737  0.60694  Biso   1.000  Hf
  Hf16     1.0000 0.73264  0.98417  0.85215  Biso   1.000  Hf
  O25      1.0000 0.06070  0.66454  0.57463  Biso   1.000  O 
  O26      1.0000 0.06861  0.59790  0.82468  Biso   1.000  O 
  O27      1.0000 0.94421  0.91781  0.67548  Biso   1.000  O 
  O28      1.0000 0.94598  0.84548  0.92652  Biso   1.000  O 
  O29      1.0000 0.55501  0.63481  0.74147  Biso   1.000  O 
  O30      1.0000 0.55973  0.63062  0.99050  Biso   1.000  O 
  O31      1.0000 0.44856  0.88146  0.51186  Biso   1.000  O 
  O32      1.0000 0.45680  0.87824  0.76103  Biso   1.000  O 
  Nb1      1.0000 0.79836  0.23986  0.32401  Biso   1.000  Nb
