data_image0
_cell_length_a       10.0026
_cell_length_b       5.10778
_cell_length_c       10.451
_cell_angle_alpha    90
_cell_angle_beta     90
_cell_angle_gamma    90

_symmetry_space_group_name_H-M    "P 1"
_symmetry_int_tables_number       1

loop_
  _symmetry_equiv_pos_as_xyz
  'x, y, z'

loop_
  _atom_site_label
  _atom_site_occupancy
  _atom_site_fract_x
  _atom_site_fract_y
  _atom_site_fract_z
  _atom_site_thermal_displace_type
  _atom_site_B_iso_or_equiv
  _atom_site_type_symbol
  Nb1      1.0000 0.13879  0.04531  0.17245  Biso   1.000  Nb
  Hf1      1.0000 0.14012  0.45848  0.42133  Biso   1.000  Hf
  Hf2      1.0000 0.35996  0.54707  0.17215  Biso   1.000  Hf
  Hf3      1.0000 0.36193  0.95866  0.42145  Biso   1.000  Hf
  Hf4      1.0000 0.63857  0.04369  0.07806  Biso   1.000  Hf
  Hf5      1.0000 0.63927  0.45699  0.32787  Biso   1.000  Hf
  Hf6      1.0000 0.86276  0.54280  0.07818  Biso   1.000  Hf
  Hf7      1.0000 0.86245  0.95684  0.32764  Biso   1.000  Hf
  O1       1.0000 0.03500  0.32715  0.08603  Biso   1.000  O 
  O2       1.0000 0.03683  0.16308  0.33155  Biso   1.000  O 
  O3       1.0000 0.46755  0.83117  0.08332  Biso   1.000  O 
  O4       1.0000 0.46722  0.66868  0.33395  Biso   1.000  O 
  O5       1.0000 0.27739  0.24757  0.29542  Biso   1.000  O 
  O6       1.0000 0.27597  0.25237  0.04783  Biso   1.000  O 
  O7       1.0000 0.22300  0.75026  0.29648  Biso   1.000  O 
  O8       1.0000 0.22018  0.75577  0.04580  Biso   1.000  O 
  O9       1.0000 0.53320  0.33381  0.16579  Biso   1.000  O 
  O10      1.0000 0.53432  0.16779  0.41567  Biso   1.000  O 
  O11      1.0000 0.97310  0.83002  0.16538  Biso   1.000  O 
  O12      1.0000 0.96733  0.66565  0.41465  Biso   1.000  O 
  O13      1.0000 0.77828  0.24554  0.45426  Biso   1.000  O 
  O14      1.0000 0.77750  0.25145  0.20461  Biso   1.000  O 
  O15      1.0000 0.72452  0.74643  0.45453  Biso   1.000  O 
  O16      1.0000 0.72630  0.75256  0.20462  Biso   1.000  O 
  Hf8      1.0000 0.13952  0.04163  0.67185  Biso   1.000  Hf
  Hf9      1.0000 0.14099  0.45601  0.92224  Biso   1.000  Hf
  Hf10     1.0000 0.36254  0.54218  0.67173  Biso   1.000  Hf
  Hf11     1.0000 0.36242  0.95688  0.92246  Biso   1.000  Hf
  Hf12     1.0000 0.63952  0.04142  0.57834  Biso   1.000  Hf
  Hf13     1.0000 0.64018  0.45749  0.82865  Biso   1.000  Hf
  Hf14     1.0000 0.86201  0.54086  0.57817  Biso   1.000  Hf
  Hf15     1.0000 0.86299  0.95627  0.82854  Biso   1.000  Hf
  O17      1.0000 0.03358  0.32820  0.58217  Biso   1.000  O 
  O18      1.0000 0.03377  0.16867  0.83347  Biso   1.000  O 
  O19      1.0000 0.46786  0.83182  0.58413  Biso   1.000  O 
  O20      1.0000 0.46794  0.66826  0.83420  Biso   1.000  O 
  O21      1.0000 0.27793  0.24658  0.79579  Biso   1.000  O 
  O22      1.0000 0.27770  0.25236  0.54555  Biso   1.000  O 
  O23      1.0000 0.22453  0.74644  0.79554  Biso   1.000  O 
  O24      1.0000 0.22433  0.75140  0.54521  Biso   1.000  O 
  O25      1.0000 0.53453  0.33165  0.66587  Biso   1.000  O 
  O26      1.0000 0.53391  0.16834  0.91607  Biso   1.000  O 
  O27      1.0000 0.96856  0.82898  0.66598  Biso   1.000  O 
  O28      1.0000 0.96847  0.66542  0.91634  Biso   1.000  O 
  O29      1.0000 0.77793  0.24753  0.95469  Biso   1.000  O 
  O30      1.0000 0.77778  0.25120  0.70467  Biso   1.000  O 
  O31      1.0000 0.72484  0.74741  0.95459  Biso   1.000  O 
  O32      1.0000 0.72473  0.75165  0.70473  Biso   1.000  O 
