data_image0
_cell_length_a       10.095
_cell_length_b       5.13065
_cell_length_c       10.4419
_cell_angle_alpha    90
_cell_angle_beta     80
_cell_angle_gamma    90

_symmetry_space_group_name_H-M    "P 1"
_symmetry_int_tables_number       1

loop_
  _symmetry_equiv_pos_as_xyz
  'x, y, z'

loop_
  _atom_site_label
  _atom_site_occupancy
  _atom_site_fract_x
  _atom_site_fract_y
  _atom_site_fract_z
  _atom_site_thermal_displace_type
  _atom_site_B_iso_or_equiv
  _atom_site_type_symbol
  Nb1      1.0000 0.13835  0.04590  0.14685  Biso   1.000  Nb
  Hf1      1.0000 0.13954  0.45761  0.39541  Biso   1.000  Hf
  Hf2      1.0000 0.35936  0.54772  0.10517  Biso   1.000  Hf
  Hf3      1.0000 0.36170  0.95755  0.35405  Biso   1.000  Hf
  O1       1.0000 0.03683  0.33222  0.08145  Biso   1.000  O 
  O2       1.0000 0.03920  0.15507  0.32712  Biso   1.000  O 
  O3       1.0000 0.46567  0.83904  0.17026  Biso   1.000  O 
  O4       1.0000 0.46459  0.66095  0.41991  Biso   1.000  O 
  O5       1.0000 0.27688  0.25833  0.24081  Biso   1.000  O 
  O6       1.0000 0.27669  0.24191  0.49118  Biso   1.000  O 
  O7       1.0000 0.21831  0.76100  0.01081  Biso   1.000  O 
  O8       1.0000 0.22353  0.74443  0.26018  Biso   1.000  O 
  Hf4      1.0000 0.13732  0.04197  0.64601  Biso   1.000  Hf
  Hf5      1.0000 0.13715  0.45560  0.89593  Biso   1.000  Hf
  Hf6      1.0000 0.36064  0.54258  0.60449  Biso   1.000  Hf
  Hf7      1.0000 0.35863  0.95698  0.85553  Biso   1.000  Hf
  O9       1.0000 0.03441  0.33562  0.57873  Biso   1.000  O 
  O10      1.0000 0.03327  0.16057  0.83000  Biso   1.000  O 
  O11      1.0000 0.46288  0.83931  0.67041  Biso   1.000  O 
  O12      1.0000 0.45969  0.65912  0.92063  Biso   1.000  O 
  O13      1.0000 0.27519  0.25733  0.74123  Biso   1.000  O 
  O14      1.0000 0.27260  0.24062  0.99313  Biso   1.000  O 
  O15      1.0000 0.22289  0.75685  0.50953  Biso   1.000  O 
  O16      1.0000 0.22174  0.74093  0.75991  Biso   1.000  O 
  Hf8      1.0000 0.63865  0.04501  0.14570  Biso   1.000  Hf
  Hf9      1.0000 0.63951  0.45665  0.39574  Biso   1.000  Hf
  Hf10     1.0000 0.86239  0.54394  0.10350  Biso   1.000  Hf
  Hf11     1.0000 0.86183  0.95609  0.35324  Biso   1.000  Hf
  O17      1.0000 0.53483  0.34099  0.08125  Biso   1.000  O 
  O18      1.0000 0.53645  0.16084  0.33097  Biso   1.000  O 
  O19      1.0000 0.97071  0.83596  0.16793  Biso   1.000  O 
  O20      1.0000 0.96385  0.65814  0.41842  Biso   1.000  O 
  O21      1.0000 0.77821  0.25728  0.24032  Biso   1.000  O 
  O22      1.0000 0.77723  0.23985  0.49020  Biso   1.000  O 
  O23      1.0000 0.72286  0.75916  0.00916  Biso   1.000  O 
  O24      1.0000 0.72607  0.74185  0.25901  Biso   1.000  O 
  Hf12     1.0000 0.63719  0.04179  0.64647  Biso   1.000  Hf
  Hf13     1.0000 0.63613  0.45659  0.89689  Biso   1.000  Hf
  Hf14     1.0000 0.85993  0.54149  0.60420  Biso   1.000  Hf
  Hf15     1.0000 0.85948  0.95575  0.85456  Biso   1.000  Hf
  O25      1.0000 0.53604  0.33981  0.58093  Biso   1.000  O 
  O26      1.0000 0.53315  0.15959  0.83168  Biso   1.000  O 
  O27      1.0000 0.96348  0.83654  0.66963  Biso   1.000  O 
  O28      1.0000 0.96205  0.65804  0.92007  Biso   1.000  O 
  O29      1.0000 0.77463  0.25716  0.74088  Biso   1.000  O 
  O30      1.0000 0.77413  0.24187  0.99063  Biso   1.000  O 
  O31      1.0000 0.72337  0.75781  0.50930  Biso   1.000  O 
  O32      1.0000 0.72156  0.74083  0.75980  Biso   1.000  O 
