data_image0
_cell_length_a       9.94599
_cell_length_b       10.3533
_cell_length_c       4.99313
_cell_angle_alpha    90
_cell_angle_beta     90
_cell_angle_gamma    90

_symmetry_space_group_name_H-M    "P 1"
_symmetry_int_tables_number       1

loop_
  _symmetry_equiv_pos_as_xyz
  'x, y, z'

loop_
  _atom_site_label
  _atom_site_occupancy
  _atom_site_fract_x
  _atom_site_fract_y
  _atom_site_fract_z
  _atom_site_thermal_displace_type
  _atom_site_B_iso_or_equiv
  _atom_site_type_symbol
  Nb1      1.0000 0.13429  0.01943  0.25626  Biso   1.000  Nb
  Hf1      1.0000 0.13390  0.23286  0.75301  Biso   1.000  Hf
  Hf2      1.0000 0.36641  0.26718  0.25011  Biso   1.000  Hf
  Hf3      1.0000 0.36595  0.48420  0.75108  Biso   1.000  Hf
  O1       1.0000 0.03607  0.18235  0.39708  Biso   1.000  O 
  O2       1.0000 0.03485  0.06694  0.91231  Biso   1.000  O 
  O3       1.0000 0.46324  0.43487  0.38614  Biso   1.000  O 
  O4       1.0000 0.46329  0.31570  0.88534  Biso   1.000  O 
  O5       1.0000 0.27254  0.11878  0.49275  Biso   1.000  O 
  O6       1.0000 0.26996  0.13083  0.99823  Biso   1.000  O 
  O7       1.0000 0.22962  0.38225  0.99947  Biso   1.000  O 
  O8       1.0000 0.22935  0.36771  0.49993  Biso   1.000  O 
  Hf4      1.0000 0.13398  0.51625  0.25196  Biso   1.000  Hf
  Hf5      1.0000 0.13399  0.73417  0.75180  Biso   1.000  Hf
  Hf6      1.0000 0.36539  0.76722  0.25154  Biso   1.000  Hf
  Hf7      1.0000 0.36430  0.98317  0.75186  Biso   1.000  Hf
  O9       1.0000 0.03659  0.68408  0.38669  Biso   1.000  O 
  O10      1.0000 0.03657  0.56590  0.88793  Biso   1.000  O 
  O11      1.0000 0.46391  0.93413  0.38883  Biso   1.000  O 
  O12      1.0000 0.46252  0.81605  0.88733  Biso   1.000  O 
  O13      1.0000 0.27079  0.61852  0.49924  Biso   1.000  O 
  O14      1.0000 0.27100  0.63270  0.99922  Biso   1.000  O 
  O15      1.0000 0.22528  0.88315  0.00257  Biso   1.000  O 
  O16      1.0000 0.22841  0.86883  0.49829  Biso   1.000  O 
  Hf8      1.0000 0.63372  0.01613  0.24967  Biso   1.000  Hf
  Hf9      1.0000 0.63381  0.23318  0.75032  Biso   1.000  Hf
  Hf10     1.0000 0.86553  0.26560  0.25133  Biso   1.000  Hf
  Hf11     1.0000 0.86611  0.48363  0.75128  Biso   1.000  Hf
  O17      1.0000 0.53731  0.18487  0.38511  Biso   1.000  O 
  O18      1.0000 0.53548  0.06574  0.88640  Biso   1.000  O 
  O19      1.0000 0.96397  0.43312  0.38896  Biso   1.000  O 
  O20      1.0000 0.96461  0.31608  0.89083  Biso   1.000  O 
  O21      1.0000 0.77105  0.11707  0.49752  Biso   1.000  O 
  O22      1.0000 0.77067  0.13250  0.99705  Biso   1.000  O 
  O23      1.0000 0.72964  0.38222  0.99918  Biso   1.000  O 
  O24      1.0000 0.72942  0.36766  0.49884  Biso   1.000  O 
  Hf12     1.0000 0.63417  0.51677  0.25086  Biso   1.000  Hf
  Hf13     1.0000 0.63424  0.73441  0.74956  Biso   1.000  Hf
  Hf14     1.0000 0.86689  0.76655  0.24883  Biso   1.000  Hf
  Hf15     1.0000 0.86830  0.98415  0.75039  Biso   1.000  Hf
  O25      1.0000 0.53642  0.68487  0.38667  Biso   1.000  O 
  O26      1.0000 0.53704  0.56605  0.88602  Biso   1.000  O 
  O27      1.0000 0.96747  0.93446  0.38346  Biso   1.000  O 
  O28      1.0000 0.96268  0.81563  0.88323  Biso   1.000  O 
  O29      1.0000 0.77080  0.61779  0.49859  Biso   1.000  O 
  O30      1.0000 0.77081  0.63287  0.99842  Biso   1.000  O 
  O31      1.0000 0.72960  0.88331  0.99519  Biso   1.000  O 
  O32      1.0000 0.73135  0.86815  0.49609  Biso   1.000  O 
