data_image0
_cell_length_a       5.06325
_cell_length_b       10.4427
_cell_length_c       10.0948
_cell_angle_alpha    90
_cell_angle_beta     90
_cell_angle_gamma    90

_symmetry_space_group_name_H-M    "P 1"
_symmetry_int_tables_number       1

loop_
  _symmetry_equiv_pos_as_xyz
  'x, y, z'

loop_
  _atom_site_label
  _atom_site_occupancy
  _atom_site_fract_x
  _atom_site_fract_y
  _atom_site_fract_z
  _atom_site_thermal_displace_type
  _atom_site_B_iso_or_equiv
  _atom_site_type_symbol
  Hf1      1.0000 0.25428  0.01237  0.12208  Biso   1.000  Hf
  Hf2      1.0000 0.27404  0.23025  0.38429  Biso   1.000  Hf
  Hf3      1.0000 0.73097  0.25827  0.12585  Biso   1.000  Hf
  Hf4      1.0000 0.75698  0.48384  0.37256  Biso   1.000  Hf
  O1       1.0000 0.01068  0.16236  0.23652  Biso   1.000  O 
  O2       1.0000 0.08036  0.06403  0.45632  Biso   1.000  O 
  O3       1.0000 0.96676  0.42590  0.20083  Biso   1.000  O 
  O4       1.0000 0.95490  0.32485  0.45572  Biso   1.000  O 
  O5       1.0000 0.51043  0.11033  0.24901  Biso   1.000  O 
  O6       1.0000 0.55922  0.13561  0.49864  Biso   1.000  O 
  O7       1.0000 0.48503  0.38846  0.49986  Biso   1.000  O 
  O8       1.0000 0.48325  0.36532  0.25286  Biso   1.000  O 
  Hf5      1.0000 0.28134  0.01182  0.62279  Biso   1.000  Hf
  Hf6      1.0000 0.27628  0.23959  0.85018  Biso   1.000  Hf
  Hf7      1.0000 0.74928  0.27079  0.62214  Biso   1.000  Hf
  Hf8      1.0000 0.76288  0.49519  0.87352  Biso   1.000  Hf
  O9       1.0000 0.06999  0.17585  0.69007  Biso   1.000  O 
  O10      1.0000 0.05334  0.07980  0.95206  Biso   1.000  O 
  O11      1.0000 0.97097  0.42982  0.70487  Biso   1.000  O 
  O12      1.0000 0.96235  0.32706  0.95072  Biso   1.000  O 
  O13      1.0000 0.54558  0.11649  0.74554  Biso   1.000  O 
  O14      1.0000 0.51281  0.15646  0.99818  Biso   1.000  O 
  O15      1.0000 0.50502  0.40954  0.99980  Biso   1.000  O 
  O16      1.0000 0.49406  0.37238  0.74738  Biso   1.000  O 
  Hf9      1.0000 0.28466  0.53632  0.12035  Biso   1.000  Hf
  Hf10     1.0000 0.28988  0.73746  0.37515  Biso   1.000  Hf
  Hf11     1.0000 0.74594  0.76848  0.12487  Biso   1.000  Hf
  Hf12     1.0000 0.76677  0.99102  0.37032  Biso   1.000  Hf
  O17      1.0000 0.07536  0.68764  0.20369  Biso   1.000  O 
  O18      1.0000 0.08358  0.57175  0.44923  Biso   1.000  O 
  O19      1.0000 0.94050  0.92982  0.19468  Biso   1.000  O 
  O20      1.0000 0.96225  0.82286  0.44778  Biso   1.000  O 
  O21      1.0000 0.56358  0.61941  0.24749  Biso   1.000  O 
  O22      1.0000 0.55805  0.63684  0.49657  Biso   1.000  O 
  O23      1.0000 0.49760  0.88711  0.49469  Biso   1.000  O 
  O24      1.0000 0.47524  0.86554  0.24583  Biso   1.000  O 
  Hf13     1.0000 0.28986  0.52001  0.62305  Biso   1.000  Hf
  Hf14     1.0000 0.28878  0.74516  0.86936  Biso   1.000  Hf
  Hf15     1.0000 0.76169  0.76702  0.61975  Biso   1.000  Hf
  Hf16     1.0000 0.76615  0.98846  0.87094  Biso   1.000  Hf
  O25      1.0000 0.09063  0.68371  0.69651  Biso   1.000  O 
  O26      1.0000 0.08819  0.58235  0.94837  Biso   1.000  O 
  O27      1.0000 0.97082  0.92896  0.70260  Biso   1.000  O 
  O28      1.0000 0.96591  0.82790  0.94969  Biso   1.000  O 
  O29      1.0000 0.56182  0.61862  0.74493  Biso   1.000  O 
  O30      1.0000 0.56246  0.65455  0.99200  Biso   1.000  O 
  O31      1.0000 0.49095  0.89906  0.99382  Biso   1.000  O 
  O32      1.0000 0.49807  0.86658  0.74377  Biso   1.000  O 
  Nb1      1.0000 0.22654  0.28696  0.10794  Biso   1.000  Nb
