data_image0
_cell_length_a       10.0511
_cell_length_b       5.27363
_cell_length_c       10.1374
_cell_angle_alpha    90
_cell_angle_beta     90
_cell_angle_gamma    90

_symmetry_space_group_name_H-M    "P 1"
_symmetry_int_tables_number       1

loop_
  _symmetry_equiv_pos_as_xyz
  'x, y, z'

loop_
  _atom_site_label
  _atom_site_occupancy
  _atom_site_fract_x
  _atom_site_fract_y
  _atom_site_fract_z
  _atom_site_thermal_displace_type
  _atom_site_B_iso_or_equiv
  _atom_site_type_symbol
  Hf1      1.0000 0.12255  0.12195  0.10812  Biso   1.000  Hf
  Hf2      1.0000 0.14295  0.44262  0.38764  Biso   1.000  Hf
  Hf3      1.0000 0.39311  0.55387  0.11333  Biso   1.000  Hf
  Hf4      1.0000 0.37094  0.95166  0.37719  Biso   1.000  Hf
  O1       1.0000 0.00832  0.37315  0.23011  Biso   1.000  O 
  O2       1.0000 0.04184  0.11552  0.45404  Biso   1.000  O 
  O3       1.0000 0.47895  0.86806  0.20359  Biso   1.000  O 
  O4       1.0000 0.47753  0.62836  0.45613  Biso   1.000  O 
  O5       1.0000 0.25260  0.16950  0.26119  Biso   1.000  O 
  O6       1.0000 0.28271  0.25071  0.50622  Biso   1.000  O 
  O7       1.0000 0.23802  0.75286  0.50571  Biso   1.000  O 
  O8       1.0000 0.26392  0.65734  0.26378  Biso   1.000  O 
  Hf5      1.0000 0.14281  0.01791  0.62758  Biso   1.000  Hf
  Hf6      1.0000 0.12955  0.46834  0.84965  Biso   1.000  Hf
  Hf7      1.0000 0.37648  0.52732  0.62741  Biso   1.000  Hf
  Hf8      1.0000 0.39139  0.98937  0.86543  Biso   1.000  Hf
  O9       1.0000 0.04095  0.35607  0.67464  Biso   1.000  O 
  O10      1.0000 0.04167  0.13778  0.92003  Biso   1.000  O 
  O11      1.0000 0.47967  0.85908  0.69198  Biso   1.000  O 
  O12      1.0000 0.49096  0.66830  0.93644  Biso   1.000  O 
  O13      1.0000 0.27408  0.22961  0.75029  Biso   1.000  O 
  O14      1.0000 0.26697  0.38046  0.99621  Biso   1.000  O 
  O15      1.0000 0.26224  0.86747  0.01598  Biso   1.000  O 
  O16      1.0000 0.24775  0.73384  0.75555  Biso   1.000  O 
  Hf9      1.0000 0.63750  0.03539  0.12833  Biso   1.000  Hf
  Hf10     1.0000 0.63821  0.46415  0.37575  Biso   1.000  Hf
  Hf11     1.0000 0.85373  0.53267  0.12344  Biso   1.000  Hf
  Hf12     1.0000 0.87915  0.96727  0.37153  Biso   1.000  Hf
  O17      1.0000 0.53810  0.36274  0.20327  Biso   1.000  O 
  O18      1.0000 0.53998  0.13069  0.44700  Biso   1.000  O 
  O19      1.0000 0.97234  0.87500  0.19308  Biso   1.000  O 
  O20      1.0000 0.97482  0.63746  0.44729  Biso   1.000  O 
  O21      1.0000 0.76758  0.22471  0.24888  Biso   1.000  O 
  O22      1.0000 0.77486  0.27010  0.49578  Biso   1.000  O 
  O23      1.0000 0.74251  0.77160  0.49724  Biso   1.000  O 
  O24      1.0000 0.73416  0.73361  0.25167  Biso   1.000  O 
  Hf13     1.0000 0.64206  0.03077  0.61748  Biso   1.000  Hf
  Hf14     1.0000 0.64901  0.46895  0.87043  Biso   1.000  Hf
  Hf15     1.0000 0.87357  0.53462  0.61599  Biso   1.000  Hf
  Hf16     1.0000 0.87233  0.96727  0.86950  Biso   1.000  Hf
  O25      1.0000 0.53826  0.34985  0.70545  Biso   1.000  O 
  O26      1.0000 0.53760  0.17292  0.96079  Biso   1.000  O 
  O27      1.0000 0.97970  0.84511  0.70148  Biso   1.000  O 
  O28      1.0000 0.97769  0.65275  0.95215  Biso   1.000  O 
  O29      1.0000 0.77747  0.22936  0.74392  Biso   1.000  O 
  O30      1.0000 0.78270  0.27284  0.99483  Biso   1.000  O 
  O31      1.0000 0.73833  0.77817  0.99769  Biso   1.000  O 
  O32      1.0000 0.74148  0.73105  0.74592  Biso   1.000  O 
  Nb1      1.0000 0.11883  0.62531  0.10708  Biso   1.000  Nb
