data_image0
_cell_length_a       10.0914
_cell_length_b       10.2685
_cell_length_c       5.21741
_cell_angle_alpha    90
_cell_angle_beta     80
_cell_angle_gamma    90

_symmetry_space_group_name_H-M    "P 1"
_symmetry_int_tables_number       1

loop_
  _symmetry_equiv_pos_as_xyz
  'x, y, z'

loop_
  _atom_site_label
  _atom_site_occupancy
  _atom_site_fract_x
  _atom_site_fract_y
  _atom_site_fract_z
  _atom_site_thermal_displace_type
  _atom_site_B_iso_or_equiv
  _atom_site_type_symbol
  Nb1      1.0000 0.13817  0.02327  0.29211  Biso   1.000  Nb
  Hf1      1.0000 0.13921  0.22833  0.79147  Biso   1.000  Hf
  Hf2      1.0000 0.36123  0.27164  0.20930  Biso   1.000  Hf
  Hf3      1.0000 0.36094  0.47907  0.70915  Biso   1.000  Hf
  O1       1.0000 0.03677  0.16700  0.16055  Biso   1.000  O 
  O2       1.0000 0.03872  0.07851  0.65149  Biso   1.000  O 
  O3       1.0000 0.46397  0.42076  0.33825  Biso   1.000  O 
  O4       1.0000 0.46277  0.32975  0.83885  Biso   1.000  O 
  O5       1.0000 0.27634  0.12822  0.48251  Biso   1.000  O 
  O6       1.0000 0.27560  0.12085  0.98744  Biso   1.000  O 
  O7       1.0000 0.22333  0.37875  0.01897  Biso   1.000  O 
  O8       1.0000 0.22360  0.37049  0.51961  Biso   1.000  O 
  Hf4      1.0000 0.13965  0.52159  0.29188  Biso   1.000  Hf
  Hf5      1.0000 0.13911  0.72871  0.79176  Biso   1.000  Hf
  Hf6      1.0000 0.36060  0.77381  0.20989  Biso   1.000  Hf
  Hf7      1.0000 0.36033  0.97839  0.70912  Biso   1.000  Hf
  O9       1.0000 0.03657  0.66868  0.16072  Biso   1.000  O 
  O10      1.0000 0.03607  0.57953  0.66215  Biso   1.000  O 
  O11      1.0000 0.46565  0.91968  0.34217  Biso   1.000  O 
  O12      1.0000 0.46356  0.83114  0.84105  Biso   1.000  O 
  O13      1.0000 0.27690  0.63001  0.48174  Biso   1.000  O 
  O14      1.0000 0.27683  0.62131  0.98230  Biso   1.000  O 
  O15      1.0000 0.22119  0.87932  0.02078  Biso   1.000  O 
  O16      1.0000 0.22136  0.87234  0.51870  Biso   1.000  O 
  Hf8      1.0000 0.63843  0.02159  0.29253  Biso   1.000  Hf
  Hf9      1.0000 0.63832  0.22833  0.79179  Biso   1.000  Hf
  Hf10     1.0000 0.86087  0.27152  0.20799  Biso   1.000  Hf
  Hf11     1.0000 0.86093  0.47832  0.70816  Biso   1.000  Hf
  O17      1.0000 0.53694  0.17061  0.16251  Biso   1.000  O 
  O18      1.0000 0.53505  0.08028  0.66302  Biso   1.000  O 
  O19      1.0000 0.96486  0.41858  0.33861  Biso   1.000  O 
  O20      1.0000 0.96329  0.32836  0.83837  Biso   1.000  O 
  O21      1.0000 0.77731  0.12880  0.48067  Biso   1.000  O 
  O22      1.0000 0.77678  0.12047  0.98007  Biso   1.000  O 
  O23      1.0000 0.72385  0.37938  0.01861  Biso   1.000  O 
  O24      1.0000 0.72298  0.37064  0.51845  Biso   1.000  O 
  Hf12     1.0000 0.63919  0.52231  0.29187  Biso   1.000  Hf
  Hf13     1.0000 0.63884  0.72888  0.79340  Biso   1.000  Hf
  Hf14     1.0000 0.86262  0.77172  0.20747  Biso   1.000  Hf
  Hf15     1.0000 0.86225  0.97835  0.70684  Biso   1.000  Hf
  O25      1.0000 0.53657  0.67089  0.16250  Biso   1.000  O 
  O26      1.0000 0.53625  0.58029  0.66294  Biso   1.000  O 
  O27      1.0000 0.97039  0.91906  0.33510  Biso   1.000  O 
  O28      1.0000 0.96400  0.83023  0.83780  Biso   1.000  O 
  O29      1.0000 0.77738  0.62922  0.48157  Biso   1.000  O 
  O30      1.0000 0.77674  0.62118  0.98182  Biso   1.000  O 
  O31      1.0000 0.72435  0.87958  0.01825  Biso   1.000  O 
  O32      1.0000 0.72632  0.87128  0.51848  Biso   1.000  O 
