data_image0
_cell_length_a       10.0033
_cell_length_b       5.08405
_cell_length_c       10.0033
_cell_angle_alpha    90
_cell_angle_beta     90
_cell_angle_gamma    90

_symmetry_space_group_name_H-M    "P 1"
_symmetry_int_tables_number       1

loop_
  _symmetry_equiv_pos_as_xyz
  'x, y, z'

loop_
  _atom_site_label
  _atom_site_occupancy
  _atom_site_fract_x
  _atom_site_fract_y
  _atom_site_fract_z
  _atom_site_thermal_displace_type
  _atom_site_B_iso_or_equiv
  _atom_site_type_symbol
  Nb1      1.0000 0.12492  0.00036  0.12492  Biso   1.000  Nb
  Hf1      1.0000 0.12495  0.50038  0.37396  Biso   1.000  Hf
  Hf2      1.0000 0.37396  0.50037  0.12493  Biso   1.000  Hf
  Hf3      1.0000 0.37490  0.00107  0.37489  Biso   1.000  Hf
  O1       1.0000 0.99573  0.29232  0.99566  Biso   1.000  O 
  O2       1.0000 0.00362  0.20519  0.24619  Biso   1.000  O 
  O3       1.0000 0.99571  0.70844  0.25419  Biso   1.000  O 
  O4       1.0000 0.00361  0.79556  0.00367  Biso   1.000  O 
  O5       1.0000 0.25418  0.29230  0.25420  Biso   1.000  O 
  O6       1.0000 0.24626  0.20519  0.00368  Biso   1.000  O 
  O7       1.0000 0.25420  0.70846  0.99566  Biso   1.000  O 
  O8       1.0000 0.24627  0.79556  0.24619  Biso   1.000  O 
  Hf4      1.0000 0.12494  0.00038  0.62492  Biso   1.000  Hf
  Hf5      1.0000 0.12496  0.50040  0.87590  Biso   1.000  Hf
  Hf6      1.0000 0.37483  0.50038  0.62493  Biso   1.000  Hf
  Hf7      1.0000 0.37493  0.99971  0.87496  Biso   1.000  Hf
  O9       1.0000 0.99670  0.29443  0.49521  Biso   1.000  O 
  O10      1.0000 0.00127  0.20702  0.74702  Biso   1.000  O 
  O11      1.0000 0.99670  0.70632  0.75465  Biso   1.000  O 
  O12      1.0000 0.00125  0.79374  0.50283  Biso   1.000  O 
  O13      1.0000 0.25322  0.29444  0.75466  Biso   1.000  O 
  O14      1.0000 0.24865  0.20701  0.50285  Biso   1.000  O 
  O15      1.0000 0.25320  0.70631  0.49520  Biso   1.000  O 
  O16      1.0000 0.24866  0.79375  0.74702  Biso   1.000  O 
  Hf8      1.0000 0.62492  0.00037  0.12492  Biso   1.000  Hf
  Hf9      1.0000 0.62495  0.50038  0.37481  Biso   1.000  Hf
  Hf10     1.0000 0.87592  0.50038  0.12493  Biso   1.000  Hf
  Hf11     1.0000 0.87497  0.99970  0.37489  Biso   1.000  Hf
  O17      1.0000 0.49528  0.29444  0.99666  Biso   1.000  O 
  O18      1.0000 0.50282  0.20700  0.24860  Biso   1.000  O 
  O19      1.0000 0.49524  0.70630  0.25320  Biso   1.000  O 
  O20      1.0000 0.50280  0.79373  0.00126  Biso   1.000  O 
  O21      1.0000 0.75464  0.29443  0.25320  Biso   1.000  O 
  O22      1.0000 0.74705  0.20701  0.00127  Biso   1.000  O 
  O23      1.0000 0.75466  0.70633  0.99666  Biso   1.000  O 
  O24      1.0000 0.74706  0.79374  0.24860  Biso   1.000  O 
  Hf12     1.0000 0.62494  0.00038  0.62492  Biso   1.000  Hf
  Hf13     1.0000 0.62496  0.50039  0.87505  Biso   1.000  Hf
  Hf14     1.0000 0.87507  0.50038  0.62493  Biso   1.000  Hf
  Hf15     1.0000 0.87498  0.00109  0.87495  Biso   1.000  Hf
  O25      1.0000 0.49703  0.29397  0.49699  Biso   1.000  O 
  O26      1.0000 0.50159  0.20698  0.74828  Biso   1.000  O 
  O27      1.0000 0.49703  0.70677  0.75287  Biso   1.000  O 
  O28      1.0000 0.50157  0.79377  0.50158  Biso   1.000  O 
  O29      1.0000 0.75290  0.29400  0.75288  Biso   1.000  O 
  O30      1.0000 0.74833  0.20698  0.50159  Biso   1.000  O 
  O31      1.0000 0.75288  0.70677  0.49698  Biso   1.000  O 
  O32      1.0000 0.74833  0.79379  0.74827  Biso   1.000  O 
