data_image0
_cell_length_a       10.0175
_cell_length_b       10.4048
_cell_length_c       10.0635
_cell_angle_alpha    90
_cell_angle_beta     90
_cell_angle_gamma    90

_symmetry_space_group_name_H-M    "P 1"
_symmetry_int_tables_number       1

loop_
  _symmetry_equiv_pos_as_xyz
  'x, y, z'

loop_
  _atom_site_label
  _atom_site_occupancy
  _atom_site_fract_x
  _atom_site_fract_y
  _atom_site_fract_z
  _atom_site_thermal_displace_type
  _atom_site_B_iso_or_equiv
  _atom_site_type_symbol
  Hf1      1.0000 0.12914  0.01327  0.12317  Biso   1.000  Hf
  Hf2      1.0000 0.13376  0.22987  0.38399  Biso   1.000  Hf
  Hf3      1.0000 0.38278  0.27169  0.11979  Biso   1.000  Hf
  Hf4      1.0000 0.37040  0.48515  0.37428  Biso   1.000  Hf
  O1       1.0000 0.99907  0.16049  0.23502  Biso   1.000  O 
  O2       1.0000 0.03874  0.06175  0.45556  Biso   1.000  O 
  O3       1.0000 0.47218  0.43702  0.19684  Biso   1.000  O 
  O4       1.0000 0.46929  0.31951  0.44658  Biso   1.000  O 
  O5       1.0000 0.26171  0.11724  0.24888  Biso   1.000  O 
  O6       1.0000 0.27529  0.13195  0.50071  Biso   1.000  O 
  O7       1.0000 0.23496  0.38530  0.49853  Biso   1.000  O 
  O8       1.0000 0.23911  0.36780  0.24828  Biso   1.000  O 
  Hf5      1.0000 0.13597  0.01223  0.62655  Biso   1.000  Hf
  Hf6      1.0000 0.13712  0.23600  0.85334  Biso   1.000  Hf
  Hf7      1.0000 0.37310  0.26855  0.62177  Biso   1.000  Hf
  Hf8      1.0000 0.37437  0.49101  0.87079  Biso   1.000  Hf
  O9       1.0000 0.03364  0.17792  0.68873  Biso   1.000  O 
  O10      1.0000 0.03363  0.06870  0.94409  Biso   1.000  O 
  O11      1.0000 0.47226  0.43510  0.69370  Biso   1.000  O 
  O12      1.0000 0.47282  0.32341  0.94124  Biso   1.000  O 
  O13      1.0000 0.27258  0.11659  0.74722  Biso   1.000  O 
  O14      1.0000 0.25822  0.14900  0.00139  Biso   1.000  O 
  O15      1.0000 0.24219  0.40025  0.99513  Biso   1.000  O 
  O16      1.0000 0.23967  0.37043  0.74414  Biso   1.000  O 
  Hf9      1.0000 0.14048  0.53216  0.12134  Biso   1.000  Hf
  Hf10     1.0000 0.13899  0.73523  0.37666  Biso   1.000  Hf
  Hf11     1.0000 0.37147  0.76920  0.12520  Biso   1.000  Hf
  Hf12     1.0000 0.36959  0.98645  0.37486  Biso   1.000  Hf
  O17      1.0000 0.03481  0.68388  0.20216  Biso   1.000  O 
  O18      1.0000 0.03878  0.56853  0.44685  Biso   1.000  O 
  O19      1.0000 0.46672  0.93507  0.19651  Biso   1.000  O 
  O20      1.0000 0.47235  0.81967  0.44631  Biso   1.000  O 
  O21      1.0000 0.27850  0.62251  0.24879  Biso   1.000  O 
  O22      1.0000 0.27489  0.63396  0.49842  Biso   1.000  O 
  O23      1.0000 0.23778  0.88265  0.49898  Biso   1.000  O 
  O24      1.0000 0.23384  0.86743  0.24917  Biso   1.000  O 
  Hf13     1.0000 0.13782  0.51714  0.62399  Biso   1.000  Hf
  Hf14     1.0000 0.13691  0.73903  0.87113  Biso   1.000  Hf
  Hf15     1.0000 0.37361  0.76672  0.62345  Biso   1.000  Hf
  Hf16     1.0000 0.37383  0.98638  0.87421  Biso   1.000  Hf
  O25      1.0000 0.04010  0.68371  0.69359  Biso   1.000  O 
  O26      1.0000 0.03800  0.57307  0.94602  Biso   1.000  O 
  O27      1.0000 0.47323  0.93400  0.69779  Biso   1.000  O 
  O28      1.0000 0.47389  0.82298  0.94648  Biso   1.000  O 
  O29      1.0000 0.27373  0.61858  0.74628  Biso   1.000  O 
  O30      1.0000 0.27501  0.64639  0.99481  Biso   1.000  O 
  O31      1.0000 0.23791  0.89138  0.99770  Biso   1.000  O 
  O32      1.0000 0.23994  0.86665  0.74844  Biso   1.000  O 
  Hf17     1.0000 0.63019  0.01129  0.12464  Biso   1.000  Hf
  Hf18     1.0000 0.63445  0.23213  0.37781  Biso   1.000  Hf
  Hf19     1.0000 0.84846  0.25968  0.12792  Biso   1.000  Hf
  Hf20     1.0000 0.87250  0.48161  0.37504  Biso   1.000  Hf
  O33      1.0000 0.53490  0.18036  0.20096  Biso   1.000  O 
  O34      1.0000 0.53431  0.06787  0.44821  Biso   1.000  O 
  O35      1.0000 0.97550  0.42168  0.19854  Biso   1.000  O 
  O36      1.0000 0.97015  0.32172  0.45493  Biso   1.000  O 
  O37      1.0000 0.75637  0.11039  0.25021  Biso   1.000  O 
  O38      1.0000 0.77301  0.13567  0.49789  Biso   1.000  O 
  O39      1.0000 0.73477  0.38492  0.50047  Biso   1.000  O 
  O40      1.0000 0.72966  0.36875  0.25327  Biso   1.000  O 
  Hf21     1.0000 0.63640  0.01547  0.62303  Biso   1.000  Hf
  Hf22     1.0000 0.63703  0.23466  0.87218  Biso   1.000  Hf
  Hf23     1.0000 0.86665  0.26801  0.62559  Biso   1.000  Hf
  Hf24     1.0000 0.87063  0.48468  0.87745  Biso   1.000  Hf
  O41      1.0000 0.53896  0.18405  0.69508  Biso   1.000  O 
  O42      1.0000 0.52971  0.07497  0.94964  Biso   1.000  O 
  O43      1.0000 0.97441  0.42994  0.70448  Biso   1.000  O 
  O44      1.0000 0.97066  0.31803  0.95292  Biso   1.000  O 
  O45      1.0000 0.77171  0.11654  0.74772  Biso   1.000  O 
  O46      1.0000 0.76777  0.13154  0.99772  Biso   1.000  O 
  O47      1.0000 0.73047  0.38491  0.99998  Biso   1.000  O 
  O48      1.0000 0.73507  0.36920  0.75052  Biso   1.000  O 
  Hf25     1.0000 0.63811  0.51935  0.12603  Biso   1.000  Hf
  Hf26     1.0000 0.63937  0.73549  0.37516  Biso   1.000  Hf
  Hf27     1.0000 0.86810  0.76423  0.12561  Biso   1.000  Hf
  Hf28     1.0000 0.87839  0.98888  0.36974  Biso   1.000  Hf
  O49      1.0000 0.54115  0.68655  0.19493  Biso   1.000  O 
  O50      1.0000 0.53870  0.56906  0.44572  Biso   1.000  O 
  O51      1.0000 0.96659  0.92711  0.19250  Biso   1.000  O 
  O52      1.0000 0.97145  0.81926  0.44551  Biso   1.000  O 
  O53      1.0000 0.77551  0.61509  0.24872  Biso   1.000  O 
  O54      1.0000 0.77437  0.63465  0.49817  Biso   1.000  O 
  O55      1.0000 0.73946  0.88695  0.49590  Biso   1.000  O 
  O56      1.0000 0.73373  0.86480  0.24732  Biso   1.000  O 
  Hf29     1.0000 0.63980  0.51880  0.62415  Biso   1.000  Hf
  Hf30     1.0000 0.64019  0.73617  0.87439  Biso   1.000  Hf
  Hf31     1.0000 0.87210  0.76772  0.62245  Biso   1.000  Hf
  Hf32     1.0000 0.87323  0.98369  0.87471  Biso   1.000  Hf
  O57      1.0000 0.54040  0.68418  0.69685  Biso   1.000  O 
  O58      1.0000 0.53957  0.57269  0.94721  Biso   1.000  O 
  O59      1.0000 0.97423  0.92935  0.70004  Biso   1.000  O 
  O60      1.0000 0.97099  0.81843  0.94795  Biso   1.000  O 
  O61      1.0000 0.77640  0.61721  0.74868  Biso   1.000  O 
  O62      1.0000 0.77506  0.63451  0.99783  Biso   1.000  O 
  O63      1.0000 0.73508  0.88424  0.99712  Biso   1.000  O 
  O64      1.0000 0.73675  0.86693  0.74643  Biso   1.000  O 
  Nb1      1.0000 0.11128  0.28043  0.10916  Biso   1.000  Nb
