data_image0
_cell_length_a       4.96716
_cell_length_b       10.3563
_cell_length_c       9.99429
_cell_angle_alpha    90
_cell_angle_beta     90
_cell_angle_gamma    90

_symmetry_space_group_name_H-M    "P 1"
_symmetry_int_tables_number       1

loop_
  _symmetry_equiv_pos_as_xyz
  'x, y, z'

loop_
  _atom_site_label
  _atom_site_occupancy
  _atom_site_fract_x
  _atom_site_fract_y
  _atom_site_fract_z
  _atom_site_thermal_displace_type
  _atom_site_B_iso_or_equiv
  _atom_site_type_symbol
  Nb1      1.0000 0.27465  0.01848  0.12462  Biso   1.000  Nb
  Hf1      1.0000 0.26665  0.23335  0.37584  Biso   1.000  Hf
  Hf2      1.0000 0.73232  0.26666  0.12592  Biso   1.000  Hf
  Hf3      1.0000 0.73146  0.48415  0.37620  Biso   1.000  Hf
  O1       1.0000 0.07433  0.18274  0.19421  Biso   1.000  O 
  O2       1.0000 0.06973  0.06728  0.44688  Biso   1.000  O 
  O3       1.0000 0.92774  0.43389  0.19423  Biso   1.000  O 
  O4       1.0000 0.92697  0.31652  0.44459  Biso   1.000  O 
  O5       1.0000 0.54035  0.11863  0.24906  Biso   1.000  O 
  O6       1.0000 0.54143  0.13269  0.49932  Biso   1.000  O 
  O7       1.0000 0.45799  0.38262  0.50014  Biso   1.000  O 
  O8       1.0000 0.45874  0.36845  0.25032  Biso   1.000  O 
  Hf4      1.0000 0.26847  0.01708  0.62620  Biso   1.000  Hf
  Hf5      1.0000 0.26857  0.23406  0.87688  Biso   1.000  Hf
  Hf6      1.0000 0.73180  0.26681  0.62623  Biso   1.000  Hf
  Hf7      1.0000 0.73145  0.48438  0.87602  Biso   1.000  Hf
  O9       1.0000 0.07190  0.18441  0.69665  Biso   1.000  O 
  O10      1.0000 0.07520  0.06572  0.94979  Biso   1.000  O 
  O11      1.0000 0.92635  0.43507  0.69380  Biso   1.000  O 
  O12      1.0000 0.92670  0.31593  0.94381  Biso   1.000  O 
  O13      1.0000 0.54140  0.11822  0.75025  Biso   1.000  O 
  O14      1.0000 0.54548  0.13170  0.99997  Biso   1.000  O 
  O15      1.0000 0.45733  0.38142  0.00044  Biso   1.000  O 
  O16      1.0000 0.45811  0.36810  0.75031  Biso   1.000  O 
  Hf8      1.0000 0.26889  0.51702  0.12660  Biso   1.000  Hf
  Hf9      1.0000 0.26907  0.73478  0.37529  Biso   1.000  Hf
  Hf10     1.0000 0.73256  0.76824  0.12501  Biso   1.000  Hf
  Hf11     1.0000 0.73235  0.98437  0.37467  Biso   1.000  Hf
  O17      1.0000 0.07311  0.68508  0.19339  Biso   1.000  O 
  O18      1.0000 0.07359  0.56667  0.44335  Biso   1.000  O 
  O19      1.0000 0.93752  0.93607  0.19216  Biso   1.000  O 
  O20      1.0000 0.92815  0.81701  0.44389  Biso   1.000  O 
  O21      1.0000 0.54256  0.61917  0.24997  Biso   1.000  O 
  O22      1.0000 0.54180  0.63310  0.49986  Biso   1.000  O 
  O23      1.0000 0.45902  0.88335  0.49933  Biso   1.000  O 
  O24      1.0000 0.45979  0.87035  0.24883  Biso   1.000  O 
  Hf12     1.0000 0.26782  0.51704  0.62565  Biso   1.000  Hf
  Hf13     1.0000 0.26688  0.73368  0.87583  Biso   1.000  Hf
  Hf14     1.0000 0.73189  0.76749  0.62591  Biso   1.000  Hf
  Hf15     1.0000 0.73109  0.98388  0.87680  Biso   1.000  Hf
  O25      1.0000 0.07254  0.68498  0.69372  Biso   1.000  O 
  O26      1.0000 0.07353  0.56581  0.94407  Biso   1.000  O 
  O27      1.0000 0.92742  0.93511  0.69551  Biso   1.000  O 
  O28      1.0000 0.92231  0.81565  0.94244  Biso   1.000  O 
  O29      1.0000 0.54100  0.61837  0.74988  Biso   1.000  O 
  O30      1.0000 0.54133  0.63184  0.00019  Biso   1.000  O 
  O31      1.0000 0.44877  0.88164  0.00004  Biso   1.000  O 
  O32      1.0000 0.45875  0.86829  0.75007  Biso   1.000  O 
