data_image0
_cell_length_a       10.0977
_cell_length_b       10.2697
_cell_length_c       10.4436
_cell_angle_alpha    90
_cell_angle_beta     80
_cell_angle_gamma    90

_symmetry_space_group_name_H-M    "P 1"
_symmetry_int_tables_number       1

loop_
  _symmetry_equiv_pos_as_xyz
  'x, y, z'

loop_
  _atom_site_label
  _atom_site_occupancy
  _atom_site_fract_x
  _atom_site_fract_y
  _atom_site_fract_z
  _atom_site_thermal_displace_type
  _atom_site_B_iso_or_equiv
  _atom_site_type_symbol
  Nb1      1.0000 0.13870  0.02345  0.14704  Biso   1.000  Nb
  Hf1      1.0000 0.13847  0.22888  0.39585  Biso   1.000  Hf
  Hf2      1.0000 0.36064  0.27149  0.10443  Biso   1.000  Hf
  Hf3      1.0000 0.36040  0.47888  0.35432  Biso   1.000  Hf
  O1       1.0000 0.03640  0.16594  0.08067  Biso   1.000  O 
  O2       1.0000 0.03898  0.07803  0.32679  Biso   1.000  O 
  O3       1.0000 0.46344  0.42016  0.16912  Biso   1.000  O 
  O4       1.0000 0.46254  0.33026  0.41967  Biso   1.000  O 
  O5       1.0000 0.27688  0.12805  0.24104  Biso   1.000  O 
  O6       1.0000 0.27539  0.12086  0.49129  Biso   1.000  O 
  O7       1.0000 0.22303  0.37892  0.00957  Biso   1.000  O 
  O8       1.0000 0.22325  0.37069  0.25976  Biso   1.000  O 
  Hf4      1.0000 0.13600  0.02098  0.64616  Biso   1.000  Hf
  Hf5      1.0000 0.13512  0.22807  0.89594  Biso   1.000  Hf
  Hf6      1.0000 0.35894  0.27133  0.60453  Biso   1.000  Hf
  Hf7      1.0000 0.35736  0.47848  0.85501  Biso   1.000  Hf
  O9       1.0000 0.03318  0.16805  0.57905  Biso   1.000  O 
  O10      1.0000 0.03176  0.08061  0.83017  Biso   1.000  O 
  O11      1.0000 0.46130  0.41977  0.67004  Biso   1.000  O 
  O12      1.0000 0.45919  0.32934  0.92006  Biso   1.000  O 
  O13      1.0000 0.27356  0.12896  0.74155  Biso   1.000  O 
  O14      1.0000 0.27023  0.12001  0.99324  Biso   1.000  O 
  O15      1.0000 0.22118  0.37881  0.50958  Biso   1.000  O 
  O16      1.0000 0.22001  0.37051  0.75991  Biso   1.000  O 
  Hf8      1.0000 0.13897  0.52153  0.14598  Biso   1.000  Hf
  Hf9      1.0000 0.13805  0.72844  0.39607  Biso   1.000  Hf
  Hf10     1.0000 0.35928  0.77416  0.10484  Biso   1.000  Hf
  Hf11     1.0000 0.36038  0.97808  0.35413  Biso   1.000  Hf
  O17      1.0000 0.03595  0.66841  0.08024  Biso   1.000  O 
  O18      1.0000 0.03512  0.57984  0.33096  Biso   1.000  O 
  O19      1.0000 0.46513  0.91932  0.17076  Biso   1.000  O 
  O20      1.0000 0.46381  0.83041  0.42021  Biso   1.000  O 
  O21      1.0000 0.27601  0.63010  0.24082  Biso   1.000  O 
  O22      1.0000 0.27561  0.62067  0.49110  Biso   1.000  O 
  O23      1.0000 0.21844  0.88096  0.01030  Biso   1.000  O 
  O24      1.0000 0.22076  0.87220  0.25974  Biso   1.000  O 
  Hf12     1.0000 0.13647  0.52127  0.64631  Biso   1.000  Hf
  Hf13     1.0000 0.13533  0.72814  0.89661  Biso   1.000  Hf
  Hf14     1.0000 0.35943  0.77124  0.60471  Biso   1.000  Hf
  Hf15     1.0000 0.35723  0.97850  0.85545  Biso   1.000  Hf
  O25      1.0000 0.03396  0.66922  0.58080  Biso   1.000  O 
  O26      1.0000 0.03244  0.57990  0.83092  Biso   1.000  O 
  O27      1.0000 0.46158  0.91959  0.67057  Biso   1.000  O 
  O28      1.0000 0.45879  0.83064  0.92116  Biso   1.000  O 
  O29      1.0000 0.27394  0.62880  0.74115  Biso   1.000  O 
  O30      1.0000 0.27279  0.62109  0.99151  Biso   1.000  O 
  O31      1.0000 0.22215  0.87865  0.50987  Biso   1.000  O 
  O32      1.0000 0.22054  0.87061  0.76014  Biso   1.000  O 
  Hf16     1.0000 0.63847  0.02175  0.14623  Biso   1.000  Hf
  Hf17     1.0000 0.63784  0.22830  0.39595  Biso   1.000  Hf
  Hf18     1.0000 0.86071  0.27142  0.10418  Biso   1.000  Hf
  Hf19     1.0000 0.86003  0.47822  0.35406  Biso   1.000  Hf
  O33      1.0000 0.53559  0.16974  0.08068  Biso   1.000  O 
  O34      1.0000 0.53530  0.08027  0.33111  Biso   1.000  O 
  O35      1.0000 0.96452  0.41826  0.16972  Biso   1.000  O 
  O36      1.0000 0.96220  0.32866  0.41868  Biso   1.000  O 
  O37      1.0000 0.77731  0.12887  0.24072  Biso   1.000  O 
  O38      1.0000 0.77575  0.12004  0.49034  Biso   1.000  O 
  O39      1.0000 0.72340  0.37921  0.00944  Biso   1.000  O 
  O40      1.0000 0.72244  0.37058  0.25921  Biso   1.000  O 
  Hf20     1.0000 0.63579  0.02098  0.64638  Biso   1.000  Hf
  Hf21     1.0000 0.63480  0.22816  0.89643  Biso   1.000  Hf
  Hf22     1.0000 0.85855  0.27086  0.60425  Biso   1.000  Hf
  Hf23     1.0000 0.85746  0.47814  0.85486  Biso   1.000  Hf
  O41      1.0000 0.53431  0.16998  0.58114  Biso   1.000  O 
  O42      1.0000 0.53163  0.07999  0.83149  Biso   1.000  O 
  O43      1.0000 0.96159  0.41857  0.66997  Biso   1.000  O 
  O44      1.0000 0.96027  0.32954  0.92092  Biso   1.000  O 
  O45      1.0000 0.77311  0.12877  0.74086  Biso   1.000  O 
  O46      1.0000 0.77210  0.12073  0.99103  Biso   1.000  O 
  O47      1.0000 0.72160  0.37897  0.50974  Biso   1.000  O 
  O48      1.0000 0.72002  0.37054  0.76004  Biso   1.000  O 
  Hf24     1.0000 0.63840  0.52234  0.14568  Biso   1.000  Hf
  Hf25     1.0000 0.63852  0.72842  0.39616  Biso   1.000  Hf
  Hf26     1.0000 0.86220  0.77215  0.10387  Biso   1.000  Hf
  Hf27     1.0000 0.86123  0.97809  0.35359  Biso   1.000  Hf
  O49      1.0000 0.53509  0.67072  0.08127  Biso   1.000  O 
  O50      1.0000 0.53553  0.58016  0.33099  Biso   1.000  O 
  O51      1.0000 0.96942  0.91883  0.16873  Biso   1.000  O 
  O52      1.0000 0.96343  0.83084  0.42010  Biso   1.000  O 
  O53      1.0000 0.77667  0.62911  0.24047  Biso   1.000  O 
  O54      1.0000 0.77569  0.62057  0.49100  Biso   1.000  O 
  O55      1.0000 0.72326  0.87954  0.00947  Biso   1.000  O 
  O56      1.0000 0.72543  0.87113  0.25950  Biso   1.000  O 
  Hf28     1.0000 0.63666  0.52123  0.64657  Biso   1.000  Hf
  Hf29     1.0000 0.63468  0.72853  0.89743  Biso   1.000  Hf
  Hf30     1.0000 0.85894  0.77117  0.60484  Biso   1.000  Hf
  Hf31     1.0000 0.85789  0.97818  0.85481  Biso   1.000  Hf
  O57      1.0000 0.53464  0.66964  0.58108  Biso   1.000  O 
  O58      1.0000 0.53251  0.58012  0.83157  Biso   1.000  O 
  O59      1.0000 0.96190  0.91912  0.67007  Biso   1.000  O 
  O60      1.0000 0.95991  0.82960  0.91989  Biso   1.000  O 
  O61      1.0000 0.77388  0.62882  0.74153  Biso   1.000  O 
  O62      1.0000 0.77245  0.62071  0.99141  Biso   1.000  O 
  O63      1.0000 0.72216  0.87897  0.50960  Biso   1.000  O 
  O64      1.0000 0.72014  0.87056  0.76016  Biso   1.000  O 
