data_image0
_cell_length_a       10.1719
_cell_length_b       10.2877
_cell_length_c       10.5151
_cell_angle_alpha    90
_cell_angle_beta     80
_cell_angle_gamma    90

_symmetry_space_group_name_H-M    "P 1"
_symmetry_int_tables_number       1

loop_
  _symmetry_equiv_pos_as_xyz
  'x, y, z'

loop_
  _atom_site_label
  _atom_site_occupancy
  _atom_site_fract_x
  _atom_site_fract_y
  _atom_site_fract_z
  _atom_site_thermal_displace_type
  _atom_site_B_iso_or_equiv
  _atom_site_type_symbol
  Hf1      1.0000 0.13648  0.02216  0.14560  Biso   1.000  Hf
  Hf2      1.0000 0.15045  0.23237  0.38846  Biso   1.000  Hf
  Hf3      1.0000 0.34222  0.27370  0.08388  Biso   1.000  Hf
  Hf4      1.0000 0.35437  0.47993  0.35223  Biso   1.000  Hf
  O1       1.0000 0.03356  0.16947  0.07692  Biso   1.000  O 
  O2       1.0000 0.04176  0.08165  0.32814  Biso   1.000  O 
  O3       1.0000 0.46424  0.40191  0.17995  Biso   1.000  O 
  O4       1.0000 0.48536  0.34786  0.42904  Biso   1.000  O 
  O5       1.0000 0.28186  0.12268  0.23070  Biso   1.000  O 
  O6       1.0000 0.30776  0.13508  0.46560  Biso   1.000  O 
  O7       1.0000 0.22245  0.38437  0.99571  Biso   1.000  O 
  O8       1.0000 0.20971  0.37609  0.24572  Biso   1.000  O 
  Hf5      1.0000 0.14056  0.01745  0.64694  Biso   1.000  Hf
  Hf6      1.0000 0.14084  0.22715  0.88826  Biso   1.000  Hf
  Hf7      1.0000 0.36903  0.27250  0.60337  Biso   1.000  Hf
  Hf8      1.0000 0.36524  0.48088  0.84846  Biso   1.000  Hf
  O9       1.0000 0.05190  0.16693  0.57506  Biso   1.000  O 
  O10      1.0000 0.03852  0.07943  0.82738  Biso   1.000  O 
  O11      1.0000 0.47198  0.41681  0.67179  Biso   1.000  O 
  O12      1.0000 0.47272  0.33537  0.91685  Biso   1.000  O 
  O13      1.0000 0.28101  0.12596  0.73163  Biso   1.000  O 
  O14      1.0000 0.27958  0.12013  0.97886  Biso   1.000  O 
  O15      1.0000 0.22810  0.38052  0.50839  Biso   1.000  O 
  O16      1.0000 0.23026  0.36916  0.75356  Biso   1.000  O 
  Hf9      1.0000 0.13563  0.52515  0.14293  Biso   1.000  Hf
  Hf10     1.0000 0.13799  0.72790  0.39630  Biso   1.000  Hf
  Hf11     1.0000 0.35685  0.77097  0.10331  Biso   1.000  Hf
  Hf12     1.0000 0.36228  0.96603  0.35183  Biso   1.000  Hf
  O17      1.0000 0.02930  0.67115  0.07830  Biso   1.000  O 
  O18      1.0000 0.03442  0.58693  0.32619  Biso   1.000  O 
  O19      1.0000 0.46604  0.91260  0.17273  Biso   1.000  O 
  O20      1.0000 0.46300  0.82138  0.42217  Biso   1.000  O 
  O21      1.0000 0.27596  0.62784  0.24035  Biso   1.000  O 
  O22      1.0000 0.27375  0.62358  0.49198  Biso   1.000  O 
  O23      1.0000 0.21990  0.88029  0.00929  Biso   1.000  O 
  O24      1.0000 0.21981  0.86594  0.25723  Biso   1.000  O 
  Hf13     1.0000 0.14210  0.52206  0.64497  Biso   1.000  Hf
  Hf14     1.0000 0.14181  0.72818  0.89564  Biso   1.000  Hf
  Hf15     1.0000 0.36506  0.76911  0.60359  Biso   1.000  Hf
  Hf16     1.0000 0.36589  0.97484  0.85109  Biso   1.000  Hf
  O25      1.0000 0.03397  0.66545  0.57896  Biso   1.000  O 
  O26      1.0000 0.03965  0.58102  0.82893  Biso   1.000  O 
  O27      1.0000 0.46910  0.91552  0.67059  Biso   1.000  O 
  O28      1.0000 0.47190  0.83174  0.92087  Biso   1.000  O 
  O29      1.0000 0.27992  0.62716  0.73931  Biso   1.000  O 
  O30      1.0000 0.28318  0.62270  0.98766  Biso   1.000  O 
  O31      1.0000 0.22498  0.88305  0.50979  Biso   1.000  O 
  O32      1.0000 0.22696  0.86899  0.75859  Biso   1.000  O 
  Hf17     1.0000 0.64089  0.02193  0.15409  Biso   1.000  Hf
  Hf18     1.0000 0.65870  0.22665  0.40547  Biso   1.000  Hf
  Hf19     1.0000 0.85889  0.27223  0.10807  Biso   1.000  Hf
  Hf20     1.0000 0.86652  0.47733  0.35569  Biso   1.000  Hf
  O33      1.0000 0.52032  0.16602  0.08620  Biso   1.000  O 
  O34      1.0000 0.54971  0.05868  0.34773  Biso   1.000  O 
  O35      1.0000 0.96293  0.42113  0.16879  Biso   1.000  O 
  O36      1.0000 0.97242  0.33372  0.42271  Biso   1.000  O 
  O37      1.0000 0.78761  0.12647  0.24515  Biso   1.000  O 
  O38      1.0000 0.79193  0.11514  0.49831  Biso   1.000  O 
  O39      1.0000 0.71745  0.37800  0.01512  Biso   1.000  O 
  O40      1.0000 0.73075  0.37340  0.26533  Biso   1.000  O 
  Hf21     1.0000 0.64625  0.02039  0.64772  Biso   1.000  Hf
  Hf22     1.0000 0.64520  0.22788  0.89846  Biso   1.000  Hf
  Hf23     1.0000 0.87354  0.26885  0.60624  Biso   1.000  Hf
  Hf24     1.0000 0.86607  0.47682  0.85584  Biso   1.000  Hf
  O41      1.0000 0.54435  0.16883  0.58307  Biso   1.000  O 
  O42      1.0000 0.54121  0.08192  0.83052  Biso   1.000  O 
  O43      1.0000 0.97143  0.41582  0.67359  Biso   1.000  O 
  O44      1.0000 0.96775  0.32855  0.91928  Biso   1.000  O 
  O45      1.0000 0.78343  0.12789  0.74477  Biso   1.000  O 
  O46      1.0000 0.78011  0.12034  0.99492  Biso   1.000  O 
  O47      1.0000 0.73602  0.37626  0.51607  Biso   1.000  O 
  O48      1.0000 0.73013  0.36882  0.76312  Biso   1.000  O 
  Hf25     1.0000 0.63635  0.52082  0.15069  Biso   1.000  Hf
  Hf26     1.0000 0.63914  0.72465  0.39690  Biso   1.000  Hf
  Hf27     1.0000 0.85593  0.77205  0.10583  Biso   1.000  Hf
  Hf28     1.0000 0.86241  0.97696  0.35597  Biso   1.000  Hf
  O49      1.0000 0.52778  0.66045  0.07822  Biso   1.000  O 
  O50      1.0000 0.53123  0.58273  0.32704  Biso   1.000  O 
  O51      1.0000 0.96272  0.91626  0.17226  Biso   1.000  O 
  O52      1.0000 0.96645  0.83291  0.42439  Biso   1.000  O 
  O53      1.0000 0.77360  0.62788  0.24126  Biso   1.000  O 
  O54      1.0000 0.77775  0.61939  0.49086  Biso   1.000  O 
  O55      1.0000 0.71721  0.87966  0.01370  Biso   1.000  O 
  O56      1.0000 0.72358  0.86917  0.26156  Biso   1.000  O 
  Hf29     1.0000 0.64488  0.51975  0.64702  Biso   1.000  Hf
  Hf30     1.0000 0.64346  0.72507  0.89732  Biso   1.000  Hf
  Hf31     1.0000 0.86164  0.77021  0.60456  Biso   1.000  Hf
  Hf32     1.0000 0.86045  0.97632  0.85691  Biso   1.000  Hf
  O57      1.0000 0.53731  0.66390  0.58013  Biso   1.000  O 
  O58      1.0000 0.53937  0.58302  0.82695  Biso   1.000  O 
  O59      1.0000 0.96566  0.91504  0.67392  Biso   1.000  O 
  O60      1.0000 0.96899  0.83217  0.92064  Biso   1.000  O 
  O61      1.0000 0.78078  0.62694  0.74157  Biso   1.000  O 
  O62      1.0000 0.78185  0.61885  0.99135  Biso   1.000  O 
  O63      1.0000 0.72357  0.87591  0.51122  Biso   1.000  O 
  O64      1.0000 0.72590  0.86957  0.76150  Biso   1.000  O 
  Nb1      1.0000 0.44817  0.22361  0.28709  Biso   1.000  Nb
