data_image0
_cell_length_a       10.0832
_cell_length_b       10.1922
_cell_length_c       10.0073
_cell_angle_alpha    90
_cell_angle_beta     90
_cell_angle_gamma    90

_symmetry_space_group_name_H-M    "P 1"
_symmetry_int_tables_number       1

loop_
  _symmetry_equiv_pos_as_xyz
  'x, y, z'

loop_
  _atom_site_label
  _atom_site_occupancy
  _atom_site_fract_x
  _atom_site_fract_y
  _atom_site_fract_z
  _atom_site_thermal_displace_type
  _atom_site_B_iso_or_equiv
  _atom_site_type_symbol
  Ni1      1.0000 0.12943  0.04007  0.13789  Biso   1.000  Ni
  Hf1      1.0000 0.07766  0.99431  0.63419  Biso   1.000  Hf
  Hf2      1.0000 0.12382  0.49177  0.12045  Biso   1.000  Hf
  Hf3      1.0000 0.07163  0.51806  0.62370  Biso   1.000  Hf
  Hf4      1.0000 0.64050  0.02184  0.12547  Biso   1.000  Hf
  Hf5      1.0000 0.57552  0.99219  0.63558  Biso   1.000  Hf
  Hf6      1.0000 0.62305  0.49112  0.11568  Biso   1.000  Hf
  Hf7      1.0000 0.57220  0.51439  0.62243  Biso   1.000  Hf
  Hf8      1.0000 0.10046  0.24377  0.38197  Biso   1.000  Hf
  Hf9      1.0000 0.06747  0.25936  0.85308  Biso   1.000  Hf
  Hf10     1.0000 0.10112  0.74426  0.36507  Biso   1.000  Hf
  Hf11     1.0000 0.09285  0.75005  0.88648  Biso   1.000  Hf
  Hf12     1.0000 0.60137  0.24135  0.37957  Biso   1.000  Hf
  Hf13     1.0000 0.56945  0.25387  0.85754  Biso   1.000  Hf
  Hf14     1.0000 0.59900  0.74302  0.37003  Biso   1.000  Hf
  Hf15     1.0000 0.59788  0.76050  0.89457  Biso   1.000  Hf
  Hf16     1.0000 0.37404  0.24770  0.11551  Biso   1.000  Hf
  Hf17     1.0000 0.32598  0.22995  0.62440  Biso   1.000  Hf
  Hf18     1.0000 0.38160  0.72730  0.12187  Biso   1.000  Hf
  Hf19     1.0000 0.32890  0.75535  0.62905  Biso   1.000  Hf
  Hf20     1.0000 0.87576  0.25816  0.11722  Biso   1.000  Hf
  Hf21     1.0000 0.82297  0.23573  0.62301  Biso   1.000  Hf
  Hf22     1.0000 0.88231  0.73477  0.13125  Biso   1.000  Hf
  Hf23     1.0000 0.82678  0.75725  0.63499  Biso   1.000  Hf
  Hf24     1.0000 0.35226  0.00070  0.36643  Biso   1.000  Hf
  Hf25     1.0000 0.33841  0.98232  0.89419  Biso   1.000  Hf
  Hf26     1.0000 0.35017  0.50611  0.37887  Biso   1.000  Hf
  Hf27     1.0000 0.32137  0.48910  0.85899  Biso   1.000  Hf
  Hf28     1.0000 0.85613  0.00290  0.37479  Biso   1.000  Hf
  Hf29     1.0000 0.85415  0.99028  0.90373  Biso   1.000  Hf
  Hf30     1.0000 0.84960  0.50893  0.38059  Biso   1.000  Hf
  Hf31     1.0000 0.81623  0.49589  0.86031  Biso   1.000  Hf
  O1       1.0000 0.03172  0.14556  0.00992  Biso   1.000  O 
  O2       1.0000 0.96485  0.15264  0.49925  Biso   1.000  O 
  O3       1.0000 0.01490  0.64796  0.00804  Biso   1.000  O 
  O4       1.0000 0.96102  0.65895  0.50189  Biso   1.000  O 
  O5       1.0000 0.47207  0.13917  0.99534  Biso   1.000  O 
  O6       1.0000 0.46457  0.15121  0.49637  Biso   1.000  O 
  O7       1.0000 0.47067  0.63641  0.99575  Biso   1.000  O 
  O8       1.0000 0.45979  0.65499  0.49689  Biso   1.000  O 
  O9       1.0000 0.99125  0.09091  0.25069  Biso   1.000  O 
  O10      1.0000 0.94370  0.11035  0.75663  Biso   1.000  O 
  O11      1.0000 0.99395  0.59235  0.25017  Biso   1.000  O 
  O12      1.0000 0.93795  0.60934  0.74661  Biso   1.000  O 
  O13      1.0000 0.48877  0.09522  0.24857  Biso   1.000  O 
  O14      1.0000 0.44345  0.10033  0.74964  Biso   1.000  O 
  O15      1.0000 0.49441  0.58953  0.24674  Biso   1.000  O 
  O16      1.0000 0.43128  0.59988  0.73452  Biso   1.000  O 
  O17      1.0000 0.03363  0.33629  0.21807  Biso   1.000  O 
  O18      1.0000 0.94943  0.36301  0.72438  Biso   1.000  O 
  O19      1.0000 0.93790  0.83760  0.29319  Biso   1.000  O 
  O20      1.0000 0.95990  0.85524  0.77695  Biso   1.000  O 
  O21      1.0000 0.53695  0.33228  0.21334  Biso   1.000  O 
  O22      1.0000 0.45242  0.35447  0.72621  Biso   1.000  O 
  O23      1.0000 0.43761  0.83598  0.28261  Biso   1.000  O 
  O24      1.0000 0.46236  0.84639  0.76811  Biso   1.000  O 
  O25      1.0000 0.94976  0.39643  0.97890  Biso   1.000  O 
  O26      1.0000 0.00495  0.40961  0.46727  Biso   1.000  O 
  O27      1.0000 0.02506  0.90410  0.03797  Biso   1.000  O 
  O28      1.0000 0.91557  0.91442  0.54109  Biso   1.000  O 
  O29      1.0000 0.44927  0.39079  0.97967  Biso   1.000  O 
  O30      1.0000 0.50548  0.40714  0.46557  Biso   1.000  O 
  O31      1.0000 0.51511  0.88787  0.02399  Biso   1.000  O 
  O32      1.0000 0.41815  0.91126  0.52999  Biso   1.000  O 
  O33      1.0000 0.23400  0.15523  0.24512  Biso   1.000  O 
  O34      1.0000 0.19189  0.14197  0.74878  Biso   1.000  O 
  O35      1.0000 0.23644  0.64830  0.24600  Biso   1.000  O 
  O36      1.0000 0.19027  0.64399  0.74767  Biso   1.000  O 
  O37      1.0000 0.75000  0.15723  0.25036  Biso   1.000  O 
  O38      1.0000 0.68603  0.14809  0.73680  Biso   1.000  O 
  O39      1.0000 0.73708  0.65131  0.25142  Biso   1.000  O 
  O40      1.0000 0.68779  0.64533  0.75285  Biso   1.000  O 
  O41      1.0000 0.27694  0.07544  0.02774  Biso   1.000  O 
  O42      1.0000 0.21174  0.09497  0.49950  Biso   1.000  O 
  O43      1.0000 0.21551  0.58795  0.99701  Biso   1.000  O 
  O44      1.0000 0.21449  0.60128  0.49727  Biso   1.000  O 
  O45      1.0000 0.77553  0.11061  0.00076  Biso   1.000  O 
  O46      1.0000 0.71180  0.09347  0.49821  Biso   1.000  O 
  O47      1.0000 0.76290  0.60899  0.00114  Biso   1.000  O 
  O48      1.0000 0.71613  0.60120  0.50209  Biso   1.000  O 
  O49      1.0000 0.20356  0.33480  0.97899  Biso   1.000  O 
  O50      1.0000 0.25544  0.34207  0.46959  Biso   1.000  O 
  O51      1.0000 0.23489  0.83121  0.99124  Biso   1.000  O 
  O52      1.0000 0.17301  0.84605  0.51793  Biso   1.000  O 
  O53      1.0000 0.69928  0.35318  0.98033  Biso   1.000  O 
  O54      1.0000 0.75384  0.34450  0.46886  Biso   1.000  O 
  O55      1.0000 0.76704  0.86277  0.02354  Biso   1.000  O 
  O56      1.0000 0.66898  0.83867  0.53252  Biso   1.000  O 
  O57      1.0000 0.28494  0.40680  0.21673  Biso   1.000  O 
  O58      1.0000 0.19879  0.39039  0.72840  Biso   1.000  O 
  O59      1.0000 0.18920  0.91555  0.25593  Biso   1.000  O 
  O60      1.0000 0.21138  0.89644  0.75542  Biso   1.000  O 
  O61      1.0000 0.78564  0.41321  0.21602  Biso   1.000  O 
  O62      1.0000 0.70090  0.39408  0.72901  Biso   1.000  O 
  O63      1.0000 0.68882  0.90844  0.27931  Biso   1.000  O 
  O64      1.0000 0.71264  0.90109  0.77258  Biso   1.000  O 
