data_image0
_cell_length_a       10.0809
_cell_length_b       5.08943
_cell_length_c       10.4519
_cell_angle_alpha    90
_cell_angle_beta     80
_cell_angle_gamma    90

_symmetry_space_group_name_H-M    "P 1"
_symmetry_int_tables_number       1

loop_
  _symmetry_equiv_pos_as_xyz
  'x, y, z'

loop_
  _atom_site_label
  _atom_site_occupancy
  _atom_site_fract_x
  _atom_site_fract_y
  _atom_site_fract_z
  _atom_site_thermal_displace_type
  _atom_site_B_iso_or_equiv
  _atom_site_type_symbol
  Ni1      1.0000 0.12204  0.02064  0.17067  Biso   1.000  Ni
  Hf1      1.0000 0.12871  0.03468  0.64494  Biso   1.000  Hf
  Hf2      1.0000 0.63472  0.04093  0.14483  Biso   1.000  Hf
  Hf3      1.0000 0.62844  0.03949  0.64950  Biso   1.000  Hf
  Hf4      1.0000 0.13466  0.45455  0.39214  Biso   1.000  Hf
  Hf5      1.0000 0.13112  0.44705  0.89718  Biso   1.000  Hf
  Hf6      1.0000 0.63446  0.45408  0.39622  Biso   1.000  Hf
  Hf7      1.0000 0.62790  0.45811  0.90133  Biso   1.000  Hf
  Hf8      1.0000 0.35562  0.55179  0.10019  Biso   1.000  Hf
  Hf9      1.0000 0.35583  0.54266  0.60565  Biso   1.000  Hf
  Hf10     1.0000 0.87280  0.52758  0.10750  Biso   1.000  Hf
  Hf11     1.0000 0.85409  0.53547  0.60781  Biso   1.000  Hf
  Hf12     1.0000 0.36084  0.95807  0.35058  Biso   1.000  Hf
  Hf13     1.0000 0.35426  0.96926  0.85875  Biso   1.000  Hf
  Hf14     1.0000 0.85844  0.95119  0.35667  Biso   1.000  Hf
  Hf15     1.0000 0.85740  0.94934  0.85970  Biso   1.000  Hf
  O1       1.0000 0.04792  0.30121  0.08362  Biso   1.000  O 
  O2       1.0000 0.02462  0.31241  0.56983  Biso   1.000  O 
  O3       1.0000 0.53406  0.33497  0.07804  Biso   1.000  O 
  O4       1.0000 0.52840  0.33164  0.57776  Biso   1.000  O 
  O5       1.0000 0.03067  0.15750  0.32291  Biso   1.000  O 
  O6       1.0000 0.02375  0.16461  0.82727  Biso   1.000  O 
  O7       1.0000 0.52876  0.16497  0.32805  Biso   1.000  O 
  O8       1.0000 0.52541  0.17230  0.82778  Biso   1.000  O 
  O9       1.0000 0.46822  0.82749  0.17464  Biso   1.000  O 
  O10      1.0000 0.46069  0.83238  0.67407  Biso   1.000  O 
  O11      1.0000 0.97340  0.83207  0.17536  Biso   1.000  O 
  O12      1.0000 0.96392  0.81311  0.67882  Biso   1.000  O 
  O13      1.0000 0.46178  0.66606  0.42194  Biso   1.000  O 
  O14      1.0000 0.45977  0.68511  0.92824  Biso   1.000  O 
  O15      1.0000 0.96142  0.66161  0.42509  Biso   1.000  O 
  O16      1.0000 0.95889  0.65637  0.93279  Biso   1.000  O 
  O17      1.0000 0.26264  0.24532  0.22903  Biso   1.000  O 
  O18      1.0000 0.26444  0.25060  0.73318  Biso   1.000  O 
  O19      1.0000 0.77285  0.25014  0.24176  Biso   1.000  O 
  O20      1.0000 0.76932  0.25178  0.74351  Biso   1.000  O 
  O21      1.0000 0.27096  0.24330  0.48473  Biso   1.000  O 
  O22      1.0000 0.28416  0.29051  0.97056  Biso   1.000  O 
  O23      1.0000 0.77051  0.23671  0.49189  Biso   1.000  O 
  O24      1.0000 0.76563  0.23769  0.99486  Biso   1.000  O 
  O25      1.0000 0.22595  0.81077  0.01903  Biso   1.000  O 
  O26      1.0000 0.21906  0.75265  0.50792  Biso   1.000  O 
  O27      1.0000 0.73300  0.75466  0.01295  Biso   1.000  O 
  O28      1.0000 0.71892  0.75133  0.51251  Biso   1.000  O 
  O29      1.0000 0.21396  0.74963  0.25748  Biso   1.000  O 
  O30      1.0000 0.21916  0.73702  0.76454  Biso   1.000  O 
  O31      1.0000 0.73084  0.73523  0.26007  Biso   1.000  O 
  O32      1.0000 0.71853  0.74026  0.76423  Biso   1.000  O 
