data_image0
_cell_length_a       9.90797
_cell_length_b       10.3583
_cell_length_c       4.98892
_cell_angle_alpha    90
_cell_angle_beta     90
_cell_angle_gamma    90

_symmetry_space_group_name_H-M    "P 1"
_symmetry_int_tables_number       1

loop_
  _symmetry_equiv_pos_as_xyz
  'x, y, z'

loop_
  _atom_site_label
  _atom_site_occupancy
  _atom_site_fract_x
  _atom_site_fract_y
  _atom_site_fract_z
  _atom_site_thermal_displace_type
  _atom_site_B_iso_or_equiv
  _atom_site_type_symbol
  Ni1      1.0000 0.12853  0.03986  0.20979  Biso   1.000  Ni
  Hf1      1.0000 0.13301  0.51333  0.25234  Biso   1.000  Hf
  Hf2      1.0000 0.63387  0.01354  0.24513  Biso   1.000  Hf
  Hf3      1.0000 0.63301  0.51796  0.25564  Biso   1.000  Hf
  Hf4      1.0000 0.13698  0.22904  0.74273  Biso   1.000  Hf
  Hf5      1.0000 0.13448  0.72832  0.76067  Biso   1.000  Hf
  Hf6      1.0000 0.63702  0.22865  0.75028  Biso   1.000  Hf
  Hf7      1.0000 0.63585  0.73273  0.75382  Biso   1.000  Hf
  Hf8      1.0000 0.36643  0.26265  0.25196  Biso   1.000  Hf
  Hf9      1.0000 0.36196  0.76606  0.26537  Biso   1.000  Hf
  Hf10     1.0000 0.86286  0.26415  0.24246  Biso   1.000  Hf
  Hf11     1.0000 0.87261  0.76979  0.24150  Biso   1.000  Hf
  Hf12     1.0000 0.36961  0.48081  0.75249  Biso   1.000  Hf
  Hf13     1.0000 0.35780  0.97721  0.76123  Biso   1.000  Hf
  Hf14     1.0000 0.86662  0.48100  0.74842  Biso   1.000  Hf
  Hf15     1.0000 0.86894  0.98249  0.73571  Biso   1.000  Hf
  O1       1.0000 0.04041  0.18028  0.36970  Biso   1.000  O 
  O2       1.0000 0.03592  0.68161  0.39186  Biso   1.000  O 
  O3       1.0000 0.53435  0.18076  0.39550  Biso   1.000  O 
  O4       1.0000 0.53308  0.68154  0.40123  Biso   1.000  O 
  O5       1.0000 0.04232  0.06039  0.89865  Biso   1.000  O 
  O6       1.0000 0.03712  0.55828  0.89503  Biso   1.000  O 
  O7       1.0000 0.53682  0.06486  0.90061  Biso   1.000  O 
  O8       1.0000 0.54065  0.56219  0.89268  Biso   1.000  O 
  O9       1.0000 0.46423  0.43035  0.38827  Biso   1.000  O 
  O10      1.0000 0.46756  0.92922  0.41008  Biso   1.000  O 
  O11      1.0000 0.96479  0.42691  0.38732  Biso   1.000  O 
  O12      1.0000 0.97782  0.94173  0.37213  Biso   1.000  O 
  O13      1.0000 0.46496  0.30942  0.88763  Biso   1.000  O 
  O14      1.0000 0.46638  0.81517  0.90746  Biso   1.000  O 
  O15      1.0000 0.96501  0.30813  0.87297  Biso   1.000  O 
  O16      1.0000 0.96313  0.81285  0.87341  Biso   1.000  O 
  O17      1.0000 0.26262  0.10334  0.49284  Biso   1.000  O 
  O18      1.0000 0.26834  0.60686  0.50245  Biso   1.000  O 
  O19      1.0000 0.77210  0.11534  0.48995  Biso   1.000  O 
  O20      1.0000 0.77193  0.61544  0.50012  Biso   1.000  O 
  O21      1.0000 0.25820  0.13293  0.00574  Biso   1.000  O 
  O22      1.0000 0.26533  0.63551  0.00402  Biso   1.000  O 
  O23      1.0000 0.77691  0.12781  0.98789  Biso   1.000  O 
  O24      1.0000 0.76540  0.63620  0.00196  Biso   1.000  O 
  O25      1.0000 0.23326  0.37670  0.99586  Biso   1.000  O 
  O26      1.0000 0.21543  0.89565  0.04502  Biso   1.000  O 
  O27      1.0000 0.73407  0.37732  0.99947  Biso   1.000  O 
  O28      1.0000 0.73324  0.88078  0.98824  Biso   1.000  O 
  O29      1.0000 0.23192  0.36086  0.49726  Biso   1.000  O 
  O30      1.0000 0.24468  0.84810  0.54523  Biso   1.000  O 
  O31      1.0000 0.72875  0.36513  0.49716  Biso   1.000  O 
  O32      1.0000 0.73737  0.86498  0.48880  Biso   1.000  O 
