data_image0
_cell_length_a       10.1152
_cell_length_b       10.3008
_cell_length_c       10.4592
_cell_angle_alpha    90
_cell_angle_beta     80
_cell_angle_gamma    90

_symmetry_space_group_name_H-M    "P 1"
_symmetry_int_tables_number       1

loop_
  _symmetry_equiv_pos_as_xyz
  'x, y, z'

loop_
  _atom_site_label
  _atom_site_occupancy
  _atom_site_fract_x
  _atom_site_fract_y
  _atom_site_fract_z
  _atom_site_thermal_displace_type
  _atom_site_B_iso_or_equiv
  _atom_site_type_symbol
  Hf1      1.0000 0.13704  0.02260  0.14770  Biso   1.000  Hf
  Hf2      1.0000 0.13764  0.22964  0.39773  Biso   1.000  Hf
  Hf3      1.0000 0.35943  0.27520  0.10192  Biso   1.000  Hf
  Hf4      1.0000 0.35477  0.47509  0.34973  Biso   1.000  Hf
  O1       1.0000 0.03452  0.17040  0.08113  Biso   1.000  O 
  O2       1.0000 0.03511  0.07984  0.33081  Biso   1.000  O 
  O3       1.0000 0.45820  0.42931  0.16160  Biso   1.000  O 
  O4       1.0000 0.47137  0.34076  0.42559  Biso   1.000  O 
  O5       1.0000 0.27931  0.13031  0.24370  Biso   1.000  O 
  O6       1.0000 0.27100  0.11199  0.49614  Biso   1.000  O 
  O7       1.0000 0.22112  0.38153  0.00659  Biso   1.000  O 
  O8       1.0000 0.20918  0.37545  0.25524  Biso   1.000  O 
  Hf5      1.0000 0.13371  0.01745  0.64850  Biso   1.000  Hf
  Hf6      1.0000 0.13232  0.22536  0.89759  Biso   1.000  Hf
  Hf7      1.0000 0.35602  0.26911  0.60792  Biso   1.000  Hf
  Hf8      1.0000 0.35469  0.47562  0.85537  Biso   1.000  Hf
  O9       1.0000 0.03285  0.16744  0.58213  Biso   1.000  O 
  O10      1.0000 0.03015  0.07691  0.83194  Biso   1.000  O 
  O11      1.0000 0.45968  0.41549  0.67236  Biso   1.000  O 
  O12      1.0000 0.45841  0.32732  0.91934  Biso   1.000  O 
  O13      1.0000 0.27185  0.12666  0.74351  Biso   1.000  O 
  O14      1.0000 0.26944  0.11779  0.99319  Biso   1.000  O 
  O15      1.0000 0.22034  0.37582  0.51187  Biso   1.000  O 
  O16      1.0000 0.21791  0.36762  0.76009  Biso   1.000  O 
  Hf9      1.0000 0.13545  0.52232  0.14433  Biso   1.000  Hf
  Hf10     1.0000 0.13388  0.72540  0.39700  Biso   1.000  Hf
  Hf11     1.0000 0.35825  0.77136  0.10420  Biso   1.000  Hf
  Hf12     1.0000 0.35551  0.96745  0.35842  Biso   1.000  Hf
  O17      1.0000 0.03286  0.67231  0.08036  Biso   1.000  O 
  O18      1.0000 0.03065  0.58103  0.32942  Biso   1.000  O 
  O19      1.0000 0.46016  0.91914  0.17215  Biso   1.000  O 
  O20      1.0000 0.45932  0.82394  0.42187  Biso   1.000  O 
  O21      1.0000 0.27249  0.62978  0.24074  Biso   1.000  O 
  O22      1.0000 0.27062  0.61629  0.49083  Biso   1.000  O 
  O23      1.0000 0.22106  0.88065  0.01074  Biso   1.000  O 
  O24      1.0000 0.21846  0.86948  0.26079  Biso   1.000  O 
  Hf13     1.0000 0.13371  0.51910  0.64669  Biso   1.000  Hf
  Hf14     1.0000 0.13093  0.72606  0.89755  Biso   1.000  Hf
  Hf15     1.0000 0.35608  0.76638  0.60636  Biso   1.000  Hf
  Hf16     1.0000 0.35357  0.97564  0.85613  Biso   1.000  Hf
  O25      1.0000 0.02941  0.66595  0.58107  Biso   1.000  O 
  O26      1.0000 0.02986  0.57748  0.83181  Biso   1.000  O 
  O27      1.0000 0.45744  0.91597  0.67072  Biso   1.000  O 
  O28      1.0000 0.45653  0.82778  0.92094  Biso   1.000  O 
  O29      1.0000 0.27069  0.62562  0.74179  Biso   1.000  O 
  O30      1.0000 0.26905  0.61847  0.99130  Biso   1.000  O 
  O31      1.0000 0.21762  0.87266  0.51230  Biso   1.000  O 
  O32      1.0000 0.21686  0.86773  0.76146  Biso   1.000  O 
  Hf17     1.0000 0.63783  0.02066  0.14586  Biso   1.000  Hf
  Hf18     1.0000 0.64383  0.22733  0.39902  Biso   1.000  Hf
  Hf19     1.0000 0.85896  0.27192  0.10427  Biso   1.000  Hf
  Hf20     1.0000 0.85861  0.47715  0.35410  Biso   1.000  Hf
  O33      1.0000 0.53419  0.16826  0.07944  Biso   1.000  O 
  O34      1.0000 0.53869  0.07064  0.33747  Biso   1.000  O 
  O35      1.0000 0.95960  0.42169  0.16774  Biso   1.000  O 
  O36      1.0000 0.96106  0.33006  0.42096  Biso   1.000  O 
  O37      1.0000 0.77540  0.12855  0.24074  Biso   1.000  O 
  O38      1.0000 0.77626  0.11772  0.49246  Biso   1.000  O 
  O39      1.0000 0.72171  0.37988  0.00998  Biso   1.000  O 
  O40      1.0000 0.72100  0.37021  0.25997  Biso   1.000  O 
  Hf21     1.0000 0.63388  0.01854  0.64658  Biso   1.000  Hf
  Hf22     1.0000 0.63298  0.22505  0.89685  Biso   1.000  Hf
  Hf23     1.0000 0.85871  0.26882  0.60634  Biso   1.000  Hf
  Hf24     1.0000 0.85493  0.47541  0.85591  Biso   1.000  Hf
  O41      1.0000 0.53211  0.16706  0.58051  Biso   1.000  O 
  O42      1.0000 0.53022  0.07741  0.83072  Biso   1.000  O 
  O43      1.0000 0.95949  0.41706  0.67150  Biso   1.000  O 
  O44      1.0000 0.95701  0.32644  0.92022  Biso   1.000  O 
  O45      1.0000 0.77131  0.12617  0.74183  Biso   1.000  O 
  O46      1.0000 0.76998  0.11728  0.99181  Biso   1.000  O 
  O47      1.0000 0.72143  0.37622  0.51163  Biso   1.000  O 
  O48      1.0000 0.71855  0.36791  0.76105  Biso   1.000  O 
  Hf25     1.0000 0.63609  0.52296  0.14561  Biso   1.000  Hf
  Hf26     1.0000 0.63558  0.72482  0.39609  Biso   1.000  Hf
  Hf27     1.0000 0.85802  0.77186  0.10444  Biso   1.000  Hf
  Hf28     1.0000 0.85822  0.97656  0.35477  Biso   1.000  Hf
  O49      1.0000 0.53512  0.67318  0.08040  Biso   1.000  O 
  O50      1.0000 0.53127  0.57996  0.32875  Biso   1.000  O 
  O51      1.0000 0.96160  0.92052  0.16924  Biso   1.000  O 
  O52      1.0000 0.95959  0.82905  0.42073  Biso   1.000  O 
  O53      1.0000 0.77374  0.62909  0.24100  Biso   1.000  O 
  O54      1.0000 0.77192  0.61793  0.49116  Biso   1.000  O 
  O55      1.0000 0.72088  0.88062  0.00991  Biso   1.000  O 
  O56      1.0000 0.72041  0.86986  0.26004  Biso   1.000  O 
  Hf29     1.0000 0.63430  0.51826  0.64741  Biso   1.000  Hf
  Hf30     1.0000 0.63147  0.72567  0.89682  Biso   1.000  Hf
  Hf31     1.0000 0.85493  0.76880  0.60498  Biso   1.000  Hf
  Hf32     1.0000 0.85328  0.97549  0.85528  Biso   1.000  Hf
  O57      1.0000 0.53132  0.66518  0.58132  Biso   1.000  O 
  O58      1.0000 0.52953  0.57785  0.83155  Biso   1.000  O 
  O59      1.0000 0.95717  0.91655  0.67058  Biso   1.000  O 
  O60      1.0000 0.95577  0.82739  0.92037  Biso   1.000  O 
  O61      1.0000 0.77080  0.62622  0.74159  Biso   1.000  O 
  O62      1.0000 0.76907  0.61786  0.99157  Biso   1.000  O 
  O63      1.0000 0.71811  0.87659  0.51018  Biso   1.000  O 
  O64      1.0000 0.71626  0.86799  0.76045  Biso   1.000  O 
  Ni1      1.0000 0.40832  0.21284  0.32857  Biso   1.000  Ni
