data_image0
_cell_length_a       10.0528
_cell_length_b       10.3294
_cell_length_c       5.07735
_cell_angle_alpha    90
_cell_angle_beta     90
_cell_angle_gamma    90

_symmetry_space_group_name_H-M    "P 1"
_symmetry_int_tables_number       1

loop_
  _symmetry_equiv_pos_as_xyz
  'x, y, z'

loop_
  _atom_site_label
  _atom_site_occupancy
  _atom_site_fract_x
  _atom_site_fract_y
  _atom_site_fract_z
  _atom_site_thermal_displace_type
  _atom_site_B_iso_or_equiv
  _atom_site_type_symbol
  Hf1      1.0000 0.13084  0.96664  0.24152  Biso   1.000  Hf
  Hf2      1.0000 0.13423  0.22855  0.67386  Biso   1.000  Hf
  Hf3      1.0000 0.39947  0.25995  0.25154  Biso   1.000  Hf
  Hf4      1.0000 0.38771  0.00245  0.69940  Biso   1.000  Hf
  O1       1.0000 0.99004  0.16039  0.95040  Biso   1.000  O 
  O2       1.0000 0.00288  0.09150  0.47069  Biso   1.000  O 
  O3       1.0000 0.98954  0.35875  0.54719  Biso   1.000  O 
  O4       1.0000 0.99942  0.40383  0.05459  Biso   1.000  O 
  O5       1.0000 0.26171  0.12694  0.42382  Biso   1.000  O 
  O6       1.0000 0.22624  0.05458  0.90752  Biso   1.000  O 
  O7       1.0000 0.27089  0.31320  0.93947  Biso   1.000  O 
  O8       1.0000 0.24910  0.38318  0.47729  Biso   1.000  O 
  Hf5      1.0000 0.10746  0.50435  0.31052  Biso   1.000  Hf
  Hf6      1.0000 0.09925  0.75122  0.75223  Biso   1.000  Hf
  Hf7      1.0000 0.35606  0.72356  0.29047  Biso   1.000  Hf
  Hf8      1.0000 0.36399  0.48180  0.77681  Biso   1.000  Hf
  O9       1.0000 0.99902  0.65066  0.04081  Biso   1.000  O 
  O10      1.0000 0.98313  0.60722  0.54748  Biso   1.000  O 
  O11      1.0000 0.99931  0.84685  0.46766  Biso   1.000  O 
  O12      1.0000 0.98436  0.89880  0.97267  Biso   1.000  O 
  O13      1.0000 0.23673  0.62917  0.57235  Biso   1.000  O 
  O14      1.0000 0.26166  0.56433  0.08405  Biso   1.000  O 
  O15      1.0000 0.22666  0.81292  0.04853  Biso   1.000  O 
  O16      1.0000 0.24953  0.87441  0.52515  Biso   1.000  O 
  Hf9      1.0000 0.60983  0.99673  0.20241  Biso   1.000  Hf
  Hf10     1.0000 0.63620  0.26734  0.77917  Biso   1.000  Hf
  Hf11     1.0000 0.89157  0.24799  0.24965  Biso   1.000  Hf
  Hf12     1.0000 0.86393  0.01761  0.73711  Biso   1.000  Hf
  O17      1.0000 0.49322  0.14184  0.96911  Biso   1.000  O 
  O18      1.0000 0.51428  0.10951  0.46583  Biso   1.000  O 
  O19      1.0000 0.49335  0.35178  0.54810  Biso   1.000  O 
  O20      1.0000 0.50727  0.40254  0.04064  Biso   1.000  O 
  O21      1.0000 0.77147  0.18071  0.55116  Biso   1.000  O 
  O22      1.0000 0.74969  0.11767  0.02444  Biso   1.000  O 
  O23      1.0000 0.75372  0.36832  0.06130  Biso   1.000  O 
  O24      1.0000 0.72919  0.43057  0.57411  Biso   1.000  O 
  Hf13     1.0000 0.63126  0.51892  0.27221  Biso   1.000  Hf
  Hf14     1.0000 0.59888  0.74336  0.75616  Biso   1.000  Hf
  Hf15     1.0000 0.85451  0.77199  0.22274  Biso   1.000  Hf
  Hf16     1.0000 0.87948  0.49681  0.80569  Biso   1.000  Hf
  O25      1.0000 0.49546  0.64884  0.02855  Biso   1.000  O 
  O26      1.0000 0.48653  0.59823  0.52908  Biso   1.000  O 
  O27      1.0000 0.50017  0.85371  0.46256  Biso   1.000  O 
  O28      1.0000 0.48418  0.89115  0.95694  Biso   1.000  O 
  O29      1.0000 0.72392  0.68072  0.46215  Biso   1.000  O 
  O30      1.0000 0.74136  0.61553  0.98770  Biso   1.000  O 
  O31      1.0000 0.73479  0.86376  0.94399  Biso   1.000  O 
  O32      1.0000 0.76155  0.93157  0.43159  Biso   1.000  O 
  Ni1      1.0000 0.15389  0.19916  0.14977  Biso   1.000  Ni
