data_image0
_cell_length_a       9.93398
_cell_length_b       5.1861
_cell_length_c       9.96037
_cell_angle_alpha    90
_cell_angle_beta     90
_cell_angle_gamma    90

_symmetry_space_group_name_H-M    "P 1"
_symmetry_int_tables_number       1

loop_
  _symmetry_equiv_pos_as_xyz
  'x, y, z'

loop_
  _atom_site_label
  _atom_site_occupancy
  _atom_site_fract_x
  _atom_site_fract_y
  _atom_site_fract_z
  _atom_site_thermal_displace_type
  _atom_site_B_iso_or_equiv
  _atom_site_type_symbol
  Ni1      1.0000 0.12182  0.06689  0.10609  Biso   1.000  Ni
  Hf1      1.0000 0.14556  0.99826  0.63155  Biso   1.000  Hf
  Hf2      1.0000 0.64126  0.03741  0.12680  Biso   1.000  Hf
  Hf3      1.0000 0.63271  0.98747  0.61392  Biso   1.000  Hf
  Hf4      1.0000 0.14130  0.41252  0.37197  Biso   1.000  Hf
  Hf5      1.0000 0.14148  0.42826  0.88628  Biso   1.000  Hf
  Hf6      1.0000 0.64250  0.44823  0.37857  Biso   1.000  Hf
  Hf7      1.0000 0.64592  0.41580  0.86586  Biso   1.000  Hf
  Hf8      1.0000 0.38903  0.52462  0.11003  Biso   1.000  Hf
  Hf9      1.0000 0.37082  0.50216  0.63035  Biso   1.000  Hf
  Hf10     1.0000 0.87049  0.53620  0.11916  Biso   1.000  Hf
  Hf11     1.0000 0.88052  0.48877  0.61682  Biso   1.000  Hf
  Hf12     1.0000 0.36480  0.91706  0.37078  Biso   1.000  Hf
  Hf13     1.0000 0.36589  0.92797  0.88521  Biso   1.000  Hf
  Hf14     1.0000 0.87605  0.94916  0.37127  Biso   1.000  Hf
  Hf15     1.0000 0.87155  0.91709  0.86694  Biso   1.000  Hf
  O1       1.0000 0.04329  0.35791  0.18035  Biso   1.000  O 
  O2       1.0000 0.04247  0.32570  0.70587  Biso   1.000  O 
  O3       1.0000 0.54296  0.36409  0.20198  Biso   1.000  O 
  O4       1.0000 0.54165  0.32597  0.69082  Biso   1.000  O 
  O5       1.0000 0.03374  0.11066  0.46374  Biso   1.000  O 
  O6       1.0000 0.04643  0.07352  0.94266  Biso   1.000  O 
  O7       1.0000 0.54131  0.10666  0.43510  Biso   1.000  O 
  O8       1.0000 0.53246  0.11273  0.95951  Biso   1.000  O 
  O9       1.0000 0.46942  0.86531  0.18770  Biso   1.000  O 
  O10      1.0000 0.46563  0.83823  0.70087  Biso   1.000  O 
  O11      1.0000 0.97973  0.86840  0.18449  Biso   1.000  O 
  O12      1.0000 0.97296  0.82264  0.69045  Biso   1.000  O 
  O13      1.0000 0.48079  0.61928  0.46162  Biso   1.000  O 
  O14      1.0000 0.47037  0.59477  0.92893  Biso   1.000  O 
  O15      1.0000 0.97073  0.59993  0.43147  Biso   1.000  O 
  O16      1.0000 0.96619  0.57937  0.93656  Biso   1.000  O 
  O17      1.0000 0.22173  0.09050  0.26064  Biso   1.000  O 
  O18      1.0000 0.27989  0.20501  0.76011  Biso   1.000  O 
  O19      1.0000 0.78212  0.22831  0.24639  Biso   1.000  O 
  O20      1.0000 0.77300  0.17794  0.74307  Biso   1.000  O 
  O21      1.0000 0.28119  0.22321  0.50064  Biso   1.000  O 
  O22      1.0000 0.25424  0.26846  0.01899  Biso   1.000  O 
  O23      1.0000 0.77339  0.23545  0.49597  Biso   1.000  O 
  O24      1.0000 0.78001  0.21132  0.99398  Biso   1.000  O 
  O25      1.0000 0.23037  0.72215  0.50490  Biso   1.000  O 
  O26      1.0000 0.22049  0.78795  0.01893  Biso   1.000  O 
  O27      1.0000 0.74430  0.73995  0.49429  Biso   1.000  O 
  O28      1.0000 0.73487  0.71225  0.99217  Biso   1.000  O 
  O29      1.0000 0.28189  0.59708  0.26962  Biso   1.000  O 
  O30      1.0000 0.23280  0.69950  0.75982  Biso   1.000  O 
  O31      1.0000 0.73730  0.72828  0.24415  Biso   1.000  O 
  O32      1.0000 0.73895  0.68006  0.74055  Biso   1.000  O 
