data_image0
_cell_length_a       9.98606
_cell_length_b       5.08395
_cell_length_c       10.3977
_cell_angle_alpha    90
_cell_angle_beta     90
_cell_angle_gamma    90

_symmetry_space_group_name_H-M    "P 1"
_symmetry_int_tables_number       1

loop_
  _symmetry_equiv_pos_as_xyz
  'x, y, z'

loop_
  _atom_site_label
  _atom_site_occupancy
  _atom_site_fract_x
  _atom_site_fract_y
  _atom_site_fract_z
  _atom_site_thermal_displace_type
  _atom_site_B_iso_or_equiv
  _atom_site_type_symbol
  Ni1      1.0000 0.12120  0.02177  0.19324  Biso   1.000  Ni
  Hf1      1.0000 0.13020  0.03730  0.66920  Biso   1.000  Hf
  Hf2      1.0000 0.13467  0.45861  0.41597  Biso   1.000  Hf
  Hf3      1.0000 0.13454  0.45218  0.92305  Biso   1.000  Hf
  Hf4      1.0000 0.35509  0.55485  0.16572  Biso   1.000  Hf
  Hf5      1.0000 0.35622  0.54344  0.67125  Biso   1.000  Hf
  Hf6      1.0000 0.35734  0.96236  0.41774  Biso   1.000  Hf
  Hf7      1.0000 0.35446  0.96484  0.92400  Biso   1.000  Hf
  Hf8      1.0000 0.63965  0.04353  0.07796  Biso   1.000  Hf
  Hf9      1.0000 0.62923  0.03858  0.58054  Biso   1.000  Hf
  Hf10     1.0000 0.63223  0.45490  0.32758  Biso   1.000  Hf
  Hf11     1.0000 0.63269  0.45909  0.83106  Biso   1.000  Hf
  Hf12     1.0000 0.87375  0.52873  0.08446  Biso   1.000  Hf
  Hf13     1.0000 0.85458  0.53545  0.58061  Biso   1.000  Hf
  Hf14     1.0000 0.85733  0.95331  0.33141  Biso   1.000  Hf
  Hf15     1.0000 0.85983  0.95193  0.83285  Biso   1.000  Hf
  O1       1.0000 0.04972  0.30723  0.09392  Biso   1.000  O 
  O2       1.0000 0.02462  0.31418  0.57462  Biso   1.000  O 
  O3       1.0000 0.03150  0.15535  0.33149  Biso   1.000  O 
  O4       1.0000 0.02560  0.16994  0.83236  Biso   1.000  O 
  O5       1.0000 0.47200  0.83969  0.08607  Biso   1.000  O 
  O6       1.0000 0.45921  0.84244  0.58551  Biso   1.000  O 
  O7       1.0000 0.45415  0.65114  0.33907  Biso   1.000  O 
  O8       1.0000 0.46129  0.66810  0.83429  Biso   1.000  O 
  O9       1.0000 0.26336  0.23805  0.27883  Biso   1.000  O 
  O10      1.0000 0.26805  0.24048  0.78590  Biso   1.000  O 
  O11      1.0000 0.30499  0.30980  0.02278  Biso   1.000  O 
  O12      1.0000 0.27057  0.25595  0.53764  Biso   1.000  O 
  O13      1.0000 0.21169  0.75852  0.29117  Biso   1.000  O 
  O14      1.0000 0.21839  0.74299  0.79798  Biso   1.000  O 
  O15      1.0000 0.21963  0.80311  0.05286  Biso   1.000  O 
  O16      1.0000 0.21829  0.75011  0.54213  Biso   1.000  O 
  O17      1.0000 0.53473  0.34404  0.16176  Biso   1.000  O 
  O18      1.0000 0.52972  0.34181  0.66141  Biso   1.000  O 
  O19      1.0000 0.52825  0.15497  0.40974  Biso   1.000  O 
  O20      1.0000 0.53005  0.15677  0.91031  Biso   1.000  O 
  O21      1.0000 0.97210  0.83712  0.16973  Biso   1.000  O 
  O22      1.0000 0.96547  0.81508  0.67101  Biso   1.000  O 
  O23      1.0000 0.96103  0.66100  0.41675  Biso   1.000  O 
  O24      1.0000 0.96262  0.66034  0.92482  Biso   1.000  O 
  O25      1.0000 0.77205  0.24454  0.95874  Biso   1.000  O 
  O26      1.0000 0.76933  0.24239  0.45607  Biso   1.000  O 
  O27      1.0000 0.77576  0.24869  0.20740  Biso   1.000  O 
  O28      1.0000 0.77073  0.24769  0.70726  Biso   1.000  O 
  O29      1.0000 0.72071  0.74128  0.95870  Biso   1.000  O 
  O30      1.0000 0.71781  0.74186  0.45700  Biso   1.000  O 
  O31      1.0000 0.73033  0.74694  0.20689  Biso   1.000  O 
  O32      1.0000 0.71990  0.75198  0.70742  Biso   1.000  O 
