data_image0
_cell_length_a       10.0263
_cell_length_b       10.2586
_cell_length_c       10.4638
_cell_angle_alpha    90
_cell_angle_beta     90
_cell_angle_gamma    90

_symmetry_space_group_name_H-M    "P 1"
_symmetry_int_tables_number       1

loop_
  _symmetry_equiv_pos_as_xyz
  'x, y, z'

loop_
  _atom_site_label
  _atom_site_occupancy
  _atom_site_fract_x
  _atom_site_fract_y
  _atom_site_fract_z
  _atom_site_thermal_displace_type
  _atom_site_B_iso_or_equiv
  _atom_site_type_symbol
  Hf1      1.0000 0.13860  0.02141  0.17168  Biso   1.000  Hf
  Hf2      1.0000 0.13713  0.22988  0.42321  Biso   1.000  Hf
  Hf3      1.0000 0.35389  0.27172  0.17498  Biso   1.000  Hf
  Hf4      1.0000 0.36179  0.48033  0.42139  Biso   1.000  Hf
  Hf5      1.0000 0.64227  0.02291  0.07401  Biso   1.000  Hf
  Hf6      1.0000 0.63990  0.22985  0.33184  Biso   1.000  Hf
  Hf7      1.0000 0.85969  0.26923  0.07986  Biso   1.000  Hf
  Hf8      1.0000 0.86225  0.48072  0.33094  Biso   1.000  Hf
  O1       1.0000 0.03369  0.16551  0.08459  Biso   1.000  O 
  O2       1.0000 0.03297  0.08505  0.33486  Biso   1.000  O 
  O3       1.0000 0.46020  0.42737  0.09320  Biso   1.000  O 
  O4       1.0000 0.46575  0.33338  0.33455  Biso   1.000  O 
  O5       1.0000 0.27451  0.12538  0.29631  Biso   1.000  O 
  O6       1.0000 0.27626  0.12563  0.04463  Biso   1.000  O 
  O7       1.0000 0.22113  0.37542  0.29662  Biso   1.000  O 
  O8       1.0000 0.22227  0.37613  0.04456  Biso   1.000  O 
  O9       1.0000 0.52497  0.15755  0.17031  Biso   1.000  O 
  O10      1.0000 0.53346  0.08538  0.41684  Biso   1.000  O 
  O11      1.0000 0.96618  0.41580  0.16742  Biso   1.000  O 
  O12      1.0000 0.96605  0.33580  0.41828  Biso   1.000  O 
  O13      1.0000 0.77639  0.12546  0.45632  Biso   1.000  O 
  O14      1.0000 0.77657  0.12694  0.20867  Biso   1.000  O 
  O15      1.0000 0.72276  0.37424  0.45805  Biso   1.000  O 
  O16      1.0000 0.72463  0.38271  0.21091  Biso   1.000  O 
  Hf9      1.0000 0.13974  0.02275  0.67177  Biso   1.000  Hf
  Hf10     1.0000 0.13738  0.23102  0.92154  Biso   1.000  Hf
  Hf11     1.0000 0.36074  0.27325  0.67204  Biso   1.000  Hf
  Hf12     1.0000 0.35940  0.48300  0.92101  Biso   1.000  Hf
  Hf13     1.0000 0.63877  0.02265  0.57960  Biso   1.000  Hf
  Hf14     1.0000 0.63810  0.22759  0.82754  Biso   1.000  Hf
  Hf15     1.0000 0.86077  0.27251  0.58083  Biso   1.000  Hf
  Hf16     1.0000 0.86129  0.48153  0.82962  Biso   1.000  Hf
  O17      1.0000 0.03312  0.16776  0.58540  Biso   1.000  O 
  O18      1.0000 0.03477  0.08558  0.83336  Biso   1.000  O 
  O19      1.0000 0.46621  0.41835  0.58439  Biso   1.000  O 
  O20      1.0000 0.46581  0.33697  0.83450  Biso   1.000  O 
  O21      1.0000 0.27712  0.12614  0.79513  Biso   1.000  O 
  O22      1.0000 0.27616  0.12766  0.54537  Biso   1.000  O 
  O23      1.0000 0.22241  0.37597  0.79538  Biso   1.000  O 
  O24      1.0000 0.22344  0.37761  0.54554  Biso   1.000  O 
  O25      1.0000 0.53283  0.16889  0.66433  Biso   1.000  O 
  O26      1.0000 0.53693  0.07463  0.90591  Biso   1.000  O 
  O27      1.0000 0.96601  0.41819  0.66717  Biso   1.000  O 
  O28      1.0000 0.96454  0.33683  0.91686  Biso   1.000  O 
  O29      1.0000 0.78638  0.12152  0.95100  Biso   1.000  O 
  O30      1.0000 0.77682  0.12633  0.70377  Biso   1.000  O 
  O31      1.0000 0.71821  0.37525  0.95951  Biso   1.000  O 
  O32      1.0000 0.72382  0.37779  0.70759  Biso   1.000  O 
  Hf17     1.0000 0.13770  0.52184  0.17147  Biso   1.000  Hf
  Hf18     1.0000 0.13876  0.73020  0.42150  Biso   1.000  Hf
  Hf19     1.0000 0.36036  0.77368  0.17177  Biso   1.000  Hf
  Hf20     1.0000 0.36021  0.98043  0.42248  Biso   1.000  Hf
  Hf21     1.0000 0.64001  0.53079  0.08209  Biso   1.000  Hf
  Hf22     1.0000 0.63856  0.73253  0.33025  Biso   1.000  Hf
  Hf23     1.0000 0.86188  0.77288  0.07953  Biso   1.000  Hf
  Hf24     1.0000 0.86014  0.98000  0.32954  Biso   1.000  Hf
  O33      1.0000 0.03305  0.66596  0.08409  Biso   1.000  O 
  O34      1.0000 0.03379  0.58569  0.33388  Biso   1.000  O 
  O35      1.0000 0.46616  0.91701  0.08348  Biso   1.000  O 
  O36      1.0000 0.46555  0.83577  0.33555  Biso   1.000  O 
  O37      1.0000 0.27650  0.62503  0.29471  Biso   1.000  O 
  O38      1.0000 0.27651  0.62670  0.04463  Biso   1.000  O 
  O39      1.0000 0.22315  0.87550  0.29552  Biso   1.000  O 
  O40      1.0000 0.22205  0.87569  0.04555  Biso   1.000  O 
  O41      1.0000 0.53420  0.67229  0.16676  Biso   1.000  O 
  O42      1.0000 0.53389  0.58500  0.41541  Biso   1.000  O 
  O43      1.0000 0.96636  0.91670  0.16692  Biso   1.000  O 
  O44      1.0000 0.96593  0.83422  0.41581  Biso   1.000  O 
  O45      1.0000 0.77593  0.62531  0.45632  Biso   1.000  O 
  O46      1.0000 0.77755  0.63044  0.20706  Biso   1.000  O 
  O47      1.0000 0.72299  0.87580  0.45614  Biso   1.000  O 
  O48      1.0000 0.72362  0.87860  0.20547  Biso   1.000  O 
  Hf25     1.0000 0.13832  0.52247  0.67128  Biso   1.000  Hf
  Hf26     1.0000 0.13800  0.73156  0.92168  Biso   1.000  Hf
  Hf27     1.0000 0.36077  0.77223  0.67144  Biso   1.000  Hf
  Hf28     1.0000 0.36012  0.98026  0.92106  Biso   1.000  Hf
  Hf29     1.0000 0.63855  0.52245  0.57952  Biso   1.000  Hf
  Hf30     1.0000 0.63792  0.73130  0.82849  Biso   1.000  Hf
  Hf31     1.0000 0.86137  0.77234  0.57892  Biso   1.000  Hf
  Hf32     1.0000 0.86156  0.97960  0.82766  Biso   1.000  Hf
  O49      1.0000 0.03311  0.66698  0.58389  Biso   1.000  O 
  O50      1.0000 0.03243  0.58669  0.83375  Biso   1.000  O 
  O51      1.0000 0.46551  0.91795  0.58532  Biso   1.000  O 
  O52      1.0000 0.46372  0.83177  0.83510  Biso   1.000  O 
  O53      1.0000 0.27561  0.62505  0.79488  Biso   1.000  O 
  O54      1.0000 0.27625  0.62723  0.54480  Biso   1.000  O 
  O55      1.0000 0.22275  0.87545  0.79484  Biso   1.000  O 
  O56      1.0000 0.22313  0.87727  0.54501  Biso   1.000  O 
  O57      1.0000 0.53303  0.66774  0.66560  Biso   1.000  O 
  O58      1.0000 0.53365  0.58583  0.91705  Biso   1.000  O 
  O59      1.0000 0.96731  0.91704  0.66470  Biso   1.000  O 
  O60      1.0000 0.96681  0.83674  0.91662  Biso   1.000  O 
  O61      1.0000 0.77704  0.62687  0.95596  Biso   1.000  O 
  O62      1.0000 0.77607  0.62768  0.70587  Biso   1.000  O 
  O63      1.0000 0.72291  0.87461  0.95539  Biso   1.000  O 
  O64      1.0000 0.72292  0.87711  0.70506  Biso   1.000  O 
  Ni1      1.0000 0.58924  0.28513  0.06205  Biso   1.000  Ni
