data_image0
_cell_length_a       5.00266
_cell_length_b       10.4123
_cell_length_c       10.0373
_cell_angle_alpha    90
_cell_angle_beta     90
_cell_angle_gamma    90

_symmetry_space_group_name_H-M    "P 1"
_symmetry_int_tables_number       1

loop_
  _symmetry_equiv_pos_as_xyz
  'x, y, z'

loop_
  _atom_site_label
  _atom_site_occupancy
  _atom_site_fract_x
  _atom_site_fract_y
  _atom_site_fract_z
  _atom_site_thermal_displace_type
  _atom_site_B_iso_or_equiv
  _atom_site_type_symbol
  Hf1      1.0000 0.27045  0.01747  0.12282  Biso   1.000  Hf
  Hf2      1.0000 0.28014  0.23254  0.38400  Biso   1.000  Hf
  Hf3      1.0000 0.71519  0.26076  0.12058  Biso   1.000  Hf
  Hf4      1.0000 0.74669  0.48397  0.37679  Biso   1.000  Hf
  O1       1.0000 0.03816  0.17023  0.21506  Biso   1.000  O 
  O2       1.0000 0.08377  0.06586  0.45015  Biso   1.000  O 
  O3       1.0000 0.93632  0.43185  0.19105  Biso   1.000  O 
  O4       1.0000 0.94467  0.31996  0.44930  Biso   1.000  O 
  O5       1.0000 0.53143  0.11618  0.25146  Biso   1.000  O 
  O6       1.0000 0.55787  0.13470  0.50100  Biso   1.000  O 
  O7       1.0000 0.47537  0.38406  0.50270  Biso   1.000  O 
  O8       1.0000 0.47468  0.37152  0.25654  Biso   1.000  O 
  Hf5      1.0000 0.28361  0.01716  0.62663  Biso   1.000  Hf
  Hf6      1.0000 0.28172  0.23063  0.87370  Biso   1.000  Hf
  Hf7      1.0000 0.74597  0.26977  0.62946  Biso   1.000  Hf
  Hf8      1.0000 0.74833  0.48594  0.87428  Biso   1.000  Hf
  O9       1.0000 0.08605  0.18461  0.69287  Biso   1.000  O 
  O10      1.0000 0.09738  0.06287  0.94044  Biso   1.000  O 
  O11      1.0000 0.93857  0.43940  0.69295  Biso   1.000  O 
  O12      1.0000 0.92127  0.31548  0.92829  Biso   1.000  O 
  O13      1.0000 0.55528  0.11855  0.74887  Biso   1.000  O 
  O14      1.0000 0.57992  0.12513  0.99458  Biso   1.000  O 
  O15      1.0000 0.44436  0.38027  0.00297  Biso   1.000  O 
  O16      1.0000 0.46877  0.37090  0.75113  Biso   1.000  O 
  Hf9      1.0000 0.27240  0.53052  0.12721  Biso   1.000  Hf
  Hf10     1.0000 0.28175  0.73681  0.37770  Biso   1.000  Hf
  Hf11     1.0000 0.73407  0.76859  0.12572  Biso   1.000  Hf
  Hf12     1.0000 0.74619  0.98632  0.37418  Biso   1.000  Hf
  O17      1.0000 0.07653  0.68804  0.19732  Biso   1.000  O 
  O18      1.0000 0.08791  0.56800  0.44266  Biso   1.000  O 
  O19      1.0000 0.93200  0.93254  0.19293  Biso   1.000  O 
  O20      1.0000 0.94091  0.81839  0.44369  Biso   1.000  O 
  O21      1.0000 0.55430  0.62187  0.25063  Biso   1.000  O 
  O22      1.0000 0.55502  0.63392  0.49952  Biso   1.000  O 
  O23      1.0000 0.47580  0.88504  0.49899  Biso   1.000  O 
  O24      1.0000 0.46471  0.86961  0.24924  Biso   1.000  O 
  Hf13     1.0000 0.28219  0.51809  0.62556  Biso   1.000  Hf
  Hf14     1.0000 0.28521  0.73608  0.87402  Biso   1.000  Hf
  Hf15     1.0000 0.74870  0.76754  0.62422  Biso   1.000  Hf
  Hf16     1.0000 0.75158  0.98209  0.87364  Biso   1.000  Hf
  O25      1.0000 0.08778  0.68631  0.69341  Biso   1.000  O 
  O26      1.0000 0.08784  0.56958  0.94546  Biso   1.000  O 
  O27      1.0000 0.94617  0.93363  0.69370  Biso   1.000  O 
  O28      1.0000 0.94610  0.81686  0.94419  Biso   1.000  O 
  O29      1.0000 0.55453  0.61949  0.74886  Biso   1.000  O 
  O30      1.0000 0.55924  0.63586  0.99872  Biso   1.000  O 
  O31      1.0000 0.47612  0.88211  0.99939  Biso   1.000  O 
  O32      1.0000 0.47807  0.86831  0.74867  Biso   1.000  O 
  Ni1      1.0000 0.20756  0.29261  0.11831  Biso   1.000  Ni
