data_image0
_cell_length_a       9.97674
_cell_length_b       10.2077
_cell_length_c       5.0184
_cell_angle_alpha    90
_cell_angle_beta     90
_cell_angle_gamma    90

_symmetry_space_group_name_H-M    "P 1"
_symmetry_int_tables_number       1

loop_
  _symmetry_equiv_pos_as_xyz
  'x, y, z'

loop_
  _atom_site_label
  _atom_site_occupancy
  _atom_site_fract_x
  _atom_site_fract_y
  _atom_site_fract_z
  _atom_site_thermal_displace_type
  _atom_site_B_iso_or_equiv
  _atom_site_type_symbol
  Ni1      1.0000 0.09556  0.96659  0.26122  Biso   1.000  Ni
  Hf1      1.0000 0.12080  0.51952  0.26539  Biso   1.000  Hf
  Hf2      1.0000 0.61022  0.00608  0.25383  Biso   1.000  Hf
  Hf3      1.0000 0.62501  0.49127  0.25096  Biso   1.000  Hf
  Hf4      1.0000 0.13132  0.27983  0.77446  Biso   1.000  Hf
  Hf5      1.0000 0.12232  0.76612  0.74572  Biso   1.000  Hf
  Hf6      1.0000 0.63345  0.24329  0.74852  Biso   1.000  Hf
  Hf7      1.0000 0.61463  0.76495  0.69983  Biso   1.000  Hf
  Hf8      1.0000 0.36584  0.25558  0.28359  Biso   1.000  Hf
  Hf9      1.0000 0.37593  0.74060  0.21055  Biso   1.000  Hf
  Hf10     1.0000 0.88590  0.24871  0.24011  Biso   1.000  Hf
  Hf11     1.0000 0.85302  0.75450  0.22193  Biso   1.000  Hf
  Hf12     1.0000 0.36239  0.02365  0.80662  Biso   1.000  Hf
  Hf13     1.0000 0.39133  0.50126  0.76253  Biso   1.000  Hf
  Hf14     1.0000 0.86220  0.00798  0.71627  Biso   1.000  Hf
  Hf15     1.0000 0.87092  0.49537  0.74275  Biso   1.000  Hf
  O1       1.0000 0.97338  0.17574  0.89987  Biso   1.000  O 
  O2       1.0000 0.01297  0.66657  0.06447  Biso   1.000  O 
  O3       1.0000 0.47818  0.14404  0.02817  Biso   1.000  O 
  O4       1.0000 0.52428  0.64651  0.97575  Biso   1.000  O 
  O5       1.0000 0.00858  0.09099  0.41219  Biso   1.000  O 
  O6       1.0000 0.00850  0.60678  0.56497  Biso   1.000  O 
  O7       1.0000 0.50547  0.10481  0.53122  Biso   1.000  O 
  O8       1.0000 0.49278  0.60683  0.47366  Biso   1.000  O 
  O9       1.0000 0.00477  0.35822  0.49084  Biso   1.000  O 
  O10      1.0000 0.98742  0.85359  0.47871  Biso   1.000  O 
  O11      1.0000 0.50148  0.35621  0.51392  Biso   1.000  O 
  O12      1.0000 0.47987  0.85620  0.46576  Biso   1.000  O 
  O13      1.0000 0.99521  0.40830  0.00704  Biso   1.000  O 
  O14      1.0000 0.99526  0.92663  0.98873  Biso   1.000  O 
  O15      1.0000 0.49503  0.38848  0.01273  Biso   1.000  O 
  O16      1.0000 0.49380  0.90076  0.96757  Biso   1.000  O 
  O17      1.0000 0.27529  0.17860  0.60266  Biso   1.000  O 
  O18      1.0000 0.23993  0.67466  0.47266  Biso   1.000  O 
  O19      1.0000 0.75316  0.14571  0.46396  Biso   1.000  O 
  O20      1.0000 0.74698  0.64257  0.51057  Biso   1.000  O 
  O21      1.0000 0.22000  0.10109  0.08856  Biso   1.000  O 
  O22      1.0000 0.26820  0.62000  0.97830  Biso   1.000  O 
  O23      1.0000 0.73653  0.09016  0.94551  Biso   1.000  O 
  O24      1.0000 0.76487  0.58636  0.03317  Biso   1.000  O 
  O25      1.0000 0.24327  0.35924  0.03213  Biso   1.000  O 
  O26      1.0000 0.22170  0.85944  0.05188  Biso   1.000  O 
  O27      1.0000 0.74146  0.33717  0.00293  Biso   1.000  O 
  O28      1.0000 0.76499  0.84326  0.91908  Biso   1.000  O 
  O29      1.0000 0.25035  0.41945  0.52150  Biso   1.000  O 
  O30      1.0000 0.20942  0.93517  0.55464  Biso   1.000  O 
  O31      1.0000 0.75035  0.38938  0.50154  Biso   1.000  O 
  O32      1.0000 0.73182  0.89745  0.43815  Biso   1.000  O 
