data_image0
_cell_length_a       9.99826
_cell_length_b       5.20378
_cell_length_c       10.0462
_cell_angle_alpha    90
_cell_angle_beta     90
_cell_angle_gamma    90

_symmetry_space_group_name_H-M    "P 1"
_symmetry_int_tables_number       1

loop_
  _symmetry_equiv_pos_as_xyz
  'x, y, z'

loop_
  _atom_site_label
  _atom_site_occupancy
  _atom_site_fract_x
  _atom_site_fract_y
  _atom_site_fract_z
  _atom_site_thermal_displace_type
  _atom_site_B_iso_or_equiv
  _atom_site_type_symbol
  Hf1      1.0000 0.13747  0.07091  0.12318  Biso   1.000  Hf
  Hf2      1.0000 0.14304  0.46602  0.38676  Biso   1.000  Hf
  Hf3      1.0000 0.37041  0.53150  0.12650  Biso   1.000  Hf
  Hf4      1.0000 0.37223  0.96702  0.37850  Biso   1.000  Hf
  O1       1.0000 0.01903  0.34628  0.21851  Biso   1.000  O 
  O2       1.0000 0.04409  0.12998  0.44977  Biso   1.000  O 
  O3       1.0000 0.46685  0.86609  0.19559  Biso   1.000  O 
  O4       1.0000 0.47160  0.63338  0.44660  Biso   1.000  O 
  O5       1.0000 0.27525  0.24286  0.25459  Biso   1.000  O 
  O6       1.0000 0.27991  0.26275  0.50371  Biso   1.000  O 
  O7       1.0000 0.23819  0.76413  0.50536  Biso   1.000  O 
  O8       1.0000 0.23784  0.74294  0.25806  Biso   1.000  O 
  Hf5      1.0000 0.14210  0.03244  0.62916  Biso   1.000  Hf
  Hf6      1.0000 0.14281  0.46351  0.87534  Biso   1.000  Hf
  Hf7      1.0000 0.37500  0.53413  0.62846  Biso   1.000  Hf
  Hf8      1.0000 0.37753  0.96471  0.87524  Biso   1.000  Hf
  O9       1.0000 0.04507  0.37028  0.69229  Biso   1.000  O 
  O10      1.0000 0.04688  0.12823  0.94285  Biso   1.000  O 
  O11      1.0000 0.47293  0.87030  0.69354  Biso   1.000  O 
  O12      1.0000 0.47426  0.63281  0.94387  Biso   1.000  O 
  O13      1.0000 0.27870  0.23523  0.75102  Biso   1.000  O 
  O14      1.0000 0.29352  0.25426  0.99584  Biso   1.000  O 
  O15      1.0000 0.22477  0.75830  0.00481  Biso   1.000  O 
  O16      1.0000 0.23949  0.73594  0.75338  Biso   1.000  O 
  Hf9      1.0000 0.63403  0.03013  0.12497  Biso   1.000  Hf
  Hf10     1.0000 0.63983  0.46663  0.37538  Biso   1.000  Hf
  Hf11     1.0000 0.85679  0.52852  0.11874  Biso   1.000  Hf
  Hf12     1.0000 0.87509  0.96951  0.37257  Biso   1.000  Hf
  O17      1.0000 0.53879  0.36575  0.19469  Biso   1.000  O 
  O18      1.0000 0.54350  0.13269  0.44390  Biso   1.000  O 
  O19      1.0000 0.96842  0.86020  0.18782  Biso   1.000  O 
  O20      1.0000 0.97307  0.63904  0.44613  Biso   1.000  O 
  O21      1.0000 0.76939  0.22819  0.24732  Biso   1.000  O 
  O22      1.0000 0.77883  0.26936  0.49671  Biso   1.000  O 
  O23      1.0000 0.73900  0.76927  0.49656  Biso   1.000  O 
  O24      1.0000 0.73311  0.73348  0.24811  Biso   1.000  O 
  Hf13     1.0000 0.64320  0.03355  0.62304  Biso   1.000  Hf
  Hf14     1.0000 0.64315  0.46514  0.87260  Biso   1.000  Hf
  Hf15     1.0000 0.87471  0.53572  0.62485  Biso   1.000  Hf
  Hf16     1.0000 0.87414  0.96562  0.87211  Biso   1.000  Hf
  O25      1.0000 0.54473  0.36806  0.69361  Biso   1.000  O 
  O26      1.0000 0.54875  0.13030  0.94157  Biso   1.000  O 
  O27      1.0000 0.97105  0.87128  0.69273  Biso   1.000  O 
  O28      1.0000 0.96182  0.62551  0.92746  Biso   1.000  O 
  O29      1.0000 0.77886  0.23623  0.74640  Biso   1.000  O 
  O30      1.0000 0.77958  0.26103  0.99659  Biso   1.000  O 
  O31      1.0000 0.73614  0.76247  0.99806  Biso   1.000  O 
  O32      1.0000 0.73606  0.73753  0.74656  Biso   1.000  O 
  Ni1      1.0000 0.10685  0.58909  0.12369  Biso   1.000  Ni
