data_image0
_cell_length_a       5.0616
_cell_length_b       10.4564
_cell_length_c       10.112
_cell_angle_alpha    80
_cell_angle_beta     90
_cell_angle_gamma    90

_symmetry_space_group_name_H-M    "P 1"
_symmetry_int_tables_number       1

loop_
  _symmetry_equiv_pos_as_xyz
  'x, y, z'

loop_
  _atom_site_label
  _atom_site_occupancy
  _atom_site_fract_x
  _atom_site_fract_y
  _atom_site_fract_z
  _atom_site_thermal_displace_type
  _atom_site_B_iso_or_equiv
  _atom_site_type_symbol
  Hf1      1.0000 0.29332  0.97112  0.13722  Biso   1.000  Hf
  Hf2      1.0000 0.29752  0.20284  0.34705  Biso   1.000  Hf
  Hf3      1.0000 0.81099  0.25505  0.11382  Biso   1.000  Hf
  Hf4      1.0000 0.80140  0.98495  0.37497  Biso   1.000  Hf
  O1       1.0000 0.95787  0.08336  0.97053  Biso   1.000  O 
  O2       1.0000 0.04913  0.09475  0.22772  Biso   1.000  O 
  O3       1.0000 0.01047  0.34273  0.26699  Biso   1.000  O 
  O4       1.0000 0.91314  0.44418  0.02955  Biso   1.000  O 
  O5       1.0000 0.54903  0.11783  0.22028  Biso   1.000  O 
  O6       1.0000 0.45094  0.98424  0.97219  Biso   1.000  O 
  O7       1.0000 0.55851  0.22956  0.97065  Biso   1.000  O 
  O8       1.0000 0.50691  0.36832  0.22743  Biso   1.000  O 
  Hf5      1.0000 0.29938  0.92891  0.63801  Biso   1.000  Hf
  Hf6      1.0000 0.28709  0.14683  0.85187  Biso   1.000  Hf
  Hf7      1.0000 0.79775  0.20939  0.62172  Biso   1.000  Hf
  Hf8      1.0000 0.79902  0.93406  0.88334  Biso   1.000  Hf
  O9       1.0000 0.97112  0.13332  0.46806  Biso   1.000  O 
  O10      1.0000 0.04318  0.04568  0.73292  Biso   1.000  O 
  O11      1.0000 0.00341  0.29500  0.76809  Biso   1.000  O 
  O12      1.0000 0.97150  0.38217  0.52395  Biso   1.000  O 
  O13      1.0000 0.54595  0.06776  0.72406  Biso   1.000  O 
  O14      1.0000 0.45425  0.02973  0.46612  Biso   1.000  O 
  O15      1.0000 0.52595  0.27818  0.47646  Biso   1.000  O 
  O16      1.0000 0.50232  0.32126  0.72378  Biso   1.000  O 
  Hf9      1.0000 0.21129  0.51337  0.15937  Biso   1.000  Hf
  Hf10     1.0000 0.29398  0.70249  0.39911  Biso   1.000  Hf
  Hf11     1.0000 0.78769  0.75574  0.16347  Biso   1.000  Hf
  Hf12     1.0000 0.71084  0.44731  0.37248  Biso   1.000  Hf
  O17      1.0000 0.02827  0.67767  0.04289  Biso   1.000  O 
  O18      1.0000 0.98694  0.59307  0.29555  Biso   1.000  O 
  O19      1.0000 0.04197  0.84154  0.28826  Biso   1.000  O 
  O20      1.0000 0.94982  0.92240  0.04348  Biso   1.000  O 
  O21      1.0000 0.49554  0.61743  0.25134  Biso   1.000  O 
  O22      1.0000 0.47240  0.48673  0.99983  Biso   1.000  O 
  O23      1.0000 0.47242  0.82065  0.03868  Biso   1.000  O 
  O24      1.0000 0.54176  0.86336  0.28179  Biso   1.000  O 
  Hf13     1.0000 0.21353  0.46036  0.64971  Biso   1.000  Hf
  Hf14     1.0000 0.30517  0.65998  0.90181  Biso   1.000  Hf
  Hf15     1.0000 0.79396  0.71044  0.66687  Biso   1.000  Hf
  Hf16     1.0000 0.71304  0.40860  0.86646  Biso   1.000  Hf
  O25      1.0000 0.02604  0.63065  0.54373  Biso   1.000  O 
  O26      1.0000 0.00345  0.54529  0.79297  Biso   1.000  O 
  O27      1.0000 0.04020  0.79381  0.79425  Biso   1.000  O 
  O28      1.0000 0.95384  0.88029  0.54564  Biso   1.000  O 
  O29      1.0000 0.50535  0.57174  0.75357  Biso   1.000  O 
  O30      1.0000 0.46828  0.52901  0.49508  Biso   1.000  O 
  O31      1.0000 0.47047  0.77848  0.54721  Biso   1.000  O 
  O32      1.0000 0.54029  0.81742  0.78535  Biso   1.000  O 
  Ni1      1.0000 0.25254  0.31773  0.98447  Biso   1.000  Ni
