data_image0
_cell_length_a       9.93227
_cell_length_b       10.3643
_cell_length_c       9.98288
_cell_angle_alpha    90
_cell_angle_beta     90
_cell_angle_gamma    90

_symmetry_space_group_name_H-M    "P 1"
_symmetry_int_tables_number       1

loop_
  _symmetry_equiv_pos_as_xyz
  'x, y, z'

loop_
  _atom_site_label
  _atom_site_occupancy
  _atom_site_fract_x
  _atom_site_fract_y
  _atom_site_fract_z
  _atom_site_thermal_displace_type
  _atom_site_B_iso_or_equiv
  _atom_site_type_symbol
  Ni1      1.0000 0.12680  0.04018  0.10237  Biso   1.000  Ni
  Hf1      1.0000 0.14082  0.01417  0.62912  Biso   1.000  Hf
  Hf2      1.0000 0.13317  0.51414  0.12659  Biso   1.000  Hf
  Hf3      1.0000 0.13805  0.51346  0.62615  Biso   1.000  Hf
  Hf4      1.0000 0.63599  0.01616  0.12679  Biso   1.000  Hf
  Hf5      1.0000 0.63666  0.01092  0.62194  Biso   1.000  Hf
  Hf6      1.0000 0.63466  0.51747  0.12862  Biso   1.000  Hf
  Hf7      1.0000 0.63710  0.51408  0.62545  Biso   1.000  Hf
  Hf8      1.0000 0.13746  0.22653  0.37244  Biso   1.000  Hf
  Hf9      1.0000 0.13796  0.23385  0.87603  Biso   1.000  Hf
  Hf10     1.0000 0.13715  0.72942  0.37836  Biso   1.000  Hf
  Hf11     1.0000 0.13708  0.73107  0.87920  Biso   1.000  Hf
  Hf12     1.0000 0.63698  0.23028  0.37760  Biso   1.000  Hf
  Hf13     1.0000 0.63841  0.22884  0.87375  Biso   1.000  Hf
  Hf14     1.0000 0.63748  0.73358  0.37582  Biso   1.000  Hf
  Hf15     1.0000 0.63682  0.72970  0.87711  Biso   1.000  Hf
  Hf16     1.0000 0.36705  0.26362  0.12611  Biso   1.000  Hf
  Hf17     1.0000 0.37015  0.26350  0.62594  Biso   1.000  Hf
  Hf18     1.0000 0.36398  0.76411  0.12922  Biso   1.000  Hf
  Hf19     1.0000 0.36883  0.76491  0.62967  Biso   1.000  Hf
  Hf20     1.0000 0.86317  0.26581  0.12307  Biso   1.000  Hf
  Hf21     1.0000 0.86972  0.26225  0.62448  Biso   1.000  Hf
  Hf22     1.0000 0.87315  0.76937  0.12292  Biso   1.000  Hf
  Hf23     1.0000 0.87005  0.76404  0.62415  Biso   1.000  Hf
  Hf24     1.0000 0.36881  0.48008  0.37661  Biso   1.000  Hf
  Hf25     1.0000 0.37105  0.48154  0.87611  Biso   1.000  Hf
  Hf26     1.0000 0.36237  0.97738  0.37370  Biso   1.000  Hf
  Hf27     1.0000 0.36489  0.97966  0.88263  Biso   1.000  Hf
  Hf28     1.0000 0.86770  0.48093  0.37614  Biso   1.000  Hf
  Hf29     1.0000 0.86973  0.48121  0.87470  Biso   1.000  Hf
  Hf30     1.0000 0.87306  0.98397  0.37117  Biso   1.000  Hf
  Hf31     1.0000 0.86550  0.97899  0.87329  Biso   1.000  Hf
  O1       1.0000 0.04187  0.18236  0.18041  Biso   1.000  O 
  O2       1.0000 0.03921  0.18036  0.69879  Biso   1.000  O 
  O3       1.0000 0.03724  0.68237  0.19500  Biso   1.000  O 
  O4       1.0000 0.04005  0.68157  0.69529  Biso   1.000  O 
  O5       1.0000 0.53390  0.18135  0.19888  Biso   1.000  O 
  O6       1.0000 0.54142  0.18105  0.69256  Biso   1.000  O 
  O7       1.0000 0.53631  0.68343  0.19753  Biso   1.000  O 
  O8       1.0000 0.53838  0.67964  0.69703  Biso   1.000  O 
  O9       1.0000 0.04110  0.06393  0.44964  Biso   1.000  O 
  O10      1.0000 0.04299  0.05974  0.94304  Biso   1.000  O 
  O11      1.0000 0.03821  0.56032  0.44581  Biso   1.000  O 
  O12      1.0000 0.04025  0.56151  0.94589  Biso   1.000  O 
  O13      1.0000 0.54003  0.06259  0.44309  Biso   1.000  O 
  O14      1.0000 0.53827  0.06427  0.95040  Biso   1.000  O 
  O15      1.0000 0.54022  0.56375  0.44342  Biso   1.000  O 
  O16      1.0000 0.54139  0.56127  0.94704  Biso   1.000  O 
  O17      1.0000 0.46497  0.43105  0.19339  Biso   1.000  O 
  O18      1.0000 0.46729  0.43106  0.69506  Biso   1.000  O 
  O19      1.0000 0.46910  0.92946  0.19777  Biso   1.000  O 
  O20      1.0000 0.46504  0.93178  0.69997  Biso   1.000  O 
  O21      1.0000 0.96575  0.42777  0.19566  Biso   1.000  O 
  O22      1.0000 0.96722  0.43059  0.69276  Biso   1.000  O 
  O23      1.0000 0.97811  0.94296  0.18516  Biso   1.000  O 
  O24      1.0000 0.96620  0.93137  0.69379  Biso   1.000  O 
  O25      1.0000 0.46777  0.31387  0.44589  Biso   1.000  O 
  O26      1.0000 0.46563  0.30864  0.94258  Biso   1.000  O 
  O27      1.0000 0.47020  0.81527  0.45289  Biso   1.000  O 
  O28      1.0000 0.46240  0.81182  0.94352  Biso   1.000  O 
  O29      1.0000 0.96602  0.30951  0.44022  Biso   1.000  O 
  O30      1.0000 0.96717  0.31250  0.94161  Biso   1.000  O 
  O31      1.0000 0.96621  0.81405  0.44166  Biso   1.000  O 
  O32      1.0000 0.96439  0.81133  0.93868  Biso   1.000  O 
  O33      1.0000 0.25909  0.10128  0.24406  Biso   1.000  O 
  O34      1.0000 0.27723  0.11648  0.75314  Biso   1.000  O 
  O35      1.0000 0.26995  0.60658  0.24961  Biso   1.000  O 
  O36      1.0000 0.27353  0.61511  0.75198  Biso   1.000  O 
  O37      1.0000 0.77373  0.11787  0.24787  Biso   1.000  O 
  O38      1.0000 0.77350  0.11245  0.74750  Biso   1.000  O 
  O39      1.0000 0.77402  0.61613  0.24996  Biso   1.000  O 
  O40      1.0000 0.77350  0.61452  0.75002  Biso   1.000  O 
  O41      1.0000 0.27647  0.12947  0.49763  Biso   1.000  O 
  O42      1.0000 0.25764  0.13279  0.00468  Biso   1.000  O 
  O43      1.0000 0.27537  0.62879  0.50142  Biso   1.000  O 
  O44      1.0000 0.26540  0.63557  0.00082  Biso   1.000  O 
  O45      1.0000 0.77574  0.12922  0.49773  Biso   1.000  O 
  O46      1.0000 0.77654  0.12797  0.99659  Biso   1.000  O 
  O47      1.0000 0.77272  0.63049  0.50004  Biso   1.000  O 
  O48      1.0000 0.76783  0.63494  0.00086  Biso   1.000  O 
  O49      1.0000 0.23132  0.37758  0.49936  Biso   1.000  O 
  O50      1.0000 0.23613  0.37879  0.99948  Biso   1.000  O 
  O51      1.0000 0.23026  0.87901  0.50726  Biso   1.000  O 
  O52      1.0000 0.21815  0.89465  0.01588  Biso   1.000  O 
  O53      1.0000 0.73333  0.37947  0.50037  Biso   1.000  O 
  O54      1.0000 0.73458  0.37726  0.99971  Biso   1.000  O 
  O55      1.0000 0.73498  0.88146  0.49672  Biso   1.000  O 
  O56      1.0000 0.73117  0.87844  0.99752  Biso   1.000  O 
  O57      1.0000 0.23307  0.36019  0.24958  Biso   1.000  O 
  O58      1.0000 0.23292  0.36546  0.74977  Biso   1.000  O 
  O59      1.0000 0.24714  0.84738  0.26520  Biso   1.000  O 
  O60      1.0000 0.23105  0.86579  0.75730  Biso   1.000  O 
  O61      1.0000 0.72911  0.36637  0.24967  Biso   1.000  O 
  O62      1.0000 0.73339  0.36389  0.74932  Biso   1.000  O 
  O63      1.0000 0.73936  0.86719  0.24661  Biso   1.000  O 
  O64      1.0000 0.73126  0.86271  0.74765  Biso   1.000  O 
