data_image0
_cell_length_a       9.94364
_cell_length_b       5.1638
_cell_length_c       9.977
_cell_angle_alpha    90
_cell_angle_beta     90
_cell_angle_gamma    90

_symmetry_space_group_name_H-M    "P 1"
_symmetry_int_tables_number       1

loop_
  _symmetry_equiv_pos_as_xyz
  'x, y, z'

loop_
  _atom_site_label
  _atom_site_occupancy
  _atom_site_fract_x
  _atom_site_fract_y
  _atom_site_fract_z
  _atom_site_thermal_displace_type
  _atom_site_B_iso_or_equiv
  _atom_site_type_symbol
  Os1      1.0000 0.13893  0.04255  0.12074  Biso   1.000  Os
  Hf1      1.0000 0.13177  0.47060  0.37395  Biso   1.000  Hf
  Hf2      1.0000 0.36457  0.54039  0.12652  Biso   1.000  Hf
  Hf3      1.0000 0.36435  0.97250  0.37490  Biso   1.000  Hf
  O1       1.0000 0.03554  0.35427  0.19736  Biso   1.000  O 
  O2       1.0000 0.03428  0.14147  0.45085  Biso   1.000  O 
  O3       1.0000 0.46426  0.87021  0.19461  Biso   1.000  O 
  O4       1.0000 0.46267  0.63683  0.44192  Biso   1.000  O 
  O5       1.0000 0.26797  0.24044  0.24584  Biso   1.000  O 
  O6       1.0000 0.27047  0.27053  0.49772  Biso   1.000  O 
  O7       1.0000 0.22927  0.76991  0.49982  Biso   1.000  O 
  O8       1.0000 0.22535  0.75113  0.24799  Biso   1.000  O 
  Hf4      1.0000 0.13449  0.03772  0.62665  Biso   1.000  Hf
  Hf5      1.0000 0.13491  0.47299  0.87822  Biso   1.000  Hf
  Hf6      1.0000 0.36632  0.53815  0.62491  Biso   1.000  Hf
  Hf7      1.0000 0.36594  0.97181  0.87604  Biso   1.000  Hf
  O9       1.0000 0.03403  0.36804  0.70179  Biso   1.000  O 
  O10      1.0000 0.03647  0.13725  0.95936  Biso   1.000  O 
  O11      1.0000 0.46303  0.87491  0.69291  Biso   1.000  O 
  O12      1.0000 0.46028  0.63358  0.94328  Biso   1.000  O 
  O13      1.0000 0.27112  0.24146  0.75015  Biso   1.000  O 
  O14      1.0000 0.27265  0.25397  0.00123  Biso   1.000  O 
  O15      1.0000 0.22394  0.76214  0.00235  Biso   1.000  O 
  O16      1.0000 0.22974  0.73851  0.75113  Biso   1.000  O 
  Hf8      1.0000 0.63497  0.03517  0.12566  Biso   1.000  Hf
  Hf9      1.0000 0.63472  0.47303  0.37431  Biso   1.000  Hf
  Hf10     1.0000 0.87027  0.53382  0.12486  Biso   1.000  Hf
  Hf11     1.0000 0.86959  0.97382  0.37265  Biso   1.000  Hf
  O17      1.0000 0.53554  0.37149  0.19292  Biso   1.000  O 
  O18      1.0000 0.53599  0.13782  0.44302  Biso   1.000  O 
  O19      1.0000 0.97248  0.86347  0.19355  Biso   1.000  O 
  O20      1.0000 0.96511  0.63836  0.44690  Biso   1.000  O 
  O21      1.0000 0.76972  0.23877  0.24918  Biso   1.000  O 
  O22      1.0000 0.77071  0.27169  0.49882  Biso   1.000  O 
  O23      1.0000 0.73037  0.77177  0.49772  Biso   1.000  O 
  O24      1.0000 0.73392  0.73905  0.24751  Biso   1.000  O 
  Hf12     1.0000 0.63463  0.03833  0.62400  Biso   1.000  Hf
  Hf13     1.0000 0.63403  0.47274  0.87547  Biso   1.000  Hf
  Hf14     1.0000 0.86624  0.53754  0.62628  Biso   1.000  Hf
  Hf15     1.0000 0.86562  0.97333  0.87668  Biso   1.000  Hf
  O25      1.0000 0.53709  0.37563  0.69295  Biso   1.000  O 
  O26      1.0000 0.53807  0.13482  0.94233  Biso   1.000  O 
  O27      1.0000 0.96509  0.87188  0.69732  Biso   1.000  O 
  O28      1.0000 0.96283  0.63571  0.94197  Biso   1.000  O 
  O29      1.0000 0.77027  0.24014  0.74958  Biso   1.000  O 
  O30      1.0000 0.77158  0.27240  0.99914  Biso   1.000  O 
  O31      1.0000 0.72897  0.77143  0.99845  Biso   1.000  O 
  O32      1.0000 0.72960  0.74164  0.74905  Biso   1.000  O 
