data_image0
_cell_length_a       9.9972
_cell_length_b       10.1896
_cell_length_c       5.22647
_cell_angle_alpha    90
_cell_angle_beta     90
_cell_angle_gamma    90

_symmetry_space_group_name_H-M    "P 1"
_symmetry_int_tables_number       1

loop_
  _symmetry_equiv_pos_as_xyz
  'x, y, z'

loop_
  _atom_site_label
  _atom_site_occupancy
  _atom_site_fract_x
  _atom_site_fract_y
  _atom_site_fract_z
  _atom_site_thermal_displace_type
  _atom_site_B_iso_or_equiv
  _atom_site_type_symbol
  Os1      1.0000 0.14118  0.02117  0.35238  Biso   1.000  Os
  Hf1      1.0000 0.13895  0.22786  0.84574  Biso   1.000  Hf
  Hf2      1.0000 0.35948  0.27049  0.34676  Biso   1.000  Hf
  Hf3      1.0000 0.36192  0.48020  0.84465  Biso   1.000  Hf
  Hf4      1.0000 0.63855  0.02232  0.15475  Biso   1.000  Hf
  Hf5      1.0000 0.63910  0.23073  0.65712  Biso   1.000  Hf
  Hf6      1.0000 0.86423  0.26934  0.15895  Biso   1.000  Hf
  Hf7      1.0000 0.86162  0.47979  0.65811  Biso   1.000  Hf
  O1       1.0000 0.03171  0.15816  0.15624  Biso   1.000  O 
  O2       1.0000 0.03536  0.08969  0.64233  Biso   1.000  O 
  O3       1.0000 0.46631  0.41517  0.16985  Biso   1.000  O 
  O4       1.0000 0.46652  0.33521  0.66921  Biso   1.000  O 
  O5       1.0000 0.27830  0.12128  0.59592  Biso   1.000  O 
  O6       1.0000 0.27224  0.12061  0.10602  Biso   1.000  O 
  O7       1.0000 0.22388  0.37471  0.59141  Biso   1.000  O 
  O8       1.0000 0.22376  0.37422  0.09049  Biso   1.000  O 
  O9       1.0000 0.53244  0.16514  0.33585  Biso   1.000  O 
  O10      1.0000 0.53155  0.08849  0.83796  Biso   1.000  O 
  O11      1.0000 0.96836  0.41391  0.33668  Biso   1.000  O 
  O12      1.0000 0.96929  0.33568  0.83548  Biso   1.000  O 
  O13      1.0000 0.77785  0.12480  0.90492  Biso   1.000  O 
  O14      1.0000 0.77596  0.12679  0.40766  Biso   1.000  O 
  O15      1.0000 0.72512  0.37487  0.91183  Biso   1.000  O 
  O16      1.0000 0.72416  0.37688  0.41120  Biso   1.000  O 
  Hf8      1.0000 0.13934  0.52152  0.34448  Biso   1.000  Hf
  Hf9      1.0000 0.13921  0.73099  0.84287  Biso   1.000  Hf
  Hf10     1.0000 0.35896  0.77455  0.34219  Biso   1.000  Hf
  Hf11     1.0000 0.36098  0.97834  0.84577  Biso   1.000  Hf
  Hf12     1.0000 0.63853  0.52161  0.15926  Biso   1.000  Hf
  Hf13     1.0000 0.63898  0.72974  0.65642  Biso   1.000  Hf
  Hf14     1.0000 0.86309  0.77271  0.15422  Biso   1.000  Hf
  Hf15     1.0000 0.86147  0.98132  0.65294  Biso   1.000  Hf
  O17      1.0000 0.03167  0.66313  0.16268  Biso   1.000  O 
  O18      1.0000 0.03283  0.58709  0.66452  Biso   1.000  O 
  O19      1.0000 0.46875  0.91380  0.16485  Biso   1.000  O 
  O20      1.0000 0.46652  0.83678  0.66566  Biso   1.000  O 
  O21      1.0000 0.27710  0.62562  0.59160  Biso   1.000  O 
  O22      1.0000 0.27626  0.62717  0.09104  Biso   1.000  O 
  O23      1.0000 0.22001  0.87614  0.58500  Biso   1.000  O 
  O24      1.0000 0.22063  0.87739  0.08921  Biso   1.000  O 
  O25      1.0000 0.53256  0.66665  0.33362  Biso   1.000  O 
  O26      1.0000 0.53447  0.58555  0.83344  Biso   1.000  O 
  O27      1.0000 0.97599  0.91800  0.32881  Biso   1.000  O 
  O28      1.0000 0.96837  0.83886  0.83169  Biso   1.000  O 
  O29      1.0000 0.77813  0.62638  0.91147  Biso   1.000  O 
  O30      1.0000 0.77695  0.62713  0.41077  Biso   1.000  O 
  O31      1.0000 0.72387  0.87573  0.90746  Biso   1.000  O 
  O32      1.0000 0.72895  0.87751  0.40839  Biso   1.000  O 
