data_image0
_cell_length_a       5.03379
_cell_length_b       10.6165
_cell_length_c       10.1135
_cell_angle_alpha    90
_cell_angle_beta     90
_cell_angle_gamma    90

_symmetry_space_group_name_H-M    "P 1"
_symmetry_int_tables_number       1

loop_
  _symmetry_equiv_pos_as_xyz
  'x, y, z'

loop_
  _atom_site_label
  _atom_site_occupancy
  _atom_site_fract_x
  _atom_site_fract_y
  _atom_site_fract_z
  _atom_site_thermal_displace_type
  _atom_site_B_iso_or_equiv
  _atom_site_type_symbol
  Hf1      1.0000 0.23301  0.93222  0.11767  Biso   1.000  Hf
  Hf2      1.0000 0.26501  0.22540  0.36220  Biso   1.000  Hf
  Hf3      1.0000 0.78233  0.27810  0.13736  Biso   1.000  Hf
  Hf4      1.0000 0.77711  0.99879  0.37487  Biso   1.000  Hf
  O1       1.0000 0.97511  0.11728  0.98066  Biso   1.000  O 
  O2       1.0000 0.08820  0.05871  0.24899  Biso   1.000  O 
  O3       1.0000 0.99072  0.36103  0.29791  Biso   1.000  O 
  O4       1.0000 0.97692  0.41264  0.00781  Biso   1.000  O 
  O5       1.0000 0.58155  0.14204  0.24689  Biso   1.000  O 
  O6       1.0000 0.51162  0.98936  0.98230  Biso   1.000  O 
  O7       1.0000 0.47035  0.31102  0.00778  Biso   1.000  O 
  O8       1.0000 0.50736  0.38453  0.26506  Biso   1.000  O 
  Hf5      1.0000 0.30470  0.96879  0.62678  Biso   1.000  Hf
  Hf6      1.0000 0.24562  0.21320  0.85529  Biso   1.000  Hf
  Hf7      1.0000 0.73171  0.24070  0.61479  Biso   1.000  Hf
  Hf8      1.0000 0.80145  0.96997  0.85602  Biso   1.000  Hf
  O9       1.0000 0.95513  0.16137  0.47427  Biso   1.000  O 
  O10      1.0000 0.03940  0.07871  0.72960  Biso   1.000  O 
  O11      1.0000 0.98478  0.32662  0.75783  Biso   1.000  O 
  O12      1.0000 0.90834  0.41386  0.54103  Biso   1.000  O 
  O13      1.0000 0.53507  0.11329  0.74696  Biso   1.000  O 
  O14      1.0000 0.48967  0.08710  0.49312  Biso   1.000  O 
  O15      1.0000 0.43281  0.33209  0.51412  Biso   1.000  O 
  O16      1.0000 0.48308  0.36142  0.76420  Biso   1.000  O 
  Hf9      1.0000 0.24147  0.47443  0.14874  Biso   1.000  Hf
  Hf10     1.0000 0.23122  0.74912  0.38492  Biso   1.000  Hf
  Hf11     1.0000 0.70004  0.71469  0.13349  Biso   1.000  Hf
  Hf12     1.0000 0.73655  0.50043  0.38319  Biso   1.000  Hf
  O17      1.0000 0.96577  0.61041  0.97649  Biso   1.000  O 
  O18      1.0000 0.93394  0.57497  0.22676  Biso   1.000  O 
  O19      1.0000 0.00544  0.80747  0.22987  Biso   1.000  O 
  O20      1.0000 0.97477  0.85437  0.97221  Biso   1.000  O 
  O21      1.0000 0.44647  0.62700  0.26747  Biso   1.000  O 
  O22      1.0000 0.50707  0.55472  0.02909  Biso   1.000  O 
  O23      1.0000 0.42130  0.79183  0.01090  Biso   1.000  O 
  O24      1.0000 0.51285  0.87486  0.25460  Biso   1.000  O 
  Hf13     1.0000 0.24719  0.46495  0.63843  Biso   1.000  Hf
  Hf14     1.0000 0.19019  0.71838  0.85614  Biso   1.000  Hf
  Hf15     1.0000 0.69390  0.71195  0.63353  Biso   1.000  Hf
  Hf16     1.0000 0.76819  0.46769  0.87457  Biso   1.000  Hf
  O25      1.0000 0.92566  0.66051  0.47496  Biso   1.000  O 
  O26      1.0000 0.97579  0.58388  0.73398  Biso   1.000  O 
  O27      1.0000 0.97760  0.83043  0.71977  Biso   1.000  O 
  O28      1.0000 0.02838  0.91126  0.47166  Biso   1.000  O 
  O29      1.0000 0.47977  0.60286  0.76807  Biso   1.000  O 
  O30      1.0000 0.43893  0.58993  0.51594  Biso   1.000  O 
  O31      1.0000 0.50716  0.84000  0.50662  Biso   1.000  O 
  O32      1.0000 0.47650  0.85294  0.75463  Biso   1.000  O 
  Os1      1.0000 0.27236  0.17157  0.11076  Biso   1.000  Os
