data_image0
_cell_length_a       5.10677
_cell_length_b       10.2677
_cell_length_c       10.5944
_cell_angle_alpha    90
_cell_angle_beta     80
_cell_angle_gamma    90

_symmetry_space_group_name_H-M    "P 1"
_symmetry_int_tables_number       1

loop_
  _symmetry_equiv_pos_as_xyz
  'x, y, z'

loop_
  _atom_site_label
  _atom_site_occupancy
  _atom_site_fract_x
  _atom_site_fract_y
  _atom_site_fract_z
  _atom_site_thermal_displace_type
  _atom_site_B_iso_or_equiv
  _atom_site_type_symbol
  Hf1      1.0000 0.27687  0.02159  0.14585  Biso   1.000  Hf
  Hf2      1.0000 0.29092  0.24162  0.40053  Biso   1.000  Hf
  Hf3      1.0000 0.70599  0.27123  0.09689  Biso   1.000  Hf
  Hf4      1.0000 0.68885  0.48541  0.35435  Biso   1.000  Hf
  O1       1.0000 0.05520  0.15558  0.06747  Biso   1.000  O 
  O2       1.0000 0.10815  0.06657  0.33208  Biso   1.000  O 
  O3       1.0000 0.93344  0.38929  0.19415  Biso   1.000  O 
  O4       1.0000 0.96564  0.36945  0.44217  Biso   1.000  O 
  O5       1.0000 0.57440  0.12618  0.23480  Biso   1.000  O 
  O6       1.0000 0.59453  0.12525  0.47966  Biso   1.000  O 
  O7       1.0000 0.43155  0.37915  0.00770  Biso   1.000  O 
  O8       1.0000 0.40969  0.38359  0.25245  Biso   1.000  O 
  Hf5      1.0000 0.28128  0.02621  0.64420  Biso   1.000  Hf
  Hf6      1.0000 0.27660  0.23317  0.89344  Biso   1.000  Hf
  Hf7      1.0000 0.72822  0.28103  0.60642  Biso   1.000  Hf
  Hf8      1.0000 0.71179  0.48509  0.85596  Biso   1.000  Hf
  O9       1.0000 0.08235  0.17129  0.57575  Biso   1.000  O 
  O10      1.0000 0.06783  0.09384  0.81983  Biso   1.000  O 
  O11      1.0000 0.93307  0.41468  0.68532  Biso   1.000  O 
  O12      1.0000 0.94232  0.35048  0.92875  Biso   1.000  O 
  O13      1.0000 0.55531  0.13321  0.73637  Biso   1.000  O 
  O14      1.0000 0.55693  0.12875  0.98432  Biso   1.000  O 
  O15      1.0000 0.44338  0.38656  0.52080  Biso   1.000  O 
  O16      1.0000 0.44784  0.37752  0.76104  Biso   1.000  O 
  Hf9      1.0000 0.25466  0.52214  0.14651  Biso   1.000  Hf
  Hf10     1.0000 0.24776  0.72794  0.39572  Biso   1.000  Hf
  Hf11     1.0000 0.69321  0.77130  0.10273  Biso   1.000  Hf
  Hf12     1.0000 0.70222  0.96896  0.35330  Biso   1.000  Hf
  O17      1.0000 0.02310  0.65567  0.07097  Biso   1.000  O 
  O18      1.0000 0.03355  0.59652  0.31701  Biso   1.000  O 
  O19      1.0000 0.91284  0.90926  0.17485  Biso   1.000  O 
  O20      1.0000 0.90734  0.83325  0.42751  Biso   1.000  O 
  O21      1.0000 0.52467  0.62809  0.23899  Biso   1.000  O 
  O22      1.0000 0.52119  0.62833  0.49198  Biso   1.000  O 
  O23      1.0000 0.41693  0.87868  0.01168  Biso   1.000  O 
  O24      1.0000 0.42782  0.86755  0.25908  Biso   1.000  O 
  Hf13     1.0000 0.26275  0.52883  0.64881  Biso   1.000  Hf
  Hf14     1.0000 0.25656  0.73432  0.89689  Biso   1.000  Hf
  Hf15     1.0000 0.69952  0.77463  0.60545  Biso   1.000  Hf
  Hf16     1.0000 0.69859  0.98361  0.85241  Biso   1.000  Hf
  O25      1.0000 0.03773  0.66308  0.57469  Biso   1.000  O 
  O26      1.0000 0.04738  0.59777  0.82330  Biso   1.000  O 
  O27      1.0000 0.91263  0.91681  0.67452  Biso   1.000  O 
  O28      1.0000 0.91717  0.84573  0.92479  Biso   1.000  O 
  O29      1.0000 0.53562  0.63347  0.74179  Biso   1.000  O 
  O30      1.0000 0.53233  0.62952  0.98981  Biso   1.000  O 
  O31      1.0000 0.42446  0.88299  0.51062  Biso   1.000  O 
  O32      1.0000 0.42603  0.87697  0.76016  Biso   1.000  O 
  Os1      1.0000 0.81884  0.23968  0.33065  Biso   1.000  Os
