data_image0
_cell_length_a       10.0817
_cell_length_b       10.3187
_cell_length_c       5.29199
_cell_angle_alpha    90
_cell_angle_beta     90
_cell_angle_gamma    90

_symmetry_space_group_name_H-M    "P 1"
_symmetry_int_tables_number       1

loop_
  _symmetry_equiv_pos_as_xyz
  'x, y, z'

loop_
  _atom_site_label
  _atom_site_occupancy
  _atom_site_fract_x
  _atom_site_fract_y
  _atom_site_fract_z
  _atom_site_thermal_displace_type
  _atom_site_B_iso_or_equiv
  _atom_site_type_symbol
  Hf1      1.0000 0.14090  0.01944  0.33742  Biso   1.000  Hf
  Hf2      1.0000 0.13932  0.23097  0.82800  Biso   1.000  Hf
  Hf3      1.0000 0.35859  0.26825  0.34408  Biso   1.000  Hf
  Hf4      1.0000 0.35463  0.48525  0.83985  Biso   1.000  Hf
  Hf5      1.0000 0.63324  0.01687  0.14560  Biso   1.000  Hf
  Hf6      1.0000 0.62019  0.22646  0.70694  Biso   1.000  Hf
  Hf7      1.0000 0.88123  0.26581  0.13811  Biso   1.000  Hf
  Hf8      1.0000 0.85566  0.48673  0.66921  Biso   1.000  Hf
  O1       1.0000 0.04292  0.15688  0.13985  Biso   1.000  O 
  O2       1.0000 0.02746  0.09501  0.63880  Biso   1.000  O 
  O3       1.0000 0.47450  0.41374  0.16308  Biso   1.000  O 
  O4       1.0000 0.45113  0.33511  0.67830  Biso   1.000  O 
  O5       1.0000 0.27023  0.12336  0.58595  Biso   1.000  O 
  O6       1.0000 0.28158  0.12265  0.08345  Biso   1.000  O 
  O7       1.0000 0.21717  0.37518  0.57741  Biso   1.000  O 
  O8       1.0000 0.22712  0.37491  0.08186  Biso   1.000  O 
  O9       1.0000 0.51461  0.13919  0.38924  Biso   1.000  O 
  O10      1.0000 0.52435  0.06487  0.82238  Biso   1.000  O 
  O11      1.0000 0.95714  0.41461  0.33925  Biso   1.000  O 
  O12      1.0000 0.96855  0.34223  0.82507  Biso   1.000  O 
  O13      1.0000 0.78397  0.12159  0.88196  Biso   1.000  O 
  O14      1.0000 0.75797  0.14863  0.37760  Biso   1.000  O 
  O15      1.0000 0.72741  0.38784  0.96041  Biso   1.000  O 
  O16      1.0000 0.69565  0.41698  0.48910  Biso   1.000  O 
  Hf9      1.0000 0.13269  0.52016  0.33864  Biso   1.000  Hf
  Hf10     1.0000 0.13053  0.73041  0.84006  Biso   1.000  Hf
  Hf11     1.0000 0.35686  0.76956  0.34621  Biso   1.000  Hf
  Hf12     1.0000 0.35230  0.97513  0.84403  Biso   1.000  Hf
  Hf13     1.0000 0.64527  0.53889  0.17083  Biso   1.000  Hf
  Hf14     1.0000 0.63420  0.73520  0.65989  Biso   1.000  Hf
  Hf15     1.0000 0.86396  0.77749  0.15690  Biso   1.000  Hf
  Hf16     1.0000 0.86147  0.98167  0.65072  Biso   1.000  Hf
  O17      1.0000 0.03006  0.66179  0.15142  Biso   1.000  O 
  O18      1.0000 0.02712  0.59352  0.64892  Biso   1.000  O 
  O19      1.0000 0.46387  0.90715  0.16513  Biso   1.000  O 
  O20      1.0000 0.45838  0.83232  0.66595  Biso   1.000  O 
  O21      1.0000 0.26920  0.62312  0.58771  Biso   1.000  O 
  O22      1.0000 0.27454  0.62239  0.09053  Biso   1.000  O 
  O23      1.0000 0.21776  0.87301  0.58889  Biso   1.000  O 
  O24      1.0000 0.22149  0.87165  0.09038  Biso   1.000  O 
  O25      1.0000 0.52908  0.66731  0.34597  Biso   1.000  O 
  O26      1.0000 0.52468  0.59521  0.84789  Biso   1.000  O 
  O27      1.0000 0.96836  0.91849  0.32828  Biso   1.000  O 
  O28      1.0000 0.96349  0.84435  0.83219  Biso   1.000  O 
  O29      1.0000 0.77050  0.63393  0.90987  Biso   1.000  O 
  O30      1.0000 0.78020  0.64261  0.41128  Biso   1.000  O 
  O31      1.0000 0.71824  0.87721  0.91234  Biso   1.000  O 
  O32      1.0000 0.72416  0.88439  0.41433  Biso   1.000  O 
  Os1      1.0000 0.61956  0.27338  0.20407  Biso   1.000  Os
