data_image0
_cell_length_a       10.1949
_cell_length_b       10.1764
_cell_length_c       10.1948
_cell_angle_alpha    90
_cell_angle_beta     80
_cell_angle_gamma    90

_symmetry_space_group_name_H-M    "P 1"
_symmetry_int_tables_number       1

loop_
  _symmetry_equiv_pos_as_xyz
  'x, y, z'

loop_
  _atom_site_label
  _atom_site_occupancy
  _atom_site_fract_x
  _atom_site_fract_y
  _atom_site_fract_z
  _atom_site_thermal_displace_type
  _atom_site_B_iso_or_equiv
  _atom_site_type_symbol
  Hf1      1.0000 0.11653  0.99049  0.12806  Biso   1.000  Hf
  Hf2      1.0000 0.10722  0.24999  0.38226  Biso   1.000  Hf
  Hf3      1.0000 0.36969  0.25048  0.13350  Biso   1.000  Hf
  Hf4      1.0000 0.34938  0.98977  0.37933  Biso   1.000  Hf
  O1       1.0000 0.03576  0.16183  0.03893  Biso   1.000  O 
  O2       1.0000 0.02483  0.07989  0.29796  Biso   1.000  O 
  O3       1.0000 0.96059  0.32804  0.28139  Biso   1.000  O 
  O4       1.0000 0.92605  0.40058  0.00013  Biso   1.000  O 
  O5       1.0000 0.28241  0.15462  0.30507  Biso   1.000  O 
  O6       1.0000 0.29225  0.08039  0.04450  Biso   1.000  O 
  O7       1.0000 0.21472  0.32670  0.98839  Biso   1.000  O 
  O8       1.0000 0.23255  0.40098  0.25185  Biso   1.000  O 
  Hf5      1.0000 0.08279  0.99170  0.62907  Biso   1.000  Hf
  Hf6      1.0000 0.07211  0.25340  0.87246  Biso   1.000  Hf
  Hf7      1.0000 0.33453  0.25418  0.62888  Biso   1.000  Hf
  Hf8      1.0000 0.31757  0.99118  0.88317  Biso   1.000  Hf
  O9       1.0000 0.00366  0.15317  0.54858  Biso   1.000  O 
  O10      1.0000 0.99205  0.08720  0.79883  Biso   1.000  O 
  O11      1.0000 0.95484  0.34753  0.75560  Biso   1.000  O 
  O12      1.0000 0.96362  0.39968  0.50987  Biso   1.000  O 
  O13      1.0000 0.24205  0.15257  0.79380  Biso   1.000  O 
  O14      1.0000 0.25498  0.08838  0.54772  Biso   1.000  O 
  O15      1.0000 0.21955  0.34920  0.50970  Biso   1.000  O 
  O16      1.0000 0.20001  0.39934  0.75112  Biso   1.000  O 
  Hf9      1.0000 0.08895  0.55454  0.09724  Biso   1.000  Hf
  Hf10     1.0000 0.09788  0.75604  0.38159  Biso   1.000  Hf
  Hf11     1.0000 0.36847  0.75654  0.12512  Biso   1.000  Hf
  Hf12     1.0000 0.34770  0.49046  0.37631  Biso   1.000  Hf
  O17      1.0000 0.90820  0.65440  0.98149  Biso   1.000  O 
  O18      1.0000 0.92042  0.59509  0.22112  Biso   1.000  O 
  O19      1.0000 0.97721  0.84489  0.25039  Biso   1.000  O 
  O20      1.0000 0.00013  0.90435  0.00224  Biso   1.000  O 
  O21      1.0000 0.19002  0.66683  0.20657  Biso   1.000  O 
  O22      1.0000 0.15728  0.59372  0.94450  Biso   1.000  O 
  O23      1.0000 0.18188  0.84344  0.00426  Biso   1.000  O 
  O24      1.0000 0.23457  0.89900  0.25522  Biso   1.000  O 
  Hf13     1.0000 0.08406  0.49325  0.62979  Biso   1.000  Hf
  Hf14     1.0000 0.07088  0.76166  0.87346  Biso   1.000  Hf
  Hf15     1.0000 0.33476  0.75433  0.62914  Biso   1.000  Hf
  Hf16     1.0000 0.32571  0.48640  0.88187  Biso   1.000  Hf
  O25      1.0000 0.92766  0.65459  0.46841  Biso   1.000  O 
  O26      1.0000 0.91204  0.59308  0.72279  Biso   1.000  O 
  O27      1.0000 0.94522  0.84894  0.75525  Biso   1.000  O 
  O28      1.0000 0.96788  0.89627  0.50827  Biso   1.000  O 
  O29      1.0000 0.15894  0.66344  0.70350  Biso   1.000  O 
  O30      1.0000 0.17622  0.58855  0.45667  Biso   1.000  O 
  O31      1.0000 0.21408  0.84808  0.50169  Biso   1.000  O 
  O32      1.0000 0.20332  0.89936  0.75827  Biso   1.000  O 
  Hf17     1.0000 0.61308  0.99269  0.12645  Biso   1.000  Hf
  Hf18     1.0000 0.59830  0.25467  0.37886  Biso   1.000  Hf
  Hf19     1.0000 0.85564  0.25485  0.12978  Biso   1.000  Hf
  Hf20     1.0000 0.84858  0.99216  0.37984  Biso   1.000  Hf
  O33      1.0000 0.54074  0.15417  0.03951  Biso   1.000  O 
  O34      1.0000 0.52375  0.08888  0.29295  Biso   1.000  O 
  O35      1.0000 0.48794  0.34970  0.25531  Biso   1.000  O 
  O36      1.0000 0.43983  0.39871  0.00634  Biso   1.000  O 
  O37      1.0000 0.76724  0.15352  0.29595  Biso   1.000  O 
  O38      1.0000 0.78856  0.08868  0.04383  Biso   1.000  O 
  O39      1.0000 0.74775  0.34901  0.00407  Biso   1.000  O 
  O40      1.0000 0.72729  0.40031  0.25132  Biso   1.000  O 
  Hf21     1.0000 0.58257  0.99071  0.63094  Biso   1.000  Hf
  Hf22     1.0000 0.56717  0.25339  0.88407  Biso   1.000  Hf
  Hf23     1.0000 0.83507  0.25389  0.63014  Biso   1.000  Hf
  Hf24     1.0000 0.81588  0.99304  0.88270  Biso   1.000  Hf
  O41      1.0000 0.50613  0.15568  0.54649  Biso   1.000  O 
  O42      1.0000 0.49229  0.08720  0.79892  Biso   1.000  O 
  O43      1.0000 0.45447  0.34565  0.75838  Biso   1.000  O 
  O44      1.0000 0.46414  0.39794  0.50175  Biso   1.000  O 
  O45      1.0000 0.74252  0.15934  0.80155  Biso   1.000  O 
  O46      1.0000 0.75627  0.08770  0.54868  Biso   1.000  O 
  O47      1.0000 0.71812  0.34615  0.50848  Biso   1.000  O 
  O48      1.0000 0.69782  0.39862  0.75391  Biso   1.000  O 
  Hf25     1.0000 0.61487  0.49423  0.12666  Biso   1.000  Hf
  Hf26     1.0000 0.59737  0.75482  0.38021  Biso   1.000  Hf
  Hf27     1.0000 0.85552  0.76309  0.12972  Biso   1.000  Hf
  Hf28     1.0000 0.84798  0.48737  0.38683  Biso   1.000  Hf
  O49      1.0000 0.40069  0.65361  0.96796  Biso   1.000  O 
  O50      1.0000 0.43785  0.58903  0.20869  Biso   1.000  O 
  O51      1.0000 0.47922  0.84857  0.25039  Biso   1.000  O 
  O52      1.0000 0.50155  0.89726  0.00245  Biso   1.000  O 
  O53      1.0000 0.68234  0.66440  0.20740  Biso   1.000  O 
  O54      1.0000 0.65284  0.59262  0.96853  Biso   1.000  O 
  O55      1.0000 0.68209  0.84847  0.00466  Biso   1.000  O 
  O56      1.0000 0.73296  0.90033  0.25624  Biso   1.000  O 
  Hf29     1.0000 0.58227  0.49069  0.62942  Biso   1.000  Hf
  Hf30     1.0000 0.56757  0.75436  0.88255  Biso   1.000  Hf
  Hf31     1.0000 0.83236  0.75485  0.63156  Biso   1.000  Hf
  Hf32     1.0000 0.81372  0.48919  0.87916  Biso   1.000  Hf
  O57      1.0000 0.42601  0.65690  0.46122  Biso   1.000  O 
  O58      1.0000 0.41049  0.58774  0.71285  Biso   1.000  O 
  O59      1.0000 0.44768  0.84560  0.75471  Biso   1.000  O 
  O60      1.0000 0.46887  0.89790  0.50803  Biso   1.000  O 
  O61      1.0000 0.66064  0.65583  0.71440  Biso   1.000  O 
  O62      1.0000 0.67547  0.58823  0.46168  Biso   1.000  O 
  O63      1.0000 0.71377  0.84609  0.50249  Biso   1.000  O 
  O64      1.0000 0.70195  0.89896  0.75953  Biso   1.000  O 
  Os1      1.0000 0.11957  0.31634  0.12975  Biso   1.000  Os
