data_image0
_cell_length_a       10.0963
_cell_length_b       5.12217
_cell_length_c       10.4237
_cell_angle_alpha    90
_cell_angle_beta     80
_cell_angle_gamma    90

_symmetry_space_group_name_H-M    "P 1"
_symmetry_int_tables_number       1

loop_
  _symmetry_equiv_pos_as_xyz
  'x, y, z'

loop_
  _atom_site_label
  _atom_site_occupancy
  _atom_site_fract_x
  _atom_site_fract_y
  _atom_site_fract_z
  _atom_site_thermal_displace_type
  _atom_site_B_iso_or_equiv
  _atom_site_type_symbol
  Os1      1.0000 0.14163  0.04526  0.15141  Biso   1.000  Os
  Hf1      1.0000 0.13941  0.46404  0.39492  Biso   1.000  Hf
  Hf2      1.0000 0.35743  0.54959  0.10526  Biso   1.000  Hf
  Hf3      1.0000 0.36115  0.96123  0.35364  Biso   1.000  Hf
  O1       1.0000 0.03508  0.32869  0.07880  Biso   1.000  O 
  O2       1.0000 0.03843  0.17283  0.31884  Biso   1.000  O 
  O3       1.0000 0.46491  0.83860  0.17063  Biso   1.000  O 
  O4       1.0000 0.46392  0.66231  0.41916  Biso   1.000  O 
  O5       1.0000 0.27893  0.25904  0.24208  Biso   1.000  O 
  O6       1.0000 0.27692  0.24651  0.49172  Biso   1.000  O 
  O7       1.0000 0.21882  0.76167  0.01012  Biso   1.000  O 
  O8       1.0000 0.21944  0.74996  0.25691  Biso   1.000  O 
  Hf4      1.0000 0.13829  0.04667  0.64624  Biso   1.000  Hf
  Hf5      1.0000 0.13622  0.45938  0.89870  Biso   1.000  Hf
  Hf6      1.0000 0.36080  0.54678  0.60491  Biso   1.000  Hf
  Hf7      1.0000 0.35760  0.96113  0.85574  Biso   1.000  Hf
  O9       1.0000 0.03276  0.33309  0.57411  Biso   1.000  O 
  O10      1.0000 0.03283  0.17170  0.82663  Biso   1.000  O 
  O11      1.0000 0.46266  0.84471  0.66983  Biso   1.000  O 
  O12      1.0000 0.45884  0.66023  0.91906  Biso   1.000  O 
  O13      1.0000 0.27642  0.26232  0.74380  Biso   1.000  O 
  O14      1.0000 0.27222  0.23237  0.00013  Biso   1.000  O 
  O15      1.0000 0.22296  0.76084  0.50843  Biso   1.000  O 
  O16      1.0000 0.22181  0.74559  0.75914  Biso   1.000  O 
  Hf8      1.0000 0.63897  0.04594  0.14519  Biso   1.000  Hf
  Hf9      1.0000 0.63922  0.46103  0.39553  Biso   1.000  Hf
  Hf10     1.0000 0.86668  0.54258  0.10384  Biso   1.000  Hf
  Hf11     1.0000 0.86104  0.96278  0.35169  Biso   1.000  Hf
  O17      1.0000 0.53428  0.34149  0.08194  Biso   1.000  O 
  O18      1.0000 0.53686  0.16115  0.33211  Biso   1.000  O 
  O19      1.0000 0.97287  0.84459  0.16697  Biso   1.000  O 
  O20      1.0000 0.96550  0.67233  0.41966  Biso   1.000  O 
  O21      1.0000 0.77622  0.26161  0.24026  Biso   1.000  O 
  O22      1.0000 0.77787  0.24522  0.48924  Biso   1.000  O 
  O23      1.0000 0.72288  0.75838  0.00962  Biso   1.000  O 
  O24      1.0000 0.72885  0.74592  0.25847  Biso   1.000  O 
  Hf12     1.0000 0.63784  0.04661  0.64669  Biso   1.000  Hf
  Hf13     1.0000 0.63682  0.46261  0.89740  Biso   1.000  Hf
  Hf14     1.0000 0.85997  0.54768  0.60358  Biso   1.000  Hf
  Hf15     1.0000 0.85927  0.96291  0.85471  Biso   1.000  Hf
  O25      1.0000 0.53676  0.34552  0.58163  Biso   1.000  O 
  O26      1.0000 0.53408  0.16285  0.83290  Biso   1.000  O 
  O27      1.0000 0.96467  0.83713  0.67077  Biso   1.000  O 
  O28      1.0000 0.96416  0.66825  0.92033  Biso   1.000  O 
  O29      1.0000 0.77517  0.26289  0.74070  Biso   1.000  O 
  O30      1.0000 0.77555  0.25072  0.99056  Biso   1.000  O 
  O31      1.0000 0.72292  0.76226  0.50900  Biso   1.000  O 
  O32      1.0000 0.72186  0.74693  0.75972  Biso   1.000  O 
