data_image0
_cell_length_a       10.0874
_cell_length_b       5.21146
_cell_length_c       10.0871
_cell_angle_alpha    90
_cell_angle_beta     90
_cell_angle_gamma    90

_symmetry_space_group_name_H-M    "P 1"
_symmetry_int_tables_number       1

loop_
  _symmetry_equiv_pos_as_xyz
  'x, y, z'

loop_
  _atom_site_label
  _atom_site_occupancy
  _atom_site_fract_x
  _atom_site_fract_y
  _atom_site_fract_z
  _atom_site_thermal_displace_type
  _atom_site_B_iso_or_equiv
  _atom_site_type_symbol
  Hf1      1.0000 0.12112  0.86099  0.13026  Biso   1.000  Hf
  Hf2      1.0000 0.13487  0.51615  0.37895  Biso   1.000  Hf
  Hf3      1.0000 0.39753  0.51042  0.13554  Biso   1.000  Hf
  Hf4      1.0000 0.38967  0.02047  0.37925  Biso   1.000  Hf
  O1       1.0000 0.00363  0.31650  0.98141  Biso   1.000  O 
  O2       1.0000 0.01842  0.15079  0.23611  Biso   1.000  O 
  O3       1.0000 0.97575  0.69307  0.27845  Biso   1.000  O 
  O4       1.0000 0.00336  0.80679  0.98803  Biso   1.000  O 
  O5       1.0000 0.27248  0.31650  0.26401  Biso   1.000  O 
  O6       1.0000 0.24327  0.06715  0.00466  Biso   1.000  O 
  O7       1.0000 0.27041  0.59098  0.99750  Biso   1.000  O 
  O8       1.0000 0.26640  0.80659  0.26386  Biso   1.000  O 
  Hf5      1.0000 0.14106  0.00127  0.62413  Biso   1.000  Hf
  Hf6      1.0000 0.12996  0.50949  0.85374  Biso   1.000  Hf
  Hf7      1.0000 0.38717  0.51028  0.62604  Biso   1.000  Hf
  Hf8      1.0000 0.39712  0.00466  0.86833  Biso   1.000  Hf
  O9       1.0000 0.00257  0.30694  0.48777  Biso   1.000  O 
  O10      1.0000 0.01576  0.22113  0.73912  Biso   1.000  O 
  O11      1.0000 0.00397  0.72409  0.74324  Biso   1.000  O 
  O12      1.0000 0.01284  0.81402  0.50364  Biso   1.000  O 
  O13      1.0000 0.26950  0.29647  0.75558  Biso   1.000  O 
  O14      1.0000 0.26059  0.21584  0.50538  Biso   1.000  O 
  O15      1.0000 0.26091  0.71512  0.50733  Biso   1.000  O 
  O16      1.0000 0.25655  0.79901  0.75513  Biso   1.000  O 
  Hf9      1.0000 0.62697  0.00155  0.11987  Biso   1.000  Hf
  Hf10     1.0000 0.64163  0.51383  0.37336  Biso   1.000  Hf
  Hf11     1.0000 0.87192  0.51731  0.12098  Biso   1.000  Hf
  Hf12     1.0000 0.88523  0.01177  0.37091  Biso   1.000  Hf
  O17      1.0000 0.51196  0.29665  0.99365  Biso   1.000  O 
  O18      1.0000 0.51453  0.22170  0.24727  Biso   1.000  O 
  O19      1.0000 0.51092  0.72458  0.25923  Biso   1.000  O 
  O20      1.0000 0.49327  0.79977  0.00700  Biso   1.000  O 
  O21      1.0000 0.76634  0.30693  0.25548  Biso   1.000  O 
  O22      1.0000 0.76250  0.21599  0.99775  Biso   1.000  O 
  O23      1.0000 0.76022  0.71519  0.99722  Biso   1.000  O 
  O24      1.0000 0.75017  0.81418  0.24523  Biso   1.000  O 
  Hf13     1.0000 0.63900  0.01893  0.62181  Biso   1.000  Hf
  Hf14     1.0000 0.63925  0.50979  0.87345  Biso   1.000  Hf
  Hf15     1.0000 0.88708  0.51433  0.61449  Biso   1.000  Hf
  Hf16     1.0000 0.88628  0.02026  0.86644  Biso   1.000  Hf
  O25      1.0000 0.50789  0.32311  0.49420  Biso   1.000  O 
  O26      1.0000 0.51820  0.21974  0.74477  Biso   1.000  O 
  O27      1.0000 0.50533  0.71097  0.75800  Biso   1.000  O 
  O28      1.0000 0.50923  0.82012  0.50866  Biso   1.000  O 
  O29      1.0000 0.76886  0.32272  0.75031  Biso   1.000  O 
  O30      1.0000 0.75715  0.22355  0.50114  Biso   1.000  O 
  O31      1.0000 0.76243  0.72375  0.49568  Biso   1.000  O 
  O32      1.0000 0.75478  0.81974  0.74884  Biso   1.000  O 
  Os1      1.0000 0.13587  0.35702  0.11518  Biso   1.000  Os
