data_image0
_cell_length_a       9.99912
_cell_length_b       5.09425
_cell_length_c       10.4537
_cell_angle_alpha    90
_cell_angle_beta     90
_cell_angle_gamma    90

_symmetry_space_group_name_H-M    "P 1"
_symmetry_int_tables_number       1

loop_
  _symmetry_equiv_pos_as_xyz
  'x, y, z'

loop_
  _atom_site_label
  _atom_site_occupancy
  _atom_site_fract_x
  _atom_site_fract_y
  _atom_site_fract_z
  _atom_site_thermal_displace_type
  _atom_site_B_iso_or_equiv
  _atom_site_type_symbol
  Os1      1.0000 0.14173  0.04327  0.17700  Biso   1.000  Os
  Hf1      1.0000 0.14043  0.46272  0.42048  Biso   1.000  Hf
  Hf2      1.0000 0.35759  0.54755  0.17193  Biso   1.000  Hf
  Hf3      1.0000 0.36256  0.96065  0.42226  Biso   1.000  Hf
  Hf4      1.0000 0.63839  0.04439  0.07800  Biso   1.000  Hf
  Hf5      1.0000 0.63872  0.46007  0.32717  Biso   1.000  Hf
  Hf6      1.0000 0.86686  0.54021  0.07928  Biso   1.000  Hf
  Hf7      1.0000 0.86198  0.96261  0.32651  Biso   1.000  Hf
  O1       1.0000 0.03237  0.31911  0.08171  Biso   1.000  O 
  O2       1.0000 0.03661  0.17973  0.32310  Biso   1.000  O 
  O3       1.0000 0.46817  0.82701  0.08307  Biso   1.000  O 
  O4       1.0000 0.46602  0.67211  0.33335  Biso   1.000  O 
  O5       1.0000 0.27878  0.24509  0.29601  Biso   1.000  O 
  O6       1.0000 0.27199  0.24216  0.05288  Biso   1.000  O 
  O7       1.0000 0.22063  0.75354  0.29324  Biso   1.000  O 
  O8       1.0000 0.22104  0.75213  0.04525  Biso   1.000  O 
  O9       1.0000 0.53198  0.33256  0.16709  Biso   1.000  O 
  O10      1.0000 0.53463  0.17297  0.41737  Biso   1.000  O 
  O11      1.0000 0.97664  0.83731  0.16590  Biso   1.000  O 
  O12      1.0000 0.96965  0.67933  0.41665  Biso   1.000  O 
  O13      1.0000 0.77931  0.24967  0.45307  Biso   1.000  O 
  O14      1.0000 0.77596  0.25380  0.20444  Biso   1.000  O 
  O15      1.0000 0.72449  0.74973  0.45435  Biso   1.000  O 
  O16      1.0000 0.72989  0.75416  0.20476  Biso   1.000  O 
  Hf8      1.0000 0.14126  0.04536  0.67204  Biso   1.000  Hf
  Hf9      1.0000 0.14067  0.45779  0.92397  Biso   1.000  Hf
  Hf10     1.0000 0.36361  0.54581  0.67261  Biso   1.000  Hf
  Hf11     1.0000 0.36318  0.95921  0.92317  Biso   1.000  Hf
  Hf12     1.0000 0.64106  0.04606  0.57879  Biso   1.000  Hf
  Hf13     1.0000 0.64205  0.46329  0.82948  Biso   1.000  Hf
  Hf14     1.0000 0.86297  0.54601  0.57731  Biso   1.000  Hf
  Hf15     1.0000 0.86375  0.96177  0.82869  Biso   1.000  Hf
  O17      1.0000 0.03220  0.32265  0.57618  Biso   1.000  O 
  O18      1.0000 0.03349  0.18011  0.82865  Biso   1.000  O 
  O19      1.0000 0.46906  0.83400  0.58445  Biso   1.000  O 
  O20      1.0000 0.46972  0.67439  0.83431  Biso   1.000  O 
  O21      1.0000 0.27953  0.25090  0.79825  Biso   1.000  O 
  O22      1.0000 0.27871  0.25687  0.54605  Biso   1.000  O 
  O23      1.0000 0.22608  0.75105  0.79495  Biso   1.000  O 
  O24      1.0000 0.22536  0.75422  0.54458  Biso   1.000  O 
  O25      1.0000 0.53555  0.33392  0.66751  Biso   1.000  O 
  O26      1.0000 0.53443  0.17743  0.91824  Biso   1.000  O 
  O27      1.0000 0.97100  0.82614  0.66834  Biso   1.000  O 
  O28      1.0000 0.97171  0.67577  0.91822  Biso   1.000  O 
  O29      1.0000 0.77969  0.25527  0.95482  Biso   1.000  O 
  O30      1.0000 0.77923  0.25618  0.70443  Biso   1.000  O 
  O31      1.0000 0.72735  0.75375  0.95510  Biso   1.000  O 
  O32      1.0000 0.72594  0.75703  0.70478  Biso   1.000  O 
