data_image0
_cell_length_a       10.0946
_cell_length_b       10.244
_cell_length_c       5.21208
_cell_angle_alpha    90
_cell_angle_beta     80
_cell_angle_gamma    90

_symmetry_space_group_name_H-M    "P 1"
_symmetry_int_tables_number       1

loop_
  _symmetry_equiv_pos_as_xyz
  'x, y, z'

loop_
  _atom_site_label
  _atom_site_occupancy
  _atom_site_fract_x
  _atom_site_fract_y
  _atom_site_fract_z
  _atom_site_thermal_displace_type
  _atom_site_B_iso_or_equiv
  _atom_site_type_symbol
  Os1      1.0000 0.14099  0.02175  0.30116  Biso   1.000  Os
  Hf1      1.0000 0.13767  0.22851  0.79585  Biso   1.000  Hf
  Hf2      1.0000 0.35898  0.27141  0.21340  Biso   1.000  Hf
  Hf3      1.0000 0.36003  0.48020  0.70926  Biso   1.000  Hf
  O1       1.0000 0.03386  0.16235  0.15009  Biso   1.000  O 
  O2       1.0000 0.03693  0.08656  0.63296  Biso   1.000  O 
  O3       1.0000 0.46303  0.42084  0.33859  Biso   1.000  O 
  O4       1.0000 0.45991  0.32866  0.83911  Biso   1.000  O 
  O5       1.0000 0.27851  0.12724  0.48882  Biso   1.000  O 
  O6       1.0000 0.27283  0.11582  0.00133  Biso   1.000  O 
  O7       1.0000 0.22225  0.37810  0.02070  Biso   1.000  O 
  O8       1.0000 0.22244  0.37176  0.52065  Biso   1.000  O 
  Hf4      1.0000 0.13860  0.52214  0.29254  Biso   1.000  Hf
  Hf5      1.0000 0.13751  0.73125  0.79091  Biso   1.000  Hf
  Hf6      1.0000 0.35876  0.77462  0.20700  Biso   1.000  Hf
  Hf7      1.0000 0.35843  0.97879  0.70951  Biso   1.000  Hf
  O9       1.0000 0.03462  0.66784  0.15689  Biso   1.000  O 
  O10      1.0000 0.03442  0.58298  0.65944  Biso   1.000  O 
  O11      1.0000 0.46433  0.91861  0.34271  Biso   1.000  O 
  O12      1.0000 0.46268  0.83083  0.83779  Biso   1.000  O 
  O13      1.0000 0.27625  0.63176  0.48221  Biso   1.000  O 
  O14      1.0000 0.27562  0.62322  0.98153  Biso   1.000  O 
  O15      1.0000 0.21962  0.88077  0.01613  Biso   1.000  O 
  O16      1.0000 0.21862  0.87435  0.51148  Biso   1.000  O 
  Hf8      1.0000 0.63786  0.02220  0.29211  Biso   1.000  Hf
  Hf9      1.0000 0.63726  0.23033  0.79269  Biso   1.000  Hf
  Hf10     1.0000 0.86330  0.26977  0.20849  Biso   1.000  Hf
  Hf11     1.0000 0.86005  0.47970  0.70856  Biso   1.000  Hf
  O17      1.0000 0.53585  0.17119  0.16511  Biso   1.000  O 
  O18      1.0000 0.53461  0.08037  0.66565  Biso   1.000  O 
  O19      1.0000 0.96450  0.41868  0.34126  Biso   1.000  O 
  O20      1.0000 0.96462  0.33190  0.84068  Biso   1.000  O 
  O21      1.0000 0.77498  0.12977  0.48093  Biso   1.000  O 
  O22      1.0000 0.77594  0.12242  0.97818  Biso   1.000  O 
  O23      1.0000 0.72339  0.37908  0.01902  Biso   1.000  O 
  O24      1.0000 0.72274  0.37164  0.51924  Biso   1.000  O 
  Hf12     1.0000 0.63885  0.52229  0.29193  Biso   1.000  Hf
  Hf13     1.0000 0.63843  0.72971  0.79354  Biso   1.000  Hf
  Hf14     1.0000 0.86304  0.77369  0.20626  Biso   1.000  Hf
  Hf15     1.0000 0.85986  0.98153  0.70494  Biso   1.000  Hf
  O25      1.0000 0.53494  0.67027  0.16177  Biso   1.000  O 
  O26      1.0000 0.53608  0.58002  0.66405  Biso   1.000  O 
  O27      1.0000 0.97241  0.92127  0.33231  Biso   1.000  O 
  O28      1.0000 0.96395  0.83535  0.83781  Biso   1.000  O 
  O29      1.0000 0.77643  0.63080  0.48149  Biso   1.000  O 
  O30      1.0000 0.77701  0.62370  0.98232  Biso   1.000  O 
  O31      1.0000 0.72242  0.87959  0.01852  Biso   1.000  O 
  O32      1.0000 0.72766  0.87307  0.51753  Biso   1.000  O 
