data_image0
_cell_length_a       10.1807
_cell_length_b       10.2973
_cell_length_c       5.28288
_cell_angle_alpha    90
_cell_angle_beta     80
_cell_angle_gamma    90

_symmetry_space_group_name_H-M    "P 1"
_symmetry_int_tables_number       1

loop_
  _symmetry_equiv_pos_as_xyz
  'x, y, z'

loop_
  _atom_site_label
  _atom_site_occupancy
  _atom_site_fract_x
  _atom_site_fract_y
  _atom_site_fract_z
  _atom_site_thermal_displace_type
  _atom_site_B_iso_or_equiv
  _atom_site_type_symbol
  Hf1      1.0000 0.13596  0.02232  0.29593  Biso   1.000  Hf
  Hf2      1.0000 0.13456  0.23874  0.78534  Biso   1.000  Hf
  Hf3      1.0000 0.35119  0.27858  0.19177  Biso   1.000  Hf
  Hf4      1.0000 0.33950  0.48626  0.70765  Biso   1.000  Hf
  O1       1.0000 0.03942  0.16951  0.15120  Biso   1.000  O 
  O2       1.0000 0.03510  0.08695  0.64968  Biso   1.000  O 
  O3       1.0000 0.46800  0.38679  0.39914  Biso   1.000  O 
  O4       1.0000 0.48061  0.36994  0.88902  Biso   1.000  O 
  O5       1.0000 0.28138  0.12962  0.47192  Biso   1.000  O 
  O6       1.0000 0.28800  0.12447  0.95306  Biso   1.000  O 
  O7       1.0000 0.20629  0.38840  0.02174  Biso   1.000  O 
  O8       1.0000 0.20078  0.38268  0.49709  Biso   1.000  O 
  Hf5      1.0000 0.12313  0.52802  0.29042  Biso   1.000  Hf
  Hf6      1.0000 0.11962  0.73364  0.79570  Biso   1.000  Hf
  Hf7      1.0000 0.34638  0.76866  0.20858  Biso   1.000  Hf
  Hf8      1.0000 0.34986  0.96758  0.70759  Biso   1.000  Hf
  O9       1.0000 0.01440  0.67107  0.15456  Biso   1.000  O 
  O10      1.0000 0.01837  0.59160  0.65499  Biso   1.000  O 
  O11      1.0000 0.45222  0.90954  0.34728  Biso   1.000  O 
  O12      1.0000 0.45115  0.82843  0.85106  Biso   1.000  O 
  O13      1.0000 0.26119  0.63118  0.48264  Biso   1.000  O 
  O14      1.0000 0.25698  0.62902  0.98317  Biso   1.000  O 
  O15      1.0000 0.20936  0.88104  0.02424  Biso   1.000  O 
  O16      1.0000 0.20757  0.87185  0.52035  Biso   1.000  O 
  Hf9      1.0000 0.63967  0.02139  0.28871  Biso   1.000  Hf
  Hf10     1.0000 0.64040  0.22969  0.80497  Biso   1.000  Hf
  Hf11     1.0000 0.85982  0.27230  0.21363  Biso   1.000  Hf
  Hf12     1.0000 0.85148  0.47961  0.71411  Biso   1.000  Hf
  O17      1.0000 0.52914  0.16085  0.15080  Biso   1.000  O 
  O18      1.0000 0.55078  0.06205  0.66587  Biso   1.000  O 
  O19      1.0000 0.95338  0.42122  0.34728  Biso   1.000  O 
  O20      1.0000 0.96042  0.33860  0.84574  Biso   1.000  O 
  O21      1.0000 0.77858  0.12988  0.47849  Biso   1.000  O 
  O22      1.0000 0.77931  0.12143  0.98307  Biso   1.000  O 
  O23      1.0000 0.72191  0.37617  0.03356  Biso   1.000  O 
  O24      1.0000 0.71870  0.37198  0.52958  Biso   1.000  O 
  Hf13     1.0000 0.62858  0.51902  0.30010  Biso   1.000  Hf
  Hf14     1.0000 0.62413  0.72443  0.79134  Biso   1.000  Hf
  Hf15     1.0000 0.84299  0.77322  0.20821  Biso   1.000  Hf
  Hf16     1.0000 0.84220  0.98095  0.70723  Biso   1.000  Hf
  O25      1.0000 0.51398  0.65038  0.14560  Biso   1.000  O 
  O26      1.0000 0.51595  0.59256  0.63614  Biso   1.000  O 
  O27      1.0000 0.95019  0.91818  0.34444  Biso   1.000  O 
  O28      1.0000 0.94911  0.84067  0.84778  Biso   1.000  O 
  O29      1.0000 0.76133  0.62678  0.47997  Biso   1.000  O 
  O30      1.0000 0.76129  0.62260  0.98181  Biso   1.000  O 
  O31      1.0000 0.70487  0.87695  0.02039  Biso   1.000  O 
  O32      1.0000 0.71116  0.86808  0.51878  Biso   1.000  O 
  Os1      1.0000 0.40439  0.24009  0.66822  Biso   1.000  Os
