data_image0
_cell_length_a       5.0194
_cell_length_b       10.6008
_cell_length_c       10.0559
_cell_angle_alpha    90
_cell_angle_beta     90
_cell_angle_gamma    90

_symmetry_space_group_name_H-M    "P 1"
_symmetry_int_tables_number       1

loop_
  _symmetry_equiv_pos_as_xyz
  'x, y, z'

loop_
  _atom_site_label
  _atom_site_occupancy
  _atom_site_fract_x
  _atom_site_fract_y
  _atom_site_fract_z
  _atom_site_thermal_displace_type
  _atom_site_B_iso_or_equiv
  _atom_site_type_symbol
  Hf1      1.0000 0.26168  0.01592  0.11794  Biso   1.000  Hf
  Hf2      1.0000 0.26075  0.23192  0.38411  Biso   1.000  Hf
  Hf3      1.0000 0.69722  0.24655  0.11344  Biso   1.000  Hf
  Hf4      1.0000 0.73879  0.48649  0.37768  Biso   1.000  Hf
  O1       1.0000 0.01194  0.17831  0.22188  Biso   1.000  O 
  O2       1.0000 0.06890  0.06588  0.44982  Biso   1.000  O 
  O3       1.0000 0.94579  0.45476  0.20948  Biso   1.000  O 
  O4       1.0000 0.93789  0.32516  0.45502  Biso   1.000  O 
  O5       1.0000 0.50866  0.10712  0.24889  Biso   1.000  O 
  O6       1.0000 0.54603  0.13815  0.49721  Biso   1.000  O 
  O7       1.0000 0.46254  0.38815  0.50629  Biso   1.000  O 
  O8       1.0000 0.47986  0.34981  0.25960  Biso   1.000  O 
  Hf5      1.0000 0.27125  0.01706  0.62109  Biso   1.000  Hf
  Hf6      1.0000 0.27636  0.22199  0.86691  Biso   1.000  Hf
  Hf7      1.0000 0.73338  0.27162  0.62723  Biso   1.000  Hf
  Hf8      1.0000 0.73618  0.49583  0.87388  Biso   1.000  Hf
  O9       1.0000 0.06681  0.18236  0.69069  Biso   1.000  O 
  O10      1.0000 0.08203  0.06518  0.93601  Biso   1.000  O 
  O11      1.0000 0.93729  0.43567  0.70181  Biso   1.000  O 
  O12      1.0000 0.94652  0.32105  0.94807  Biso   1.000  O 
  O13      1.0000 0.54287  0.11458  0.74158  Biso   1.000  O 
  O14      1.0000 0.57835  0.12382  0.98378  Biso   1.000  O 
  O15      1.0000 0.49480  0.41074  0.01654  Biso   1.000  O 
  O16      1.0000 0.47290  0.36639  0.76088  Biso   1.000  O 
  Hf9      1.0000 0.25812  0.54776  0.11982  Biso   1.000  Hf
  Hf10     1.0000 0.26953  0.73932  0.37759  Biso   1.000  Hf
  Hf11     1.0000 0.72514  0.77266  0.12602  Biso   1.000  Hf
  Hf12     1.0000 0.73170  0.98854  0.37150  Biso   1.000  Hf
  O17      1.0000 0.06322  0.70034  0.20125  Biso   1.000  O 
  O18      1.0000 0.06222  0.57550  0.45310  Biso   1.000  O 
  O19      1.0000 0.92269  0.93988  0.19151  Biso   1.000  O 
  O20      1.0000 0.93049  0.82213  0.44317  Biso   1.000  O 
  O21      1.0000 0.53862  0.62155  0.25160  Biso   1.000  O 
  O22      1.0000 0.53571  0.63782  0.49993  Biso   1.000  O 
  O23      1.0000 0.46524  0.88807  0.49655  Biso   1.000  O 
  O24      1.0000 0.45835  0.86760  0.24855  Biso   1.000  O 
  Hf13     1.0000 0.26620  0.51961  0.62581  Biso   1.000  Hf
  Hf14     1.0000 0.26689  0.74683  0.86892  Biso   1.000  Hf
  Hf15     1.0000 0.74066  0.76755  0.61887  Biso   1.000  Hf
  Hf16     1.0000 0.74028  0.98121  0.86854  Biso   1.000  Hf
  O25      1.0000 0.06983  0.68665  0.69469  Biso   1.000  O 
  O26      1.0000 0.06629  0.58329  0.94283  Biso   1.000  O 
  O27      1.0000 0.94569  0.93010  0.69383  Biso   1.000  O 
  O28      1.0000 0.93660  0.82550  0.94808  Biso   1.000  O 
  O29      1.0000 0.53691  0.61753  0.74817  Biso   1.000  O 
  O30      1.0000 0.53989  0.65875  0.99343  Biso   1.000  O 
  O31      1.0000 0.45865  0.89368  0.99680  Biso   1.000  O 
  O32      1.0000 0.47545  0.86687  0.74417  Biso   1.000  O 
  Os1      1.0000 0.20364  0.31142  0.11076  Biso   1.000  Os
