data_image0
_cell_length_a       10.1625
_cell_length_b       5.20121
_cell_length_c       10.4451
_cell_angle_alpha    90
_cell_angle_beta     80
_cell_angle_gamma    90

_symmetry_space_group_name_H-M    "P 1"
_symmetry_int_tables_number       1

loop_
  _symmetry_equiv_pos_as_xyz
  'x, y, z'

loop_
  _atom_site_label
  _atom_site_occupancy
  _atom_site_fract_x
  _atom_site_fract_y
  _atom_site_fract_z
  _atom_site_thermal_displace_type
  _atom_site_B_iso_or_equiv
  _atom_site_type_symbol
  Hf1      1.0000 0.13181  0.04776  0.14031  Biso   1.000  Hf
  Hf2      1.0000 0.14450  0.45166  0.38918  Biso   1.000  Hf
  Hf3      1.0000 0.34759  0.55791  0.09888  Biso   1.000  Hf
  Hf4      1.0000 0.36067  0.89500  0.34470  Biso   1.000  Hf
  O1       1.0000 0.03050  0.34949  0.07754  Biso   1.000  O 
  O2       1.0000 0.03461  0.16225  0.32664  Biso   1.000  O 
  O3       1.0000 0.45505  0.87517  0.15110  Biso   1.000  O 
  O4       1.0000 0.48221  0.65233  0.43314  Biso   1.000  O 
  O5       1.0000 0.27243  0.23923  0.22869  Biso   1.000  O 
  O6       1.0000 0.29529  0.24261  0.47612  Biso   1.000  O 
  O7       1.0000 0.21426  0.77387  0.00180  Biso   1.000  O 
  O8       1.0000 0.20181  0.74837  0.24918  Biso   1.000  O 
  Hf5      1.0000 0.14367  0.02523  0.64376  Biso   1.000  Hf
  Hf6      1.0000 0.14245  0.43856  0.89148  Biso   1.000  Hf
  Hf7      1.0000 0.36785  0.52768  0.60927  Biso   1.000  Hf
  Hf8      1.0000 0.36637  0.94006  0.85325  Biso   1.000  Hf
  O9       1.0000 0.04709  0.32245  0.57726  Biso   1.000  O 
  O10      1.0000 0.04262  0.13699  0.82920  Biso   1.000  O 
  O11      1.0000 0.47027  0.82404  0.67189  Biso   1.000  O 
  O12      1.0000 0.46977  0.63354  0.91496  Biso   1.000  O 
  O13      1.0000 0.28220  0.23478  0.73588  Biso   1.000  O 
  O14      1.0000 0.28198  0.22889  0.98300  Biso   1.000  O 
  O15      1.0000 0.22794  0.74578  0.51075  Biso   1.000  O 
  O16      1.0000 0.22939  0.72156  0.75623  Biso   1.000  O 
  Hf9      1.0000 0.63730  0.03731  0.15243  Biso   1.000  Hf
  Hf10     1.0000 0.65474  0.43835  0.40260  Biso   1.000  Hf
  Hf11     1.0000 0.85527  0.54152  0.10572  Biso   1.000  Hf
  Hf12     1.0000 0.86355  0.94438  0.35470  Biso   1.000  Hf
  O17      1.0000 0.52995  0.37502  0.11176  Biso   1.000  O 
  O18      1.0000 0.55680  0.08607  0.34883  Biso   1.000  O 
  O19      1.0000 0.95688  0.84314  0.16515  Biso   1.000  O 
  O20      1.0000 0.96812  0.65547  0.42135  Biso   1.000  O 
  O21      1.0000 0.78073  0.25274  0.24245  Biso   1.000  O 
  O22      1.0000 0.78739  0.22073  0.49627  Biso   1.000  O 
  O23      1.0000 0.71822  0.76360  0.01350  Biso   1.000  O 
  O24      1.0000 0.72577  0.72933  0.26191  Biso   1.000  O 
  Hf13     1.0000 0.64731  0.02660  0.64922  Biso   1.000  Hf
  Hf14     1.0000 0.64506  0.44363  0.89939  Biso   1.000  Hf
  Hf15     1.0000 0.86992  0.52515  0.60548  Biso   1.000  Hf
  Hf16     1.0000 0.86434  0.93712  0.85640  Biso   1.000  Hf
  O25      1.0000 0.54393  0.32276  0.58840  Biso   1.000  O 
  O26      1.0000 0.54529  0.13730  0.83929  Biso   1.000  O 
  O27      1.0000 0.96880  0.82277  0.67076  Biso   1.000  O 
  O28      1.0000 0.96664  0.63518  0.91492  Biso   1.000  O 
  O29      1.0000 0.78383  0.24133  0.74403  Biso   1.000  O 
  O30      1.0000 0.77665  0.21812  0.99359  Biso   1.000  O 
  O31      1.0000 0.73090  0.73918  0.51492  Biso   1.000  O 
  O32      1.0000 0.72939  0.71959  0.76290  Biso   1.000  O 
  Os1      1.0000 0.42177  0.38686  0.31218  Biso   1.000  Os
