data_image0
_cell_length_a       10.0685
_cell_length_b       10.2767
_cell_length_c       10.4184
_cell_angle_alpha    90
_cell_angle_beta     90
_cell_angle_gamma    90

_symmetry_space_group_name_H-M    "P 1"
_symmetry_int_tables_number       1

loop_
  _symmetry_equiv_pos_as_xyz
  'x, y, z'

loop_
  _atom_site_label
  _atom_site_occupancy
  _atom_site_fract_x
  _atom_site_fract_y
  _atom_site_fract_z
  _atom_site_thermal_displace_type
  _atom_site_B_iso_or_equiv
  _atom_site_type_symbol
  Hf1      1.0000 0.13464  0.01898  0.17257  Biso   1.000  Hf
  Hf2      1.0000 0.13370  0.22951  0.42267  Biso   1.000  Hf
  Hf3      1.0000 0.34802  0.27236  0.17821  Biso   1.000  Hf
  Hf4      1.0000 0.35831  0.47987  0.41984  Biso   1.000  Hf
  Hf5      1.0000 0.64013  0.02003  0.07668  Biso   1.000  Hf
  Hf6      1.0000 0.63337  0.22996  0.33032  Biso   1.000  Hf
  Hf7      1.0000 0.86307  0.27270  0.07744  Biso   1.000  Hf
  Hf8      1.0000 0.85572  0.48019  0.32861  Biso   1.000  Hf
  O1       1.0000 0.03306  0.16833  0.08735  Biso   1.000  O 
  O2       1.0000 0.02921  0.08354  0.33632  Biso   1.000  O 
  O3       1.0000 0.44223  0.45312  0.13501  Biso   1.000  O 
  O4       1.0000 0.45608  0.32229  0.34794  Biso   1.000  O 
  O5       1.0000 0.27005  0.12436  0.29766  Biso   1.000  O 
  O6       1.0000 0.26922  0.11913  0.04834  Biso   1.000  O 
  O7       1.0000 0.21413  0.37642  0.30031  Biso   1.000  O 
  O8       1.0000 0.21307  0.37868  0.05036  Biso   1.000  O 
  O9       1.0000 0.52751  0.17034  0.16563  Biso   1.000  O 
  O10      1.0000 0.53190  0.07763  0.41238  Biso   1.000  O 
  O11      1.0000 0.96159  0.41925  0.16633  Biso   1.000  O 
  O12      1.0000 0.96163  0.33319  0.41419  Biso   1.000  O 
  O13      1.0000 0.77166  0.12617  0.45371  Biso   1.000  O 
  O14      1.0000 0.77117  0.12654  0.20291  Biso   1.000  O 
  O15      1.0000 0.71900  0.37587  0.45458  Biso   1.000  O 
  O16      1.0000 0.71833  0.37385  0.20490  Biso   1.000  O 
  Hf9      1.0000 0.13347  0.02218  0.67298  Biso   1.000  Hf
  Hf10     1.0000 0.13046  0.23164  0.92292  Biso   1.000  Hf
  Hf11     1.0000 0.35615  0.27113  0.66778  Biso   1.000  Hf
  Hf12     1.0000 0.34207  0.48973  0.93388  Biso   1.000  Hf
  Hf13     1.0000 0.63453  0.02030  0.57766  Biso   1.000  Hf
  Hf14     1.0000 0.64876  0.23033  0.81884  Biso   1.000  Hf
  Hf15     1.0000 0.85952  0.27344  0.57632  Biso   1.000  Hf
  Hf16     1.0000 0.85792  0.48566  0.82828  Biso   1.000  Hf
  O17      1.0000 0.03034  0.16873  0.58650  Biso   1.000  O 
  O18      1.0000 0.02952  0.08239  0.83719  Biso   1.000  O 
  O19      1.0000 0.46086  0.42090  0.58745  Biso   1.000  O 
  O20      1.0000 0.46920  0.33881  0.82840  Biso   1.000  O 
  O21      1.0000 0.27202  0.12792  0.79552  Biso   1.000  O 
  O22      1.0000 0.27268  0.12659  0.54604  Biso   1.000  O 
  O23      1.0000 0.22420  0.37583  0.79903  Biso   1.000  O 
  O24      1.0000 0.21976  0.37615  0.54725  Biso   1.000  O 
  O25      1.0000 0.53342  0.17145  0.66090  Biso   1.000  O 
  O26      1.0000 0.52717  0.07508  0.90428  Biso   1.000  O 
  O27      1.0000 0.96354  0.41944  0.66421  Biso   1.000  O 
  O28      1.0000 0.96053  0.33305  0.91162  Biso   1.000  O 
  O29      1.0000 0.77061  0.12667  0.95236  Biso   1.000  O 
  O30      1.0000 0.77771  0.12391  0.70081  Biso   1.000  O 
  O31      1.0000 0.73165  0.38891  0.95180  Biso   1.000  O 
  O32      1.0000 0.72280  0.37752  0.70194  Biso   1.000  O 
  Hf17     1.0000 0.13366  0.52341  0.17509  Biso   1.000  Hf
  Hf18     1.0000 0.13325  0.73036  0.42345  Biso   1.000  Hf
  Hf19     1.0000 0.36037  0.77243  0.17418  Biso   1.000  Hf
  Hf20     1.0000 0.35592  0.97915  0.42321  Biso   1.000  Hf
  Hf21     1.0000 0.63029  0.51743  0.08154  Biso   1.000  Hf
  Hf22     1.0000 0.63504  0.73108  0.32842  Biso   1.000  Hf
  Hf23     1.0000 0.85700  0.76837  0.08001  Biso   1.000  Hf
  Hf24     1.0000 0.85618  0.98071  0.32856  Biso   1.000  Hf
  O33      1.0000 0.03083  0.66820  0.08685  Biso   1.000  O 
  O34      1.0000 0.02755  0.58420  0.33837  Biso   1.000  O 
  O35      1.0000 0.46330  0.92326  0.08975  Biso   1.000  O 
  O36      1.0000 0.46085  0.83078  0.33991  Biso   1.000  O 
  O37      1.0000 0.27002  0.62761  0.29709  Biso   1.000  O 
  O38      1.0000 0.27148  0.62891  0.04692  Biso   1.000  O 
  O39      1.0000 0.21998  0.87567  0.29756  Biso   1.000  O 
  O40      1.0000 0.22263  0.87356  0.04782  Biso   1.000  O 
  O41      1.0000 0.53767  0.68052  0.15994  Biso   1.000  O 
  O42      1.0000 0.53079  0.58160  0.41184  Biso   1.000  O 
  O43      1.0000 0.96068  0.91761  0.16439  Biso   1.000  O 
  O44      1.0000 0.96083  0.83401  0.41575  Biso   1.000  O 
  O45      1.0000 0.77142  0.62571  0.45573  Biso   1.000  O 
  O46      1.0000 0.77197  0.62425  0.20574  Biso   1.000  O 
  O47      1.0000 0.71965  0.87525  0.45621  Biso   1.000  O 
  O48      1.0000 0.72029  0.87706  0.20600  Biso   1.000  O 
  Hf25     1.0000 0.13544  0.52168  0.67273  Biso   1.000  Hf
  Hf26     1.0000 0.12665  0.73485  0.92272  Biso   1.000  Hf
  Hf27     1.0000 0.35459  0.77167  0.67357  Biso   1.000  Hf
  Hf28     1.0000 0.34936  0.98120  0.92306  Biso   1.000  Hf
  Hf29     1.0000 0.63308  0.52296  0.57800  Biso   1.000  Hf
  Hf30     1.0000 0.62858  0.73041  0.83034  Biso   1.000  Hf
  Hf31     1.0000 0.85641  0.77178  0.57982  Biso   1.000  Hf
  Hf32     1.0000 0.85437  0.97974  0.82969  Biso   1.000  Hf
  O49      1.0000 0.02961  0.66905  0.58845  Biso   1.000  O 
  O50      1.0000 0.03039  0.58364  0.83831  Biso   1.000  O 
  O51      1.0000 0.45964  0.91931  0.58890  Biso   1.000  O 
  O52      1.0000 0.45446  0.82995  0.84076  Biso   1.000  O 
  O53      1.0000 0.26816  0.62773  0.79758  Biso   1.000  O 
  O54      1.0000 0.27151  0.62605  0.54618  Biso   1.000  O 
  O55      1.0000 0.21501  0.87679  0.79677  Biso   1.000  O 
  O56      1.0000 0.21802  0.87691  0.54733  Biso   1.000  O 
  O57      1.0000 0.52718  0.66896  0.66538  Biso   1.000  O 
  O58      1.0000 0.51921  0.58144  0.91812  Biso   1.000  O 
  O59      1.0000 0.96022  0.91811  0.66599  Biso   1.000  O 
  O60      1.0000 0.95365  0.83346  0.91551  Biso   1.000  O 
  O61      1.0000 0.76279  0.63157  0.95440  Biso   1.000  O 
  O62      1.0000 0.76890  0.62757  0.70506  Biso   1.000  O 
  O63      1.0000 0.71217  0.87926  0.95646  Biso   1.000  O 
  O64      1.0000 0.71684  0.87611  0.70712  Biso   1.000  O 
  P1       1.0000 0.49006  0.28826  0.98695  Biso   1.000  P 
