data_image0
_cell_length_a       10.0905
_cell_length_b       5.12398
_cell_length_c       10.572
_cell_angle_alpha    90
_cell_angle_beta     90
_cell_angle_gamma    90

_symmetry_space_group_name_H-M    "P 1"
_symmetry_int_tables_number       1

loop_
  _symmetry_equiv_pos_as_xyz
  'x, y, z'

loop_
  _atom_site_label
  _atom_site_occupancy
  _atom_site_fract_x
  _atom_site_fract_y
  _atom_site_fract_z
  _atom_site_thermal_displace_type
  _atom_site_B_iso_or_equiv
  _atom_site_type_symbol
  Hf1      1.0000 0.13090  0.03208  0.17635  Biso   1.000  Hf
  Hf2      1.0000 0.13301  0.45072  0.42587  Biso   1.000  Hf
  Hf3      1.0000 0.35461  0.51728  0.18407  Biso   1.000  Hf
  Hf4      1.0000 0.36305  0.95029  0.42560  Biso   1.000  Hf
  Hf5      1.0000 0.64827  0.05552  0.07897  Biso   1.000  Hf
  Hf6      1.0000 0.63579  0.45425  0.33143  Biso   1.000  Hf
  Hf7      1.0000 0.86476  0.54692  0.07656  Biso   1.000  Hf
  Hf8      1.0000 0.86197  0.95414  0.33029  Biso   1.000  Hf
  O1       1.0000 0.03121  0.32478  0.08442  Biso   1.000  O 
  O2       1.0000 0.02452  0.16947  0.33565  Biso   1.000  O 
  O3       1.0000 0.48732  0.82364  0.08044  Biso   1.000  O 
  O4       1.0000 0.46977  0.68282  0.32435  Biso   1.000  O 
  O5       1.0000 0.26639  0.24165  0.30015  Biso   1.000  O 
  O6       1.0000 0.26696  0.21768  0.05196  Biso   1.000  O 
  O7       1.0000 0.22082  0.74278  0.30388  Biso   1.000  O 
  O8       1.0000 0.22880  0.73708  0.05627  Biso   1.000  O 
  O9       1.0000 0.52080  0.26529  0.19846  Biso   1.000  O 
  O10      1.0000 0.51932  0.19270  0.43397  Biso   1.000  O 
  O11      1.0000 0.96770  0.82674  0.17084  Biso   1.000  O 
  O12      1.0000 0.96523  0.66927  0.42058  Biso   1.000  O 
  O13      1.0000 0.76760  0.24343  0.45475  Biso   1.000  O 
  O14      1.0000 0.77491  0.26075  0.20467  Biso   1.000  O 
  O15      1.0000 0.72341  0.74767  0.45590  Biso   1.000  O 
  O16      1.0000 0.72516  0.75355  0.20583  Biso   1.000  O 
  Hf9      1.0000 0.12898  0.03555  0.67430  Biso   1.000  Hf
  Hf10     1.0000 0.12614  0.44255  0.92801  Biso   1.000  Hf
  Hf11     1.0000 0.35514  0.53545  0.67318  Biso   1.000  Hf
  Hf12     1.0000 0.34250  0.93353  0.92575  Biso   1.000  Hf
  Hf13     1.0000 0.62786  0.03944  0.57898  Biso   1.000  Hf
  Hf14     1.0000 0.63643  0.47271  0.82044  Biso   1.000  Hf
  Hf15     1.0000 0.85797  0.53899  0.57870  Biso   1.000  Hf
  Hf16     1.0000 0.86001  0.95761  0.82826  Biso   1.000  Hf
  O17      1.0000 0.02572  0.32041  0.58400  Biso   1.000  O 
  O18      1.0000 0.02319  0.16282  0.83374  Biso   1.000  O 
  O19      1.0000 0.47160  0.79698  0.57060  Biso   1.000  O 
  O20      1.0000 0.47017  0.72484  0.80603  Biso   1.000  O 
  O21      1.0000 0.26573  0.23590  0.79876  Biso   1.000  O 
  O22      1.0000 0.26755  0.24207  0.54869  Biso   1.000  O 
  O23      1.0000 0.21593  0.72865  0.79990  Biso   1.000  O 
  O24      1.0000 0.22333  0.74628  0.54984  Biso   1.000  O 
  O25      1.0000 0.52116  0.30690  0.68031  Biso   1.000  O 
  O26      1.0000 0.50325  0.16627  0.92436  Biso   1.000  O 
  O27      1.0000 0.96640  0.82026  0.66894  Biso   1.000  O 
  O28      1.0000 0.95961  0.66469  0.92012  Biso   1.000  O 
  O29      1.0000 0.76190  0.25249  0.94833  Biso   1.000  O 
  O30      1.0000 0.77013  0.24702  0.70069  Biso   1.000  O 
  O31      1.0000 0.72389  0.77192  0.95263  Biso   1.000  O 
  O32      1.0000 0.72456  0.74817  0.70442  Biso   1.000  O 
  P1       1.0000 0.50645  0.49935  0.00218  Biso   1.000  P 
