data_image0
_cell_length_a       10.0234
_cell_length_b       10.2107
_cell_length_c       10.4637
_cell_angle_alpha    90
_cell_angle_beta     90
_cell_angle_gamma    90

_symmetry_space_group_name_H-M    "P 1"
_symmetry_int_tables_number       1

loop_
  _symmetry_equiv_pos_as_xyz
  'x, y, z'

loop_
  _atom_site_label
  _atom_site_occupancy
  _atom_site_fract_x
  _atom_site_fract_y
  _atom_site_fract_z
  _atom_site_thermal_displace_type
  _atom_site_B_iso_or_equiv
  _atom_site_type_symbol
  P1       1.0000 0.08445  0.03257  0.18527  Biso   1.000  P 
  Hf1      1.0000 0.14344  0.23392  0.42222  Biso   1.000  Hf
  Hf2      1.0000 0.35731  0.26677  0.17047  Biso   1.000  Hf
  Hf3      1.0000 0.36163  0.48157  0.42060  Biso   1.000  Hf
  Hf4      1.0000 0.63858  0.02204  0.07722  Biso   1.000  Hf
  Hf5      1.0000 0.63522  0.23088  0.32892  Biso   1.000  Hf
  Hf6      1.0000 0.85887  0.27261  0.08084  Biso   1.000  Hf
  Hf7      1.0000 0.86233  0.47992  0.32912  Biso   1.000  Hf
  O1       1.0000 0.04079  0.15065  0.09239  Biso   1.000  O 
  O2       1.0000 0.02971  0.08628  0.32076  Biso   1.000  O 
  O3       1.0000 0.46704  0.41478  0.08476  Biso   1.000  O 
  O4       1.0000 0.46693  0.33687  0.33427  Biso   1.000  O 
  O5       1.0000 0.27559  0.13154  0.30032  Biso   1.000  O 
  O6       1.0000 0.29409  0.13932  0.03051  Biso   1.000  O 
  O7       1.0000 0.22328  0.37798  0.29579  Biso   1.000  O 
  O8       1.0000 0.22087  0.37724  0.04612  Biso   1.000  O 
  O9       1.0000 0.53480  0.16710  0.16587  Biso   1.000  O 
  O10      1.0000 0.53179  0.08520  0.41559  Biso   1.000  O 
  O11      1.0000 0.96910  0.41251  0.16826  Biso   1.000  O 
  O12      1.0000 0.96696  0.33456  0.41632  Biso   1.000  O 
  O13      1.0000 0.77406  0.12303  0.45628  Biso   1.000  O 
  O14      1.0000 0.77741  0.12658  0.20684  Biso   1.000  O 
  O15      1.0000 0.72404  0.37421  0.45604  Biso   1.000  O 
  O16      1.0000 0.72425  0.37666  0.20509  Biso   1.000  O 
  Hf8      1.0000 0.13635  0.02184  0.66995  Biso   1.000  Hf
  Hf9      1.0000 0.14394  0.22849  0.92044  Biso   1.000  Hf
  Hf10     1.0000 0.36077  0.27322  0.67159  Biso   1.000  Hf
  Hf11     1.0000 0.35878  0.48027  0.92328  Biso   1.000  Hf
  Hf12     1.0000 0.63245  0.02185  0.58001  Biso   1.000  Hf
  Hf13     1.0000 0.63732  0.23090  0.82900  Biso   1.000  Hf
  Hf14     1.0000 0.86084  0.27150  0.57840  Biso   1.000  Hf
  Hf15     1.0000 0.86346  0.47812  0.83065  Biso   1.000  Hf
  O17      1.0000 0.02910  0.15980  0.57411  Biso   1.000  O 
  O18      1.0000 0.03070  0.08845  0.83244  Biso   1.000  O 
  O19      1.0000 0.46616  0.41828  0.58395  Biso   1.000  O 
  O20      1.0000 0.46618  0.33680  0.83355  Biso   1.000  O 
  O21      1.0000 0.27347  0.12414  0.78983  Biso   1.000  O 
  O22      1.0000 0.27523  0.12877  0.54532  Biso   1.000  O 
  O23      1.0000 0.22262  0.37398  0.79593  Biso   1.000  O 
  O24      1.0000 0.22275  0.37797  0.54478  Biso   1.000  O 
  O25      1.0000 0.53188  0.16860  0.66616  Biso   1.000  O 
  O26      1.0000 0.53487  0.08445  0.91379  Biso   1.000  O 
  O27      1.0000 0.96915  0.41176  0.67005  Biso   1.000  O 
  O28      1.0000 0.96706  0.33287  0.92447  Biso   1.000  O 
  O29      1.0000 0.77702  0.12655  0.95676  Biso   1.000  O 
  O30      1.0000 0.77425  0.12771  0.70506  Biso   1.000  O 
  O31      1.0000 0.72243  0.37595  0.95710  Biso   1.000  O 
  O32      1.0000 0.72435  0.37790  0.70614  Biso   1.000  O 
  Hf16     1.0000 0.14093  0.52201  0.17171  Biso   1.000  Hf
  Hf17     1.0000 0.13996  0.73195  0.41941  Biso   1.000  Hf
  Hf18     1.0000 0.35769  0.77792  0.16992  Biso   1.000  Hf
  Hf19     1.0000 0.35899  0.98203  0.41665  Biso   1.000  Hf
  Hf20     1.0000 0.63668  0.52188  0.07976  Biso   1.000  Hf
  Hf21     1.0000 0.63638  0.72819  0.32710  Biso   1.000  Hf
  Hf22     1.0000 0.86391  0.76735  0.07550  Biso   1.000  Hf
  Hf23     1.0000 0.85110  0.97809  0.33504  Biso   1.000  Hf
  O33      1.0000 0.03621  0.66896  0.08576  Biso   1.000  O 
  O34      1.0000 0.03256  0.58682  0.33334  Biso   1.000  O 
  O35      1.0000 0.47457  0.91570  0.08307  Biso   1.000  O 
  O36      1.0000 0.46927  0.83968  0.33069  Biso   1.000  O 
  O37      1.0000 0.27728  0.62617  0.29452  Biso   1.000  O 
  O38      1.0000 0.27818  0.62369  0.04576  Biso   1.000  O 
  O39      1.0000 0.22284  0.87456  0.29551  Biso   1.000  O 
  O40      1.0000 0.23585  0.87065  0.03615  Biso   1.000  O 
  O41      1.0000 0.53272  0.66707  0.16609  Biso   1.000  O 
  O42      1.0000 0.53361  0.58599  0.41676  Biso   1.000  O 
  O43      1.0000 0.97177  0.92796  0.16574  Biso   1.000  O 
  O44      1.0000 0.96589  0.83877  0.41543  Biso   1.000  O 
  O45      1.0000 0.77667  0.62460  0.45552  Biso   1.000  O 
  O46      1.0000 0.77691  0.62598  0.20490  Biso   1.000  O 
  O47      1.0000 0.72066  0.87323  0.45623  Biso   1.000  O 
  O48      1.0000 0.73252  0.87602  0.20563  Biso   1.000  O 
  Hf24     1.0000 0.13823  0.52416  0.67252  Biso   1.000  Hf
  Hf25     1.0000 0.14151  0.73381  0.92162  Biso   1.000  Hf
  Hf26     1.0000 0.36172  0.77370  0.67036  Biso   1.000  Hf
  Hf27     1.0000 0.36030  0.98177  0.92314  Biso   1.000  Hf
  Hf28     1.0000 0.63925  0.52216  0.57978  Biso   1.000  Hf
  Hf29     1.0000 0.63755  0.73127  0.82838  Biso   1.000  Hf
  Hf30     1.0000 0.86117  0.77123  0.57980  Biso   1.000  Hf
  Hf31     1.0000 0.86300  0.98149  0.82824  Biso   1.000  Hf
  O49      1.0000 0.03235  0.66620  0.58330  Biso   1.000  O 
  O50      1.0000 0.03294  0.58512  0.83487  Biso   1.000  O 
  O51      1.0000 0.46568  0.91783  0.58217  Biso   1.000  O 
  O52      1.0000 0.46774  0.83723  0.83149  Biso   1.000  O 
  O53      1.0000 0.27647  0.62499  0.79457  Biso   1.000  O 
  O54      1.0000 0.27593  0.62843  0.54448  Biso   1.000  O 
  O55      1.0000 0.22350  0.87488  0.79141  Biso   1.000  O 
  O56      1.0000 0.22309  0.87885  0.54314  Biso   1.000  O 
  O57      1.0000 0.53425  0.66757  0.66566  Biso   1.000  O 
  O58      1.0000 0.53159  0.58611  0.91615  Biso   1.000  O 
  O59      1.0000 0.96745  0.91546  0.66727  Biso   1.000  O 
  O60      1.0000 0.96732  0.83747  0.91817  Biso   1.000  O 
  O61      1.0000 0.77595  0.62618  0.95702  Biso   1.000  O 
  O62      1.0000 0.77764  0.62661  0.70680  Biso   1.000  O 
  O63      1.0000 0.72427  0.87601  0.95500  Biso   1.000  O 
  O64      1.0000 0.72419  0.87749  0.70523  Biso   1.000  O 
