data_image0
_cell_length_a       10.1023
_cell_length_b       10.2946
_cell_length_c       10.1208
_cell_angle_alpha    90
_cell_angle_beta     90
_cell_angle_gamma    90

_symmetry_space_group_name_H-M    "P 1"
_symmetry_int_tables_number       1

loop_
  _symmetry_equiv_pos_as_xyz
  'x, y, z'

loop_
  _atom_site_label
  _atom_site_occupancy
  _atom_site_fract_x
  _atom_site_fract_y
  _atom_site_fract_z
  _atom_site_thermal_displace_type
  _atom_site_B_iso_or_equiv
  _atom_site_type_symbol
  Hf1      1.0000 0.15595  0.97099  0.12581  Biso   1.000  Hf
  Hf2      1.0000 0.10818  0.21171  0.35722  Biso   1.000  Hf
  Hf3      1.0000 0.36789  0.22980  0.10730  Biso   1.000  Hf
  Hf4      1.0000 0.38182  0.00185  0.36899  Biso   1.000  Hf
  O1       1.0000 0.96743  0.16326  0.99660  Biso   1.000  O 
  O2       1.0000 0.99029  0.07850  0.24648  Biso   1.000  O 
  O3       1.0000 0.95879  0.33539  0.31626  Biso   1.000  O 
  O4       1.0000 0.95066  0.42923  0.05548  Biso   1.000  O 
  O5       1.0000 0.25276  0.12085  0.23927  Biso   1.000  O 
  O6       1.0000 0.21914  0.06443  0.98714  Biso   1.000  O 
  O7       1.0000 0.28683  0.29742  0.92492  Biso   1.000  O 
  O8       1.0000 0.24624  0.39143  0.19769  Biso   1.000  O 
  Hf5      1.0000 0.13304  0.97751  0.61967  Biso   1.000  Hf
  Hf6      1.0000 0.11275  0.22624  0.84751  Biso   1.000  Hf
  Hf7      1.0000 0.34284  0.23781  0.59892  Biso   1.000  Hf
  Hf8      1.0000 0.36592  0.99877  0.86731  Biso   1.000  Hf
  O9       1.0000 0.98897  0.14663  0.50688  Biso   1.000  O 
  O10      1.0000 0.98210  0.09002  0.74815  Biso   1.000  O 
  O11      1.0000 0.95651  0.33955  0.79667  Biso   1.000  O 
  O12      1.0000 0.95575  0.40835  0.55117  Biso   1.000  O 
  O13      1.0000 0.23475  0.12150  0.72497  Biso   1.000  O 
  O14      1.0000 0.23558  0.08150  0.48536  Biso   1.000  O 
  O15      1.0000 0.24110  0.32926  0.45200  Biso   1.000  O 
  O16      1.0000 0.20855  0.37393  0.70959  Biso   1.000  O 
  Hf9      1.0000 0.11861  0.53163  0.11241  Biso   1.000  Hf
  Hf10     1.0000 0.12833  0.74411  0.37508  Biso   1.000  Hf
  Hf11     1.0000 0.40212  0.75487  0.15035  Biso   1.000  Hf
  Hf12     1.0000 0.34937  0.48296  0.34465  Biso   1.000  Hf
  O17      1.0000 0.96675  0.65260  0.99664  Biso   1.000  O 
  O18      1.0000 0.99732  0.59658  0.26176  Biso   1.000  O 
  O19      1.0000 0.03919  0.82777  0.20993  Biso   1.000  O 
  O20      1.0000 0.00900  0.90429  0.96136  Biso   1.000  O 
  O21      1.0000 0.25278  0.63851  0.23012  Biso   1.000  O 
  O22      1.0000 0.19623  0.55788  0.95749  Biso   1.000  O 
  O23      1.0000 0.26135  0.81834  0.02656  Biso   1.000  O 
  O24      1.0000 0.27498  0.88141  0.27182  Biso   1.000  O 
  Hf13     1.0000 0.10473  0.51758  0.61362  Biso   1.000  Hf
  Hf14     1.0000 0.11117  0.74015  0.86942  Biso   1.000  Hf
  Hf15     1.0000 0.38270  0.75331  0.64687  Biso   1.000  Hf
  Hf16     1.0000 0.33748  0.47550  0.84412  Biso   1.000  Hf
  O25      1.0000 0.98671  0.65373  0.50068  Biso   1.000  O 
  O26      1.0000 0.98400  0.59699  0.75531  Biso   1.000  O 
  O27      1.0000 0.01895  0.83343  0.71216  Biso   1.000  O 
  O28      1.0000 0.02446  0.90144  0.46172  Biso   1.000  O 
  O29      1.0000 0.23838  0.63328  0.72829  Biso   1.000  O 
  O30      1.0000 0.22321  0.57895  0.46564  Biso   1.000  O 
  O31      1.0000 0.24545  0.82492  0.52377  Biso   1.000  O 
  O32      1.0000 0.25694  0.88011  0.77078  Biso   1.000  O 
  Hf17     1.0000 0.63400  0.00150  0.12620  Biso   1.000  Hf
  Hf18     1.0000 0.60352  0.26286  0.36857  Biso   1.000  Hf
  Hf19     1.0000 0.85914  0.25638  0.14839  Biso   1.000  Hf
  Hf20     1.0000 0.85393  0.00580  0.38601  Biso   1.000  Hf
  O33      1.0000 0.48161  0.13322  0.99430  Biso   1.000  O 
  O34      1.0000 0.49630  0.10530  0.24075  Biso   1.000  O 
  O35      1.0000 0.48760  0.35144  0.22453  Biso   1.000  O 
  O36      1.0000 0.48322  0.41244  0.96562  Biso   1.000  O 
  O37      1.0000 0.73922  0.14734  0.27313  Biso   1.000  O 
  O38      1.0000 0.77821  0.09652  0.03099  Biso   1.000  O 
  O39      1.0000 0.72674  0.33808  0.02740  Biso   1.000  O 
  O40      1.0000 0.73078  0.40073  0.26821  Biso   1.000  O 
  Hf21     1.0000 0.61109  0.99894  0.63054  Biso   1.000  Hf
  Hf22     1.0000 0.58237  0.26109  0.86544  Biso   1.000  Hf
  Hf23     1.0000 0.85808  0.24696  0.63379  Biso   1.000  Hf
  Hf24     1.0000 0.84251  0.00930  0.87852  Biso   1.000  Hf
  O41      1.0000 0.48739  0.14472  0.49012  Biso   1.000  O 
  O42      1.0000 0.48272  0.10648  0.74332  Biso   1.000  O 
  O43      1.0000 0.46548  0.35091  0.71855  Biso   1.000  O 
  O44      1.0000 0.48073  0.40070  0.47557  Biso   1.000  O 
  O45      1.0000 0.73077  0.15485  0.77230  Biso   1.000  O 
  O46      1.0000 0.74502  0.09866  0.52536  Biso   1.000  O 
  O47      1.0000 0.71544  0.34232  0.52025  Biso   1.000  O 
  O48      1.0000 0.70775  0.40559  0.76994  Biso   1.000  O 
  Hf25     1.0000 0.62023  0.49644  0.12273  Biso   1.000  Hf
  Hf26     1.0000 0.62211  0.73448  0.39866  Biso   1.000  Hf
  Hf27     1.0000 0.87297  0.74242  0.13931  Biso   1.000  Hf
  Hf28     1.0000 0.86794  0.49891  0.38707  Biso   1.000  Hf
  O49      1.0000 0.51220  0.65282  0.02437  Biso   1.000  O 
  O50      1.0000 0.49952  0.60244  0.26871  Biso   1.000  O 
  O51      1.0000 0.53095  0.85844  0.26613  Biso   1.000  O 
  O52      1.0000 0.51715  0.89823  0.01471  Biso   1.000  O 
  O53      1.0000 0.75115  0.64814  0.26899  Biso   1.000  O 
  O54      1.0000 0.75716  0.60171  0.01512  Biso   1.000  O 
  O55      1.0000 0.73244  0.84235  0.99874  Biso   1.000  O 
  O56      1.0000 0.78733  0.89908  0.24368  Biso   1.000  O 
  Hf29     1.0000 0.59558  0.48898  0.61921  Biso   1.000  Hf
  Hf30     1.0000 0.59984  0.72820  0.89935  Biso   1.000  Hf
  Hf31     1.0000 0.85879  0.74120  0.63875  Biso   1.000  Hf
  Hf32     1.0000 0.85028  0.49912  0.87594  Biso   1.000  Hf
  O57      1.0000 0.49342  0.64508  0.52090  Biso   1.000  O 
  O58      1.0000 0.48567  0.60064  0.76517  Biso   1.000  O 
  O59      1.0000 0.51383  0.85606  0.76387  Biso   1.000  O 
  O60      1.0000 0.50187  0.89381  0.51605  Biso   1.000  O 
  O61      1.0000 0.74181  0.65416  0.77370  Biso   1.000  O 
  O62      1.0000 0.73829  0.59689  0.51920  Biso   1.000  O 
  O63      1.0000 0.75623  0.85088  0.49696  Biso   1.000  O 
  O64      1.0000 0.77104  0.90388  0.74064  Biso   1.000  O 
  P1       1.0000 0.10574  0.27405  0.08910  Biso   1.000  P 
