data_image0
_cell_length_a       10.1123
_cell_length_b       5.10069
_cell_length_c       10.4818
_cell_angle_alpha    90
_cell_angle_beta     80
_cell_angle_gamma    90

_symmetry_space_group_name_H-M    "P 1"
_symmetry_int_tables_number       1

loop_
  _symmetry_equiv_pos_as_xyz
  'x, y, z'

loop_
  _atom_site_label
  _atom_site_occupancy
  _atom_site_fract_x
  _atom_site_fract_y
  _atom_site_fract_z
  _atom_site_thermal_displace_type
  _atom_site_B_iso_or_equiv
  _atom_site_type_symbol
  P1       1.0000 0.08827  0.05732  0.16811  Biso   1.000  P 
  Hf1      1.0000 0.14180  0.46407  0.39329  Biso   1.000  Hf
  Hf2      1.0000 0.35308  0.54855  0.10328  Biso   1.000  Hf
  Hf3      1.0000 0.35705  0.96081  0.34853  Biso   1.000  Hf
  O1       1.0000 0.04003  0.29607  0.08526  Biso   1.000  O 
  O2       1.0000 0.02966  0.16613  0.31424  Biso   1.000  O 
  O3       1.0000 0.46761  0.83111  0.17273  Biso   1.000  O 
  O4       1.0000 0.46333  0.66933  0.42225  Biso   1.000  O 
  O5       1.0000 0.27283  0.26832  0.24284  Biso   1.000  O 
  O6       1.0000 0.27218  0.24301  0.49001  Biso   1.000  O 
  O7       1.0000 0.22715  0.76053  0.00377  Biso   1.000  O 
  O8       1.0000 0.22064  0.74603  0.26026  Biso   1.000  O 
  Hf4      1.0000 0.13248  0.04292  0.64570  Biso   1.000  Hf
  Hf5      1.0000 0.14084  0.45956  0.89490  Biso   1.000  Hf
  Hf6      1.0000 0.35824  0.54603  0.60394  Biso   1.000  Hf
  Hf7      1.0000 0.35366  0.96279  0.85948  Biso   1.000  Hf
  O9       1.0000 0.02603  0.31596  0.56911  Biso   1.000  O 
  O10      1.0000 0.02746  0.16996  0.82791  Biso   1.000  O 
  O11      1.0000 0.46249  0.83262  0.67497  Biso   1.000  O 
  O12      1.0000 0.46403  0.68518  0.92702  Biso   1.000  O 
  O13      1.0000 0.26914  0.25689  0.73595  Biso   1.000  O 
  O14      1.0000 0.28060  0.26950  0.97823  Biso   1.000  O 
  O15      1.0000 0.21973  0.75661  0.50821  Biso   1.000  O 
  O16      1.0000 0.22028  0.74138  0.75825  Biso   1.000  O 
  Hf8      1.0000 0.63242  0.04454  0.14555  Biso   1.000  Hf
  Hf9      1.0000 0.63237  0.45424  0.39695  Biso   1.000  Hf
  Hf10     1.0000 0.86058  0.53523  0.10344  Biso   1.000  Hf
  Hf11     1.0000 0.85111  0.95205  0.36169  Biso   1.000  Hf
  O17      1.0000 0.53613  0.33864  0.07846  Biso   1.000  O 
  O18      1.0000 0.53238  0.16213  0.32861  Biso   1.000  O 
  O19      1.0000 0.97247  0.84711  0.17221  Biso   1.000  O 
  O20      1.0000 0.96273  0.66831  0.42122  Biso   1.000  O 
  O21      1.0000 0.77510  0.25233  0.24094  Biso   1.000  O 
  O22      1.0000 0.77128  0.23888  0.49210  Biso   1.000  O 
  O23      1.0000 0.73148  0.75865  0.01260  Biso   1.000  O 
  O24      1.0000 0.73035  0.73674  0.26011  Biso   1.000  O 
  Hf12     1.0000 0.63008  0.04155  0.65133  Biso   1.000  Hf
  Hf13     1.0000 0.62849  0.46054  0.89922  Biso   1.000  Hf
  Hf14     1.0000 0.85759  0.53834  0.60657  Biso   1.000  Hf
  Hf15     1.0000 0.86109  0.95486  0.85690  Biso   1.000  Hf
  O25      1.0000 0.53051  0.33327  0.57839  Biso   1.000  O 
  O26      1.0000 0.52762  0.17206  0.82899  Biso   1.000  O 
  O27      1.0000 0.96551  0.81885  0.67718  Biso   1.000  O 
  O28      1.0000 0.96145  0.66101  0.93327  Biso   1.000  O 
  O29      1.0000 0.77188  0.25513  0.74243  Biso   1.000  O 
  O30      1.0000 0.76955  0.24557  0.99405  Biso   1.000  O 
  O31      1.0000 0.71953  0.75327  0.51307  Biso   1.000  O 
  O32      1.0000 0.72169  0.74264  0.76338  Biso   1.000  O 
