data_image0
_cell_length_a       10.117
_cell_length_b       10.2445
_cell_length_c       10.4691
_cell_angle_alpha    90
_cell_angle_beta     80
_cell_angle_gamma    90

_symmetry_space_group_name_H-M    "P 1"
_symmetry_int_tables_number       1

loop_
  _symmetry_equiv_pos_as_xyz
  'x, y, z'

loop_
  _atom_site_label
  _atom_site_occupancy
  _atom_site_fract_x
  _atom_site_fract_y
  _atom_site_fract_z
  _atom_site_thermal_displace_type
  _atom_site_B_iso_or_equiv
  _atom_site_type_symbol
  P1       1.0000 0.08338  0.03201  0.16476  Biso   1.000  P 
  Hf1      1.0000 0.14326  0.23057  0.39537  Biso   1.000  Hf
  Hf2      1.0000 0.35764  0.26599  0.10437  Biso   1.000  Hf
  Hf3      1.0000 0.35971  0.47819  0.35278  Biso   1.000  Hf
  O1       1.0000 0.03860  0.15139  0.08368  Biso   1.000  O 
  O2       1.0000 0.03193  0.08301  0.31224  Biso   1.000  O 
  O3       1.0000 0.46364  0.41641  0.17102  Biso   1.000  O 
  O4       1.0000 0.46234  0.33083  0.42114  Biso   1.000  O 
  O5       1.0000 0.27879  0.13448  0.24768  Biso   1.000  O 
  O6       1.0000 0.27399  0.12000  0.49208  Biso   1.000  O 
  O7       1.0000 0.22351  0.37907  0.00953  Biso   1.000  O 
  O8       1.0000 0.22063  0.37333  0.25937  Biso   1.000  O 
  Hf4      1.0000 0.13447  0.01917  0.64521  Biso   1.000  Hf
  Hf5      1.0000 0.14047  0.22542  0.89413  Biso   1.000  Hf
  Hf6      1.0000 0.35915  0.27048  0.60474  Biso   1.000  Hf
  Hf7      1.0000 0.35800  0.47779  0.85623  Biso   1.000  Hf
  O9       1.0000 0.02887  0.15857  0.56928  Biso   1.000  O 
  O10      1.0000 0.02959  0.08315  0.82803  Biso   1.000  O 
  O11      1.0000 0.46258  0.41738  0.67169  Biso   1.000  O 
  O12      1.0000 0.46331  0.33517  0.92303  Biso   1.000  O 
  O13      1.0000 0.27099  0.12718  0.73706  Biso   1.000  O 
  O14      1.0000 0.28237  0.13197  0.97821  Biso   1.000  O 
  O15      1.0000 0.22051  0.37711  0.50934  Biso   1.000  O 
  O16      1.0000 0.22179  0.36896  0.76036  Biso   1.000  O 
  Hf8      1.0000 0.14065  0.52143  0.14520  Biso   1.000  Hf
  Hf9      1.0000 0.13997  0.72802  0.39487  Biso   1.000  Hf
  Hf10     1.0000 0.35773  0.77753  0.10466  Biso   1.000  Hf
  Hf11     1.0000 0.35922  0.97858  0.35092  Biso   1.000  Hf
  O17      1.0000 0.03750  0.67084  0.08116  Biso   1.000  O 
  O18      1.0000 0.03346  0.58251  0.32859  Biso   1.000  O 
  O19      1.0000 0.46918  0.91815  0.17100  Biso   1.000  O 
  O20      1.0000 0.46600  0.83175  0.42135  Biso   1.000  O 
  O21      1.0000 0.27668  0.62725  0.23956  Biso   1.000  O 
  O22      1.0000 0.27540  0.61982  0.49060  Biso   1.000  O 
  O23      1.0000 0.22931  0.87814  0.00343  Biso   1.000  O 
  O24      1.0000 0.22766  0.86607  0.26335  Biso   1.000  O 
  Hf12     1.0000 0.13729  0.52171  0.64756  Biso   1.000  Hf
  Hf13     1.0000 0.13834  0.73132  0.89720  Biso   1.000  Hf
  Hf14     1.0000 0.36066  0.77180  0.60413  Biso   1.000  Hf
  Hf15     1.0000 0.35605  0.97910  0.85826  Biso   1.000  Hf
  O25      1.0000 0.03288  0.66563  0.57968  Biso   1.000  O 
  O26      1.0000 0.03320  0.58000  0.83116  Biso   1.000  O 
  O27      1.0000 0.46332  0.91696  0.67314  Biso   1.000  O 
  O28      1.0000 0.46382  0.83465  0.92357  Biso   1.000  O 
  O29      1.0000 0.27444  0.62868  0.74074  Biso   1.000  O 
  O30      1.0000 0.27163  0.61940  0.99183  Biso   1.000  O 
  O31      1.0000 0.22297  0.87782  0.50988  Biso   1.000  O 
  O32      1.0000 0.22108  0.87063  0.75826  Biso   1.000  O 
  Hf16     1.0000 0.63691  0.02192  0.14576  Biso   1.000  Hf
  Hf17     1.0000 0.63531  0.22784  0.39643  Biso   1.000  Hf
  Hf18     1.0000 0.85700  0.27262  0.10601  Biso   1.000  Hf
  Hf19     1.0000 0.86131  0.47707  0.35406  Biso   1.000  Hf
  O33      1.0000 0.53752  0.16948  0.07976  Biso   1.000  O 
  O34      1.0000 0.53606  0.07900  0.33041  Biso   1.000  O 
  O35      1.0000 0.96668  0.41351  0.17177  Biso   1.000  O 
  O36      1.0000 0.96400  0.32950  0.42010  Biso   1.000  O 
  O37      1.0000 0.77716  0.12769  0.24144  Biso   1.000  O 
  O38      1.0000 0.77271  0.11864  0.49175  Biso   1.000  O 
  O39      1.0000 0.72691  0.37979  0.01069  Biso   1.000  O 
  O40      1.0000 0.72244  0.36963  0.25966  Biso   1.000  O 
  Hf20     1.0000 0.63209  0.02005  0.64983  Biso   1.000  Hf
  Hf21     1.0000 0.63293  0.22794  0.89685  Biso   1.000  Hf
  Hf22     1.0000 0.85926  0.26965  0.60405  Biso   1.000  Hf
  Hf23     1.0000 0.86101  0.47525  0.85615  Biso   1.000  Hf
  O41      1.0000 0.53295  0.16827  0.58055  Biso   1.000  O 
  O42      1.0000 0.53137  0.08081  0.83098  Biso   1.000  O 
  O43      1.0000 0.96590  0.41145  0.67449  Biso   1.000  O 
  O44      1.0000 0.96236  0.32793  0.92925  Biso   1.000  O 
  O45      1.0000 0.77275  0.12802  0.74071  Biso   1.000  O 
  O46      1.0000 0.77151  0.12047  0.99212  Biso   1.000  O 
  O47      1.0000 0.72272  0.37713  0.51053  Biso   1.000  O 
  O48      1.0000 0.72208  0.37028  0.76124  Biso   1.000  O 
  Hf24     1.0000 0.63509  0.52176  0.14560  Biso   1.000  Hf
  Hf25     1.0000 0.63683  0.72585  0.39680  Biso   1.000  Hf
  Hf26     1.0000 0.86232  0.76640  0.10106  Biso   1.000  Hf
  Hf27     1.0000 0.85168  0.97561  0.36184  Biso   1.000  Hf
  O49      1.0000 0.53596  0.66928  0.07911  Biso   1.000  O 
  O50      1.0000 0.53439  0.58005  0.32960  Biso   1.000  O 
  O51      1.0000 0.96880  0.92839  0.16869  Biso   1.000  O 
  O52      1.0000 0.96492  0.83509  0.42081  Biso   1.000  O 
  O53      1.0000 0.77584  0.62679  0.23974  Biso   1.000  O 
  O54      1.0000 0.77591  0.61966  0.49088  Biso   1.000  O 
  O55      1.0000 0.72800  0.87971  0.01045  Biso   1.000  O 
  O56      1.0000 0.73138  0.86898  0.25981  Biso   1.000  O 
  Hf28     1.0000 0.63725  0.52004  0.64757  Biso   1.000  Hf
  Hf29     1.0000 0.63352  0.72824  0.89806  Biso   1.000  Hf
  Hf30     1.0000 0.85978  0.76906  0.60621  Biso   1.000  Hf
  Hf31     1.0000 0.85984  0.97806  0.85475  Biso   1.000  Hf
  O57      1.0000 0.53430  0.66626  0.57918  Biso   1.000  O 
  O58      1.0000 0.53177  0.58266  0.82914  Biso   1.000  O 
  O59      1.0000 0.96354  0.91502  0.67256  Biso   1.000  O 
  O60      1.0000 0.96120  0.83080  0.92295  Biso   1.000  O 
  O61      1.0000 0.77538  0.62666  0.74211  Biso   1.000  O 
  O62      1.0000 0.77320  0.62043  0.99238  Biso   1.000  O 
  O63      1.0000 0.72073  0.87660  0.51194  Biso   1.000  O 
  O64      1.0000 0.72216  0.86953  0.76120  Biso   1.000  O 
