data_image0
_cell_length_a       10.098
_cell_length_b       5.18735
_cell_length_c       10.2596
_cell_angle_alpha    90
_cell_angle_beta     90
_cell_angle_gamma    90

_symmetry_space_group_name_H-M    "P 1"
_symmetry_int_tables_number       1

loop_
  _symmetry_equiv_pos_as_xyz
  'x, y, z'

loop_
  _atom_site_label
  _atom_site_occupancy
  _atom_site_fract_x
  _atom_site_fract_y
  _atom_site_fract_z
  _atom_site_thermal_displace_type
  _atom_site_B_iso_or_equiv
  _atom_site_type_symbol
  Hf1      1.0000 0.13665  0.00427  0.10227  Biso   1.000  Hf
  Hf2      1.0000 0.15795  0.52436  0.40833  Biso   1.000  Hf
  Hf3      1.0000 0.35884  0.48096  0.13770  Biso   1.000  Hf
  Hf4      1.0000 0.38583  0.98539  0.36841  Biso   1.000  Hf
  O1       1.0000 0.06032  0.34168  0.98143  Biso   1.000  O 
  O2       1.0000 0.96614  0.09080  0.20215  Biso   1.000  O 
  O3       1.0000 0.97628  0.57509  0.31776  Biso   1.000  O 
  O4       1.0000 0.05811  0.86581  0.94316  Biso   1.000  O 
  O5       1.0000 0.23060  0.26700  0.27130  Biso   1.000  O 
  O6       1.0000 0.31606  0.14453  0.03496  Biso   1.000  O 
  O7       1.0000 0.28904  0.68185  0.96969  Biso   1.000  O 
  O8       1.0000 0.25653  0.77617  0.25278  Biso   1.000  O 
  Hf5      1.0000 0.09957  0.05612  0.63472  Biso   1.000  Hf
  Hf6      1.0000 0.12524  0.55655  0.82729  Biso   1.000  Hf
  Hf7      1.0000 0.39022  0.43795  0.64054  Biso   1.000  Hf
  Hf8      1.0000 0.40221  0.94331  0.86065  Biso   1.000  Hf
  O9       1.0000 0.04823  0.41073  0.55856  Biso   1.000  O 
  O10      1.0000 0.97809  0.25688  0.76733  Biso   1.000  O 
  O11      1.0000 0.99553  0.77229  0.71489  Biso   1.000  O 
  O12      1.0000 0.08554  0.90053  0.46223  Biso   1.000  O 
  O13      1.0000 0.24429  0.25804  0.76822  Biso   1.000  O 
  O14      1.0000 0.26580  0.19703  0.51933  Biso   1.000  O 
  O15      1.0000 0.33528  0.66202  0.47865  Biso   1.000  O 
  O16      1.0000 0.26148  0.76581  0.71845  Biso   1.000  O 
  Hf9      1.0000 0.59446  0.04753  0.14158  Biso   1.000  Hf
  Hf10     1.0000 0.61623  0.55078  0.36414  Biso   1.000  Hf
  Hf11     1.0000 0.85843  0.44733  0.15252  Biso   1.000  Hf
  Hf12     1.0000 0.90706  0.94001  0.36255  Biso   1.000  Hf
  O17      1.0000 0.54130  0.38896  0.04825  Biso   1.000  O 
  O18      1.0000 0.47956  0.26417  0.27712  Biso   1.000  O 
  O19      1.0000 0.50191  0.75953  0.22615  Biso   1.000  O 
  O20      1.0000 0.57309  0.88442  0.96874  Biso   1.000  O 
  O21      1.0000 0.73207  0.25078  0.28135  Biso   1.000  O 
  O22      1.0000 0.76476  0.19123  0.01770  Biso   1.000  O 
  O23      1.0000 0.81721  0.67124  0.98426  Biso   1.000  O 
  O24      1.0000 0.75559  0.75933  0.23586  Biso   1.000  O 
  Hf13     1.0000 0.63759  0.02304  0.60090  Biso   1.000  Hf
  Hf14     1.0000 0.64728  0.52165  0.90374  Biso   1.000  Hf
  Hf15     1.0000 0.85995  0.48475  0.63867  Biso   1.000  Hf
  Hf16     1.0000 0.87947  0.98173  0.86655  Biso   1.000  Hf
  O25      1.0000 0.56386  0.38388  0.53536  Biso   1.000  O 
  O26      1.0000 0.47274  0.09273  0.71113  Biso   1.000  O 
  O27      1.0000 0.48839  0.59805  0.78902  Biso   1.000  O 
  O28      1.0000 0.56190  0.89171  0.45655  Biso   1.000  O 
  O29      1.0000 0.72818  0.27318  0.76088  Biso   1.000  O 
  O30      1.0000 0.81460  0.16763  0.52681  Biso   1.000  O 
  O31      1.0000 0.78238  0.70182  0.48965  Biso   1.000  O 
  O32      1.0000 0.74873  0.77009  0.74733  Biso   1.000  O 
  P1       1.0000 0.08933  0.53236  0.10620  Biso   1.000  P 
