data_image0
_cell_length_a       10.019
_cell_length_b       5.0879
_cell_length_c       10.465
_cell_angle_alpha    90
_cell_angle_beta     90
_cell_angle_gamma    90

_symmetry_space_group_name_H-M    "P 1"
_symmetry_int_tables_number       1

loop_
  _symmetry_equiv_pos_as_xyz
  'x, y, z'

loop_
  _atom_site_label
  _atom_site_occupancy
  _atom_site_fract_x
  _atom_site_fract_y
  _atom_site_fract_z
  _atom_site_thermal_displace_type
  _atom_site_B_iso_or_equiv
  _atom_site_type_symbol
  P1       1.0000 0.08911  0.05716  0.18736  Biso   1.000  P 
  Hf1      1.0000 0.14078  0.47547  0.41951  Biso   1.000  Hf
  Hf2      1.0000 0.35198  0.55102  0.16851  Biso   1.000  Hf
  Hf3      1.0000 0.35715  0.97347  0.41556  Biso   1.000  Hf
  Hf4      1.0000 0.63519  0.04548  0.07847  Biso   1.000  Hf
  Hf5      1.0000 0.63054  0.46292  0.32699  Biso   1.000  Hf
  Hf6      1.0000 0.86313  0.53594  0.07834  Biso   1.000  Hf
  Hf7      1.0000 0.85094  0.96032  0.33493  Biso   1.000  Hf
  O1       1.0000 0.04136  0.29613  0.09325  Biso   1.000  O 
  O2       1.0000 0.02944  0.17233  0.32123  Biso   1.000  O 
  O3       1.0000 0.47402  0.82824  0.08318  Biso   1.000  O 
  O4       1.0000 0.46601  0.68662  0.33033  Biso   1.000  O 
  O5       1.0000 0.27317  0.27304  0.29877  Biso   1.000  O 
  O6       1.0000 0.29503  0.27480  0.03277  Biso   1.000  O 
  O7       1.0000 0.21729  0.76566  0.29364  Biso   1.000  O 
  O8       1.0000 0.22896  0.75154  0.03886  Biso   1.000  O 
  O9       1.0000 0.53239  0.33655  0.16593  Biso   1.000  O 
  O10      1.0000 0.52866  0.17729  0.41636  Biso   1.000  O 
  O11      1.0000 0.97480  0.84798  0.16905  Biso   1.000  O 
  O12      1.0000 0.96291  0.67728  0.41536  Biso   1.000  O 
  O13      1.0000 0.77134  0.24990  0.45641  Biso   1.000  O 
  O14      1.0000 0.77609  0.25333  0.20660  Biso   1.000  O 
  O15      1.0000 0.71889  0.75017  0.45697  Biso   1.000  O 
  O16      1.0000 0.73260  0.75259  0.20569  Biso   1.000  O 
  Hf8      1.0000 0.13268  0.05171  0.67075  Biso   1.000  Hf
  Hf9      1.0000 0.14339  0.46755  0.92122  Biso   1.000  Hf
  Hf10     1.0000 0.35832  0.55414  0.67030  Biso   1.000  Hf
  Hf11     1.0000 0.35479  0.96992  0.92502  Biso   1.000  Hf
  Hf12     1.0000 0.62982  0.04809  0.58101  Biso   1.000  Hf
  Hf13     1.0000 0.63324  0.46926  0.82922  Biso   1.000  Hf
  Hf14     1.0000 0.85774  0.54501  0.57982  Biso   1.000  Hf
  Hf15     1.0000 0.86290  0.96399  0.83045  Biso   1.000  Hf
  O17      1.0000 0.02521  0.32224  0.57318  Biso   1.000  O 
  O18      1.0000 0.02673  0.18284  0.83212  Biso   1.000  O 
  O19      1.0000 0.46268  0.84282  0.58179  Biso   1.000  O 
  O20      1.0000 0.46409  0.68239  0.83149  Biso   1.000  O 
  O21      1.0000 0.27052  0.25292  0.78963  Biso   1.000  O 
  O22      1.0000 0.27151  0.26438  0.54470  Biso   1.000  O 
  O23      1.0000 0.22015  0.75257  0.79254  Biso   1.000  O 
  O24      1.0000 0.22001  0.76371  0.54214  Biso   1.000  O 
  O25      1.0000 0.52998  0.34335  0.66587  Biso   1.000  O 
  O26      1.0000 0.52992  0.17590  0.91395  Biso   1.000  O 
  O27      1.0000 0.96744  0.82428  0.67129  Biso   1.000  O 
  O28      1.0000 0.96579  0.67521  0.92769  Biso   1.000  O 
  O29      1.0000 0.77341  0.25987  0.95881  Biso   1.000  O 
  O30      1.0000 0.77240  0.25830  0.70685  Biso   1.000  O 
  O31      1.0000 0.72147  0.75750  0.95762  Biso   1.000  O 
  O32      1.0000 0.72240  0.76099  0.70661  Biso   1.000  O 
