data_image0
_cell_length_a       5.00512
_cell_length_b       10.402
_cell_length_c       10.1238
_cell_angle_alpha    90
_cell_angle_beta     90
_cell_angle_gamma    90

_symmetry_space_group_name_H-M    "P 1"
_symmetry_int_tables_number       1

loop_
  _symmetry_equiv_pos_as_xyz
  'x, y, z'

loop_
  _atom_site_label
  _atom_site_occupancy
  _atom_site_fract_x
  _atom_site_fract_y
  _atom_site_fract_z
  _atom_site_thermal_displace_type
  _atom_site_B_iso_or_equiv
  _atom_site_type_symbol
  Hf1      1.0000 0.27425  0.00994  0.11828  Biso   1.000  Hf
  Hf2      1.0000 0.24274  0.23420  0.40508  Biso   1.000  Hf
  Hf3      1.0000 0.63837  0.26896  0.14000  Biso   1.000  Hf
  Hf4      1.0000 0.69988  0.48748  0.38639  Biso   1.000  Hf
  O1       1.0000 0.00008  0.18802  0.22215  Biso   1.000  O 
  O2       1.0000 0.06295  0.06138  0.44558  Biso   1.000  O 
  O3       1.0000 0.86525  0.44306  0.20577  Biso   1.000  O 
  O4       1.0000 0.89803  0.32051  0.45147  Biso   1.000  O 
  O5       1.0000 0.48518  0.11918  0.25997  Biso   1.000  O 
  O6       1.0000 0.54090  0.13259  0.50793  Biso   1.000  O 
  O7       1.0000 0.43024  0.38370  0.50984  Biso   1.000  O 
  O8       1.0000 0.39694  0.37443  0.26914  Biso   1.000  O 
  Hf5      1.0000 0.25653  0.01354  0.62572  Biso   1.000  Hf
  Hf6      1.0000 0.23497  0.23406  0.85811  Biso   1.000  Hf
  Hf7      1.0000 0.71894  0.27686  0.63918  Biso   1.000  Hf
  Hf8      1.0000 0.68386  0.49058  0.86415  Biso   1.000  Hf
  O9       1.0000 0.07915  0.18824  0.66540  Biso   1.000  O 
  O10      1.0000 0.05982  0.06388  0.93173  Biso   1.000  O 
  O11      1.0000 0.85927  0.46230  0.66679  Biso   1.000  O 
  O12      1.0000 0.86189  0.31074  0.84720  Biso   1.000  O 
  O13      1.0000 0.51554  0.12039  0.75314  Biso   1.000  O 
  O14      1.0000 0.58970  0.12134  0.00391  Biso   1.000  O 
  O15      1.0000 0.43347  0.39365  0.99485  Biso   1.000  O 
  O16      1.0000 0.39635  0.38141  0.74791  Biso   1.000  O 
  Hf9      1.0000 0.22863  0.52060  0.13117  Biso   1.000  Hf
  Hf10     1.0000 0.23227  0.73845  0.37620  Biso   1.000  Hf
  Hf11     1.0000 0.70003  0.76444  0.12910  Biso   1.000  Hf
  Hf12     1.0000 0.68987  0.98756  0.37692  Biso   1.000  Hf
  O17      1.0000 0.04203  0.68634  0.19526  Biso   1.000  O 
  O18      1.0000 0.04391  0.57272  0.44069  Biso   1.000  O 
  O19      1.0000 0.89551  0.93972  0.19248  Biso   1.000  O 
  O20      1.0000 0.88695  0.81932  0.44530  Biso   1.000  O 
  O21      1.0000 0.50525  0.62155  0.25571  Biso   1.000  O 
  O22      1.0000 0.50021  0.63865  0.50328  Biso   1.000  O 
  O23      1.0000 0.42039  0.88518  0.49941  Biso   1.000  O 
  O24      1.0000 0.42918  0.86971  0.24877  Biso   1.000  O 
  Hf13     1.0000 0.22753  0.52502  0.62344  Biso   1.000  Hf
  Hf14     1.0000 0.20875  0.73897  0.87802  Biso   1.000  Hf
  Hf15     1.0000 0.68986  0.77224  0.62821  Biso   1.000  Hf
  Hf16     1.0000 0.67348  0.98659  0.87872  Biso   1.000  Hf
  O25      1.0000 0.02713  0.69212  0.69799  Biso   1.000  O 
  O26      1.0000 0.01042  0.56650  0.94745  Biso   1.000  O 
  O27      1.0000 0.87824  0.93962  0.69678  Biso   1.000  O 
  O28      1.0000 0.86646  0.81871  0.94949  Biso   1.000  O 
  O29      1.0000 0.49072  0.62774  0.75289  Biso   1.000  O 
  O30      1.0000 0.51444  0.63249  0.00479  Biso   1.000  O 
  O31      1.0000 0.43938  0.87857  0.00150  Biso   1.000  O 
  O32      1.0000 0.41197  0.87088  0.75266  Biso   1.000  O 
  P1       1.0000 0.12916  0.26890  0.09887  Biso   1.000  P 
