data_image0
_cell_length_a       10.2181
_cell_length_b       10.3745
_cell_length_c       5.09721
_cell_angle_alpha    90
_cell_angle_beta     90
_cell_angle_gamma    90

_symmetry_space_group_name_H-M    "P 1"
_symmetry_int_tables_number       1

loop_
  _symmetry_equiv_pos_as_xyz
  'x, y, z'

loop_
  _atom_site_label
  _atom_site_occupancy
  _atom_site_fract_x
  _atom_site_fract_y
  _atom_site_fract_z
  _atom_site_thermal_displace_type
  _atom_site_B_iso_or_equiv
  _atom_site_type_symbol
  Hf1      1.0000 0.18893  0.97238  0.32714  Biso   1.000  Hf
  Hf2      1.0000 0.12747  0.25228  0.61474  Biso   1.000  Hf
  Hf3      1.0000 0.37580  0.24088  0.22270  Biso   1.000  Hf
  Hf4      1.0000 0.40002  0.98273  0.72752  Biso   1.000  Hf
  O1       1.0000 0.94911  0.14200  0.99124  Biso   1.000  O 
  O2       1.0000 0.99365  0.09645  0.50281  Biso   1.000  O 
  O3       1.0000 0.98771  0.36023  0.38819  Biso   1.000  O 
  O4       1.0000 0.02303  0.37520  0.86985  Biso   1.000  O 
  O5       1.0000 0.26931  0.12024  0.52503  Biso   1.000  O 
  O6       1.0000 0.29116  0.07076  0.05044  Biso   1.000  O 
  O7       1.0000 0.26710  0.31323  0.92328  Biso   1.000  O 
  O8       1.0000 0.25071  0.38729  0.44118  Biso   1.000  O 
  Hf5      1.0000 0.13034  0.48682  0.18132  Biso   1.000  Hf
  Hf6      1.0000 0.15717  0.72309  0.79518  Biso   1.000  Hf
  Hf7      1.0000 0.40052  0.71786  0.31099  Biso   1.000  Hf
  Hf8      1.0000 0.38587  0.46611  0.74922  Biso   1.000  Hf
  O9       1.0000 0.01089  0.61307  0.97116  Biso   1.000  O 
  O10      1.0000 0.03542  0.60184  0.46531  Biso   1.000  O 
  O11      1.0000 0.05377  0.84698  0.54942  Biso   1.000  O 
  O12      1.0000 0.03912  0.90839  0.05727  Biso   1.000  O 
  O13      1.0000 0.28823  0.62499  0.57555  Biso   1.000  O 
  O14      1.0000 0.27777  0.59580  0.04888  Biso   1.000  O 
  O15      1.0000 0.27548  0.83077  0.09953  Biso   1.000  O 
  O16      1.0000 0.30135  0.86513  0.58742  Biso   1.000  O 
  Hf9      1.0000 0.67848  0.96108  0.26299  Biso   1.000  Hf
  Hf10     1.0000 0.60862  0.23367  0.74746  Biso   1.000  Hf
  Hf11     1.0000 0.83999  0.22567  0.30367  Biso   1.000  Hf
  Hf12     1.0000 0.87824  0.98379  0.77066  Biso   1.000  Hf
  O17      1.0000 0.49762  0.11843  0.96740  Biso   1.000  O 
  O18      1.0000 0.51298  0.08495  0.46722  Biso   1.000  O 
  O19      1.0000 0.48233  0.32690  0.51628  Biso   1.000  O 
  O20      1.0000 0.51062  0.40738  0.01937  Biso   1.000  O 
  O21      1.0000 0.75200  0.12314  0.59190  Biso   1.000  O 
  O22      1.0000 0.76020  0.07339  0.07993  Biso   1.000  O 
  O23      1.0000 0.74144  0.33548  0.04567  Biso   1.000  O 
  O24      1.0000 0.74410  0.37653  0.52528  Biso   1.000  O 
  Hf13     1.0000 0.65574  0.49735  0.22243  Biso   1.000  Hf
  Hf14     1.0000 0.64463  0.70308  0.76879  Biso   1.000  Hf
  Hf15     1.0000 0.92570  0.75644  0.28231  Biso   1.000  Hf
  Hf16     1.0000 0.89711  0.49278  0.67615  Biso   1.000  Hf
  O25      1.0000 0.52642  0.65123  0.01905  Biso   1.000  O 
  O26      1.0000 0.52800  0.57343  0.51296  Biso   1.000  O 
  O27      1.0000 0.54906  0.82638  0.47867  Biso   1.000  O 
  O28      1.0000 0.54924  0.85819  0.96366  Biso   1.000  O 
  O29      1.0000 0.78293  0.63128  0.45836  Biso   1.000  O 
  O30      1.0000 0.75103  0.53939  0.93180  Biso   1.000  O 
  O31      1.0000 0.78812  0.82106  0.03121  Biso   1.000  O 
  O32      1.0000 0.80667  0.87726  0.52416  Biso   1.000  O 
  P1       1.0000 0.12084  0.16793  0.03090  Biso   1.000  P 
