data_image0
_cell_length_a       9.98988
_cell_length_b       10.3815
_cell_length_c       10.0614
_cell_angle_alpha    90
_cell_angle_beta     90
_cell_angle_gamma    90

_symmetry_space_group_name_H-M    "P 1"
_symmetry_int_tables_number       1

loop_
  _symmetry_equiv_pos_as_xyz
  'x, y, z'

loop_
  _atom_site_label
  _atom_site_occupancy
  _atom_site_fract_x
  _atom_site_fract_y
  _atom_site_fract_z
  _atom_site_thermal_displace_type
  _atom_site_B_iso_or_equiv
  _atom_site_type_symbol
  Hf1      1.0000 0.14302  0.01421  0.11924  Biso   1.000  Hf
  Hf2      1.0000 0.13630  0.23345  0.39781  Biso   1.000  Hf
  Hf3      1.0000 0.36405  0.26277  0.12190  Biso   1.000  Hf
  Hf4      1.0000 0.36414  0.48599  0.37581  Biso   1.000  Hf
  O1       1.0000 0.01876  0.18686  0.22358  Biso   1.000  O 
  O2       1.0000 0.03848  0.06513  0.44962  Biso   1.000  O 
  O3       1.0000 0.45604  0.43390  0.19361  Biso   1.000  O 
  O4       1.0000 0.46175  0.31778  0.44608  Biso   1.000  O 
  O5       1.0000 0.26491  0.11677  0.25447  Biso   1.000  O 
  O6       1.0000 0.27663  0.13124  0.50471  Biso   1.000  O 
  O7       1.0000 0.23055  0.38499  0.50447  Biso   1.000  O 
  O8       1.0000 0.22435  0.36566  0.25996  Biso   1.000  O 
  Hf5      1.0000 0.13781  0.01377  0.62740  Biso   1.000  Hf
  Hf6      1.0000 0.13407  0.23025  0.86679  Biso   1.000  Hf
  Hf7      1.0000 0.36821  0.26957  0.62915  Biso   1.000  Hf
  Hf8      1.0000 0.36655  0.48953  0.87352  Biso   1.000  Hf
  O9       1.0000 0.04037  0.18565  0.68456  Biso   1.000  O 
  O10      1.0000 0.04205  0.06282  0.93980  Biso   1.000  O 
  O11      1.0000 0.46147  0.43776  0.69397  Biso   1.000  O 
  O12      1.0000 0.46526  0.31872  0.94127  Biso   1.000  O 
  O13      1.0000 0.27153  0.11796  0.74912  Biso   1.000  O 
  O14      1.0000 0.29173  0.12348  0.99259  Biso   1.000  O 
  O15      1.0000 0.23542  0.39131  0.99518  Biso   1.000  O 
  O16      1.0000 0.22753  0.37051  0.74930  Biso   1.000  O 
  Hf9      1.0000 0.12241  0.51963  0.12527  Biso   1.000  Hf
  Hf10     1.0000 0.12791  0.73530  0.37568  Biso   1.000  Hf
  Hf11     1.0000 0.35850  0.76401  0.12628  Biso   1.000  Hf
  Hf12     1.0000 0.35927  0.98409  0.37511  Biso   1.000  Hf
  O17      1.0000 0.02909  0.68760  0.19535  Biso   1.000  O 
  O18      1.0000 0.03182  0.56982  0.44529  Biso   1.000  O 
  O19      1.0000 0.45585  0.93377  0.19418  Biso   1.000  O 
  O20      1.0000 0.45767  0.81712  0.44407  Biso   1.000  O 
  O21      1.0000 0.26293  0.61666  0.24999  Biso   1.000  O 
  O22      1.0000 0.26594  0.63434  0.49925  Biso   1.000  O 
  O23      1.0000 0.22350  0.88332  0.49898  Biso   1.000  O 
  O24      1.0000 0.22390  0.86720  0.24845  Biso   1.000  O 
  Hf13     1.0000 0.13069  0.51982  0.62572  Biso   1.000  Hf
  Hf14     1.0000 0.12790  0.73636  0.87558  Biso   1.000  Hf
  Hf15     1.0000 0.36219  0.76740  0.62491  Biso   1.000  Hf
  Hf16     1.0000 0.36473  0.98271  0.87363  Biso   1.000  Hf
  O25      1.0000 0.03174  0.68797  0.69459  Biso   1.000  O 
  O26      1.0000 0.03082  0.56697  0.94509  Biso   1.000  O 
  O27      1.0000 0.45959  0.93534  0.69123  Biso   1.000  O 
  O28      1.0000 0.46031  0.81811  0.94674  Biso   1.000  O 
  O29      1.0000 0.26547  0.62015  0.74966  Biso   1.000  O 
  O30      1.0000 0.26408  0.63736  0.99930  Biso   1.000  O 
  O31      1.0000 0.22396  0.88307  0.99933  Biso   1.000  O 
  O32      1.0000 0.22633  0.86770  0.74974  Biso   1.000  O 
  Hf17     1.0000 0.63382  0.01688  0.12553  Biso   1.000  Hf
  Hf18     1.0000 0.63118  0.23427  0.37835  Biso   1.000  Hf
  Hf19     1.0000 0.84647  0.27560  0.12272  Biso   1.000  Hf
  Hf20     1.0000 0.86099  0.48751  0.37985  Biso   1.000  Hf
  O33      1.0000 0.53268  0.18203  0.19515  Biso   1.000  O 
  O34      1.0000 0.53795  0.06632  0.44478  Biso   1.000  O 
  O35      1.0000 0.94065  0.44950  0.19906  Biso   1.000  O 
  O36      1.0000 0.96495  0.32157  0.45136  Biso   1.000  O 
  O37      1.0000 0.76734  0.12236  0.24933  Biso   1.000  O 
  O38      1.0000 0.77264  0.13634  0.49975  Biso   1.000  O 
  O39      1.0000 0.72617  0.38336  0.50097  Biso   1.000  O 
  O40      1.0000 0.71703  0.37203  0.25189  Biso   1.000  O 
  Hf21     1.0000 0.63845  0.01903  0.62517  Biso   1.000  Hf
  Hf22     1.0000 0.63433  0.23622  0.87394  Biso   1.000  Hf
  Hf23     1.0000 0.86557  0.27189  0.63002  Biso   1.000  Hf
  Hf24     1.0000 0.86135  0.48802  0.87161  Biso   1.000  Hf
  O41      1.0000 0.53807  0.18594  0.69361  Biso   1.000  O 
  O42      1.0000 0.54559  0.06568  0.93983  Biso   1.000  O 
  O43      1.0000 0.95671  0.44407  0.68744  Biso   1.000  O 
  O44      1.0000 0.94600  0.31253  0.90705  Biso   1.000  O 
  O45      1.0000 0.77309  0.12061  0.74968  Biso   1.000  O 
  O46      1.0000 0.77128  0.13264  0.00054  Biso   1.000  O 
  O47      1.0000 0.72237  0.38441  0.00030  Biso   1.000  O 
  O48      1.0000 0.72236  0.37393  0.74831  Biso   1.000  O 
  Hf25     1.0000 0.62695  0.52028  0.12934  Biso   1.000  Hf
  Hf26     1.0000 0.62937  0.73749  0.37673  Biso   1.000  Hf
  Hf27     1.0000 0.85915  0.76842  0.12691  Biso   1.000  Hf
  Hf28     1.0000 0.86016  0.98851  0.37373  Biso   1.000  Hf
  O49      1.0000 0.52800  0.68474  0.19783  Biso   1.000  O 
  O50      1.0000 0.53232  0.56847  0.44524  Biso   1.000  O 
  O51      1.0000 0.95921  0.93944  0.19178  Biso   1.000  O 
  O52      1.0000 0.95785  0.81949  0.44348  Biso   1.000  O 
  O53      1.0000 0.76136  0.62356  0.25365  Biso   1.000  O 
  O54      1.0000 0.76466  0.63666  0.50144  Biso   1.000  O 
  O55      1.0000 0.72532  0.88652  0.49921  Biso   1.000  O 
  O56      1.0000 0.72353  0.87191  0.24978  Biso   1.000  O 
  Hf29     1.0000 0.63122  0.51992  0.62549  Biso   1.000  Hf
  Hf30     1.0000 0.63056  0.73737  0.87708  Biso   1.000  Hf
  Hf31     1.0000 0.86190  0.77029  0.62564  Biso   1.000  Hf
  Hf32     1.0000 0.85851  0.98648  0.87619  Biso   1.000  Hf
  O57      1.0000 0.53031  0.68563  0.69718  Biso   1.000  O 
  O58      1.0000 0.53226  0.57144  0.94795  Biso   1.000  O 
  O59      1.0000 0.95837  0.93575  0.69738  Biso   1.000  O 
  O60      1.0000 0.95756  0.81769  0.94465  Biso   1.000  O 
  O61      1.0000 0.76537  0.62303  0.74988  Biso   1.000  O 
  O62      1.0000 0.76406  0.63295  0.00217  Biso   1.000  O 
  O63      1.0000 0.72308  0.88191  0.00063  Biso   1.000  O 
  O64      1.0000 0.72434  0.87098  0.74957  Biso   1.000  O 
  P1       1.0000 0.09953  0.27444  0.11042  Biso   1.000  P 
