data_image0
_cell_length_a       9.94901
_cell_length_b       10.3637
_cell_length_c       9.99916
_cell_angle_alpha    90
_cell_angle_beta     90
_cell_angle_gamma    90

_symmetry_space_group_name_H-M    "P 1"
_symmetry_int_tables_number       1

loop_
  _symmetry_equiv_pos_as_xyz
  'x, y, z'

loop_
  _atom_site_label
  _atom_site_occupancy
  _atom_site_fract_x
  _atom_site_fract_y
  _atom_site_fract_z
  _atom_site_thermal_displace_type
  _atom_site_B_iso_or_equiv
  _atom_site_type_symbol
  P1       1.0000 0.08606  0.03529  0.10800  Biso   1.000  P 
  Hf1      1.0000 0.14582  0.23008  0.37696  Biso   1.000  Hf
  Hf2      1.0000 0.36598  0.26341  0.12773  Biso   1.000  Hf
  Hf3      1.0000 0.36994  0.48310  0.37631  Biso   1.000  Hf
  O1       1.0000 0.04388  0.17171  0.18001  Biso   1.000  O 
  O2       1.0000 0.04089  0.06596  0.44423  Biso   1.000  O 
  O3       1.0000 0.46487  0.43322  0.19490  Biso   1.000  O 
  O4       1.0000 0.46812  0.31561  0.44619  Biso   1.000  O 
  O5       1.0000 0.28940  0.13058  0.26137  Biso   1.000  O 
  O6       1.0000 0.27271  0.13075  0.50711  Biso   1.000  O 
  O7       1.0000 0.23362  0.38001  0.50040  Biso   1.000  O 
  O8       1.0000 0.22824  0.36869  0.24948  Biso   1.000  O 
  Hf4      1.0000 0.13886  0.01564  0.62887  Biso   1.000  Hf
  Hf5      1.0000 0.14375  0.23708  0.87734  Biso   1.000  Hf
  Hf6      1.0000 0.37077  0.26617  0.62770  Biso   1.000  Hf
  Hf7      1.0000 0.37266  0.48362  0.87690  Biso   1.000  Hf
  O9       1.0000 0.03695  0.17978  0.70353  Biso   1.000  O 
  O10      1.0000 0.03582  0.06193  0.95929  Biso   1.000  O 
  O11      1.0000 0.46829  0.43453  0.69369  Biso   1.000  O 
  O12      1.0000 0.46825  0.31415  0.94087  Biso   1.000  O 
  O13      1.0000 0.27402  0.11764  0.75442  Biso   1.000  O 
  O14      1.0000 0.26495  0.13449  0.00222  Biso   1.000  O 
  O15      1.0000 0.23021  0.38352  0.00057  Biso   1.000  O 
  O16      1.0000 0.23397  0.36812  0.75087  Biso   1.000  O 
  Hf8      1.0000 0.13635  0.51620  0.12738  Biso   1.000  Hf
  Hf9      1.0000 0.14129  0.73370  0.37776  Biso   1.000  Hf
  Hf10     1.0000 0.36430  0.76750  0.12757  Biso   1.000  Hf
  Hf11     1.0000 0.36598  0.98231  0.37246  Biso   1.000  Hf
  O17      1.0000 0.03896  0.68619  0.19410  Biso   1.000  O 
  O18      1.0000 0.04081  0.56396  0.44470  Biso   1.000  O 
  O19      1.0000 0.47226  0.93261  0.19630  Biso   1.000  O 
  O20      1.0000 0.47364  0.81766  0.45214  Biso   1.000  O 
  O21      1.0000 0.27237  0.61353  0.25049  Biso   1.000  O 
  O22      1.0000 0.27741  0.63133  0.50136  Biso   1.000  O 
  O23      1.0000 0.23352  0.88122  0.50503  Biso   1.000  O 
  O24      1.0000 0.24597  0.85699  0.26170  Biso   1.000  O 
  Hf12     1.0000 0.13931  0.51742  0.62591  Biso   1.000  Hf
  Hf13     1.0000 0.14159  0.73339  0.87967  Biso   1.000  Hf
  Hf14     1.0000 0.37113  0.76829  0.62872  Biso   1.000  Hf
  Hf15     1.0000 0.36539  0.98255  0.88538  Biso   1.000  Hf
  O25      1.0000 0.04219  0.68405  0.69290  Biso   1.000  O 
  O26      1.0000 0.04057  0.56515  0.94607  Biso   1.000  O 
  O27      1.0000 0.46699  0.93452  0.69994  Biso   1.000  O 
  O28      1.0000 0.46841  0.81515  0.94469  Biso   1.000  O 
  O29      1.0000 0.27548  0.61828  0.75175  Biso   1.000  O 
  O30      1.0000 0.27177  0.63023  0.00163  Biso   1.000  O 
  O31      1.0000 0.22546  0.87841  0.00478  Biso   1.000  O 
  O32      1.0000 0.23241  0.86934  0.75380  Biso   1.000  O 
  Hf16     1.0000 0.63565  0.01738  0.12553  Biso   1.000  Hf
  Hf17     1.0000 0.63608  0.23293  0.37528  Biso   1.000  Hf
  Hf18     1.0000 0.86067  0.26965  0.12261  Biso   1.000  Hf
  Hf19     1.0000 0.87110  0.48162  0.37593  Biso   1.000  Hf
  O33      1.0000 0.54514  0.18751  0.19011  Biso   1.000  O 
  O34      1.0000 0.53967  0.06546  0.44138  Biso   1.000  O 
  O35      1.0000 0.96727  0.42744  0.19438  Biso   1.000  O 
  O36      1.0000 0.96894  0.31226  0.44146  Biso   1.000  O 
  O37      1.0000 0.77841  0.11867  0.24769  Biso   1.000  O 
  O38      1.0000 0.77459  0.13107  0.49772  Biso   1.000  O 
  O39      1.0000 0.73486  0.38120  0.49938  Biso   1.000  O 
  O40      1.0000 0.73042  0.36917  0.24985  Biso   1.000  O 
  Hf20     1.0000 0.63186  0.01344  0.62255  Biso   1.000  Hf
  Hf21     1.0000 0.63702  0.23082  0.87414  Biso   1.000  Hf
  Hf22     1.0000 0.87135  0.26389  0.62436  Biso   1.000  Hf
  Hf23     1.0000 0.87231  0.48202  0.87367  Biso   1.000  Hf
  O41      1.0000 0.54044  0.18349  0.69262  Biso   1.000  O 
  O42      1.0000 0.53937  0.06499  0.94683  Biso   1.000  O 
  O43      1.0000 0.96972  0.43179  0.69302  Biso   1.000  O 
  O44      1.0000 0.97005  0.31390  0.94454  Biso   1.000  O 
  O45      1.0000 0.77087  0.11367  0.74596  Biso   1.000  O 
  O46      1.0000 0.77718  0.13016  0.99593  Biso   1.000  O 
  O47      1.0000 0.73563  0.38022  0.99989  Biso   1.000  O 
  O48      1.0000 0.73520  0.36496  0.74904  Biso   1.000  O 
  Hf24     1.0000 0.63387  0.51737  0.12788  Biso   1.000  Hf
  Hf25     1.0000 0.63858  0.73478  0.37407  Biso   1.000  Hf
  Hf26     1.0000 0.86999  0.76201  0.11981  Biso   1.000  Hf
  Hf27     1.0000 0.87063  0.98626  0.37840  Biso   1.000  Hf
  O49      1.0000 0.53954  0.68510  0.19537  Biso   1.000  O 
  O50      1.0000 0.54192  0.56546  0.44225  Biso   1.000  O 
  O51      1.0000 0.97531  0.94493  0.17559  Biso   1.000  O 
  O52      1.0000 0.96879  0.81742  0.43993  Biso   1.000  O 
  O53      1.0000 0.77574  0.61583  0.24780  Biso   1.000  O 
  O54      1.0000 0.77480  0.63251  0.49796  Biso   1.000  O 
  O55      1.0000 0.73625  0.88317  0.49826  Biso   1.000  O 
  O56      1.0000 0.74493  0.86801  0.24752  Biso   1.000  O 
  Hf28     1.0000 0.63876  0.51561  0.62443  Biso   1.000  Hf
  Hf29     1.0000 0.63696  0.73169  0.87537  Biso   1.000  Hf
  Hf30     1.0000 0.87238  0.76460  0.62333  Biso   1.000  Hf
  Hf31     1.0000 0.86382  0.97893  0.87015  Biso   1.000  Hf
  O57      1.0000 0.54089  0.68226  0.69544  Biso   1.000  O 
  O58      1.0000 0.54319  0.56390  0.94545  Biso   1.000  O 
  O59      1.0000 0.96750  0.93342  0.69300  Biso   1.000  O 
  O60      1.0000 0.96604  0.81397  0.93762  Biso   1.000  O 
  O61      1.0000 0.77630  0.61556  0.74824  Biso   1.000  O 
  O62      1.0000 0.77650  0.63080  0.99862  Biso   1.000  O 
  O63      1.0000 0.73357  0.88024  0.99759  Biso   1.000  O 
  O64      1.0000 0.73341  0.86454  0.74747  Biso   1.000  O 
