data_image0
_cell_length_a       10.213
_cell_length_b       5.14196
_cell_length_c       10.5593
_cell_angle_alpha    90
_cell_angle_beta     80
_cell_angle_gamma    90

_symmetry_space_group_name_H-M    "P 1"
_symmetry_int_tables_number       1

loop_
  _symmetry_equiv_pos_as_xyz
  'x, y, z'

loop_
  _atom_site_label
  _atom_site_occupancy
  _atom_site_fract_x
  _atom_site_fract_y
  _atom_site_fract_z
  _atom_site_thermal_displace_type
  _atom_site_B_iso_or_equiv
  _atom_site_type_symbol
  Hf1      1.0000 0.13204  0.03972  0.14169  Biso   1.000  Hf
  Hf2      1.0000 0.13919  0.45175  0.39995  Biso   1.000  Hf
  Hf3      1.0000 0.36348  0.54841  0.10009  Biso   1.000  Hf
  Hf4      1.0000 0.34670  0.95710  0.35011  Biso   1.000  Hf
  O1       1.0000 0.03068  0.33815  0.07716  Biso   1.000  O 
  O2       1.0000 0.03026  0.16358  0.32877  Biso   1.000  O 
  O3       1.0000 0.45660  0.87398  0.16473  Biso   1.000  O 
  O4       1.0000 0.47626  0.65564  0.42166  Biso   1.000  O 
  O5       1.0000 0.26157  0.24739  0.23331  Biso   1.000  O 
  O6       1.0000 0.26191  0.20615  0.50762  Biso   1.000  O 
  O7       1.0000 0.22297  0.76264  0.00701  Biso   1.000  O 
  O8       1.0000 0.20519  0.75051  0.25632  Biso   1.000  O 
  Hf5      1.0000 0.13230  0.02382  0.65272  Biso   1.000  Hf
  Hf6      1.0000 0.13270  0.44214  0.89924  Biso   1.000  Hf
  Hf7      1.0000 0.35562  0.52126  0.61226  Biso   1.000  Hf
  Hf8      1.0000 0.35651  0.94283  0.85624  Biso   1.000  Hf
  O9       1.0000 0.02982  0.32023  0.58223  Biso   1.000  O 
  O10      1.0000 0.02914  0.15035  0.83200  Biso   1.000  O 
  O11      1.0000 0.46118  0.81574  0.67258  Biso   1.000  O 
  O12      1.0000 0.46357  0.65569  0.92182  Biso   1.000  O 
  O13      1.0000 0.27157  0.24398  0.74537  Biso   1.000  O 
  O14      1.0000 0.27039  0.22788  0.98964  Biso   1.000  O 
  O15      1.0000 0.22474  0.73735  0.51629  Biso   1.000  O 
  O16      1.0000 0.22062  0.72634  0.76292  Biso   1.000  O 
  Hf9      1.0000 0.63797  0.04183  0.14515  Biso   1.000  Hf
  Hf10     1.0000 0.65683  0.44402  0.39964  Biso   1.000  Hf
  Hf11     1.0000 0.85804  0.54131  0.10361  Biso   1.000  Hf
  Hf12     1.0000 0.86477  0.94640  0.35446  Biso   1.000  Hf
  O17      1.0000 0.53742  0.33548  0.07251  Biso   1.000  O 
  O18      1.0000 0.54269  0.14607  0.33693  Biso   1.000  O 
  O19      1.0000 0.95855  0.83404  0.17109  Biso   1.000  O 
  O20      1.0000 0.96347  0.65860  0.42621  Biso   1.000  O 
  O21      1.0000 0.77740  0.25250  0.24094  Biso   1.000  O 
  O22      1.0000 0.77822  0.22484  0.49361  Biso   1.000  O 
  O23      1.0000 0.72184  0.76093  0.01114  Biso   1.000  O 
  O24      1.0000 0.72192  0.73393  0.26102  Biso   1.000  O 
  Hf13     1.0000 0.63392  0.02802  0.64783  Biso   1.000  Hf
  Hf14     1.0000 0.63457  0.44027  0.89544  Biso   1.000  Hf
  Hf15     1.0000 0.86060  0.52836  0.60820  Biso   1.000  Hf
  Hf16     1.0000 0.85551  0.94110  0.85670  Biso   1.000  Hf
  O25      1.0000 0.53350  0.32091  0.57732  Biso   1.000  O 
  O26      1.0000 0.52919  0.15469  0.82615  Biso   1.000  O 
  O27      1.0000 0.95978  0.81914  0.67570  Biso   1.000  O 
  O28      1.0000 0.95899  0.65095  0.92336  Biso   1.000  O 
  O29      1.0000 0.77104  0.24223  0.74195  Biso   1.000  O 
  O30      1.0000 0.77140  0.22522  0.99101  Biso   1.000  O 
  O31      1.0000 0.72311  0.74226  0.51267  Biso   1.000  O 
  O32      1.0000 0.71966  0.72914  0.76202  Biso   1.000  O 
  P1       1.0000 0.40235  0.46203  0.32373  Biso   1.000  P 
