data_image0
_cell_length_a       10.1175
_cell_length_b       10.3413
_cell_length_c       10.4476
_cell_angle_alpha    90
_cell_angle_beta     80
_cell_angle_gamma    90

_symmetry_space_group_name_H-M    "P 1"
_symmetry_int_tables_number       1

loop_
  _symmetry_equiv_pos_as_xyz
  'x, y, z'

loop_
  _atom_site_label
  _atom_site_occupancy
  _atom_site_fract_x
  _atom_site_fract_y
  _atom_site_fract_z
  _atom_site_thermal_displace_type
  _atom_site_B_iso_or_equiv
  _atom_site_type_symbol
  Hf1      1.0000 0.13604  0.02152  0.14627  Biso   1.000  Hf
  Hf2      1.0000 0.14084  0.22852  0.39522  Biso   1.000  Hf
  Hf3      1.0000 0.35691  0.27306  0.10381  Biso   1.000  Hf
  Hf4      1.0000 0.34617  0.48931  0.34804  Biso   1.000  Hf
  O1       1.0000 0.03375  0.17087  0.08137  Biso   1.000  O 
  O2       1.0000 0.03382  0.07926  0.33197  Biso   1.000  O 
  O3       1.0000 0.45422  0.43433  0.15914  Biso   1.000  O 
  O4       1.0000 0.48048  0.36980  0.43557  Biso   1.000  O 
  O5       1.0000 0.27371  0.12305  0.23918  Biso   1.000  O 
  O6       1.0000 0.27169  0.11098  0.49534  Biso   1.000  O 
  O7       1.0000 0.21990  0.38008  0.00688  Biso   1.000  O 
  O8       1.0000 0.20593  0.37545  0.25411  Biso   1.000  O 
  Hf5      1.0000 0.13285  0.01715  0.64773  Biso   1.000  Hf
  Hf6      1.0000 0.12998  0.22604  0.89753  Biso   1.000  Hf
  Hf7      1.0000 0.35367  0.26971  0.61028  Biso   1.000  Hf
  Hf8      1.0000 0.35306  0.47557  0.85699  Biso   1.000  Hf
  O9       1.0000 0.03590  0.16960  0.58220  Biso   1.000  O 
  O10      1.0000 0.02938  0.07683  0.83230  Biso   1.000  O 
  O11      1.0000 0.45892  0.41285  0.67727  Biso   1.000  O 
  O12      1.0000 0.45615  0.32706  0.92241  Biso   1.000  O 
  O13      1.0000 0.27053  0.12816  0.74268  Biso   1.000  O 
  O14      1.0000 0.26809  0.11928  0.99155  Biso   1.000  O 
  O15      1.0000 0.22164  0.37797  0.51061  Biso   1.000  O 
  O16      1.0000 0.21567  0.36855  0.76035  Biso   1.000  O 
  Hf9      1.0000 0.13246  0.52154  0.14286  Biso   1.000  Hf
  Hf10     1.0000 0.12966  0.72979  0.39720  Biso   1.000  Hf
  Hf11     1.0000 0.35590  0.77229  0.10263  Biso   1.000  Hf
  Hf12     1.0000 0.35765  0.96955  0.35760  Biso   1.000  Hf
  O17      1.0000 0.03133  0.67221  0.08011  Biso   1.000  O 
  O18      1.0000 0.03045  0.58052  0.33022  Biso   1.000  O 
  O19      1.0000 0.45743  0.91883  0.16930  Biso   1.000  O 
  O20      1.0000 0.45244  0.81788  0.42056  Biso   1.000  O 
  O21      1.0000 0.26808  0.63221  0.23972  Biso   1.000  O 
  O22      1.0000 0.26509  0.62012  0.49185  Biso   1.000  O 
  O23      1.0000 0.21911  0.88020  0.00945  Biso   1.000  O 
  O24      1.0000 0.21720  0.86943  0.26035  Biso   1.000  O 
  Hf13     1.0000 0.13093  0.52050  0.64707  Biso   1.000  Hf
  Hf14     1.0000 0.12841  0.72685  0.89686  Biso   1.000  Hf
  Hf15     1.0000 0.35400  0.76725  0.60637  Biso   1.000  Hf
  Hf16     1.0000 0.35050  0.97700  0.85536  Biso   1.000  Hf
  O25      1.0000 0.02607  0.66773  0.58243  Biso   1.000  O 
  O26      1.0000 0.02747  0.57771  0.83232  Biso   1.000  O 
  O27      1.0000 0.45425  0.91818  0.66873  Biso   1.000  O 
  O28      1.0000 0.45354  0.82877  0.91862  Biso   1.000  O 
  O29      1.0000 0.26842  0.62588  0.74165  Biso   1.000  O 
  O30      1.0000 0.26622  0.61915  0.99108  Biso   1.000  O 
  O31      1.0000 0.21507  0.87429  0.51202  Biso   1.000  O 
  O32      1.0000 0.21433  0.86857  0.76107  Biso   1.000  O 
  Hf17     1.0000 0.63665  0.01777  0.14884  Biso   1.000  Hf
  Hf18     1.0000 0.65053  0.22622  0.39941  Biso   1.000  Hf
  Hf19     1.0000 0.85767  0.27138  0.10458  Biso   1.000  Hf
  Hf20     1.0000 0.85891  0.47671  0.35505  Biso   1.000  Hf
  O33      1.0000 0.53203  0.16576  0.08162  Biso   1.000  O 
  O34      1.0000 0.55000  0.04662  0.34231  Biso   1.000  O 
  O35      1.0000 0.95756  0.42236  0.16679  Biso   1.000  O 
  O36      1.0000 0.96208  0.32766  0.41977  Biso   1.000  O 
  O37      1.0000 0.77664  0.12878  0.24187  Biso   1.000  O 
  O38      1.0000 0.77780  0.11476  0.49450  Biso   1.000  O 
  O39      1.0000 0.71993  0.37916  0.01101  Biso   1.000  O 
  O40      1.0000 0.72071  0.37054  0.26092  Biso   1.000  O 
  Hf21     1.0000 0.63291  0.01966  0.64555  Biso   1.000  Hf
  Hf22     1.0000 0.63126  0.22521  0.89839  Biso   1.000  Hf
  Hf23     1.0000 0.86051  0.26824  0.60714  Biso   1.000  Hf
  Hf24     1.0000 0.85230  0.47579  0.85652  Biso   1.000  Hf
  O41      1.0000 0.53155  0.17036  0.57794  Biso   1.000  O 
  O42      1.0000 0.52878  0.07918  0.82937  Biso   1.000  O 
  O43      1.0000 0.95783  0.41823  0.67155  Biso   1.000  O 
  O44      1.0000 0.95474  0.32698  0.91995  Biso   1.000  O 
  O45      1.0000 0.77027  0.12681  0.74258  Biso   1.000  O 
  O46      1.0000 0.76857  0.11829  0.99284  Biso   1.000  O 
  O47      1.0000 0.72449  0.37501  0.51306  Biso   1.000  O 
  O48      1.0000 0.71736  0.36770  0.76230  Biso   1.000  O 
  Hf25     1.0000 0.63484  0.52409  0.14458  Biso   1.000  Hf
  Hf26     1.0000 0.63311  0.72486  0.39585  Biso   1.000  Hf
  Hf27     1.0000 0.85608  0.77049  0.10398  Biso   1.000  Hf
  Hf28     1.0000 0.85534  0.97562  0.35425  Biso   1.000  Hf
  O49      1.0000 0.53297  0.67378  0.07868  Biso   1.000  O 
  O50      1.0000 0.52646  0.58603  0.32353  Biso   1.000  O 
  O51      1.0000 0.95861  0.91915  0.16944  Biso   1.000  O 
  O52      1.0000 0.95525  0.82838  0.42099  Biso   1.000  O 
  O53      1.0000 0.77207  0.62679  0.24124  Biso   1.000  O 
  O54      1.0000 0.76898  0.61709  0.49120  Biso   1.000  O 
  O55      1.0000 0.71895  0.87948  0.00962  Biso   1.000  O 
  O56      1.0000 0.72137  0.86486  0.25830  Biso   1.000  O 
  Hf29     1.0000 0.63234  0.51739  0.64792  Biso   1.000  Hf
  Hf30     1.0000 0.62857  0.72688  0.89625  Biso   1.000  Hf
  Hf31     1.0000 0.85108  0.76926  0.60573  Biso   1.000  Hf
  Hf32     1.0000 0.84980  0.97650  0.85584  Biso   1.000  Hf
  O57      1.0000 0.52822  0.66367  0.58166  Biso   1.000  O 
  O58      1.0000 0.52759  0.57789  0.83213  Biso   1.000  O 
  O59      1.0000 0.95338  0.91812  0.66977  Biso   1.000  O 
  O60      1.0000 0.95320  0.82782  0.91929  Biso   1.000  O 
  O61      1.0000 0.76790  0.62666  0.74168  Biso   1.000  O 
  O62      1.0000 0.76634  0.61846  0.99127  Biso   1.000  O 
  O63      1.0000 0.71409  0.87578  0.51021  Biso   1.000  O 
  O64      1.0000 0.71287  0.86929  0.76002  Biso   1.000  O 
  P1       1.0000 0.43493  0.25804  0.33294  Biso   1.000  P 
