data_image0
_cell_length_a       10.1692
_cell_length_b       10.4748
_cell_length_c       5.26898
_cell_angle_alpha    90
_cell_angle_beta     90
_cell_angle_gamma    90

_symmetry_space_group_name_H-M    "P 1"
_symmetry_int_tables_number       1

loop_
  _symmetry_equiv_pos_as_xyz
  'x, y, z'

loop_
  _atom_site_label
  _atom_site_occupancy
  _atom_site_fract_x
  _atom_site_fract_y
  _atom_site_fract_z
  _atom_site_thermal_displace_type
  _atom_site_B_iso_or_equiv
  _atom_site_type_symbol
  Hf1      1.0000 0.12293  0.01125  0.36043  Biso   1.000  Hf
  Hf2      1.0000 0.12216  0.21680  0.87375  Biso   1.000  Hf
  Hf3      1.0000 0.33372  0.25180  0.39849  Biso   1.000  Hf
  Hf4      1.0000 0.35854  0.48317  0.83823  Biso   1.000  Hf
  Hf5      1.0000 0.63014  0.00345  0.16997  Biso   1.000  Hf
  Hf6      1.0000 0.65495  0.23480  0.60973  Biso   1.000  Hf
  Hf7      1.0000 0.86652  0.26981  0.13448  Biso   1.000  Hf
  Hf8      1.0000 0.86575  0.47536  0.64781  Biso   1.000  Hf
  O1       1.0000 0.03138  0.16399  0.17906  Biso   1.000  O 
  O2       1.0000 0.01900  0.07333  0.67941  Biso   1.000  O 
  O3       1.0000 0.48401  0.45481  0.16379  Biso   1.000  O 
  O4       1.0000 0.47055  0.34740  0.61321  Biso   1.000  O 
  O5       1.0000 0.25673  0.11176  0.62429  Biso   1.000  O 
  O6       1.0000 0.26304  0.10500  0.12648  Biso   1.000  O 
  O7       1.0000 0.21528  0.36689  0.63348  Biso   1.000  O 
  O8       1.0000 0.22432  0.36627  0.14226  Biso   1.000  O 
  O9       1.0000 0.51813  0.13922  0.39502  Biso   1.000  O 
  O10      1.0000 0.50466  0.03180  0.84444  Biso   1.000  O 
  O11      1.0000 0.96968  0.41328  0.32882  Biso   1.000  O 
  O12      1.0000 0.95730  0.32261  0.82917  Biso   1.000  O 
  O13      1.0000 0.76435  0.12032  0.86598  Biso   1.000  O 
  O14      1.0000 0.77340  0.11972  0.37475  Biso   1.000  O 
  O15      1.0000 0.72564  0.38160  0.88174  Biso   1.000  O 
  O16      1.0000 0.73194  0.37485  0.38392  Biso   1.000  O 
  Hf9      1.0000 0.14101  0.51390  0.34461  Biso   1.000  Hf
  Hf10     1.0000 0.13225  0.71795  0.84656  Biso   1.000  Hf
  Hf11     1.0000 0.37116  0.76043  0.35628  Biso   1.000  Hf
  Hf12     1.0000 0.35485  0.95292  0.87140  Biso   1.000  Hf
  Hf13     1.0000 0.65972  0.53337  0.13683  Biso   1.000  Hf
  Hf14     1.0000 0.64341  0.72587  0.65195  Biso   1.000  Hf
  Hf15     1.0000 0.88232  0.76834  0.16167  Biso   1.000  Hf
  Hf16     1.0000 0.87355  0.97239  0.66363  Biso   1.000  Hf
  O17      1.0000 0.04943  0.66240  0.16822  Biso   1.000  O 
  O18      1.0000 0.03456  0.57450  0.67023  Biso   1.000  O 
  O19      1.0000 0.48168  0.90759  0.20272  Biso   1.000  O 
  O20      1.0000 0.46334  0.81075  0.68923  Biso   1.000  O 
  O21      1.0000 0.27442  0.61742  0.58494  Biso   1.000  O 
  O22      1.0000 0.28770  0.62076  0.08653  Biso   1.000  O 
  O23      1.0000 0.22574  0.86199  0.60541  Biso   1.000  O 
  O24      1.0000 0.24193  0.86469  0.11129  Biso   1.000  O 
  O25      1.0000 0.55123  0.67555  0.31899  Biso   1.000  O 
  O26      1.0000 0.53289  0.57871  0.80550  Biso   1.000  O 
  O27      1.0000 0.98001  0.91179  0.33800  Biso   1.000  O 
  O28      1.0000 0.96514  0.82389  0.84003  Biso   1.000  O 
  O29      1.0000 0.77264  0.62160  0.89694  Biso   1.000  O 
  O30      1.0000 0.78884  0.62430  0.40282  Biso   1.000  O 
  O31      1.0000 0.72686  0.86553  0.92169  Biso   1.000  O 
  O32      1.0000 0.74014  0.86887  0.42328  Biso   1.000  O 
  Pb1      1.0000 0.50916  0.24986  0.00511  Biso   1.000  Pb
