data_image0
_cell_length_a       10.1283
_cell_length_b       5.15529
_cell_length_c       10.4624
_cell_angle_alpha    90
_cell_angle_beta     80
_cell_angle_gamma    90

_symmetry_space_group_name_H-M    "P 1"
_symmetry_int_tables_number       1

loop_
  _symmetry_equiv_pos_as_xyz
  'x, y, z'

loop_
  _atom_site_label
  _atom_site_occupancy
  _atom_site_fract_x
  _atom_site_fract_y
  _atom_site_fract_z
  _atom_site_thermal_displace_type
  _atom_site_B_iso_or_equiv
  _atom_site_type_symbol
  Pb1      1.0000 0.13342  0.03522  0.14562  Biso   1.000  Pb
  Hf1      1.0000 0.13133  0.04211  0.64661  Biso   1.000  Hf
  Hf2      1.0000 0.63714  0.03984  0.14635  Biso   1.000  Hf
  Hf3      1.0000 0.63143  0.04309  0.64754  Biso   1.000  Hf
  Hf4      1.0000 0.13314  0.45641  0.39820  Biso   1.000  Hf
  Hf5      1.0000 0.12892  0.45841  0.89462  Biso   1.000  Hf
  Hf6      1.0000 0.63280  0.45582  0.39722  Biso   1.000  Hf
  Hf7      1.0000 0.62924  0.45732  0.89688  Biso   1.000  Hf
  Hf8      1.0000 0.36269  0.53935  0.10371  Biso   1.000  Hf
  Hf9      1.0000 0.35415  0.54229  0.60489  Biso   1.000  Hf
  Hf10     1.0000 0.85677  0.53809  0.10397  Biso   1.000  Hf
  Hf11     1.0000 0.85443  0.54320  0.60611  Biso   1.000  Hf
  Hf12     1.0000 0.35750  0.95622  0.35519  Biso   1.000  Hf
  Hf13     1.0000 0.35351  0.95848  0.85373  Biso   1.000  Hf
  Hf14     1.0000 0.85227  0.95641  0.35870  Biso   1.000  Hf
  Hf15     1.0000 0.85199  0.95652  0.85600  Biso   1.000  Hf
  O1       1.0000 0.03760  0.36098  0.07932  Biso   1.000  O 
  O2       1.0000 0.02994  0.34342  0.58428  Biso   1.000  O 
  O3       1.0000 0.53740  0.33873  0.08014  Biso   1.000  O 
  O4       1.0000 0.52882  0.33850  0.58190  Biso   1.000  O 
  O5       1.0000 0.02746  0.16026  0.33855  Biso   1.000  O 
  O6       1.0000 0.02764  0.15712  0.83285  Biso   1.000  O 
  O7       1.0000 0.53230  0.15798  0.33163  Biso   1.000  O 
  O8       1.0000 0.52795  0.16031  0.83130  Biso   1.000  O 
  O9       1.0000 0.46236  0.83860  0.16989  Biso   1.000  O 
  O10      1.0000 0.45694  0.83908  0.66976  Biso   1.000  O 
  O11      1.0000 0.94764  0.84554  0.17077  Biso   1.000  O 
  O12      1.0000 0.95559  0.84180  0.67053  Biso   1.000  O 
  O13      1.0000 0.45833  0.65785  0.42036  Biso   1.000  O 
  O14      1.0000 0.45496  0.66046  0.92041  Biso   1.000  O 
  O15      1.0000 0.95783  0.66053  0.42099  Biso   1.000  O 
  O16      1.0000 0.95222  0.65856  0.92056  Biso   1.000  O 
  O17      1.0000 0.27671  0.25693  0.24262  Biso   1.000  O 
  O18      1.0000 0.26804  0.25798  0.73975  Biso   1.000  O 
  O19      1.0000 0.77188  0.25870  0.24223  Biso   1.000  O 
  O20      1.0000 0.76859  0.25900  0.74219  Biso   1.000  O 
  O21      1.0000 0.27047  0.24076  0.49126  Biso   1.000  O 
  O22      1.0000 0.26940  0.24830  0.98578  Biso   1.000  O 
  O23      1.0000 0.76956  0.24192  0.49302  Biso   1.000  O 
  O24      1.0000 0.76498  0.23879  0.99232  Biso   1.000  O 
  O25      1.0000 0.22955  0.75645  0.00478  Biso   1.000  O 
  O26      1.0000 0.21748  0.75854  0.51045  Biso   1.000  O 
  O27      1.0000 0.72290  0.75743  0.00925  Biso   1.000  O 
  O28      1.0000 0.71625  0.75742  0.51170  Biso   1.000  O 
  O29      1.0000 0.22356  0.73012  0.26082  Biso   1.000  O 
  O30      1.0000 0.21556  0.74203  0.75947  Biso   1.000  O 
  O31      1.0000 0.71744  0.73989  0.26158  Biso   1.000  O 
  O32      1.0000 0.71534  0.74171  0.76100  Biso   1.000  O 
