data_image0
_cell_length_a       10.1565
_cell_length_b       5.27392
_cell_length_c       10.2678
_cell_angle_alpha    80
_cell_angle_beta     90
_cell_angle_gamma    90

_symmetry_space_group_name_H-M    "P 1"
_symmetry_int_tables_number       1

loop_
  _symmetry_equiv_pos_as_xyz
  'x, y, z'

loop_
  _atom_site_label
  _atom_site_occupancy
  _atom_site_fract_x
  _atom_site_fract_y
  _atom_site_fract_z
  _atom_site_thermal_displace_type
  _atom_site_B_iso_or_equiv
  _atom_site_type_symbol
  Hf1      1.0000 0.11154  0.96227  0.10621  Biso   1.000  Hf
  Hf2      1.0000 0.08764  0.45073  0.40494  Biso   1.000  Hf
  Hf3      1.0000 0.33368  0.47541  0.13066  Biso   1.000  Hf
  Hf4      1.0000 0.34990  0.94639  0.35967  Biso   1.000  Hf
  O1       1.0000 0.93203  0.38055  0.28141  Biso   1.000  O 
  O2       1.0000 0.03193  0.08225  0.44998  Biso   1.000  O 
  O3       1.0000 0.41756  0.82243  0.18627  Biso   1.000  O 
  O4       1.0000 0.44121  0.59632  0.44914  Biso   1.000  O 
  O5       1.0000 0.23595  0.14274  0.23957  Biso   1.000  O 
  O6       1.0000 0.25469  0.22785  0.49300  Biso   1.000  O 
  O7       1.0000 0.20991  0.72764  0.48952  Biso   1.000  O 
  O8       1.0000 0.17747  0.62837  0.23296  Biso   1.000  O 
  Hf5      1.0000 0.13051  0.93408  0.61442  Biso   1.000  Hf
  Hf6      1.0000 0.11740  0.29725  0.84607  Biso   1.000  Hf
  Hf7      1.0000 0.34128  0.44252  0.61538  Biso   1.000  Hf
  Hf8      1.0000 0.31843  0.80895  0.88224  Biso   1.000  Hf
  O9       1.0000 0.04070  0.28562  0.65764  Biso   1.000  O 
  O10      1.0000 0.02511  0.94085  0.92266  Biso   1.000  O 
  O11      1.0000 0.45260  0.70136  0.73436  Biso   1.000  O 
  O12      1.0000 0.41654  0.47722  0.97335  Biso   1.000  O 
  O13      1.0000 0.25753  0.10229  0.74487  Biso   1.000  O 
  O14      1.0000 0.24758  0.07893  0.99832  Biso   1.000  O 
  O15      1.0000 0.17461  0.58129  0.99243  Biso   1.000  O 
  O16      1.0000 0.21057  0.61374  0.74026  Biso   1.000  O 
  Hf9      1.0000 0.61597  0.05995  0.12797  Biso   1.000  Hf
  Hf10     1.0000 0.60836  0.41923  0.41066  Biso   1.000  Hf
  Hf11     1.0000 0.78845  0.59062  0.16481  Biso   1.000  Hf
  Hf12     1.0000 0.86258  0.98410  0.37997  Biso   1.000  Hf
  O17      1.0000 0.47961  0.28603  0.23654  Biso   1.000  O 
  O18      1.0000 0.51940  0.06962  0.47473  Biso   1.000  O 
  O19      1.0000 0.92546  0.90735  0.21094  Biso   1.000  O 
  O20      1.0000 0.93682  0.62872  0.47156  Biso   1.000  O 
  O21      1.0000 0.71288  0.23496  0.27192  Biso   1.000  O 
  O22      1.0000 0.75961  0.21437  0.52038  Biso   1.000  O 
  O23      1.0000 0.69957  0.70223  0.52018  Biso   1.000  O 
  O24      1.0000 0.66517  0.75307  0.27394  Biso   1.000  O 
  Hf13     1.0000 0.63568  0.93014  0.64342  Biso   1.000  Hf
  Hf14     1.0000 0.56129  0.35870  0.86371  Biso   1.000  Hf
  Hf15     1.0000 0.85148  0.45261  0.64967  Biso   1.000  Hf
  Hf16     1.0000 0.83024  0.78992  0.87294  Biso   1.000  Hf
  O25      1.0000 0.51040  0.24573  0.68802  Biso   1.000  O 
  O26      1.0000 0.49956  0.99610  0.94848  Biso   1.000  O 
  O27      1.0000 0.92193  0.81025  0.68305  Biso   1.000  O 
  O28      1.0000 0.93100  0.43722  0.85389  Biso   1.000  O 
  O29      1.0000 0.75017  0.09992  0.77385  Biso   1.000  O 
  O30      1.0000 0.70509  0.40648  0.02736  Biso   1.000  O 
  O31      1.0000 0.73584  0.90265  0.02258  Biso   1.000  O 
  O32      1.0000 0.69925  0.60217  0.76744  Biso   1.000  O 
  Pb1      1.0000 0.01779  0.44416  0.07494  Biso   1.000  Pb
