data_image0
_cell_length_a       5.15279
_cell_length_b       10.4199
_cell_length_c       10.559
_cell_angle_alpha    90
_cell_angle_beta     80
_cell_angle_gamma    90

_symmetry_space_group_name_H-M    "P 1"
_symmetry_int_tables_number       1

loop_
  _symmetry_equiv_pos_as_xyz
  'x, y, z'

loop_
  _atom_site_label
  _atom_site_occupancy
  _atom_site_fract_x
  _atom_site_fract_y
  _atom_site_fract_z
  _atom_site_thermal_displace_type
  _atom_site_B_iso_or_equiv
  _atom_site_type_symbol
  Hf1      1.0000 0.26905  0.01088  0.14622  Biso   1.000  Hf
  Hf2      1.0000 0.39202  0.24854  0.40562  Biso   1.000  Hf
  Hf3      1.0000 0.68868  0.26998  0.09941  Biso   1.000  Hf
  Hf4      1.0000 0.75217  0.49673  0.35363  Biso   1.000  Hf
  O1       1.0000 0.04194  0.15771  0.07276  Biso   1.000  O 
  O2       1.0000 0.07990  0.03754  0.33367  Biso   1.000  O 
  O3       1.0000 0.94325  0.43286  0.16333  Biso   1.000  O 
  O4       1.0000 0.01075  0.38303  0.45238  Biso   1.000  O 
  O5       1.0000 0.54061  0.11664  0.23835  Biso   1.000  O 
  O6       1.0000 0.61630  0.11837  0.49150  Biso   1.000  O 
  O7       1.0000 0.43203  0.38014  0.01129  Biso   1.000  O 
  O8       1.0000 0.46800  0.39159  0.25922  Biso   1.000  O 
  Hf5      1.0000 0.31698  0.03074  0.64073  Biso   1.000  Hf
  Hf6      1.0000 0.31690  0.23875  0.89033  Biso   1.000  Hf
  Hf7      1.0000 0.79388  0.28765  0.61099  Biso   1.000  Hf
  Hf8      1.0000 0.77536  0.49026  0.85590  Biso   1.000  Hf
  O9       1.0000 0.13074  0.17782  0.56671  Biso   1.000  O 
  O10      1.0000 0.10414  0.09948  0.81757  Biso   1.000  O 
  O11      1.0000 0.99984  0.41775  0.68911  Biso   1.000  O 
  O12      1.0000 0.97621  0.34572  0.92461  Biso   1.000  O 
  O13      1.0000 0.58895  0.14019  0.73710  Biso   1.000  O 
  O14      1.0000 0.58795  0.13603  0.98454  Biso   1.000  O 
  O15      1.0000 0.51830  0.38872  0.51767  Biso   1.000  O 
  O16      1.0000 0.50933  0.38337  0.76134  Biso   1.000  O 
  Hf9      1.0000 0.29015  0.52892  0.14519  Biso   1.000  Hf
  Hf10     1.0000 0.30176  0.73137  0.39611  Biso   1.000  Hf
  Hf11     1.0000 0.73344  0.77082  0.10014  Biso   1.000  Hf
  Hf12     1.0000 0.74057  0.96735  0.35075  Biso   1.000  Hf
  O17      1.0000 0.08079  0.67305  0.07509  Biso   1.000  O 
  O18      1.0000 0.09120  0.59720  0.32020  Biso   1.000  O 
  O19      1.0000 0.93898  0.91262  0.16496  Biso   1.000  O 
  O20      1.0000 0.94532  0.82159  0.42071  Biso   1.000  O 
  O21      1.0000 0.57415  0.63401  0.24153  Biso   1.000  O 
  O22      1.0000 0.57544  0.62913  0.49105  Biso   1.000  O 
  O23      1.0000 0.46013  0.87823  0.00644  Biso   1.000  O 
  O24      1.0000 0.46440  0.86484  0.25421  Biso   1.000  O 
  Hf13     1.0000 0.32408  0.53298  0.64921  Biso   1.000  Hf
  Hf14     1.0000 0.33413  0.74169  0.89080  Biso   1.000  Hf
  Hf15     1.0000 0.76923  0.78035  0.60342  Biso   1.000  Hf
  Hf16     1.0000 0.78484  0.99097  0.84595  Biso   1.000  Hf
  O25      1.0000 0.10040  0.66901  0.57985  Biso   1.000  O 
  O26      1.0000 0.12061  0.59700  0.82740  Biso   1.000  O 
  O27      1.0000 0.98499  0.92753  0.66520  Biso   1.000  O 
  O28      1.0000 0.99680  0.84744  0.91147  Biso   1.000  O 
  O29      1.0000 0.59954  0.63812  0.73814  Biso   1.000  O 
  O30      1.0000 0.61534  0.63535  0.98577  Biso   1.000  O 
  O31      1.0000 0.47694  0.88146  0.50865  Biso   1.000  O 
  O32      1.0000 0.50705  0.88406  0.75539  Biso   1.000  O 
  Pb1      1.0000 0.98360  0.24449  0.28843  Biso   1.000  Pb
