data_image0
_cell_length_a       10.0223
_cell_length_b       10.2307
_cell_length_c       10.0222
_cell_angle_alpha    90
_cell_angle_beta     90
_cell_angle_gamma    90

_symmetry_space_group_name_H-M    "P 1"
_symmetry_int_tables_number       1

loop_
  _symmetry_equiv_pos_as_xyz
  'x, y, z'

loop_
  _atom_site_label
  _atom_site_occupancy
  _atom_site_fract_x
  _atom_site_fract_y
  _atom_site_fract_z
  _atom_site_thermal_displace_type
  _atom_site_B_iso_or_equiv
  _atom_site_type_symbol
  Pb1      1.0000 0.12496  0.99996  0.12496  Biso   1.000  Pb
  Hf1      1.0000 0.12496  0.99995  0.62497  Biso   1.000  Hf
  Hf2      1.0000 0.12495  0.49995  0.12497  Biso   1.000  Hf
  Hf3      1.0000 0.12495  0.49995  0.62497  Biso   1.000  Hf
  Hf4      1.0000 0.62496  0.99995  0.12496  Biso   1.000  Hf
  Hf5      1.0000 0.62496  0.99995  0.62497  Biso   1.000  Hf
  Hf6      1.0000 0.62495  0.49995  0.12497  Biso   1.000  Hf
  Hf7      1.0000 0.62495  0.49995  0.62496  Biso   1.000  Hf
  Hf8      1.0000 0.12538  0.25194  0.37588  Biso   1.000  Hf
  Hf9      1.0000 0.12452  0.25192  0.87405  Biso   1.000  Hf
  Hf10     1.0000 0.12452  0.74796  0.37589  Biso   1.000  Hf
  Hf11     1.0000 0.12537  0.74794  0.87405  Biso   1.000  Hf
  Hf12     1.0000 0.62559  0.24945  0.37468  Biso   1.000  Hf
  Hf13     1.0000 0.62432  0.24944  0.87525  Biso   1.000  Hf
  Hf14     1.0000 0.62432  0.75045  0.37468  Biso   1.000  Hf
  Hf15     1.0000 0.62559  0.75043  0.87526  Biso   1.000  Hf
  Hf16     1.0000 0.37588  0.25194  0.12539  Biso   1.000  Hf
  Hf17     1.0000 0.37465  0.24946  0.62561  Biso   1.000  Hf
  Hf18     1.0000 0.37588  0.74797  0.12454  Biso   1.000  Hf
  Hf19     1.0000 0.37466  0.75044  0.62432  Biso   1.000  Hf
  Hf20     1.0000 0.87402  0.25194  0.12454  Biso   1.000  Hf
  Hf21     1.0000 0.87524  0.24946  0.62432  Biso   1.000  Hf
  Hf22     1.0000 0.87403  0.74797  0.12541  Biso   1.000  Hf
  Hf23     1.0000 0.87524  0.75044  0.62561  Biso   1.000  Hf
  Hf24     1.0000 0.37619  0.00204  0.37621  Biso   1.000  Hf
  Hf25     1.0000 0.37620  0.99784  0.87372  Biso   1.000  Hf
  Hf26     1.0000 0.37559  0.50009  0.37561  Biso   1.000  Hf
  Hf27     1.0000 0.37559  0.49979  0.87433  Biso   1.000  Hf
  Hf28     1.0000 0.87373  0.99786  0.37621  Biso   1.000  Hf
  Hf29     1.0000 0.87372  0.00202  0.87373  Biso   1.000  Hf
  Hf30     1.0000 0.87431  0.49980  0.37561  Biso   1.000  Hf
  Hf31     1.0000 0.87431  0.50008  0.87434  Biso   1.000  Hf
  O1       1.0000 0.99140  0.15241  0.99141  Biso   1.000  O 
  O2       1.0000 0.99847  0.14847  0.49721  Biso   1.000  O 
  O3       1.0000 0.00045  0.64829  0.00048  Biso   1.000  O 
  O4       1.0000 0.99902  0.64741  0.50104  Biso   1.000  O 
  O5       1.0000 0.49722  0.14845  0.99849  Biso   1.000  O 
  O6       1.0000 0.49875  0.14848  0.49878  Biso   1.000  O 
  O7       1.0000 0.50101  0.64740  0.99903  Biso   1.000  O 
  O8       1.0000 0.49878  0.64829  0.49879  Biso   1.000  O 
  O9       1.0000 0.99897  0.10554  0.25097  Biso   1.000  O 
  O10      1.0000 0.99965  0.10172  0.74646  Biso   1.000  O 
  O11      1.0000 0.99966  0.60013  0.25027  Biso   1.000  O 
  O12      1.0000 0.00100  0.60171  0.75068  Biso   1.000  O 
  O13      1.0000 0.50348  0.10172  0.25029  Biso   1.000  O 
  O14      1.0000 0.50100  0.10149  0.74894  Biso   1.000  O 
  O15      1.0000 0.49924  0.60172  0.24892  Biso   1.000  O 
  O16      1.0000 0.50063  0.60178  0.74930  Biso   1.000  O 
  O17      1.0000 0.00045  0.35161  0.24947  Biso   1.000  O 
  O18      1.0000 0.99902  0.35247  0.74891  Biso   1.000  O 
  O19      1.0000 0.99139  0.84746  0.25854  Biso   1.000  O 
  O20      1.0000 0.99847  0.85142  0.75273  Biso   1.000  O 
  O21      1.0000 0.50101  0.35248  0.25091  Biso   1.000  O 
  O22      1.0000 0.49878  0.35159  0.75115  Biso   1.000  O 
  O23      1.0000 0.49720  0.85143  0.25146  Biso   1.000  O 
  O24      1.0000 0.49875  0.85141  0.75117  Biso   1.000  O 
  O25      1.0000 0.99967  0.39975  0.99968  Biso   1.000  O 
  O26      1.0000 0.00100  0.39818  0.49927  Biso   1.000  O 
  O27      1.0000 0.99895  0.89433  0.99897  Biso   1.000  O 
  O28      1.0000 0.99965  0.89817  0.50348  Biso   1.000  O 
  O29      1.0000 0.49925  0.39818  0.00102  Biso   1.000  O 
  O30      1.0000 0.50062  0.39811  0.50064  Biso   1.000  O 
  O31      1.0000 0.50346  0.89815  0.99966  Biso   1.000  O 
  O32      1.0000 0.50099  0.89839  0.50100  Biso   1.000  O 
  O33      1.0000 0.25854  0.15243  0.25854  Biso   1.000  O 
  O34      1.0000 0.25145  0.14845  0.75273  Biso   1.000  O 
  O35      1.0000 0.24945  0.64828  0.24947  Biso   1.000  O 
  O36      1.0000 0.25089  0.64740  0.74891  Biso   1.000  O 
  O37      1.0000 0.75272  0.14846  0.25147  Biso   1.000  O 
  O38      1.0000 0.75116  0.14847  0.75117  Biso   1.000  O 
  O39      1.0000 0.74889  0.64741  0.25091  Biso   1.000  O 
  O40      1.0000 0.75113  0.64828  0.75115  Biso   1.000  O 
  O41      1.0000 0.25097  0.10553  0.99897  Biso   1.000  O 
  O42      1.0000 0.25027  0.10173  0.50349  Biso   1.000  O 
  O43      1.0000 0.25024  0.60012  0.99968  Biso   1.000  O 
  O44      1.0000 0.24891  0.60172  0.49927  Biso   1.000  O 
  O45      1.0000 0.74646  0.10171  0.99966  Biso   1.000  O 
  O46      1.0000 0.74892  0.10151  0.50101  Biso   1.000  O 
  O47      1.0000 0.75065  0.60172  0.00102  Biso   1.000  O 
  O48      1.0000 0.74929  0.60179  0.50065  Biso   1.000  O 
  O49      1.0000 0.24945  0.35162  0.00047  Biso   1.000  O 
  O50      1.0000 0.25089  0.35248  0.50103  Biso   1.000  O 
  O51      1.0000 0.25852  0.84746  0.99140  Biso   1.000  O 
  O52      1.0000 0.25145  0.85143  0.49721  Biso   1.000  O 
  O53      1.0000 0.74890  0.35247  0.99903  Biso   1.000  O 
  O54      1.0000 0.75112  0.35160  0.49879  Biso   1.000  O 
  O55      1.0000 0.75271  0.85142  0.99848  Biso   1.000  O 
  O56      1.0000 0.75116  0.85142  0.49877  Biso   1.000  O 
  O57      1.0000 0.25024  0.39976  0.25026  Biso   1.000  O 
  O58      1.0000 0.24890  0.39816  0.75067  Biso   1.000  O 
  O59      1.0000 0.25096  0.89435  0.25097  Biso   1.000  O 
  O60      1.0000 0.25027  0.89816  0.74645  Biso   1.000  O 
  O61      1.0000 0.75065  0.39817  0.24892  Biso   1.000  O 
  O62      1.0000 0.74928  0.39809  0.74929  Biso   1.000  O 
  O63      1.0000 0.74645  0.89817  0.25028  Biso   1.000  O 
  O64      1.0000 0.74892  0.89838  0.74894  Biso   1.000  O 
