data_image0
_cell_length_a       10.0002
_cell_length_b       10.4237
_cell_length_c       10.1122
_cell_angle_alpha    90
_cell_angle_beta     90
_cell_angle_gamma    90

_symmetry_space_group_name_H-M    "P 1"
_symmetry_int_tables_number       1

loop_
  _symmetry_equiv_pos_as_xyz
  'x, y, z'

loop_
  _atom_site_label
  _atom_site_occupancy
  _atom_site_fract_x
  _atom_site_fract_y
  _atom_site_fract_z
  _atom_site_thermal_displace_type
  _atom_site_B_iso_or_equiv
  _atom_site_type_symbol
  Hf1      1.0000 0.14870  0.00284  0.10913  Biso   1.000  Hf
  Hf2      1.0000 0.11430  0.24020  0.39597  Biso   1.000  Hf
  Hf3      1.0000 0.35516  0.26496  0.12023  Biso   1.000  Hf
  Hf4      1.0000 0.35316  0.49248  0.37246  Biso   1.000  Hf
  O1       1.0000 0.95498  0.18968  0.27033  Biso   1.000  O 
  O2       1.0000 0.03866  0.06201  0.44991  Biso   1.000  O 
  O3       1.0000 0.43906  0.43878  0.18977  Biso   1.000  O 
  O4       1.0000 0.44773  0.32532  0.44303  Biso   1.000  O 
  O5       1.0000 0.25265  0.11680  0.24581  Biso   1.000  O 
  O6       1.0000 0.26641  0.13997  0.49625  Biso   1.000  O 
  O7       1.0000 0.21897  0.39486  0.49524  Biso   1.000  O 
  O8       1.0000 0.19575  0.36136  0.24265  Biso   1.000  O 
  Hf5      1.0000 0.13070  0.01478  0.62239  Biso   1.000  Hf
  Hf6      1.0000 0.13043  0.23207  0.84287  Biso   1.000  Hf
  Hf7      1.0000 0.35855  0.27654  0.62134  Biso   1.000  Hf
  Hf8      1.0000 0.34237  0.49600  0.87351  Biso   1.000  Hf
  O9       1.0000 0.04070  0.18892  0.66517  Biso   1.000  O 
  O10      1.0000 0.03306  0.06478  0.92120  Biso   1.000  O 
  O11      1.0000 0.44590  0.44475  0.69541  Biso   1.000  O 
  O12      1.0000 0.44257  0.32783  0.94033  Biso   1.000  O 
  O13      1.0000 0.26841  0.12148  0.73991  Biso   1.000  O 
  O14      1.0000 0.27277  0.13233  0.98772  Biso   1.000  O 
  O15      1.0000 0.20603  0.39974  0.99213  Biso   1.000  O 
  O16      1.0000 0.21442  0.37720  0.73888  Biso   1.000  O 
  Hf9      1.0000 0.11011  0.52426  0.12907  Biso   1.000  Hf
  Hf10     1.0000 0.11245  0.74242  0.37547  Biso   1.000  Hf
  Hf11     1.0000 0.34895  0.76202  0.12566  Biso   1.000  Hf
  Hf12     1.0000 0.33982  0.99108  0.37291  Biso   1.000  Hf
  O17      1.0000 0.01952  0.69109  0.19318  Biso   1.000  O 
  O18      1.0000 0.01671  0.58171  0.44328  Biso   1.000  O 
  O19      1.0000 0.44009  0.93652  0.19491  Biso   1.000  O 
  O20      1.0000 0.44397  0.82453  0.44405  Biso   1.000  O 
  O21      1.0000 0.24941  0.61881  0.25002  Biso   1.000  O 
  O22      1.0000 0.25037  0.64231  0.49748  Biso   1.000  O 
  O23      1.0000 0.21011  0.88851  0.49577  Biso   1.000  O 
  O24      1.0000 0.21251  0.86595  0.24495  Biso   1.000  O 
  Hf13     1.0000 0.11256  0.52625  0.61814  Biso   1.000  Hf
  Hf14     1.0000 0.10347  0.74291  0.87072  Biso   1.000  Hf
  Hf15     1.0000 0.34685  0.77258  0.62283  Biso   1.000  Hf
  Hf16     1.0000 0.34256  0.98809  0.87057  Biso   1.000  Hf
  O25      1.0000 0.01633  0.69953  0.68913  Biso   1.000  O 
  O26      1.0000 0.00464  0.57641  0.94658  Biso   1.000  O 
  O27      1.0000 0.44460  0.93910  0.69513  Biso   1.000  O 
  O28      1.0000 0.44007  0.82865  0.95251  Biso   1.000  O 
  O29      1.0000 0.24447  0.62454  0.74829  Biso   1.000  O 
  O30      1.0000 0.23670  0.64578  0.99955  Biso   1.000  O 
  O31      1.0000 0.20225  0.88791  0.99234  Biso   1.000  O 
  O32      1.0000 0.20973  0.87170  0.74661  Biso   1.000  O 
  Hf17     1.0000 0.62637  0.01261  0.12279  Biso   1.000  Hf
  Hf18     1.0000 0.61712  0.23648  0.39646  Biso   1.000  Hf
  Hf19     1.0000 0.79999  0.27388  0.16055  Biso   1.000  Hf
  Hf20     1.0000 0.84608  0.49423  0.39067  Biso   1.000  Hf
  O33      1.0000 0.52472  0.18948  0.18843  Biso   1.000  O 
  O34      1.0000 0.52309  0.07293  0.45367  Biso   1.000  O 
  O35      1.0000 0.92925  0.45039  0.21522  Biso   1.000  O 
  O36      1.0000 0.95901  0.33911  0.47080  Biso   1.000  O 
  O37      1.0000 0.72906  0.11457  0.26585  Biso   1.000  O 
  O38      1.0000 0.76793  0.14542  0.50868  Biso   1.000  O 
  O39      1.0000 0.71303  0.38697  0.51343  Biso   1.000  O 
  O40      1.0000 0.68668  0.38754  0.27308  Biso   1.000  O 
  Hf21     1.0000 0.63316  0.02527  0.62777  Biso   1.000  Hf
  Hf22     1.0000 0.61538  0.24623  0.87764  Biso   1.000  Hf
  Hf23     1.0000 0.86017  0.28376  0.64471  Biso   1.000  Hf
  Hf24     1.0000 0.84056  0.49242  0.87388  Biso   1.000  Hf
  O41      1.0000 0.52847  0.19547  0.69006  Biso   1.000  O 
  O42      1.0000 0.52854  0.07559  0.93659  Biso   1.000  O 
  O43      1.0000 0.93219  0.46905  0.68103  Biso   1.000  O 
  O44      1.0000 0.94112  0.31396  0.85310  Biso   1.000  O 
  O45      1.0000 0.75913  0.12858  0.75847  Biso   1.000  O 
  O46      1.0000 0.77121  0.13771  0.01350  Biso   1.000  O 
  O47      1.0000 0.72340  0.38479  0.00911  Biso   1.000  O 
  O48      1.0000 0.70341  0.38324  0.75710  Biso   1.000  O 
  Hf25     1.0000 0.61619  0.52684  0.13181  Biso   1.000  Hf
  Hf26     1.0000 0.61728  0.74588  0.37885  Biso   1.000  Hf
  Hf27     1.0000 0.84811  0.77066  0.12808  Biso   1.000  Hf
  Hf28     1.0000 0.85098  0.00308  0.36629  Biso   1.000  Hf
  O49      1.0000 0.51636  0.68658  0.20180  Biso   1.000  O 
  O50      1.0000 0.51564  0.57530  0.44869  Biso   1.000  O 
  O51      1.0000 0.94806  0.94789  0.18354  Biso   1.000  O 
  O52      1.0000 0.94161  0.82668  0.43979  Biso   1.000  O 
  O53      1.0000 0.75111  0.62935  0.25754  Biso   1.000  O 
  O54      1.0000 0.74652  0.64443  0.50575  Biso   1.000  O 
  O55      1.0000 0.71006  0.89700  0.49769  Biso   1.000  O 
  O56      1.0000 0.71277  0.87340  0.24750  Biso   1.000  O 
  Hf29     1.0000 0.61555  0.52662  0.63042  Biso   1.000  Hf
  Hf30     1.0000 0.60823  0.74655  0.87687  Biso   1.000  Hf
  Hf31     1.0000 0.84501  0.77992  0.62375  Biso   1.000  Hf
  Hf32     1.0000 0.83590  0.99308  0.87567  Biso   1.000  Hf
  O57      1.0000 0.51227  0.69184  0.69918  Biso   1.000  O 
  O58      1.0000 0.50530  0.58255  0.94932  Biso   1.000  O 
  O59      1.0000 0.93840  0.94399  0.69616  Biso   1.000  O 
  O60      1.0000 0.93429  0.82440  0.94525  Biso   1.000  O 
  O61      1.0000 0.74751  0.63083  0.75675  Biso   1.000  O 
  O62      1.0000 0.75583  0.63412  0.00714  Biso   1.000  O 
  O63      1.0000 0.69852  0.89847  0.99935  Biso   1.000  O 
  O64      1.0000 0.70644  0.87712  0.74917  Biso   1.000  O 
  Pb1      1.0000 0.04682  0.25678  0.08197  Biso   1.000  Pb
