data_image0
_cell_length_a       10.0371
_cell_length_b       10.2497
_cell_length_c       10.4597
_cell_angle_alpha    90
_cell_angle_beta     90
_cell_angle_gamma    90

_symmetry_space_group_name_H-M    "P 1"
_symmetry_int_tables_number       1

loop_
  _symmetry_equiv_pos_as_xyz
  'x, y, z'

loop_
  _atom_site_label
  _atom_site_occupancy
  _atom_site_fract_x
  _atom_site_fract_y
  _atom_site_fract_z
  _atom_site_thermal_displace_type
  _atom_site_B_iso_or_equiv
  _atom_site_type_symbol
  Pb1      1.0000 0.13565  0.01797  0.17087  Biso   1.000  Pb
  Hf1      1.0000 0.13804  0.02147  0.67106  Biso   1.000  Hf
  Hf2      1.0000 0.13844  0.52116  0.17094  Biso   1.000  Hf
  Hf3      1.0000 0.13797  0.52158  0.67109  Biso   1.000  Hf
  Hf4      1.0000 0.13825  0.22996  0.42260  Biso   1.000  Hf
  Hf5      1.0000 0.13836  0.23093  0.91902  Biso   1.000  Hf
  Hf6      1.0000 0.13738  0.72869  0.42157  Biso   1.000  Hf
  Hf7      1.0000 0.13756  0.72910  0.92037  Biso   1.000  Hf
  Hf8      1.0000 0.36079  0.27149  0.17085  Biso   1.000  Hf
  Hf9      1.0000 0.36093  0.27173  0.67106  Biso   1.000  Hf
  Hf10     1.0000 0.36354  0.76976  0.17054  Biso   1.000  Hf
  Hf11     1.0000 0.36029  0.77124  0.67083  Biso   1.000  Hf
  Hf12     1.0000 0.36052  0.47931  0.42097  Biso   1.000  Hf
  Hf13     1.0000 0.36035  0.47979  0.92114  Biso   1.000  Hf
  Hf14     1.0000 0.36238  0.97927  0.42223  Biso   1.000  Hf
  Hf15     1.0000 0.36198  0.97983  0.91943  Biso   1.000  Hf
  Hf16     1.0000 0.63895  0.02106  0.07917  Biso   1.000  Hf
  Hf17     1.0000 0.63797  0.02180  0.58033  Biso   1.000  Hf
  Hf18     1.0000 0.63869  0.52036  0.07833  Biso   1.000  Hf
  Hf19     1.0000 0.63798  0.52141  0.57827  Biso   1.000  Hf
  Hf20     1.0000 0.63755  0.22979  0.32885  Biso   1.000  Hf
  Hf21     1.0000 0.63804  0.22979  0.82883  Biso   1.000  Hf
  Hf22     1.0000 0.63866  0.72860  0.32913  Biso   1.000  Hf
  Hf23     1.0000 0.63779  0.72938  0.82803  Biso   1.000  Hf
  Hf24     1.0000 0.86001  0.27164  0.07879  Biso   1.000  Hf
  Hf25     1.0000 0.86072  0.27197  0.57902  Biso   1.000  Hf
  Hf26     1.0000 0.85957  0.76887  0.07761  Biso   1.000  Hf
  Hf27     1.0000 0.86082  0.77159  0.57910  Biso   1.000  Hf
  Hf28     1.0000 0.86105  0.47920  0.32862  Biso   1.000  Hf
  Hf29     1.0000 0.86035  0.47932  0.82814  Biso   1.000  Hf
  Hf30     1.0000 0.85636  0.97968  0.33191  Biso   1.000  Hf
  Hf31     1.0000 0.86102  0.97978  0.82941  Biso   1.000  Hf
  O1       1.0000 0.03435  0.17349  0.08200  Biso   1.000  O 
  O2       1.0000 0.03361  0.16912  0.58693  Biso   1.000  O 
  O3       1.0000 0.03402  0.66759  0.08439  Biso   1.000  O 
  O4       1.0000 0.03292  0.66728  0.58481  Biso   1.000  O 
  O5       1.0000 0.02822  0.08492  0.34181  Biso   1.000  O 
  O6       1.0000 0.03367  0.08323  0.83502  Biso   1.000  O 
  O7       1.0000 0.03320  0.58367  0.33434  Biso   1.000  O 
  O8       1.0000 0.03262  0.58345  0.83423  Biso   1.000  O 
  O9       1.0000 0.46678  0.41601  0.08392  Biso   1.000  O 
  O10      1.0000 0.46608  0.41658  0.58379  Biso   1.000  O 
  O11      1.0000 0.46748  0.91625  0.08372  Biso   1.000  O 
  O12      1.0000 0.46615  0.91710  0.58551  Biso   1.000  O 
  O13      1.0000 0.46595  0.33450  0.33385  Biso   1.000  O 
  O14      1.0000 0.46578  0.33449  0.83405  Biso   1.000  O 
  O15      1.0000 0.46665  0.83328  0.33475  Biso   1.000  O 
  O16      1.0000 0.46598  0.83391  0.83348  Biso   1.000  O 
  O17      1.0000 0.27959  0.12577  0.29858  Biso   1.000  O 
  O18      1.0000 0.27605  0.12446  0.79344  Biso   1.000  O 
  O19      1.0000 0.27619  0.62346  0.29448  Biso   1.000  O 
  O20      1.0000 0.27548  0.62445  0.79432  Biso   1.000  O 
  O21      1.0000 0.28032  0.12929  0.04021  Biso   1.000  O 
  O22      1.0000 0.27606  0.12656  0.54529  Biso   1.000  O 
  O23      1.0000 0.27670  0.62542  0.04441  Biso   1.000  O 
  O24      1.0000 0.27546  0.62635  0.54451  Biso   1.000  O 
  O25      1.0000 0.22264  0.37390  0.29443  Biso   1.000  O 
  O26      1.0000 0.22320  0.37498  0.79397  Biso   1.000  O 
  O27      1.0000 0.22640  0.87063  0.29543  Biso   1.000  O 
  O28      1.0000 0.22297  0.87416  0.79349  Biso   1.000  O 
  O29      1.0000 0.22366  0.37732  0.04399  Biso   1.000  O 
  O30      1.0000 0.22315  0.37702  0.54481  Biso   1.000  O 
  O31      1.0000 0.22839  0.87202  0.04098  Biso   1.000  O 
  O32      1.0000 0.22328  0.87640  0.54425  Biso   1.000  O 
  O33      1.0000 0.53341  0.16663  0.16568  Biso   1.000  O 
  O34      1.0000 0.53299  0.16719  0.66592  Biso   1.000  O 
  O35      1.0000 0.53416  0.66523  0.16610  Biso   1.000  O 
  O36      1.0000 0.53268  0.66650  0.66541  Biso   1.000  O 
  O37      1.0000 0.53388  0.08381  0.41645  Biso   1.000  O 
  O38      1.0000 0.53357  0.08410  0.91510  Biso   1.000  O 
  O39      1.0000 0.53276  0.58380  0.41574  Biso   1.000  O 
  O40      1.0000 0.53212  0.58488  0.91597  Biso   1.000  O 
  O41      1.0000 0.96509  0.41818  0.16491  Biso   1.000  O 
  O42      1.0000 0.96549  0.41781  0.66529  Biso   1.000  O 
  O43      1.0000 0.95448  0.91730  0.16504  Biso   1.000  O 
  O44      1.0000 0.96545  0.91758  0.66534  Biso   1.000  O 
  O45      1.0000 0.96589  0.33490  0.41650  Biso   1.000  O 
  O46      1.0000 0.96447  0.33389  0.91471  Biso   1.000  O 
  O47      1.0000 0.96513  0.83355  0.41521  Biso   1.000  O 
  O48      1.0000 0.96554  0.83374  0.91548  Biso   1.000  O 
  O49      1.0000 0.77544  0.12459  0.95589  Biso   1.000  O 
  O50      1.0000 0.77496  0.12470  0.45697  Biso   1.000  O 
  O51      1.0000 0.77487  0.62356  0.95437  Biso   1.000  O 
  O52      1.0000 0.77602  0.62425  0.45515  Biso   1.000  O 
  O53      1.0000 0.77553  0.12703  0.20645  Biso   1.000  O 
  O54      1.0000 0.77590  0.12696  0.70617  Biso   1.000  O 
  O55      1.0000 0.77606  0.62602  0.20499  Biso   1.000  O 
  O56      1.0000 0.77561  0.62680  0.70484  Biso   1.000  O 
  O57      1.0000 0.72202  0.37457  0.95509  Biso   1.000  O 
  O58      1.0000 0.72288  0.37445  0.45507  Biso   1.000  O 
  O59      1.0000 0.72223  0.87414  0.95529  Biso   1.000  O 
  O60      1.0000 0.72198  0.87388  0.45682  Biso   1.000  O 
  O61      1.0000 0.72292  0.37646  0.20532  Biso   1.000  O 
  O62      1.0000 0.72284  0.37672  0.70504  Biso   1.000  O 
  O63      1.0000 0.72082  0.87594  0.20653  Biso   1.000  O 
  O64      1.0000 0.72331  0.87682  0.70590  Biso   1.000  O 
