data_image0
_cell_length_a       10.0539
_cell_length_b       10.2672
_cell_length_c       5.23407
_cell_angle_alpha    90
_cell_angle_beta     90
_cell_angle_gamma    90

_symmetry_space_group_name_H-M    "P 1"
_symmetry_int_tables_number       1

loop_
  _symmetry_equiv_pos_as_xyz
  'x, y, z'

loop_
  _atom_site_label
  _atom_site_occupancy
  _atom_site_fract_x
  _atom_site_fract_y
  _atom_site_fract_z
  _atom_site_thermal_displace_type
  _atom_site_B_iso_or_equiv
  _atom_site_type_symbol
  Pb1      1.0000 0.13536  0.01789  0.34050  Biso   1.000  Pb
  Hf1      1.0000 0.13836  0.52122  0.34121  Biso   1.000  Hf
  Hf2      1.0000 0.13852  0.23150  0.84048  Biso   1.000  Hf
  Hf3      1.0000 0.13692  0.72842  0.84095  Biso   1.000  Hf
  Hf4      1.0000 0.36115  0.27172  0.34110  Biso   1.000  Hf
  Hf5      1.0000 0.36330  0.76949  0.33973  Biso   1.000  Hf
  Hf6      1.0000 0.36031  0.47975  0.84141  Biso   1.000  Hf
  Hf7      1.0000 0.36374  0.97981  0.84036  Biso   1.000  Hf
  Hf8      1.0000 0.63883  0.02135  0.16187  Biso   1.000  Hf
  Hf9      1.0000 0.63858  0.52029  0.15602  Biso   1.000  Hf
  Hf10     1.0000 0.63750  0.23023  0.65819  Biso   1.000  Hf
  Hf11     1.0000 0.63835  0.72870  0.65710  Biso   1.000  Hf
  Hf12     1.0000 0.86009  0.27215  0.15835  Biso   1.000  Hf
  Hf13     1.0000 0.85987  0.76886  0.15614  Biso   1.000  Hf
  Hf14     1.0000 0.86087  0.47920  0.65629  Biso   1.000  Hf
  Hf15     1.0000 0.85689  0.98016  0.66573  Biso   1.000  Hf
  O1       1.0000 0.03553  0.17657  0.17034  Biso   1.000  O 
  O2       1.0000 0.03427  0.66835  0.17000  Biso   1.000  O 
  O3       1.0000 0.02920  0.08375  0.68606  Biso   1.000  O 
  O4       1.0000 0.03312  0.58277  0.66870  Biso   1.000  O 
  O5       1.0000 0.46704  0.41596  0.16691  Biso   1.000  O 
  O6       1.0000 0.46777  0.91669  0.16984  Biso   1.000  O 
  O7       1.0000 0.46589  0.33481  0.66734  Biso   1.000  O 
  O8       1.0000 0.46670  0.83306  0.66781  Biso   1.000  O 
  O9       1.0000 0.27976  0.12602  0.59419  Biso   1.000  O 
  O10      1.0000 0.27581  0.62369  0.58786  Biso   1.000  O 
  O11      1.0000 0.28059  0.12923  0.08173  Biso   1.000  O 
  O12      1.0000 0.27631  0.62508  0.08810  Biso   1.000  O 
  O13      1.0000 0.22304  0.37463  0.58712  Biso   1.000  O 
  O14      1.0000 0.22650  0.87054  0.58772  Biso   1.000  O 
  O15      1.0000 0.22413  0.37771  0.08778  Biso   1.000  O 
  O16      1.0000 0.22901  0.87162  0.08039  Biso   1.000  O 
  O17      1.0000 0.53370  0.16720  0.33176  Biso   1.000  O 
  O18      1.0000 0.53411  0.66512  0.33159  Biso   1.000  O 
  O19      1.0000 0.53466  0.08374  0.83168  Biso   1.000  O 
  O20      1.0000 0.53209  0.58453  0.83197  Biso   1.000  O 
  O21      1.0000 0.96464  0.41948  0.32860  Biso   1.000  O 
  O22      1.0000 0.95381  0.91850  0.32892  Biso   1.000  O 
  O23      1.0000 0.96441  0.33447  0.83072  Biso   1.000  O 
  O24      1.0000 0.96475  0.83288  0.82962  Biso   1.000  O 
  O25      1.0000 0.77456  0.12508  0.91560  Biso   1.000  O 
  O26      1.0000 0.77502  0.62362  0.90875  Biso   1.000  O 
  O27      1.0000 0.77558  0.12740  0.41512  Biso   1.000  O 
  O28      1.0000 0.77579  0.62621  0.40940  Biso   1.000  O 
  O29      1.0000 0.72214  0.37483  0.91004  Biso   1.000  O 
  O30      1.0000 0.72150  0.87385  0.91389  Biso   1.000  O 
  O31      1.0000 0.72301  0.37658  0.41043  Biso   1.000  O 
  O32      1.0000 0.72140  0.87615  0.41458  Biso   1.000  O 
