data_image0
_cell_length_a       4.99014
_cell_length_b       10.3977
_cell_length_c       10.0308
_cell_angle_alpha    90
_cell_angle_beta     90
_cell_angle_gamma    90

_symmetry_space_group_name_H-M    "P 1"
_symmetry_int_tables_number       1

loop_
  _symmetry_equiv_pos_as_xyz
  'x, y, z'

loop_
  _atom_site_label
  _atom_site_occupancy
  _atom_site_fract_x
  _atom_site_fract_y
  _atom_site_fract_z
  _atom_site_thermal_displace_type
  _atom_site_B_iso_or_equiv
  _atom_site_type_symbol
  Pb1      1.0000 0.26111  0.01534  0.12283  Biso   1.000  Pb
  Hf1      1.0000 0.26811  0.01632  0.62662  Biso   1.000  Hf
  Hf2      1.0000 0.26935  0.51586  0.12667  Biso   1.000  Hf
  Hf3      1.0000 0.27011  0.51597  0.62573  Biso   1.000  Hf
  Hf4      1.0000 0.27038  0.23326  0.37761  Biso   1.000  Hf
  Hf5      1.0000 0.27161  0.23516  0.87324  Biso   1.000  Hf
  Hf6      1.0000 0.27051  0.73274  0.37733  Biso   1.000  Hf
  Hf7      1.0000 0.26957  0.73144  0.87570  Biso   1.000  Hf
  Hf8      1.0000 0.72960  0.26831  0.12618  Biso   1.000  Hf
  Hf9      1.0000 0.73526  0.26626  0.62513  Biso   1.000  Hf
  Hf10     1.0000 0.73564  0.76202  0.12596  Biso   1.000  Hf
  Hf11     1.0000 0.73438  0.76547  0.62585  Biso   1.000  Hf
  Hf12     1.0000 0.73406  0.48307  0.37632  Biso   1.000  Hf
  Hf13     1.0000 0.73555  0.48273  0.87576  Biso   1.000  Hf
  Hf14     1.0000 0.73380  0.98317  0.37899  Biso   1.000  Hf
  Hf15     1.0000 0.73485  0.98206  0.87286  Biso   1.000  Hf
  O1       1.0000 0.07032  0.19013  0.19671  Biso   1.000  O 
  O2       1.0000 0.07838  0.18617  0.69058  Biso   1.000  O 
  O3       1.0000 0.07744  0.68401  0.19543  Biso   1.000  O 
  O4       1.0000 0.07408  0.68313  0.69493  Biso   1.000  O 
  O5       1.0000 0.07460  0.06497  0.44410  Biso   1.000  O 
  O6       1.0000 0.07642  0.06587  0.92875  Biso   1.000  O 
  O7       1.0000 0.07439  0.56474  0.44505  Biso   1.000  O 
  O8       1.0000 0.07306  0.56560  0.94584  Biso   1.000  O 
  O9       1.0000 0.92800  0.43497  0.19450  Biso   1.000  O 
  O10      1.0000 0.93169  0.43366  0.69511  Biso   1.000  O 
  O11      1.0000 0.91499  0.93219  0.19545  Biso   1.000  O 
  O12      1.0000 0.92836  0.93354  0.69172  Biso   1.000  O 
  O13      1.0000 0.92844  0.31570  0.44426  Biso   1.000  O 
  O14      1.0000 0.93152  0.31562  0.94434  Biso   1.000  O 
  O15      1.0000 0.93151  0.81506  0.44602  Biso   1.000  O 
  O16      1.0000 0.93205  0.81561  0.94458  Biso   1.000  O 
  O17      1.0000 0.54694  0.12062  0.25328  Biso   1.000  O 
  O18      1.0000 0.54514  0.11764  0.74823  Biso   1.000  O 
  O19      1.0000 0.54325  0.61505  0.24987  Biso   1.000  O 
  O20      1.0000 0.54292  0.61654  0.74976  Biso   1.000  O 
  O21      1.0000 0.54261  0.13183  0.50081  Biso   1.000  O 
  O22      1.0000 0.55051  0.13304  0.99644  Biso   1.000  O 
  O23      1.0000 0.54333  0.63190  0.50001  Biso   1.000  O 
  O24      1.0000 0.54292  0.63015  0.99933  Biso   1.000  O 
  O25      1.0000 0.46125  0.38210  0.50010  Biso   1.000  O 
  O26      1.0000 0.46180  0.38207  0.99939  Biso   1.000  O 
  O27      1.0000 0.46104  0.88204  0.50164  Biso   1.000  O 
  O28      1.0000 0.46773  0.87694  0.99895  Biso   1.000  O 
  O29      1.0000 0.45914  0.36824  0.25055  Biso   1.000  O 
  O30      1.0000 0.46358  0.36775  0.74905  Biso   1.000  O 
  O31      1.0000 0.47351  0.86082  0.25422  Biso   1.000  O 
  O32      1.0000 0.46126  0.86643  0.75013  Biso   1.000  O 
