data_image0
_cell_length_a       10.1155
_cell_length_b       10.2162
_cell_length_c       5.2288
_cell_angle_alpha    90
_cell_angle_beta     80
_cell_angle_gamma    90

_symmetry_space_group_name_H-M    "P 1"
_symmetry_int_tables_number       1

loop_
  _symmetry_equiv_pos_as_xyz
  'x, y, z'

loop_
  _atom_site_label
  _atom_site_occupancy
  _atom_site_fract_x
  _atom_site_fract_y
  _atom_site_fract_z
  _atom_site_thermal_displace_type
  _atom_site_B_iso_or_equiv
  _atom_site_type_symbol
  Pd1      1.0000 0.12165  0.00823  0.33300  Biso   1.000  Pd
  Hf1      1.0000 0.14456  0.52200  0.29495  Biso   1.000  Hf
  Hf2      1.0000 0.63611  0.02168  0.29272  Biso   1.000  Hf
  Hf3      1.0000 0.64150  0.51868  0.29260  Biso   1.000  Hf
  Hf4      1.0000 0.14086  0.22556  0.78642  Biso   1.000  Hf
  Hf5      1.0000 0.13936  0.72931  0.79900  Biso   1.000  Hf
  Hf6      1.0000 0.63724  0.22942  0.79587  Biso   1.000  Hf
  Hf7      1.0000 0.63868  0.72645  0.79357  Biso   1.000  Hf
  Hf8      1.0000 0.36109  0.26958  0.19966  Biso   1.000  Hf
  Hf9      1.0000 0.36696  0.77614  0.20737  Biso   1.000  Hf
  Hf10     1.0000 0.86980  0.26600  0.21523  Biso   1.000  Hf
  Hf11     1.0000 0.86521  0.76738  0.20869  Biso   1.000  Hf
  Hf12     1.0000 0.36234  0.47940  0.70875  Biso   1.000  Hf
  Hf13     1.0000 0.36799  0.98361  0.70684  Biso   1.000  Hf
  Hf14     1.0000 0.86430  0.47540  0.71470  Biso   1.000  Hf
  Hf15     1.0000 0.86134  0.97562  0.71492  Biso   1.000  Hf
  O1       1.0000 0.04435  0.15383  0.14985  Biso   1.000  O 
  O2       1.0000 0.04082  0.66722  0.16087  Biso   1.000  O 
  O3       1.0000 0.53700  0.16872  0.15759  Biso   1.000  O 
  O4       1.0000 0.54098  0.66800  0.15667  Biso   1.000  O 
  O5       1.0000 0.02591  0.08478  0.65083  Biso   1.000  O 
  O6       1.0000 0.03857  0.58139  0.66415  Biso   1.000  O 
  O7       1.0000 0.53477  0.08125  0.65911  Biso   1.000  O 
  O8       1.0000 0.53697  0.58207  0.65621  Biso   1.000  O 
  O9       1.0000 0.46726  0.41673  0.34358  Biso   1.000  O 
  O10      1.0000 0.47291  0.91823  0.34356  Biso   1.000  O 
  O11      1.0000 0.97262  0.41236  0.35312  Biso   1.000  O 
  O12      1.0000 0.96503  0.91582  0.34464  Biso   1.000  O 
  O13      1.0000 0.46910  0.33912  0.84829  Biso   1.000  O 
  O14      1.0000 0.46383  0.83066  0.84135  Biso   1.000  O 
  O15      1.0000 0.96666  0.32970  0.85849  Biso   1.000  O 
  O16      1.0000 0.96580  0.83123  0.84753  Biso   1.000  O 
  O17      1.0000 0.26724  0.11975  0.45096  Biso   1.000  O 
  O18      1.0000 0.27980  0.63199  0.48366  Biso   1.000  O 
  O19      1.0000 0.77453  0.12712  0.48325  Biso   1.000  O 
  O20      1.0000 0.78021  0.62592  0.48335  Biso   1.000  O 
  O21      1.0000 0.29233  0.14004  0.93113  Biso   1.000  O 
  O22      1.0000 0.27631  0.62433  0.98525  Biso   1.000  O 
  O23      1.0000 0.77235  0.11882  0.98566  Biso   1.000  O 
  O24      1.0000 0.77597  0.61858  0.98353  Biso   1.000  O 
  O25      1.0000 0.22773  0.38355  0.01561  Biso   1.000  O 
  O26      1.0000 0.23293  0.89402  0.02476  Biso   1.000  O 
  O27      1.0000 0.73273  0.37638  0.02470  Biso   1.000  O 
  O28      1.0000 0.72974  0.87781  0.01950  Biso   1.000  O 
  O29      1.0000 0.22807  0.36841  0.51841  Biso   1.000  O 
  O30      1.0000 0.22253  0.87099  0.52123  Biso   1.000  O 
  O31      1.0000 0.72855  0.36951  0.52351  Biso   1.000  O 
  O32      1.0000 0.72921  0.86872  0.52123  Biso   1.000  O 
