data_image0
_cell_length_a       10.0274
_cell_length_b       10.1932
_cell_length_c       5.21656
_cell_angle_alpha    90
_cell_angle_beta     90
_cell_angle_gamma    90

_symmetry_space_group_name_H-M    "P 1"
_symmetry_int_tables_number       1

loop_
  _symmetry_equiv_pos_as_xyz
  'x, y, z'

loop_
  _atom_site_label
  _atom_site_occupancy
  _atom_site_fract_x
  _atom_site_fract_y
  _atom_site_fract_z
  _atom_site_thermal_displace_type
  _atom_site_B_iso_or_equiv
  _atom_site_type_symbol
  Pd1      1.0000 0.12282  0.00894  0.37723  Biso   1.000  Pd
  Hf1      1.0000 0.14297  0.52247  0.34651  Biso   1.000  Hf
  Hf2      1.0000 0.14385  0.22801  0.83806  Biso   1.000  Hf
  Hf3      1.0000 0.13952  0.73039  0.84849  Biso   1.000  Hf
  Hf4      1.0000 0.36108  0.27093  0.33299  Biso   1.000  Hf
  Hf5      1.0000 0.36555  0.77593  0.34000  Biso   1.000  Hf
  Hf6      1.0000 0.36192  0.47950  0.84225  Biso   1.000  Hf
  Hf7      1.0000 0.36632  0.98317  0.84257  Biso   1.000  Hf
  Hf8      1.0000 0.63752  0.02190  0.15639  Biso   1.000  Hf
  Hf9      1.0000 0.64368  0.51891  0.15951  Biso   1.000  Hf
  Hf10     1.0000 0.63789  0.22972  0.65802  Biso   1.000  Hf
  Hf11     1.0000 0.63995  0.72696  0.65674  Biso   1.000  Hf
  Hf12     1.0000 0.87006  0.26543  0.16622  Biso   1.000  Hf
  Hf13     1.0000 0.86509  0.76817  0.15749  Biso   1.000  Hf
  Hf14     1.0000 0.86497  0.47589  0.66414  Biso   1.000  Hf
  Hf15     1.0000 0.86171  0.97688  0.66207  Biso   1.000  Hf
  O1       1.0000 0.04519  0.15495  0.16614  Biso   1.000  O 
  O2       1.0000 0.03841  0.66690  0.17300  Biso   1.000  O 
  O3       1.0000 0.02855  0.08553  0.66267  Biso   1.000  O 
  O4       1.0000 0.03642  0.58325  0.67596  Biso   1.000  O 
  O5       1.0000 0.46945  0.41854  0.16974  Biso   1.000  O 
  O6       1.0000 0.47525  0.91800  0.16693  Biso   1.000  O 
  O7       1.0000 0.46666  0.33280  0.66874  Biso   1.000  O 
  O8       1.0000 0.46725  0.83230  0.66901  Biso   1.000  O 
  O9       1.0000 0.27038  0.11590  0.55478  Biso   1.000  O 
  O10      1.0000 0.27890  0.62620  0.59095  Biso   1.000  O 
  O11      1.0000 0.30266  0.14820  0.04017  Biso   1.000  O 
  O12      1.0000 0.28271  0.63175  0.09067  Biso   1.000  O 
  O13      1.0000 0.22632  0.37306  0.58949  Biso   1.000  O 
  O14      1.0000 0.22217  0.87313  0.59066  Biso   1.000  O 
  O15      1.0000 0.22376  0.38320  0.08822  Biso   1.000  O 
  O16      1.0000 0.22847  0.88860  0.09446  Biso   1.000  O 
  O17      1.0000 0.53648  0.16975  0.32539  Biso   1.000  O 
  O18      1.0000 0.53790  0.66789  0.32715  Biso   1.000  O 
  O19      1.0000 0.53528  0.07869  0.81948  Biso   1.000  O 
  O20      1.0000 0.53617  0.58133  0.82889  Biso   1.000  O 
  O21      1.0000 0.97254  0.41221  0.34264  Biso   1.000  O 
  O22      1.0000 0.96564  0.91721  0.32931  Biso   1.000  O 
  O23      1.0000 0.96911  0.33050  0.84557  Biso   1.000  O 
  O24      1.0000 0.96785  0.83337  0.83347  Biso   1.000  O 
  O25      1.0000 0.77562  0.12194  0.91385  Biso   1.000  O 
  O26      1.0000 0.77815  0.62168  0.91303  Biso   1.000  O 
  O27      1.0000 0.77648  0.12493  0.41253  Biso   1.000  O 
  O28      1.0000 0.78040  0.62404  0.41398  Biso   1.000  O 
  O29      1.0000 0.72632  0.37119  0.91654  Biso   1.000  O 
  O30      1.0000 0.72468  0.87115  0.91056  Biso   1.000  O 
  O31      1.0000 0.72878  0.37441  0.41420  Biso   1.000  O 
  O32      1.0000 0.72939  0.87519  0.41204  Biso   1.000  O 
