data_image0
_cell_length_a       5.07233
_cell_length_b       10.3694
_cell_length_c       10.1389
_cell_angle_alpha    90
_cell_angle_beta     90
_cell_angle_gamma    90

_symmetry_space_group_name_H-M    "P 1"
_symmetry_int_tables_number       1

loop_
  _symmetry_equiv_pos_as_xyz
  'x, y, z'

loop_
  _atom_site_label
  _atom_site_occupancy
  _atom_site_fract_x
  _atom_site_fract_y
  _atom_site_fract_z
  _atom_site_thermal_displace_type
  _atom_site_B_iso_or_equiv
  _atom_site_type_symbol
  Hf1      1.0000 0.21531  0.96125  0.12483  Biso   1.000  Hf
  Hf2      1.0000 0.31326  0.25779  0.37527  Biso   1.000  Hf
  Hf3      1.0000 0.73507  0.29905  0.13029  Biso   1.000  Hf
  Hf4      1.0000 0.77107  0.01029  0.37593  Biso   1.000  Hf
  O1       1.0000 0.90382  0.21530  0.97585  Biso   1.000  O 
  O2       1.0000 0.14741  0.08668  0.27904  Biso   1.000  O 
  O3       1.0000 0.01346  0.37665  0.26446  Biso   1.000  O 
  O4       1.0000 0.93113  0.42905  0.00621  Biso   1.000  O 
  O5       1.0000 0.65816  0.17515  0.28313  Biso   1.000  O 
  O6       1.0000 0.40927  0.10828  0.95741  Biso   1.000  O 
  O7       1.0000 0.41285  0.34590  0.01081  Biso   1.000  O 
  O8       1.0000 0.50180  0.42385  0.25313  Biso   1.000  O 
  Hf5      1.0000 0.29713  0.03057  0.63980  Biso   1.000  Hf
  Hf6      1.0000 0.24941  0.28101  0.86217  Biso   1.000  Hf
  Hf7      1.0000 0.79841  0.25849  0.61404  Biso   1.000  Hf
  Hf8      1.0000 0.75826  0.04678  0.88667  Biso   1.000  Hf
  O9       1.0000 0.06605  0.16186  0.50670  Biso   1.000  O 
  O10      1.0000 0.02106  0.12975  0.74935  Biso   1.000  O 
  O11      1.0000 0.96916  0.37986  0.75243  Biso   1.000  O 
  O12      1.0000 0.03421  0.40696  0.50650  Biso   1.000  O 
  O13      1.0000 0.51312  0.18544  0.73952  Biso   1.000  O 
  O14      1.0000 0.56506  0.10934  0.50812  Biso   1.000  O 
  O15      1.0000 0.53815  0.36755  0.50637  Biso   1.000  O 
  O16      1.0000 0.46053  0.43250  0.76341  Biso   1.000  O 
  Hf9      1.0000 0.21239  0.52226  0.12638  Biso   1.000  Hf
  Hf10     1.0000 0.27995  0.76973  0.38541  Biso   1.000  Hf
  Hf11     1.0000 0.72632  0.75503  0.12700  Biso   1.000  Hf
  Hf12     1.0000 0.77518  0.50437  0.38605  Biso   1.000  Hf
  O17      1.0000 0.00111  0.67472  0.00222  Biso   1.000  O 
  O18      1.0000 0.90476  0.60649  0.23291  Biso   1.000  O 
  O19      1.0000 0.99000  0.84806  0.25907  Biso   1.000  O 
  O20      1.0000 0.88293  0.92095  0.02666  Biso   1.000  O 
  O21      1.0000 0.39936  0.67561  0.22103  Biso   1.000  O 
  O22      1.0000 0.53640  0.63244  0.98270  Biso   1.000  O 
  O23      1.0000 0.49349  0.88020  0.99734  Biso   1.000  O 
  O24      1.0000 0.51343  0.90917  0.25097  Biso   1.000  O 
  Hf13     1.0000 0.26559  0.52375  0.61582  Biso   1.000  Hf
  Hf14     1.0000 0.31068  0.76863  0.86029  Biso   1.000  Hf
  Hf15     1.0000 0.81289  0.78766  0.63004  Biso   1.000  Hf
  Hf16     1.0000 0.76010  0.52997  0.85376  Biso   1.000  Hf
  O25      1.0000 0.99634  0.66101  0.49666  Biso   1.000  O 
  O26      1.0000 0.04176  0.63295  0.74875  Biso   1.000  O 
  O27      1.0000 0.05501  0.88319  0.75599  Biso   1.000  O 
  O28      1.0000 0.05574  0.91466  0.50503  Biso   1.000  O 
  O29      1.0000 0.54576  0.67038  0.72668  Biso   1.000  O 
  O30      1.0000 0.47693  0.61045  0.47238  Biso   1.000  O 
  O31      1.0000 0.56725  0.85936  0.49033  Biso   1.000  O 
  O32      1.0000 0.54938  0.92422  0.74219  Biso   1.000  O 
  Pd1      1.0000 0.22906  0.20649  0.12784  Biso   1.000  Pd
