data_image0
_cell_length_a       10.0267
_cell_length_b       5.09603
_cell_length_c       10.4392
_cell_angle_alpha    90
_cell_angle_beta     90
_cell_angle_gamma    90

_symmetry_space_group_name_H-M    "P 1"
_symmetry_int_tables_number       1

loop_
  _symmetry_equiv_pos_as_xyz
  'x, y, z'

loop_
  _atom_site_label
  _atom_site_occupancy
  _atom_site_fract_x
  _atom_site_fract_y
  _atom_site_fract_z
  _atom_site_thermal_displace_type
  _atom_site_B_iso_or_equiv
  _atom_site_type_symbol
  Pd1      1.0000 0.12324  0.02202  0.19061  Biso   1.000  Pd
  Hf1      1.0000 0.13283  0.03939  0.67034  Biso   1.000  Hf
  Hf2      1.0000 0.13681  0.45901  0.42010  Biso   1.000  Hf
  Hf3      1.0000 0.13731  0.45555  0.92233  Biso   1.000  Hf
  Hf4      1.0000 0.35871  0.55025  0.16566  Biso   1.000  Hf
  Hf5      1.0000 0.35879  0.54383  0.67192  Biso   1.000  Hf
  Hf6      1.0000 0.36169  0.96011  0.42000  Biso   1.000  Hf
  Hf7      1.0000 0.35796  0.96608  0.92276  Biso   1.000  Hf
  Hf8      1.0000 0.63902  0.04124  0.07737  Biso   1.000  Hf
  Hf9      1.0000 0.63259  0.04049  0.58062  Biso   1.000  Hf
  Hf10     1.0000 0.63413  0.45495  0.32752  Biso   1.000  Hf
  Hf11     1.0000 0.63498  0.45896  0.82974  Biso   1.000  Hf
  Hf12     1.0000 0.86841  0.52802  0.08104  Biso   1.000  Hf
  Hf13     1.0000 0.85760  0.53861  0.58028  Biso   1.000  Hf
  Hf14     1.0000 0.85578  0.95272  0.33137  Biso   1.000  Hf
  Hf15     1.0000 0.86261  0.95340  0.83170  Biso   1.000  Hf
  O1       1.0000 0.04494  0.31782  0.08858  Biso   1.000  O 
  O2       1.0000 0.02761  0.32060  0.57822  Biso   1.000  O 
  O3       1.0000 0.02697  0.16955  0.33433  Biso   1.000  O 
  O4       1.0000 0.02844  0.17055  0.83267  Biso   1.000  O 
  O5       1.0000 0.47191  0.83632  0.08399  Biso   1.000  O 
  O6       1.0000 0.46385  0.83816  0.58499  Biso   1.000  O 
  O7       1.0000 0.45983  0.65769  0.33659  Biso   1.000  O 
  O8       1.0000 0.46438  0.67007  0.83326  Biso   1.000  O 
  O9       1.0000 0.27075  0.24073  0.28486  Biso   1.000  O 
  O10      1.0000 0.27046  0.24339  0.78715  Biso   1.000  O 
  O11      1.0000 0.30141  0.30321  0.02492  Biso   1.000  O 
  O12      1.0000 0.27272  0.25457  0.54002  Biso   1.000  O 
  O13      1.0000 0.21754  0.74759  0.29422  Biso   1.000  O 
  O14      1.0000 0.22187  0.74574  0.79705  Biso   1.000  O 
  O15      1.0000 0.22246  0.79197  0.04918  Biso   1.000  O 
  O16      1.0000 0.22197  0.75132  0.54380  Biso   1.000  O 
  O17      1.0000 0.53488  0.33848  0.16307  Biso   1.000  O 
  O18      1.0000 0.53112  0.33802  0.66318  Biso   1.000  O 
  O19      1.0000 0.53033  0.15962  0.41271  Biso   1.000  O 
  O20      1.0000 0.53194  0.16080  0.91151  Biso   1.000  O 
  O21      1.0000 0.96289  0.83413  0.16694  Biso   1.000  O 
  O22      1.0000 0.96752  0.81949  0.67045  Biso   1.000  O 
  O23      1.0000 0.96497  0.67016  0.41840  Biso   1.000  O 
  O24      1.0000 0.96465  0.66304  0.92289  Biso   1.000  O 
  O25      1.0000 0.77307  0.24368  0.95688  Biso   1.000  O 
  O26      1.0000 0.77173  0.24421  0.45607  Biso   1.000  O 
  O27      1.0000 0.77514  0.24798  0.20656  Biso   1.000  O 
  O28      1.0000 0.77301  0.24986  0.70636  Biso   1.000  O 
  O29      1.0000 0.72229  0.74188  0.95714  Biso   1.000  O 
  O30      1.0000 0.72024  0.74290  0.45653  Biso   1.000  O 
  O31      1.0000 0.72687  0.74695  0.20666  Biso   1.000  O 
  O32      1.0000 0.72283  0.75278  0.70658  Biso   1.000  O 
