data_image0
_cell_length_a       10.1087
_cell_length_b       10.2479
_cell_length_c       10.4533
_cell_angle_alpha    90
_cell_angle_beta     80
_cell_angle_gamma    90

_symmetry_space_group_name_H-M    "P 1"
_symmetry_int_tables_number       1

loop_
  _symmetry_equiv_pos_as_xyz
  'x, y, z'

loop_
  _atom_site_label
  _atom_site_occupancy
  _atom_site_fract_x
  _atom_site_fract_y
  _atom_site_fract_z
  _atom_site_thermal_displace_type
  _atom_site_B_iso_or_equiv
  _atom_site_type_symbol
  Pd1      1.0000 0.12313  0.00934  0.16898  Biso   1.000  Pd
  Hf1      1.0000 0.13102  0.01976  0.64439  Biso   1.000  Hf
  Hf2      1.0000 0.14088  0.52275  0.14584  Biso   1.000  Hf
  Hf3      1.0000 0.13640  0.51982  0.64831  Biso   1.000  Hf
  Hf4      1.0000 0.63675  0.02160  0.14538  Biso   1.000  Hf
  Hf5      1.0000 0.63181  0.02086  0.64782  Biso   1.000  Hf
  Hf6      1.0000 0.63890  0.51925  0.14509  Biso   1.000  Hf
  Hf7      1.0000 0.63522  0.52022  0.64799  Biso   1.000  Hf
  Hf8      1.0000 0.13758  0.23032  0.39339  Biso   1.000  Hf
  Hf9      1.0000 0.13520  0.22249  0.89723  Biso   1.000  Hf
  Hf10     1.0000 0.13660  0.72608  0.39882  Biso   1.000  Hf
  Hf11     1.0000 0.13373  0.73072  0.89777  Biso   1.000  Hf
  Hf12     1.0000 0.63578  0.22839  0.39641  Biso   1.000  Hf
  Hf13     1.0000 0.63255  0.22877  0.89841  Biso   1.000  Hf
  Hf14     1.0000 0.63756  0.72629  0.39641  Biso   1.000  Hf
  Hf15     1.0000 0.63227  0.72785  0.89749  Biso   1.000  Hf
  Hf16     1.0000 0.35958  0.26897  0.10042  Biso   1.000  Hf
  Hf17     1.0000 0.35646  0.27090  0.60442  Biso   1.000  Hf
  Hf18     1.0000 0.36255  0.77526  0.10283  Biso   1.000  Hf
  Hf19     1.0000 0.35960  0.77132  0.60615  Biso   1.000  Hf
  Hf20     1.0000 0.86767  0.26642  0.10680  Biso   1.000  Hf
  Hf21     1.0000 0.85697  0.27055  0.60556  Biso   1.000  Hf
  Hf22     1.0000 0.86254  0.76852  0.10271  Biso   1.000  Hf
  Hf23     1.0000 0.85779  0.76947  0.60677  Biso   1.000  Hf
  Hf24     1.0000 0.36078  0.47847  0.35352  Biso   1.000  Hf
  Hf25     1.0000 0.35520  0.47858  0.85600  Biso   1.000  Hf
  Hf26     1.0000 0.36304  0.97838  0.35325  Biso   1.000  Hf
  Hf27     1.0000 0.35814  0.98289  0.85598  Biso   1.000  Hf
  Hf28     1.0000 0.85979  0.47776  0.35450  Biso   1.000  Hf
  Hf29     1.0000 0.85823  0.47518  0.85803  Biso   1.000  Hf
  Hf30     1.0000 0.85650  0.97539  0.35742  Biso   1.000  Hf
  Hf31     1.0000 0.85848  0.97803  0.85560  Biso   1.000  Hf
  O1       1.0000 0.04371  0.15743  0.08156  Biso   1.000  O 
  O2       1.0000 0.02973  0.16473  0.57452  Biso   1.000  O 
  O3       1.0000 0.03893  0.67034  0.08041  Biso   1.000  O 
  O4       1.0000 0.03205  0.66561  0.58128  Biso   1.000  O 
  O5       1.0000 0.53671  0.16942  0.07986  Biso   1.000  O 
  O6       1.0000 0.53097  0.16871  0.58035  Biso   1.000  O 
  O7       1.0000 0.53791  0.66939  0.07949  Biso   1.000  O 
  O8       1.0000 0.53358  0.66778  0.58029  Biso   1.000  O 
  O9       1.0000 0.02743  0.08350  0.32931  Biso   1.000  O 
  O10      1.0000 0.02738  0.08069  0.82777  Biso   1.000  O 
  O11      1.0000 0.03524  0.58014  0.33060  Biso   1.000  O 
  O12      1.0000 0.03187  0.58087  0.83271  Biso   1.000  O 
  O13      1.0000 0.53130  0.08092  0.33039  Biso   1.000  O 
  O14      1.0000 0.53138  0.08027  0.83075  Biso   1.000  O 
  O15      1.0000 0.53623  0.57875  0.33034  Biso   1.000  O 
  O16      1.0000 0.52960  0.58246  0.82966  Biso   1.000  O 
  O17      1.0000 0.46456  0.41837  0.17016  Biso   1.000  O 
  O18      1.0000 0.46009  0.41782  0.67156  Biso   1.000  O 
  O19      1.0000 0.46731  0.91811  0.17178  Biso   1.000  O 
  O20      1.0000 0.46297  0.91907  0.67040  Biso   1.000  O 
  O21      1.0000 0.96753  0.41691  0.17191  Biso   1.000  O 
  O22      1.0000 0.96275  0.41406  0.67502  Biso   1.000  O 
  O23      1.0000 0.96077  0.91814  0.17188  Biso   1.000  O 
  O24      1.0000 0.96237  0.91590  0.67188  Biso   1.000  O 
  O25      1.0000 0.46169  0.33074  0.42063  Biso   1.000  O 
  O26      1.0000 0.46275  0.33689  0.92335  Biso   1.000  O 
  O27      1.0000 0.46340  0.82934  0.41995  Biso   1.000  O 
  O28      1.0000 0.45662  0.83074  0.92161  Biso   1.000  O 
  O29      1.0000 0.96226  0.33136  0.42186  Biso   1.000  O 
  O30      1.0000 0.96067  0.32808  0.92808  Biso   1.000  O 
  O31      1.0000 0.96381  0.83161  0.42281  Biso   1.000  O 
  O32      1.0000 0.95805  0.82936  0.92219  Biso   1.000  O 
  O33      1.0000 0.26930  0.12195  0.23300  Biso   1.000  O 
  O34      1.0000 0.26824  0.12618  0.73446  Biso   1.000  O 
  O35      1.0000 0.27737  0.63145  0.24163  Biso   1.000  O 
  O36      1.0000 0.27235  0.62878  0.74181  Biso   1.000  O 
  O37      1.0000 0.77309  0.12675  0.24208  Biso   1.000  O 
  O38      1.0000 0.77135  0.12871  0.74128  Biso   1.000  O 
  O39      1.0000 0.77701  0.62733  0.24039  Biso   1.000  O 
  O40      1.0000 0.77308  0.62710  0.74284  Biso   1.000  O 
  O41      1.0000 0.27273  0.12167  0.48591  Biso   1.000  O 
  O42      1.0000 0.28626  0.13642  0.97315  Biso   1.000  O 
  O43      1.0000 0.27489  0.61956  0.49229  Biso   1.000  O 
  O44      1.0000 0.26970  0.62420  0.99213  Biso   1.000  O 
  O45      1.0000 0.77217  0.11953  0.49159  Biso   1.000  O 
  O46      1.0000 0.76847  0.11914  0.99309  Biso   1.000  O 
  O47      1.0000 0.77495  0.61960  0.49164  Biso   1.000  O 
  O48      1.0000 0.76952  0.61882  0.99198  Biso   1.000  O 
  O49      1.0000 0.22607  0.38351  0.00875  Biso   1.000  O 
  O50      1.0000 0.21937  0.37806  0.50930  Biso   1.000  O 
  O51      1.0000 0.22740  0.89374  0.01358  Biso   1.000  O 
  O52      1.0000 0.22325  0.87798  0.50941  Biso   1.000  O 
  O53      1.0000 0.72996  0.37738  0.01136  Biso   1.000  O 
  O54      1.0000 0.72044  0.37766  0.51095  Biso   1.000  O 
  O55      1.0000 0.72670  0.87921  0.00940  Biso   1.000  O 
  O56      1.0000 0.72088  0.87706  0.51089  Biso   1.000  O 
  O57      1.0000 0.22464  0.36968  0.25878  Biso   1.000  O 
  O58      1.0000 0.21974  0.36870  0.76101  Biso   1.000  O 
  O59      1.0000 0.21799  0.87018  0.25989  Biso   1.000  O 
  O60      1.0000 0.22096  0.87052  0.76166  Biso   1.000  O 
  O61      1.0000 0.72496  0.36876  0.26000  Biso   1.000  O 
  O62      1.0000 0.71981  0.37082  0.76204  Biso   1.000  O 
  O63      1.0000 0.72525  0.86918  0.26006  Biso   1.000  O 
  O64      1.0000 0.72044  0.86981  0.76112  Biso   1.000  O 
