data_image0
_cell_length_a       5.05889
_cell_length_b       10.2148
_cell_length_c       10.4615
_cell_angle_alpha    90
_cell_angle_beta     80
_cell_angle_gamma    90

_symmetry_space_group_name_H-M    "P 1"
_symmetry_int_tables_number       1

loop_
  _symmetry_equiv_pos_as_xyz
  'x, y, z'

loop_
  _atom_site_label
  _atom_site_occupancy
  _atom_site_fract_x
  _atom_site_fract_y
  _atom_site_fract_z
  _atom_site_thermal_displace_type
  _atom_site_B_iso_or_equiv
  _atom_site_type_symbol
  Pd1      1.0000 0.24245  0.00904  0.16887  Biso   1.000  Pd
  Hf1      1.0000 0.25651  0.01958  0.64575  Biso   1.000  Hf
  Hf2      1.0000 0.28358  0.52071  0.14504  Biso   1.000  Hf
  Hf3      1.0000 0.27426  0.51882  0.64998  Biso   1.000  Hf
  Hf4      1.0000 0.27358  0.23048  0.39332  Biso   1.000  Hf
  Hf5      1.0000 0.26921  0.22306  0.89916  Biso   1.000  Hf
  Hf6      1.0000 0.27594  0.72408  0.39905  Biso   1.000  Hf
  Hf7      1.0000 0.26590  0.73060  0.89851  Biso   1.000  Hf
  Hf8      1.0000 0.73401  0.26415  0.10296  Biso   1.000  Hf
  Hf9      1.0000 0.71306  0.27038  0.60535  Biso   1.000  Hf
  Hf10     1.0000 0.72932  0.77256  0.10140  Biso   1.000  Hf
  Hf11     1.0000 0.72111  0.76966  0.60807  Biso   1.000  Hf
  Hf12     1.0000 0.72374  0.47801  0.35360  Biso   1.000  Hf
  Hf13     1.0000 0.71612  0.47565  0.85911  Biso   1.000  Hf
  Hf14     1.0000 0.72067  0.97532  0.35574  Biso   1.000  Hf
  Hf15     1.0000 0.72329  0.98261  0.85638  Biso   1.000  Hf
  O1       1.0000 0.09087  0.15730  0.08080  Biso   1.000  O 
  O2       1.0000 0.05666  0.16349  0.57325  Biso   1.000  O 
  O3       1.0000 0.08269  0.67006  0.07934  Biso   1.000  O 
  O4       1.0000 0.06670  0.66370  0.58041  Biso   1.000  O 
  O5       1.0000 0.04757  0.08528  0.32770  Biso   1.000  O 
  O6       1.0000 0.05608  0.08150  0.82687  Biso   1.000  O 
  O7       1.0000 0.07483  0.57924  0.33002  Biso   1.000  O 
  O8       1.0000 0.06218  0.58330  0.83115  Biso   1.000  O 
  O9       1.0000 0.93912  0.41550  0.17280  Biso   1.000  O 
  O10      1.0000 0.92723  0.41209  0.67685  Biso   1.000  O 
  O11      1.0000 0.93029  0.91691  0.17288  Biso   1.000  O 
  O12      1.0000 0.93276  0.91522  0.67226  Biso   1.000  O 
  O13      1.0000 0.92627  0.33276  0.42324  Biso   1.000  O 
  O14      1.0000 0.93107  0.33504  0.93120  Biso   1.000  O 
  O15      1.0000 0.93284  0.83148  0.42273  Biso   1.000  O 
  O16      1.0000 0.91384  0.83017  0.92324  Biso   1.000  O 
  O17      1.0000 0.53351  0.12016  0.23366  Biso   1.000  O 
  O18      1.0000 0.53552  0.12590  0.73427  Biso   1.000  O 
  O19      1.0000 0.55834  0.62980  0.24131  Biso   1.000  O 
  O20      1.0000 0.54757  0.62690  0.74329  Biso   1.000  O 
  O21      1.0000 0.54297  0.12081  0.48590  Biso   1.000  O 
  O22      1.0000 0.57059  0.13555  0.97448  Biso   1.000  O 
  O23      1.0000 0.55282  0.61869  0.49295  Biso   1.000  O 
  O24      1.0000 0.53797  0.62302  0.99241  Biso   1.000  O 
  O25      1.0000 0.46669  0.38197  0.01095  Biso   1.000  O 
  O26      1.0000 0.43995  0.37671  0.51045  Biso   1.000  O 
  O27      1.0000 0.46235  0.89405  0.01358  Biso   1.000  O 
  O28      1.0000 0.44919  0.87625  0.51023  Biso   1.000  O 
  O29      1.0000 0.45660  0.36793  0.25931  Biso   1.000  O 
  O30      1.0000 0.44284  0.36900  0.76301  Biso   1.000  O 
  O31      1.0000 0.44327  0.86887  0.26042  Biso   1.000  O 
  O32      1.0000 0.44696  0.86978  0.76253  Biso   1.000  O 
