data_image0
_cell_length_a       10.1779
_cell_length_b       10.3356
_cell_length_c       5.25175
_cell_angle_alpha    90
_cell_angle_beta     80
_cell_angle_gamma    90

_symmetry_space_group_name_H-M    "P 1"
_symmetry_int_tables_number       1

loop_
  _symmetry_equiv_pos_as_xyz
  'x, y, z'

loop_
  _atom_site_label
  _atom_site_occupancy
  _atom_site_fract_x
  _atom_site_fract_y
  _atom_site_fract_z
  _atom_site_thermal_displace_type
  _atom_site_B_iso_or_equiv
  _atom_site_type_symbol
  Hf1      1.0000 0.13433  0.01968  0.29523  Biso   1.000  Hf
  Hf2      1.0000 0.13765  0.22597  0.78773  Biso   1.000  Hf
  Hf3      1.0000 0.35634  0.27802  0.19395  Biso   1.000  Hf
  Hf4      1.0000 0.35772  0.47801  0.69920  Biso   1.000  Hf
  O1       1.0000 0.03417  0.16883  0.15900  Biso   1.000  O 
  O2       1.0000 0.03177  0.07911  0.65947  Biso   1.000  O 
  O3       1.0000 0.46128  0.42520  0.33571  Biso   1.000  O 
  O4       1.0000 0.48161  0.35544  0.86836  Biso   1.000  O 
  O5       1.0000 0.27062  0.12797  0.47624  Biso   1.000  O 
  O6       1.0000 0.26856  0.10977  0.98669  Biso   1.000  O 
  O7       1.0000 0.22059  0.38097  0.00771  Biso   1.000  O 
  O8       1.0000 0.21408  0.37405  0.50427  Biso   1.000  O 
  Hf5      1.0000 0.13594  0.52253  0.28932  Biso   1.000  Hf
  Hf6      1.0000 0.13570  0.72576  0.79551  Biso   1.000  Hf
  Hf7      1.0000 0.35900  0.76886  0.21274  Biso   1.000  Hf
  Hf8      1.0000 0.36010  0.96634  0.71928  Biso   1.000  Hf
  O9       1.0000 0.03046  0.66884  0.15858  Biso   1.000  O 
  O10      1.0000 0.03311  0.58159  0.65699  Biso   1.000  O 
  O11      1.0000 0.46125  0.91792  0.34552  Biso   1.000  O 
  O12      1.0000 0.46063  0.82123  0.84565  Biso   1.000  O 
  O13      1.0000 0.27333  0.62814  0.48243  Biso   1.000  O 
  O14      1.0000 0.27332  0.61699  0.98219  Biso   1.000  O 
  O15      1.0000 0.22069  0.87553  0.02716  Biso   1.000  O 
  O16      1.0000 0.22157  0.86845  0.52577  Biso   1.000  O 
  Hf9      1.0000 0.63740  0.01899  0.29647  Biso   1.000  Hf
  Hf10     1.0000 0.65064  0.22730  0.80686  Biso   1.000  Hf
  Hf11     1.0000 0.86248  0.27141  0.21530  Biso   1.000  Hf
  Hf12     1.0000 0.86226  0.47634  0.70997  Biso   1.000  Hf
  O17      1.0000 0.53124  0.16728  0.15749  Biso   1.000  O 
  O18      1.0000 0.55246  0.05376  0.68741  Biso   1.000  O 
  O19      1.0000 0.96336  0.41974  0.34006  Biso   1.000  O 
  O20      1.0000 0.96394  0.32821  0.84037  Biso   1.000  O 
  O21      1.0000 0.77682  0.12875  0.48531  Biso   1.000  O 
  O22      1.0000 0.77927  0.11586  0.99022  Biso   1.000  O 
  O23      1.0000 0.72614  0.37849  0.02901  Biso   1.000  O 
  O24      1.0000 0.72523  0.37025  0.52665  Biso   1.000  O 
  Hf13     1.0000 0.63694  0.52227  0.29449  Biso   1.000  Hf
  Hf14     1.0000 0.63787  0.72388  0.79228  Biso   1.000  Hf
  Hf15     1.0000 0.85737  0.77050  0.20924  Biso   1.000  Hf
  Hf16     1.0000 0.85818  0.97455  0.71021  Biso   1.000  Hf
  O25      1.0000 0.53443  0.66911  0.15934  Biso   1.000  O 
  O26      1.0000 0.53193  0.58441  0.65203  Biso   1.000  O 
  O27      1.0000 0.96088  0.91660  0.34265  Biso   1.000  O 
  O28      1.0000 0.96227  0.82924  0.84303  Biso   1.000  O 
  O29      1.0000 0.77520  0.62671  0.48221  Biso   1.000  O 
  O30      1.0000 0.77437  0.61662  0.98105  Biso   1.000  O 
  O31      1.0000 0.71994  0.87955  0.02271  Biso   1.000  O 
  O32      1.0000 0.72284  0.86659  0.51887  Biso   1.000  O 
  Pd1      1.0000 0.42880  0.21547  0.62915  Biso   1.000  Pd
