data_image0
_cell_length_a       10.0081
_cell_length_b       5.19447
_cell_length_c       9.94138
_cell_angle_alpha    90
_cell_angle_beta     90
_cell_angle_gamma    90

_symmetry_space_group_name_H-M    "P 1"
_symmetry_int_tables_number       1

loop_
  _symmetry_equiv_pos_as_xyz
  'x, y, z'

loop_
  _atom_site_label
  _atom_site_occupancy
  _atom_site_fract_x
  _atom_site_fract_y
  _atom_site_fract_z
  _atom_site_thermal_displace_type
  _atom_site_B_iso_or_equiv
  _atom_site_type_symbol
  Pd1      1.0000 0.12728  0.07602  0.12469  Biso   1.000  Pd
  Hf1      1.0000 0.09446  0.02967  0.63665  Biso   1.000  Hf
  Hf2      1.0000 0.60051  0.03416  0.13489  Biso   1.000  Hf
  Hf3      1.0000 0.60227  0.02247  0.63037  Biso   1.000  Hf
  Hf4      1.0000 0.10359  0.52442  0.37164  Biso   1.000  Hf
  Hf5      1.0000 0.10079  0.53094  0.86723  Biso   1.000  Hf
  Hf6      1.0000 0.60114  0.53042  0.36568  Biso   1.000  Hf
  Hf7      1.0000 0.60121  0.52170  0.86732  Biso   1.000  Hf
  Hf8      1.0000 0.35640  0.48083  0.12982  Biso   1.000  Hf
  Hf9      1.0000 0.35184  0.45815  0.63128  Biso   1.000  Hf
  Hf10     1.0000 0.85521  0.45109  0.13621  Biso   1.000  Hf
  Hf11     1.0000 0.84771  0.46026  0.63639  Biso   1.000  Hf
  Hf12     1.0000 0.35266  0.96796  0.36300  Biso   1.000  Hf
  Hf13     1.0000 0.35494  0.95583  0.85793  Biso   1.000  Hf
  Hf14     1.0000 0.85712  0.94908  0.36414  Biso   1.000  Hf
  Hf15     1.0000 0.85257  0.95993  0.87148  Biso   1.000  Hf
  O1       1.0000 0.04564  0.37738  0.03806  Biso   1.000  O 
  O2       1.0000 0.02483  0.35855  0.53436  Biso   1.000  O 
  O3       1.0000 0.53761  0.37435  0.03596  Biso   1.000  O 
  O4       1.0000 0.53100  0.35948  0.53410  Biso   1.000  O 
  O5       1.0000 0.97845  0.17581  0.25147  Biso   1.000  O 
  O6       1.0000 0.97365  0.23076  0.77364  Biso   1.000  O 
  O7       1.0000 0.47543  0.23894  0.27016  Biso   1.000  O 
  O8       1.0000 0.47534  0.22302  0.76635  Biso   1.000  O 
  O9       1.0000 0.96588  0.67294  0.25530  Biso   1.000  O 
  O10      1.0000 0.97808  0.72995  0.73453  Biso   1.000  O 
  O11      1.0000 0.47753  0.73932  0.22760  Biso   1.000  O 
  O12      1.0000 0.47934  0.72218  0.72726  Biso   1.000  O 
  O13      1.0000 0.03412  0.86587  0.97229  Biso   1.000  O 
  O14      1.0000 0.03551  0.85697  0.47045  Biso   1.000  O 
  O15      1.0000 0.53149  0.85668  0.96235  Biso   1.000  O 
  O16      1.0000 0.53085  0.86469  0.46248  Biso   1.000  O 
  O17      1.0000 0.22738  0.27210  0.26208  Biso   1.000  O 
  O18      1.0000 0.22494  0.25873  0.76923  Biso   1.000  O 
  O19      1.0000 0.72925  0.25761  0.27439  Biso   1.000  O 
  O20      1.0000 0.72438  0.25646  0.77000  Biso   1.000  O 
  O21      1.0000 0.30187  0.12905  0.03298  Biso   1.000  O 
  O22      1.0000 0.27312  0.13427  0.53037  Biso   1.000  O 
  O23      1.0000 0.77930  0.12815  0.03483  Biso   1.000  O 
  O24      1.0000 0.78241  0.12422  0.53712  Biso   1.000  O 
  O25      1.0000 0.28237  0.62398  0.95754  Biso   1.000  O 
  O26      1.0000 0.28859  0.62714  0.45640  Biso   1.000  O 
  O27      1.0000 0.78359  0.61546  0.96410  Biso   1.000  O 
  O28      1.0000 0.77440  0.63037  0.47040  Biso   1.000  O 
  O29      1.0000 0.22163  0.78062  0.22528  Biso   1.000  O 
  O30      1.0000 0.22840  0.75637  0.72343  Biso   1.000  O 
  O31      1.0000 0.72672  0.75727  0.22769  Biso   1.000  O 
  O32      1.0000 0.72839  0.75858  0.73417  Biso   1.000  O 
