data_image0
_cell_length_a       10.0443
_cell_length_b       10.2632
_cell_length_c       10.4772
_cell_angle_alpha    90
_cell_angle_beta     90
_cell_angle_gamma    90

_symmetry_space_group_name_H-M    "P 1"
_symmetry_int_tables_number       1

loop_
  _symmetry_equiv_pos_as_xyz
  'x, y, z'

loop_
  _atom_site_label
  _atom_site_occupancy
  _atom_site_fract_x
  _atom_site_fract_y
  _atom_site_fract_z
  _atom_site_thermal_displace_type
  _atom_site_B_iso_or_equiv
  _atom_site_type_symbol
  Hf1      1.0000 0.13686  0.02105  0.17179  Biso   1.000  Hf
  Hf2      1.0000 0.13519  0.22977  0.42467  Biso   1.000  Hf
  Hf3      1.0000 0.34973  0.27009  0.17949  Biso   1.000  Hf
  Hf4      1.0000 0.36097  0.48044  0.42150  Biso   1.000  Hf
  Hf5      1.0000 0.64067  0.01974  0.07410  Biso   1.000  Hf
  Hf6      1.0000 0.63772  0.22828  0.32944  Biso   1.000  Hf
  Hf7      1.0000 0.86128  0.27119  0.07834  Biso   1.000  Hf
  Hf8      1.0000 0.86174  0.48131  0.33061  Biso   1.000  Hf
  O1       1.0000 0.03315  0.16571  0.08410  Biso   1.000  O 
  O2       1.0000 0.03022  0.08646  0.33395  Biso   1.000  O 
  O3       1.0000 0.44853  0.44399  0.10360  Biso   1.000  O 
  O4       1.0000 0.46491  0.33318  0.33446  Biso   1.000  O 
  O5       1.0000 0.27033  0.12581  0.29868  Biso   1.000  O 
  O6       1.0000 0.27551  0.12427  0.04611  Biso   1.000  O 
  O7       1.0000 0.21928  0.37610  0.29861  Biso   1.000  O 
  O8       1.0000 0.22163  0.37478  0.04575  Biso   1.000  O 
  O9       1.0000 0.51742  0.14199  0.18305  Biso   1.000  O 
  O10      1.0000 0.53069  0.08737  0.42171  Biso   1.000  O 
  O11      1.0000 0.96727  0.41573  0.16755  Biso   1.000  O 
  O12      1.0000 0.96563  0.33709  0.41867  Biso   1.000  O 
  O13      1.0000 0.77437  0.12578  0.45397  Biso   1.000  O 
  O14      1.0000 0.77424  0.12780  0.20491  Biso   1.000  O 
  O15      1.0000 0.72185  0.37485  0.45675  Biso   1.000  O 
  O16      1.0000 0.72707  0.38324  0.21105  Biso   1.000  O 
  Hf9      1.0000 0.13733  0.02291  0.67238  Biso   1.000  Hf
  Hf10     1.0000 0.13514  0.23140  0.92190  Biso   1.000  Hf
  Hf11     1.0000 0.35900  0.27393  0.67301  Biso   1.000  Hf
  Hf12     1.0000 0.35649  0.48462  0.92361  Biso   1.000  Hf
  Hf13     1.0000 0.63719  0.02185  0.57851  Biso   1.000  Hf
  Hf14     1.0000 0.63923  0.22678  0.82123  Biso   1.000  Hf
  Hf15     1.0000 0.85943  0.27345  0.57870  Biso   1.000  Hf
  Hf16     1.0000 0.85991  0.48275  0.82878  Biso   1.000  Hf
  O17      1.0000 0.03045  0.16676  0.58473  Biso   1.000  O 
  O18      1.0000 0.03198  0.08590  0.83332  Biso   1.000  O 
  O19      1.0000 0.46548  0.41744  0.58334  Biso   1.000  O 
  O20      1.0000 0.46654  0.33898  0.83367  Biso   1.000  O 
  O21      1.0000 0.27445  0.12679  0.79559  Biso   1.000  O 
  O22      1.0000 0.27420  0.12782  0.54683  Biso   1.000  O 
  O23      1.0000 0.22176  0.37637  0.79644  Biso   1.000  O 
  O24      1.0000 0.22250  0.37757  0.54665  Biso   1.000  O 
  O25      1.0000 0.53085  0.16791  0.66486  Biso   1.000  O 
  O26      1.0000 0.53315  0.07565  0.90538  Biso   1.000  O 
  O27      1.0000 0.96510  0.41775  0.66711  Biso   1.000  O 
  O28      1.0000 0.96437  0.33765  0.91622  Biso   1.000  O 
  O29      1.0000 0.78096  0.12353  0.94952  Biso   1.000  O 
  O30      1.0000 0.77586  0.12555  0.70110  Biso   1.000  O 
  O31      1.0000 0.72406  0.38108  0.95486  Biso   1.000  O 
  O32      1.0000 0.72298  0.37723  0.70505  Biso   1.000  O 
  Hf17     1.0000 0.13814  0.52232  0.17135  Biso   1.000  Hf
  Hf18     1.0000 0.13782  0.73056  0.42148  Biso   1.000  Hf
  Hf19     1.0000 0.36017  0.77376  0.17204  Biso   1.000  Hf
  Hf20     1.0000 0.35989  0.98063  0.42374  Biso   1.000  Hf
  Hf21     1.0000 0.63854  0.53037  0.08365  Biso   1.000  Hf
  Hf22     1.0000 0.63800  0.73322  0.33015  Biso   1.000  Hf
  Hf23     1.0000 0.86194  0.77192  0.07935  Biso   1.000  Hf
  Hf24     1.0000 0.86001  0.98057  0.32871  Biso   1.000  Hf
  O33      1.0000 0.03274  0.66548  0.08352  Biso   1.000  O 
  O34      1.0000 0.03331  0.58698  0.33288  Biso   1.000  O 
  O35      1.0000 0.46732  0.91335  0.08029  Biso   1.000  O 
  O36      1.0000 0.46559  0.83765  0.33490  Biso   1.000  O 
  O37      1.0000 0.27613  0.62568  0.29476  Biso   1.000  O 
  O38      1.0000 0.27483  0.62864  0.04391  Biso   1.000  O 
  O39      1.0000 0.22303  0.87603  0.29591  Biso   1.000  O 
  O40      1.0000 0.22235  0.87623  0.04599  Biso   1.000  O 
  O41      1.0000 0.53640  0.67613  0.16628  Biso   1.000  O 
  O42      1.0000 0.53246  0.58589  0.41509  Biso   1.000  O 
  O43      1.0000 0.96618  0.91653  0.16684  Biso   1.000  O 
  O44      1.0000 0.96531  0.83546  0.41630  Biso   1.000  O 
  O45      1.0000 0.77489  0.62585  0.45599  Biso   1.000  O 
  O46      1.0000 0.77700  0.63027  0.20705  Biso   1.000  O 
  O47      1.0000 0.72277  0.87631  0.45602  Biso   1.000  O 
  O48      1.0000 0.72410  0.87846  0.20562  Biso   1.000  O 
  Hf25     1.0000 0.13696  0.52257  0.67170  Biso   1.000  Hf
  Hf26     1.0000 0.13483  0.73270  0.92159  Biso   1.000  Hf
  Hf27     1.0000 0.35934  0.77184  0.67183  Biso   1.000  Hf
  Hf28     1.0000 0.35756  0.98036  0.92089  Biso   1.000  Hf
  Hf29     1.0000 0.63718  0.52251  0.57827  Biso   1.000  Hf
  Hf30     1.0000 0.63565  0.73114  0.82832  Biso   1.000  Hf
  Hf31     1.0000 0.86057  0.77248  0.57896  Biso   1.000  Hf
  Hf32     1.0000 0.86000  0.97990  0.82800  Biso   1.000  Hf
  O49      1.0000 0.03191  0.66678  0.58337  Biso   1.000  O 
  O50      1.0000 0.03065  0.58778  0.83337  Biso   1.000  O 
  O51      1.0000 0.46525  0.91639  0.58512  Biso   1.000  O 
  O52      1.0000 0.46197  0.83227  0.83424  Biso   1.000  O 
  O53      1.0000 0.27350  0.62548  0.79545  Biso   1.000  O 
  O54      1.0000 0.27475  0.62700  0.54479  Biso   1.000  O 
  O55      1.0000 0.22102  0.87579  0.79513  Biso   1.000  O 
  O56      1.0000 0.22242  0.87752  0.54550  Biso   1.000  O 
  O57      1.0000 0.53101  0.66656  0.66614  Biso   1.000  O 
  O58      1.0000 0.53069  0.58574  0.91783  Biso   1.000  O 
  O59      1.0000 0.96627  0.91649  0.66572  Biso   1.000  O 
  O60      1.0000 0.96375  0.83763  0.91732  Biso   1.000  O 
  O61      1.0000 0.77283  0.62901  0.95601  Biso   1.000  O 
  O62      1.0000 0.77403  0.62745  0.70527  Biso   1.000  O 
  O63      1.0000 0.72035  0.87580  0.95530  Biso   1.000  O 
  O64      1.0000 0.72214  0.87654  0.70548  Biso   1.000  O 
  Pd1      1.0000 0.57001  0.28062  0.05126  Biso   1.000  Pd
