data_image0
_cell_length_a       10.0706
_cell_length_b       10.2984
_cell_length_c       5.25135
_cell_angle_alpha    90
_cell_angle_beta     90
_cell_angle_gamma    90

_symmetry_space_group_name_H-M    "P 1"
_symmetry_int_tables_number       1

loop_
  _symmetry_equiv_pos_as_xyz
  'x, y, z'

loop_
  _atom_site_label
  _atom_site_occupancy
  _atom_site_fract_x
  _atom_site_fract_y
  _atom_site_fract_z
  _atom_site_thermal_displace_type
  _atom_site_B_iso_or_equiv
  _atom_site_type_symbol
  Hf1      1.0000 0.13767  0.02087  0.34592  Biso   1.000  Hf
  Hf2      1.0000 0.13393  0.23017  0.85035  Biso   1.000  Hf
  Hf3      1.0000 0.35022  0.27087  0.36189  Biso   1.000  Hf
  Hf4      1.0000 0.35847  0.48454  0.84763  Biso   1.000  Hf
  Hf5      1.0000 0.64167  0.01821  0.14738  Biso   1.000  Hf
  Hf6      1.0000 0.63998  0.22367  0.63979  Biso   1.000  Hf
  Hf7      1.0000 0.86202  0.27179  0.15712  Biso   1.000  Hf
  Hf8      1.0000 0.86283  0.48312  0.66244  Biso   1.000  Hf
  O1       1.0000 0.03241  0.16399  0.16862  Biso   1.000  O 
  O2       1.0000 0.03112  0.08637  0.66608  Biso   1.000  O 
  O3       1.0000 0.45014  0.44354  0.20521  Biso   1.000  O 
  O4       1.0000 0.46723  0.33578  0.66753  Biso   1.000  O 
  O5       1.0000 0.27067  0.12672  0.59886  Biso   1.000  O 
  O6       1.0000 0.27537  0.12376  0.09668  Biso   1.000  O 
  O7       1.0000 0.22035  0.37660  0.60020  Biso   1.000  O 
  O8       1.0000 0.22312  0.37396  0.09531  Biso   1.000  O 
  O9       1.0000 0.51764  0.14173  0.36268  Biso   1.000  O 
  O10      1.0000 0.53129  0.07778  0.82582  Biso   1.000  O 
  O11      1.0000 0.96837  0.41534  0.33794  Biso   1.000  O 
  O12      1.0000 0.96601  0.33871  0.83820  Biso   1.000  O 
  O13      1.0000 0.77983  0.12438  0.89362  Biso   1.000  O 
  O14      1.0000 0.77642  0.12409  0.39914  Biso   1.000  O 
  O15      1.0000 0.72635  0.38235  0.91599  Biso   1.000  O 
  O16      1.0000 0.72964  0.38140  0.42430  Biso   1.000  O 
  Hf9      1.0000 0.13871  0.52166  0.34353  Biso   1.000  Hf
  Hf10     1.0000 0.13619  0.73219  0.84370  Biso   1.000  Hf
  Hf11     1.0000 0.36100  0.77243  0.34568  Biso   1.000  Hf
  Hf12     1.0000 0.35814  0.97957  0.84773  Biso   1.000  Hf
  Hf13     1.0000 0.63981  0.52940  0.16681  Biso   1.000  Hf
  Hf14     1.0000 0.63740  0.73341  0.65968  Biso   1.000  Hf
  Hf15     1.0000 0.86381  0.77116  0.15956  Biso   1.000  Hf
  Hf16     1.0000 0.86153  0.97952  0.65600  Biso   1.000  Hf
  O17      1.0000 0.03368  0.66402  0.16563  Biso   1.000  O 
  O18      1.0000 0.03322  0.58872  0.66444  Biso   1.000  O 
  O19      1.0000 0.46860  0.91127  0.16343  Biso   1.000  O 
  O20      1.0000 0.46367  0.83433  0.67028  Biso   1.000  O 
  O21      1.0000 0.27569  0.62523  0.59109  Biso   1.000  O 
  O22      1.0000 0.27545  0.62726  0.08800  Biso   1.000  O 
  O23      1.0000 0.22299  0.87580  0.59305  Biso   1.000  O 
  O24      1.0000 0.22387  0.87528  0.09418  Biso   1.000  O 
  O25      1.0000 0.53655  0.67435  0.33372  Biso   1.000  O 
  O26      1.0000 0.53215  0.58567  0.83442  Biso   1.000  O 
  O27      1.0000 0.96855  0.91467  0.33380  Biso   1.000  O 
  O28      1.0000 0.96504  0.83724  0.83592  Biso   1.000  O 
  O29      1.0000 0.77346  0.62984  0.91342  Biso   1.000  O 
  O30      1.0000 0.77707  0.62907  0.41419  Biso   1.000  O 
  O31      1.0000 0.72244  0.87666  0.91190  Biso   1.000  O 
  O32      1.0000 0.72537  0.87645  0.41188  Biso   1.000  O 
  Pd1      1.0000 0.57045  0.28058  0.09802  Biso   1.000  Pd
