data_image0
_cell_length_a       9.94722
_cell_length_b       10.3727
_cell_length_c       10.0003
_cell_angle_alpha    90
_cell_angle_beta     90
_cell_angle_gamma    90

_symmetry_space_group_name_H-M    "P 1"
_symmetry_int_tables_number       1

loop_
  _symmetry_equiv_pos_as_xyz
  'x, y, z'

loop_
  _atom_site_label
  _atom_site_occupancy
  _atom_site_fract_x
  _atom_site_fract_y
  _atom_site_fract_z
  _atom_site_thermal_displace_type
  _atom_site_B_iso_or_equiv
  _atom_site_type_symbol
  Pd1      1.0000 0.12710  0.03821  0.10283  Biso   1.000  Pd
  Hf1      1.0000 0.13915  0.01492  0.62911  Biso   1.000  Hf
  Hf2      1.0000 0.13300  0.51447  0.12652  Biso   1.000  Hf
  Hf3      1.0000 0.13707  0.51503  0.62597  Biso   1.000  Hf
  Hf4      1.0000 0.63581  0.01590  0.12708  Biso   1.000  Hf
  Hf5      1.0000 0.63635  0.01283  0.62212  Biso   1.000  Hf
  Hf6      1.0000 0.63483  0.51766  0.12847  Biso   1.000  Hf
  Hf7      1.0000 0.63663  0.51485  0.62567  Biso   1.000  Hf
  Hf8      1.0000 0.13755  0.22883  0.37568  Biso   1.000  Hf
  Hf9      1.0000 0.13757  0.23647  0.87321  Biso   1.000  Hf
  Hf10     1.0000 0.13681  0.73110  0.37719  Biso   1.000  Hf
  Hf11     1.0000 0.13647  0.73205  0.87853  Biso   1.000  Hf
  Hf12     1.0000 0.63610  0.23122  0.37716  Biso   1.000  Hf
  Hf13     1.0000 0.63799  0.23030  0.87451  Biso   1.000  Hf
  Hf14     1.0000 0.63686  0.73388  0.37617  Biso   1.000  Hf
  Hf15     1.0000 0.63644  0.73014  0.87697  Biso   1.000  Hf
  Hf16     1.0000 0.36762  0.26589  0.12732  Biso   1.000  Hf
  Hf17     1.0000 0.37000  0.26422  0.62587  Biso   1.000  Hf
  Hf18     1.0000 0.36497  0.76417  0.12876  Biso   1.000  Hf
  Hf19     1.0000 0.36829  0.76506  0.62877  Biso   1.000  Hf
  Hf20     1.0000 0.86181  0.26714  0.12438  Biso   1.000  Hf
  Hf21     1.0000 0.86896  0.26390  0.62441  Biso   1.000  Hf
  Hf22     1.0000 0.87110  0.76819  0.12412  Biso   1.000  Hf
  Hf23     1.0000 0.86962  0.76462  0.62403  Biso   1.000  Hf
  Hf24     1.0000 0.36810  0.48154  0.37675  Biso   1.000  Hf
  Hf25     1.0000 0.37058  0.48276  0.87622  Biso   1.000  Hf
  Hf26     1.0000 0.36337  0.97803  0.37495  Biso   1.000  Hf
  Hf27     1.0000 0.36809  0.98060  0.87907  Biso   1.000  Hf
  Hf28     1.0000 0.86765  0.48212  0.37629  Biso   1.000  Hf
  Hf29     1.0000 0.86940  0.48201  0.87518  Biso   1.000  Hf
  Hf30     1.0000 0.87177  0.98425  0.37299  Biso   1.000  Hf
  Hf31     1.0000 0.86270  0.97862  0.87241  Biso   1.000  Hf
  O1       1.0000 0.03808  0.18689  0.18752  Biso   1.000  O 
  O2       1.0000 0.04001  0.18335  0.69513  Biso   1.000  O 
  O3       1.0000 0.03743  0.68316  0.19453  Biso   1.000  O 
  O4       1.0000 0.03931  0.68266  0.69546  Biso   1.000  O 
  O5       1.0000 0.53539  0.18259  0.19679  Biso   1.000  O 
  O6       1.0000 0.54068  0.18208  0.69330  Biso   1.000  O 
  O7       1.0000 0.53667  0.68346  0.19754  Biso   1.000  O 
  O8       1.0000 0.53781  0.68051  0.69701  Biso   1.000  O 
  O9       1.0000 0.04026  0.06466  0.44858  Biso   1.000  O 
  O10      1.0000 0.04183  0.06021  0.93049  Biso   1.000  O 
  O11      1.0000 0.03775  0.56203  0.44595  Biso   1.000  O 
  O12      1.0000 0.03968  0.56302  0.94530  Biso   1.000  O 
  O13      1.0000 0.53925  0.06365  0.44333  Biso   1.000  O 
  O14      1.0000 0.54001  0.06435  0.94785  Biso   1.000  O 
  O15      1.0000 0.53926  0.56437  0.44415  Biso   1.000  O 
  O16      1.0000 0.54036  0.56289  0.94740  Biso   1.000  O 
  O17      1.0000 0.46495  0.43227  0.19418  Biso   1.000  O 
  O18      1.0000 0.46727  0.43184  0.69538  Biso   1.000  O 
  O19      1.0000 0.46871  0.93070  0.19708  Biso   1.000  O 
  O20      1.0000 0.46539  0.93246  0.69777  Biso   1.000  O 
  O21      1.0000 0.96392  0.43083  0.19514  Biso   1.000  O 
  O22      1.0000 0.96721  0.43172  0.69402  Biso   1.000  O 
  O23      1.0000 0.97136  0.94005  0.18897  Biso   1.000  O 
  O24      1.0000 0.96479  0.93224  0.69251  Biso   1.000  O 
  O25      1.0000 0.46657  0.31433  0.44517  Biso   1.000  O 
  O26      1.0000 0.46621  0.31108  0.94348  Biso   1.000  O 
  O27      1.0000 0.46948  0.81537  0.45189  Biso   1.000  O 
  O28      1.0000 0.46356  0.81286  0.94307  Biso   1.000  O 
  O29      1.0000 0.96563  0.31200  0.44153  Biso   1.000  O 
  O30      1.0000 0.96743  0.31347  0.94334  Biso   1.000  O 
  O31      1.0000 0.96582  0.81437  0.44239  Biso   1.000  O 
  O32      1.0000 0.96480  0.81334  0.94092  Biso   1.000  O 
  O33      1.0000 0.26474  0.10749  0.24851  Biso   1.000  O 
  O34      1.0000 0.27651  0.11731  0.75182  Biso   1.000  O 
  O35      1.0000 0.26998  0.60822  0.24939  Biso   1.000  O 
  O36      1.0000 0.27295  0.61581  0.75140  Biso   1.000  O 
  O37      1.0000 0.77236  0.11831  0.24890  Biso   1.000  O 
  O38      1.0000 0.77303  0.11405  0.74756  Biso   1.000  O 
  O39      1.0000 0.77332  0.61699  0.25020  Biso   1.000  O 
  O40      1.0000 0.77315  0.61521  0.75007  Biso   1.000  O 
  O41      1.0000 0.27550  0.12995  0.49949  Biso   1.000  O 
  O42      1.0000 0.26460  0.13503  0.00036  Biso   1.000  O 
  O43      1.0000 0.27427  0.63018  0.50087  Biso   1.000  O 
  O44      1.0000 0.26651  0.63499  0.00046  Biso   1.000  O 
  O45      1.0000 0.77438  0.13067  0.49830  Biso   1.000  O 
  O46      1.0000 0.77700  0.12895  0.99739  Biso   1.000  O 
  O47      1.0000 0.77211  0.63121  0.50005  Biso   1.000  O 
  O48      1.0000 0.76860  0.63347  0.00067  Biso   1.000  O 
  O49      1.0000 0.23131  0.37922  0.49998  Biso   1.000  O 
  O50      1.0000 0.23532  0.38084  0.99955  Biso   1.000  O 
  O51      1.0000 0.23007  0.88005  0.50622  Biso   1.000  O 
  O52      1.0000 0.22344  0.89029  0.01092  Biso   1.000  O 
  O53      1.0000 0.73256  0.38053  0.50035  Biso   1.000  O 
  O54      1.0000 0.73359  0.37895  0.99989  Biso   1.000  O 
  O55      1.0000 0.73403  0.88201  0.49759  Biso   1.000  O 
  O56      1.0000 0.73026  0.87860  0.99850  Biso   1.000  O 
  O57      1.0000 0.23187  0.36241  0.25019  Biso   1.000  O 
  O58      1.0000 0.23317  0.36692  0.74931  Biso   1.000  O 
  O59      1.0000 0.24644  0.84983  0.26322  Biso   1.000  O 
  O60      1.0000 0.23150  0.86624  0.75559  Biso   1.000  O 
  O61      1.0000 0.72846  0.36758  0.25022  Biso   1.000  O 
  O62      1.0000 0.73319  0.36495  0.74968  Biso   1.000  O 
  O63      1.0000 0.73713  0.86739  0.24790  Biso   1.000  O 
  O64      1.0000 0.73053  0.86365  0.74784  Biso   1.000  O 
