data_image0
_cell_length_a       10.0575
_cell_length_b       10.274
_cell_length_c       10.0574
_cell_angle_alpha    90
_cell_angle_beta     90
_cell_angle_gamma    90

_symmetry_space_group_name_H-M    "P 1"
_symmetry_int_tables_number       1

loop_
  _symmetry_equiv_pos_as_xyz
  'x, y, z'

loop_
  _atom_site_label
  _atom_site_occupancy
  _atom_site_fract_x
  _atom_site_fract_y
  _atom_site_fract_z
  _atom_site_thermal_displace_type
  _atom_site_B_iso_or_equiv
  _atom_site_type_symbol
  Hf1      1.0000 0.12491  0.98300  0.12492  Biso   1.000  Hf
  Hf2      1.0000 0.12490  0.25005  0.38672  Biso   1.000  Hf
  Hf3      1.0000 0.38672  0.25005  0.12491  Biso   1.000  Hf
  Hf4      1.0000 0.37612  0.00547  0.37612  Biso   1.000  Hf
  O1       1.0000 0.97762  0.15927  0.97762  Biso   1.000  O 
  O2       1.0000 0.00261  0.08806  0.24722  Biso   1.000  O 
  O3       1.0000 0.97762  0.34084  0.27219  Biso   1.000  O 
  O4       1.0000 0.00261  0.41206  0.00260  Biso   1.000  O 
  O5       1.0000 0.27219  0.15926  0.27219  Biso   1.000  O 
  O6       1.0000 0.24721  0.08805  0.00262  Biso   1.000  O 
  O7       1.0000 0.27219  0.34084  0.97762  Biso   1.000  O 
  O8       1.0000 0.24721  0.41205  0.24720  Biso   1.000  O 
  Hf5      1.0000 0.12491  0.99516  0.62491  Biso   1.000  Hf
  Hf6      1.0000 0.12490  0.25006  0.86309  Biso   1.000  Hf
  Hf7      1.0000 0.37503  0.25005  0.62491  Biso   1.000  Hf
  Hf8      1.0000 0.37541  0.00042  0.87441  Biso   1.000  Hf
  O9       1.0000 0.99572  0.14587  0.49791  Biso   1.000  O 
  O10      1.0000 0.00162  0.10193  0.74291  Biso   1.000  O 
  O11      1.0000 0.99572  0.35424  0.75190  Biso   1.000  O 
  O12      1.0000 0.00162  0.39818  0.50691  Biso   1.000  O 
  O13      1.0000 0.25410  0.14587  0.75191  Biso   1.000  O 
  O14      1.0000 0.24820  0.10193  0.50691  Biso   1.000  O 
  O15      1.0000 0.25409  0.35424  0.49791  Biso   1.000  O 
  O16      1.0000 0.24820  0.39818  0.74290  Biso   1.000  O 
  Hf9      1.0000 0.12491  0.51711  0.12491  Biso   1.000  Hf
  Hf10     1.0000 0.12491  0.75005  0.37913  Biso   1.000  Hf
  Hf11     1.0000 0.37913  0.75005  0.12491  Biso   1.000  Hf
  Hf12     1.0000 0.37541  0.49969  0.37541  Biso   1.000  Hf
  O17      1.0000 0.00341  0.65707  0.00341  Biso   1.000  O 
  O18      1.0000 0.99635  0.59797  0.25347  Biso   1.000  O 
  O19      1.0000 0.00342  0.84304  0.24641  Biso   1.000  O 
  O20      1.0000 0.99635  0.90214  0.99636  Biso   1.000  O 
  O21      1.0000 0.24641  0.65706  0.24640  Biso   1.000  O 
  O22      1.0000 0.25347  0.59797  0.99635  Biso   1.000  O 
  O23      1.0000 0.24641  0.84304  0.00342  Biso   1.000  O 
  O24      1.0000 0.25347  0.90213  0.25347  Biso   1.000  O 
  Hf13     1.0000 0.12491  0.50494  0.62490  Biso   1.000  Hf
  Hf14     1.0000 0.12491  0.75005  0.87070  Biso   1.000  Hf
  Hf15     1.0000 0.37640  0.75005  0.62491  Biso   1.000  Hf
  Hf16     1.0000 0.37612  0.49464  0.87369  Biso   1.000  Hf
  O25      1.0000 0.99866  0.64779  0.50224  Biso   1.000  O 
  O26      1.0000 0.00196  0.60324  0.75308  Biso   1.000  O 
  O27      1.0000 0.99866  0.85232  0.74758  Biso   1.000  O 
  O28      1.0000 0.00197  0.89687  0.49674  Biso   1.000  O 
  O29      1.0000 0.25116  0.64779  0.74757  Biso   1.000  O 
  O30      1.0000 0.24785  0.60324  0.49673  Biso   1.000  O 
  O31      1.0000 0.25116  0.85232  0.50225  Biso   1.000  O 
  O32      1.0000 0.24786  0.89687  0.75309  Biso   1.000  O 
  Hf17     1.0000 0.62491  0.99516  0.12491  Biso   1.000  Hf
  Hf18     1.0000 0.62490  0.25005  0.37503  Biso   1.000  Hf
  Hf19     1.0000 0.86309  0.25006  0.12491  Biso   1.000  Hf
  Hf20     1.0000 0.87441  0.00042  0.37542  Biso   1.000  Hf
  O33      1.0000 0.49791  0.14587  0.99572  Biso   1.000  O 
  O34      1.0000 0.50691  0.10193  0.24820  Biso   1.000  O 
  O35      1.0000 0.49791  0.35424  0.25410  Biso   1.000  O 
  O36      1.0000 0.50691  0.39818  0.00162  Biso   1.000  O 
  O37      1.0000 0.75190  0.14587  0.25410  Biso   1.000  O 
  O38      1.0000 0.74291  0.10193  0.00162  Biso   1.000  O 
  O39      1.0000 0.75190  0.35424  0.99572  Biso   1.000  O 
  O40      1.0000 0.74290  0.39818  0.24819  Biso   1.000  O 
  Hf21     1.0000 0.62491  0.99973  0.62491  Biso   1.000  Hf
  Hf22     1.0000 0.62490  0.25005  0.87478  Biso   1.000  Hf
  Hf23     1.0000 0.87478  0.25005  0.62491  Biso   1.000  Hf
  Hf24     1.0000 0.87370  0.00547  0.87370  Biso   1.000  Hf
  O41      1.0000 0.49797  0.14981  0.49797  Biso   1.000  O 
  O42      1.0000 0.50139  0.10114  0.74843  Biso   1.000  O 
  O43      1.0000 0.49797  0.35030  0.75185  Biso   1.000  O 
  O44      1.0000 0.50139  0.39897  0.50139  Biso   1.000  O 
  O45      1.0000 0.75185  0.14981  0.75185  Biso   1.000  O 
  O46      1.0000 0.74842  0.10114  0.50139  Biso   1.000  O 
  O47      1.0000 0.75184  0.35030  0.49797  Biso   1.000  O 
  O48      1.0000 0.74842  0.39897  0.74842  Biso   1.000  O 
  Hf25     1.0000 0.62491  0.50494  0.12491  Biso   1.000  Hf
  Hf26     1.0000 0.62491  0.75005  0.37640  Biso   1.000  Hf
  Hf27     1.0000 0.87070  0.75005  0.12491  Biso   1.000  Hf
  Hf28     1.0000 0.87369  0.49464  0.37612  Biso   1.000  Hf
  O49      1.0000 0.50224  0.64779  0.99866  Biso   1.000  O 
  O50      1.0000 0.49674  0.60324  0.24785  Biso   1.000  O 
  O51      1.0000 0.50225  0.85232  0.25116  Biso   1.000  O 
  O52      1.0000 0.49674  0.89687  0.00197  Biso   1.000  O 
  O53      1.0000 0.74757  0.64779  0.25116  Biso   1.000  O 
  O54      1.0000 0.75308  0.60324  0.00196  Biso   1.000  O 
  O55      1.0000 0.74758  0.85232  0.99866  Biso   1.000  O 
  O56      1.0000 0.75308  0.89687  0.24785  Biso   1.000  O 
  Hf29     1.0000 0.62491  0.50038  0.62491  Biso   1.000  Hf
  Hf30     1.0000 0.62491  0.75005  0.87342  Biso   1.000  Hf
  Hf31     1.0000 0.87342  0.75005  0.62491  Biso   1.000  Hf
  Hf32     1.0000 0.87440  0.49969  0.87440  Biso   1.000  Hf
  O57      1.0000 0.49785  0.64888  0.49785  Biso   1.000  O 
  O58      1.0000 0.50162  0.60118  0.74820  Biso   1.000  O 
  O59      1.0000 0.49785  0.85122  0.75197  Biso   1.000  O 
  O60      1.0000 0.50162  0.89893  0.50162  Biso   1.000  O 
  O61      1.0000 0.75197  0.64888  0.75197  Biso   1.000  O 
  O62      1.0000 0.74820  0.60118  0.50162  Biso   1.000  O 
  O63      1.0000 0.75197  0.85122  0.49785  Biso   1.000  O 
  O64      1.0000 0.74820  0.89893  0.74820  Biso   1.000  O 
  Pd1      1.0000 0.12490  0.25005  0.12490  Biso   1.000  Pd
