data_image0
_cell_length_a       9.9732
_cell_length_b       10.4125
_cell_length_c       10.0608
_cell_angle_alpha    90
_cell_angle_beta     90
_cell_angle_gamma    90

_symmetry_space_group_name_H-M    "P 1"
_symmetry_int_tables_number       1

loop_
  _symmetry_equiv_pos_as_xyz
  'x, y, z'

loop_
  _atom_site_label
  _atom_site_occupancy
  _atom_site_fract_x
  _atom_site_fract_y
  _atom_site_fract_z
  _atom_site_thermal_displace_type
  _atom_site_B_iso_or_equiv
  _atom_site_type_symbol
  Hf1      1.0000 0.13103  0.01839  0.12329  Biso   1.000  Hf
  Hf2      1.0000 0.12769  0.23447  0.38028  Biso   1.000  Hf
  Hf3      1.0000 0.36441  0.26892  0.12370  Biso   1.000  Hf
  Hf4      1.0000 0.36133  0.48441  0.37684  Biso   1.000  Hf
  O1       1.0000 0.01794  0.17606  0.20986  Biso   1.000  O 
  O2       1.0000 0.03591  0.05990  0.43832  Biso   1.000  O 
  O3       1.0000 0.46176  0.43619  0.19752  Biso   1.000  O 
  O4       1.0000 0.45683  0.31752  0.44727  Biso   1.000  O 
  O5       1.0000 0.26381  0.12087  0.24534  Biso   1.000  O 
  O6       1.0000 0.26713  0.13312  0.49588  Biso   1.000  O 
  O7       1.0000 0.22295  0.38435  0.50101  Biso   1.000  O 
  O8       1.0000 0.22675  0.36893  0.25361  Biso   1.000  O 
  Hf5      1.0000 0.12604  0.00834  0.61787  Biso   1.000  Hf
  Hf6      1.0000 0.12737  0.22041  0.84520  Biso   1.000  Hf
  Hf7      1.0000 0.36112  0.26829  0.62427  Biso   1.000  Hf
  Hf8      1.0000 0.35927  0.48961  0.87442  Biso   1.000  Hf
  O9       1.0000 0.03676  0.18008  0.66682  Biso   1.000  O 
  O10      1.0000 0.02577  0.06491  0.93848  Biso   1.000  O 
  O11      1.0000 0.45387  0.43693  0.69242  Biso   1.000  O 
  O12      1.0000 0.45898  0.32097  0.94525  Biso   1.000  O 
  O13      1.0000 0.26595  0.11076  0.73967  Biso   1.000  O 
  O14      1.0000 0.26474  0.13561  0.99179  Biso   1.000  O 
  O15      1.0000 0.24749  0.39712  0.00532  Biso   1.000  O 
  O16      1.0000 0.22184  0.36889  0.74869  Biso   1.000  O 
  Hf9      1.0000 0.13379  0.52527  0.12995  Biso   1.000  Hf
  Hf10     1.0000 0.13113  0.73656  0.37613  Biso   1.000  Hf
  Hf11     1.0000 0.36429  0.76837  0.12759  Biso   1.000  Hf
  Hf12     1.0000 0.36138  0.98658  0.37451  Biso   1.000  Hf
  O17      1.0000 0.03547  0.68809  0.19554  Biso   1.000  O 
  O18      1.0000 0.03533  0.56979  0.44008  Biso   1.000  O 
  O19      1.0000 0.46080  0.93635  0.19631  Biso   1.000  O 
  O20      1.0000 0.46013  0.81846  0.44495  Biso   1.000  O 
  O21      1.0000 0.27131  0.62216  0.25286  Biso   1.000  O 
  O22      1.0000 0.26555  0.63441  0.50149  Biso   1.000  O 
  O23      1.0000 0.22846  0.88199  0.49708  Biso   1.000  O 
  O24      1.0000 0.22587  0.87083  0.24853  Biso   1.000  O 
  Hf13     1.0000 0.12721  0.52086  0.62345  Biso   1.000  Hf
  Hf14     1.0000 0.12276  0.73895  0.87559  Biso   1.000  Hf
  Hf15     1.0000 0.36165  0.76785  0.62691  Biso   1.000  Hf
  Hf16     1.0000 0.35856  0.98506  0.87682  Biso   1.000  Hf
  O25      1.0000 0.02985  0.68871  0.69476  Biso   1.000  O 
  O26      1.0000 0.02429  0.56821  0.94413  Biso   1.000  O 
  O27      1.0000 0.46027  0.93343  0.69736  Biso   1.000  O 
  O28      1.0000 0.45424  0.82018  0.94918  Biso   1.000  O 
  O29      1.0000 0.26143  0.62016  0.75133  Biso   1.000  O 
  O30      1.0000 0.26978  0.63880  0.00167  Biso   1.000  O 
  O31      1.0000 0.21751  0.88912  0.99953  Biso   1.000  O 
  O32      1.0000 0.22418  0.86686  0.74915  Biso   1.000  O 
  Hf17     1.0000 0.62942  0.01468  0.12821  Biso   1.000  Hf
  Hf18     1.0000 0.62603  0.23252  0.38786  Biso   1.000  Hf
  Hf19     1.0000 0.83649  0.26187  0.15144  Biso   1.000  Hf
  Hf20     1.0000 0.86256  0.48424  0.38616  Biso   1.000  Hf
  O33      1.0000 0.53459  0.18579  0.19658  Biso   1.000  O 
  O34      1.0000 0.52940  0.06687  0.45030  Biso   1.000  O 
  O35      1.0000 0.95584  0.43741  0.20499  Biso   1.000  O 
  O36      1.0000 0.95502  0.31373  0.44545  Biso   1.000  O 
  O37      1.0000 0.75695  0.11365  0.26268  Biso   1.000  O 
  O38      1.0000 0.76761  0.13345  0.50845  Biso   1.000  O 
  O39      1.0000 0.72163  0.38047  0.50809  Biso   1.000  O 
  O40      1.0000 0.71468  0.37343  0.26424  Biso   1.000  O 
  Hf21     1.0000 0.62917  0.01839  0.63029  Biso   1.000  Hf
  Hf22     1.0000 0.62667  0.23743  0.87936  Biso   1.000  Hf
  Hf23     1.0000 0.86001  0.27324  0.63647  Biso   1.000  Hf
  Hf24     1.0000 0.85540  0.48819  0.87170  Biso   1.000  Hf
  O41      1.0000 0.52966  0.18626  0.69643  Biso   1.000  O 
  O42      1.0000 0.52824  0.06887  0.94468  Biso   1.000  O 
  O43      1.0000 0.94436  0.45332  0.66850  Biso   1.000  O 
  O44      1.0000 0.94603  0.31217  0.86076  Biso   1.000  O 
  O45      1.0000 0.76296  0.12081  0.75672  Biso   1.000  O 
  O46      1.0000 0.77308  0.13227  0.00998  Biso   1.000  O 
  O47      1.0000 0.74131  0.38061  0.00798  Biso   1.000  O 
  O48      1.0000 0.71219  0.37597  0.75474  Biso   1.000  O 
  Hf25     1.0000 0.63280  0.51871  0.13029  Biso   1.000  Hf
  Hf26     1.0000 0.62994  0.73464  0.37811  Biso   1.000  Hf
  Hf27     1.0000 0.86323  0.76616  0.12920  Biso   1.000  Hf
  Hf28     1.0000 0.86308  0.98248  0.37947  Biso   1.000  Hf
  O49      1.0000 0.53530  0.68570  0.19576  Biso   1.000  O 
  O50      1.0000 0.53080  0.56791  0.44640  Biso   1.000  O 
  O51      1.0000 0.96049  0.93471  0.19413  Biso   1.000  O 
  O52      1.0000 0.96120  0.81682  0.44965  Biso   1.000  O 
  O53      1.0000 0.76866  0.61887  0.25498  Biso   1.000  O 
  O54      1.0000 0.76418  0.63447  0.50412  Biso   1.000  O 
  O55      1.0000 0.72496  0.88397  0.50308  Biso   1.000  O 
  O56      1.0000 0.72711  0.86744  0.25280  Biso   1.000  O 
  Hf29     1.0000 0.62614  0.51891  0.62803  Biso   1.000  Hf
  Hf30     1.0000 0.62391  0.73747  0.87944  Biso   1.000  Hf
  Hf31     1.0000 0.85856  0.76870  0.62958  Biso   1.000  Hf
  Hf32     1.0000 0.85426  0.98462  0.88023  Biso   1.000  Hf
  O57      1.0000 0.52763  0.68459  0.69959  Biso   1.000  O 
  O58      1.0000 0.52561  0.57063  0.94825  Biso   1.000  O 
  O59      1.0000 0.95642  0.93619  0.69814  Biso   1.000  O 
  O60      1.0000 0.95126  0.81696  0.94695  Biso   1.000  O 
  O61      1.0000 0.76149  0.62304  0.75343  Biso   1.000  O 
  O62      1.0000 0.77085  0.63210  0.00351  Biso   1.000  O 
  O63      1.0000 0.73017  0.88185  0.00349  Biso   1.000  O 
  O64      1.0000 0.72212  0.87005  0.75334  Biso   1.000  O 
  Pd1      1.0000 0.05522  0.30609  0.05172  Biso   1.000  Pd
