data_image0
_cell_length_a       10.043
_cell_length_b       10.2188
_cell_length_c       5.03642
_cell_angle_alpha    90
_cell_angle_beta     90
_cell_angle_gamma    90

_symmetry_space_group_name_H-M    "P 1"
_symmetry_int_tables_number       1

loop_
  _symmetry_equiv_pos_as_xyz
  'x, y, z'

loop_
  _atom_site_label
  _atom_site_occupancy
  _atom_site_fract_x
  _atom_site_fract_y
  _atom_site_fract_z
  _atom_site_thermal_displace_type
  _atom_site_B_iso_or_equiv
  _atom_site_type_symbol
  Pd1      1.0000 0.12326  0.96322  0.24817  Biso   1.000  Pd
  Hf1      1.0000 0.13056  0.50165  0.25578  Biso   1.000  Hf
  Hf2      1.0000 0.61243  0.00800  0.24408  Biso   1.000  Hf
  Hf3      1.0000 0.63469  0.48763  0.22128  Biso   1.000  Hf
  Hf4      1.0000 0.14566  0.26979  0.77579  Biso   1.000  Hf
  Hf5      1.0000 0.14442  0.76723  0.74561  Biso   1.000  Hf
  Hf6      1.0000 0.64051  0.25252  0.74015  Biso   1.000  Hf
  Hf7      1.0000 0.64472  0.77023  0.70457  Biso   1.000  Hf
  Hf8      1.0000 0.37701  0.25908  0.27585  Biso   1.000  Hf
  Hf9      1.0000 0.40243  0.74112  0.23085  Biso   1.000  Hf
  Hf10     1.0000 0.89066  0.25283  0.23976  Biso   1.000  Hf
  Hf11     1.0000 0.87464  0.75473  0.21792  Biso   1.000  Hf
  Hf12     1.0000 0.37759  0.01888  0.77888  Biso   1.000  Hf
  Hf13     1.0000 0.40427  0.51632  0.74150  Biso   1.000  Hf
  Hf14     1.0000 0.88653  0.01204  0.71161  Biso   1.000  Hf
  Hf15     1.0000 0.89168  0.49879  0.73078  Biso   1.000  Hf
  O1       1.0000 0.98274  0.17368  0.90421  Biso   1.000  O 
  O2       1.0000 0.03931  0.66351  0.07576  Biso   1.000  O 
  O3       1.0000 0.47717  0.14524  0.01156  Biso   1.000  O 
  O4       1.0000 0.55600  0.65347  0.98095  Biso   1.000  O 
  O5       1.0000 0.00392  0.09392  0.41332  Biso   1.000  O 
  O6       1.0000 0.04920  0.59918  0.57789  Biso   1.000  O 
  O7       1.0000 0.51180  0.11284  0.51674  Biso   1.000  O 
  O8       1.0000 0.53394  0.61215  0.47935  Biso   1.000  O 
  O9       1.0000 0.01591  0.35368  0.49446  Biso   1.000  O 
  O10      1.0000 0.00895  0.84799  0.48076  Biso   1.000  O 
  O11      1.0000 0.51312  0.36345  0.48889  Biso   1.000  O 
  O12      1.0000 0.50514  0.86594  0.48456  Biso   1.000  O 
  O13      1.0000 0.00096  0.40362  0.00741  Biso   1.000  O 
  O14      1.0000 0.02390  0.92200  0.96507  Biso   1.000  O 
  O15      1.0000 0.52932  0.40497  0.98331  Biso   1.000  O 
  O16      1.0000 0.52781  0.90399  0.98293  Biso   1.000  O 
  O17      1.0000 0.27890  0.17206  0.56776  Biso   1.000  O 
  O18      1.0000 0.30072  0.68030  0.56743  Biso   1.000  O 
  O19      1.0000 0.75474  0.15197  0.45266  Biso   1.000  O 
  O20      1.0000 0.79016  0.65584  0.53349  Biso   1.000  O 
  O21      1.0000 0.22185  0.09618  0.04775  Biso   1.000  O 
  O22      1.0000 0.28833  0.58828  0.06703  Biso   1.000  O 
  O23      1.0000 0.74060  0.09815  0.93343  Biso   1.000  O 
  O24      1.0000 0.78718  0.58654  0.04419  Biso   1.000  O 
  O25      1.0000 0.24386  0.34824  0.03410  Biso   1.000  O 
  O26      1.0000 0.24945  0.84569  0.04295  Biso   1.000  O 
  O27      1.0000 0.77444  0.35387  0.98506  Biso   1.000  O 
  O28      1.0000 0.78826  0.85212  0.93362  Biso   1.000  O 
  O29      1.0000 0.26410  0.41907  0.52854  Biso   1.000  O 
  O30      1.0000 0.24052  0.93165  0.55768  Biso   1.000  O 
  O31      1.0000 0.76418  0.39873  0.48848  Biso   1.000  O 
  O32      1.0000 0.75840  0.90242  0.44089  Biso   1.000  O 
