data_image0
_cell_length_a       10.1779
_cell_length_b       5.2518
_cell_length_c       10.3358
_cell_angle_alpha    90
_cell_angle_beta     90
_cell_angle_gamma    80

_symmetry_space_group_name_H-M    "P 1"
_symmetry_int_tables_number       1

loop_
  _symmetry_equiv_pos_as_xyz
  'x, y, z'

loop_
  _atom_site_label
  _atom_site_occupancy
  _atom_site_fract_x
  _atom_site_fract_y
  _atom_site_fract_z
  _atom_site_thermal_displace_type
  _atom_site_B_iso_or_equiv
  _atom_site_type_symbol
  Hf1      1.0000 0.10790  0.94541  0.09605  Biso   1.000  Hf
  Hf2      1.0000 0.11098  0.47690  0.40532  Biso   1.000  Hf
  Hf3      1.0000 0.40069  0.55971  0.14399  Biso   1.000  Hf
  Hf4      1.0000 0.38710  0.05316  0.35460  Biso   1.000  Hf
  O1       1.0000 0.96399  0.27269  0.99858  Biso   1.000  O 
  O2       1.0000 0.02052  0.23091  0.24482  Biso   1.000  O 
  O3       1.0000 0.01843  0.74168  0.26068  Biso   1.000  O 
  O4       1.0000 0.97195  0.77555  0.99391  Biso   1.000  O 
  O5       1.0000 0.30222  0.44344  0.31805  Biso   1.000  O 
  O6       1.0000 0.21127  0.10322  0.94820  Biso   1.000  O 
  O7       1.0000 0.23189  0.61885  0.01557  Biso   1.000  O 
  O8       1.0000 0.28262  0.91098  0.20696  Biso   1.000  O 
  Hf5      1.0000 0.11098  0.97350  0.60510  Biso   1.000  Hf
  Hf6      1.0000 0.10780  0.46572  0.89374  Biso   1.000  Hf
  Hf7      1.0000 0.38836  0.55432  0.64744  Biso   1.000  Hf
  Hf8      1.0000 0.38710  0.06023  0.85131  Biso   1.000  Hf
  O9       1.0000 0.97228  0.28518  0.50410  Biso   1.000  O 
  O10      1.0000 0.02366  0.24623  0.74460  Biso   1.000  O 
  O11      1.0000 0.02365  0.74616  0.75346  Biso   1.000  O 
  O12      1.0000 0.97284  0.78598  0.49929  Biso   1.000  O 
  O13      1.0000 0.28220  0.41662  0.78754  Biso   1.000  O 
  O14      1.0000 0.21205  0.10404  0.45545  Biso   1.000  O 
  O15      1.0000 0.21127  0.60591  0.54985  Biso   1.000  O 
  O16      1.0000 0.28625  0.92191  0.70510  Biso   1.000  O 
  Hf9      1.0000 0.61403  0.96689  0.10257  Biso   1.000  Hf
  Hf10     1.0000 0.60908  0.46768  0.39717  Biso   1.000  Hf
  Hf11     1.0000 0.88770  0.54059  0.14540  Biso   1.000  Hf
  Hf12     1.0000 0.88403  0.05188  0.35391  Biso   1.000  Hf
  O17      1.0000 0.47552  0.27693  0.00231  Biso   1.000  O 
  O18      1.0000 0.52671  0.23997  0.24398  Biso   1.000  O 
  O19      1.0000 0.52914  0.74509  0.25457  Biso   1.000  O 
  O20      1.0000 0.47748  0.79691  0.99631  Biso   1.000  O 
  O21      1.0000 0.78157  0.41504  0.29283  Biso   1.000  O 
  O22      1.0000 0.71334  0.10766  0.95364  Biso   1.000  O 
  O23      1.0000 0.71417  0.59138  0.04291  Biso   1.000  O 
  O24      1.0000 0.78556  0.91245  0.20540  Biso   1.000  O 
  Hf13     1.0000 0.60936  0.96997  0.60347  Biso   1.000  Hf
  Hf14     1.0000 0.61235  0.47651  0.89535  Biso   1.000  Hf
  Hf15     1.0000 0.88620  0.55753  0.64555  Biso   1.000  Hf
  Hf16     1.0000 0.88611  0.05505  0.85107  Biso   1.000  Hf
  O25      1.0000 0.47355  0.27832  0.50599  Biso   1.000  O 
  O26      1.0000 0.52553  0.24603  0.74603  Biso   1.000  O 
  O27      1.0000 0.52469  0.74502  0.75383  Biso   1.000  O 
  O28      1.0000 0.47210  0.78146  0.49530  Biso   1.000  O 
  O29      1.0000 0.78337  0.42162  0.79034  Biso   1.000  O 
  O30      1.0000 0.71166  0.10120  0.45678  Biso   1.000  O 
  O31      1.0000 0.71293  0.60314  0.54186  Biso   1.000  O 
  O32      1.0000 0.78228  0.92115  0.70538  Biso   1.000  O 
  Pd1      1.0000 0.17883  0.38220  0.15661  Biso   1.000  Pd
