data_image0
_cell_length_a       4.99837
_cell_length_b       10.4487
_cell_length_c       10.1184
_cell_angle_alpha    90
_cell_angle_beta     90
_cell_angle_gamma    90

_symmetry_space_group_name_H-M    "P 1"
_symmetry_int_tables_number       1

loop_
  _symmetry_equiv_pos_as_xyz
  'x, y, z'

loop_
  _atom_site_label
  _atom_site_occupancy
  _atom_site_fract_x
  _atom_site_fract_y
  _atom_site_fract_z
  _atom_site_thermal_displace_type
  _atom_site_B_iso_or_equiv
  _atom_site_type_symbol
  Hf1      1.0000 0.25250  0.01581  0.12534  Biso   1.000  Hf
  Hf2      1.0000 0.24058  0.23380  0.39162  Biso   1.000  Hf
  Hf3      1.0000 0.66839  0.26368  0.14806  Biso   1.000  Hf
  Hf4      1.0000 0.71729  0.48566  0.38631  Biso   1.000  Hf
  O1       1.0000 0.02590  0.17823  0.21310  Biso   1.000  O 
  O2       1.0000 0.05891  0.06149  0.44421  Biso   1.000  O 
  O3       1.0000 0.90911  0.43900  0.20808  Biso   1.000  O 
  O4       1.0000 0.89881  0.31623  0.44925  Biso   1.000  O 
  O5       1.0000 0.49644  0.11702  0.25781  Biso   1.000  O 
  O6       1.0000 0.53032  0.13427  0.50390  Biso   1.000  O 
  O7       1.0000 0.43225  0.38320  0.50812  Biso   1.000  O 
  O8       1.0000 0.42729  0.37387  0.26666  Biso   1.000  O 
  Hf5      1.0000 0.24469  0.01150  0.62232  Biso   1.000  Hf
  Hf6      1.0000 0.24124  0.22621  0.84941  Biso   1.000  Hf
  Hf7      1.0000 0.71287  0.27634  0.63366  Biso   1.000  Hf
  Hf8      1.0000 0.69646  0.49292  0.86994  Biso   1.000  Hf
  O9       1.0000 0.06428  0.18332  0.66966  Biso   1.000  O 
  O10      1.0000 0.03465  0.06985  0.93901  Biso   1.000  O 
  O11      1.0000 0.87402  0.45607  0.66754  Biso   1.000  O 
  O12      1.0000 0.87997  0.31743  0.86190  Biso   1.000  O 
  O13      1.0000 0.51938  0.11610  0.74709  Biso   1.000  O 
  O14      1.0000 0.56081  0.12985  0.00274  Biso   1.000  O 
  O15      1.0000 0.51400  0.39315  0.01118  Biso   1.000  O 
  O16      1.0000 0.41135  0.37834  0.75160  Biso   1.000  O 
  Hf9      1.0000 0.26380  0.52739  0.13457  Biso   1.000  Hf
  Hf10     1.0000 0.25369  0.73827  0.37856  Biso   1.000  Hf
  Hf11     1.0000 0.72188  0.76784  0.13072  Biso   1.000  Hf
  Hf12     1.0000 0.71679  0.98659  0.37773  Biso   1.000  Hf
  O17      1.0000 0.06663  0.68907  0.19771  Biso   1.000  O 
  O18      1.0000 0.06070  0.57234  0.44202  Biso   1.000  O 
  O19      1.0000 0.91463  0.93663  0.19582  Biso   1.000  O 
  O20      1.0000 0.91400  0.82001  0.44983  Biso   1.000  O 
  O21      1.0000 0.53719  0.62326  0.25787  Biso   1.000  O 
  O22      1.0000 0.51928  0.63732  0.50529  Biso   1.000  O 
  O23      1.0000 0.44725  0.88444  0.50026  Biso   1.000  O 
  O24      1.0000 0.44665  0.87052  0.25119  Biso   1.000  O 
  Hf13     1.0000 0.24092  0.52390  0.62501  Biso   1.000  Hf
  Hf14     1.0000 0.22433  0.74319  0.87857  Biso   1.000  Hf
  Hf15     1.0000 0.70874  0.77095  0.63033  Biso   1.000  Hf
  Hf16     1.0000 0.69283  0.98722  0.88118  Biso   1.000  Hf
  O25      1.0000 0.04311  0.68951  0.69943  Biso   1.000  O 
  O26      1.0000 0.02503  0.57336  0.94848  Biso   1.000  O 
  O27      1.0000 0.90665  0.93635  0.70092  Biso   1.000  O 
  O28      1.0000 0.88330  0.82231  0.95162  Biso   1.000  O 
  O29      1.0000 0.50580  0.62633  0.75455  Biso   1.000  O 
  O30      1.0000 0.53614  0.63810  0.00587  Biso   1.000  O 
  O31      1.0000 0.46157  0.88365  0.00308  Biso   1.000  O 
  O32      1.0000 0.43387  0.87045  0.75267  Biso   1.000  O 
  Pd1      1.0000 0.11747  0.30584  0.05569  Biso   1.000  Pd
