data_image0
_cell_length_a       10.1194
_cell_length_b       5.1057
_cell_length_c       10.4753
_cell_angle_alpha    90
_cell_angle_beta     80
_cell_angle_gamma    90

_symmetry_space_group_name_H-M    "P 1"
_symmetry_int_tables_number       1

loop_
  _symmetry_equiv_pos_as_xyz
  'x, y, z'

loop_
  _atom_site_label
  _atom_site_occupancy
  _atom_site_fract_x
  _atom_site_fract_y
  _atom_site_fract_z
  _atom_site_thermal_displace_type
  _atom_site_B_iso_or_equiv
  _atom_site_type_symbol
  Pd1      1.0000 0.12353  0.02069  0.16850  Biso   1.000  Pd
  Hf1      1.0000 0.13027  0.03670  0.64584  Biso   1.000  Hf
  Hf2      1.0000 0.63488  0.03882  0.14458  Biso   1.000  Hf
  Hf3      1.0000 0.63008  0.04066  0.64916  Biso   1.000  Hf
  Hf4      1.0000 0.13561  0.45594  0.39582  Biso   1.000  Hf
  Hf5      1.0000 0.13277  0.45020  0.89677  Biso   1.000  Hf
  Hf6      1.0000 0.63447  0.45287  0.39642  Biso   1.000  Hf
  Hf7      1.0000 0.62991  0.45804  0.89920  Biso   1.000  Hf
  Hf8      1.0000 0.35916  0.54749  0.09925  Biso   1.000  Hf
  Hf9      1.0000 0.35700  0.54297  0.60592  Biso   1.000  Hf
  Hf10     1.0000 0.86742  0.52643  0.10538  Biso   1.000  Hf
  Hf11     1.0000 0.85564  0.53821  0.60735  Biso   1.000  Hf
  Hf12     1.0000 0.36261  0.95729  0.35207  Biso   1.000  Hf
  Hf13     1.0000 0.35622  0.96830  0.85716  Biso   1.000  Hf
  Hf14     1.0000 0.85550  0.95010  0.35750  Biso   1.000  Hf
  Hf15     1.0000 0.85905  0.95044  0.85842  Biso   1.000  Hf
  O1       1.0000 0.04420  0.31352  0.07994  Biso   1.000  O 
  O2       1.0000 0.02663  0.31965  0.57346  Biso   1.000  O 
  O3       1.0000 0.53570  0.33515  0.07761  Biso   1.000  O 
  O4       1.0000 0.52933  0.33204  0.57832  Biso   1.000  O 
  O5       1.0000 0.02555  0.16989  0.32776  Biso   1.000  O 
  O6       1.0000 0.02575  0.16465  0.82778  Biso   1.000  O 
  O7       1.0000 0.53029  0.16215  0.32878  Biso   1.000  O 
  O8       1.0000 0.52729  0.17099  0.82757  Biso   1.000  O 
  O9       1.0000 0.46744  0.83014  0.17369  Biso   1.000  O 
  O10      1.0000 0.46218  0.83315  0.67306  Biso   1.000  O 
  O11      1.0000 0.96334  0.82949  0.17458  Biso   1.000  O 
  O12      1.0000 0.96423  0.81853  0.67756  Biso   1.000  O 
  O13      1.0000 0.46212  0.66313  0.42189  Biso   1.000  O 
  O14      1.0000 0.46171  0.68176  0.92603  Biso   1.000  O 
  O15      1.0000 0.96347  0.66872  0.42571  Biso   1.000  O 
  O16      1.0000 0.95930  0.65788  0.93058  Biso   1.000  O 
  O17      1.0000 0.26936  0.24959  0.23329  Biso   1.000  O 
  O18      1.0000 0.26621  0.25245  0.73419  Biso   1.000  O 
  O19      1.0000 0.77202  0.24957  0.24135  Biso   1.000  O 
  O20      1.0000 0.77038  0.25395  0.74243  Biso   1.000  O 
  O21      1.0000 0.27157  0.24172  0.48674  Biso   1.000  O 
  O22      1.0000 0.28378  0.28446  0.97222  Biso   1.000  O 
  O23      1.0000 0.77100  0.23802  0.49186  Biso   1.000  O 
  O24      1.0000 0.76596  0.23620  0.99316  Biso   1.000  O 
  O25      1.0000 0.22854  0.79779  0.01388  Biso   1.000  O 
  O26      1.0000 0.22058  0.75385  0.50904  Biso   1.000  O 
  O27      1.0000 0.73117  0.75404  0.01176  Biso   1.000  O 
  O28      1.0000 0.71949  0.75194  0.51200  Biso   1.000  O 
  O29      1.0000 0.21848  0.74025  0.25927  Biso   1.000  O 
  O30      1.0000 0.22079  0.73886  0.76303  Biso   1.000  O 
  O31      1.0000 0.72657  0.73442  0.26074  Biso   1.000  O 
  O32      1.0000 0.72023  0.74133  0.76303  Biso   1.000  O 
