data_image0
_cell_length_a       10.0888
_cell_length_b       10.5767
_cell_length_c       5.03419
_cell_angle_alpha    90
_cell_angle_beta     90
_cell_angle_gamma    90

_symmetry_space_group_name_H-M    "P 1"
_symmetry_int_tables_number       1

loop_
  _symmetry_equiv_pos_as_xyz
  'x, y, z'

loop_
  _atom_site_label
  _atom_site_occupancy
  _atom_site_fract_x
  _atom_site_fract_y
  _atom_site_fract_z
  _atom_site_thermal_displace_type
  _atom_site_B_iso_or_equiv
  _atom_site_type_symbol
  Hf1      1.0000 0.14060  0.00351  0.23311  Biso   1.000  Hf
  Hf2      1.0000 0.13679  0.20994  0.73761  Biso   1.000  Hf
  Hf3      1.0000 0.38067  0.26555  0.26628  Biso   1.000  Hf
  Hf4      1.0000 0.37312  0.49177  0.75174  Biso   1.000  Hf
  O1       1.0000 0.01996  0.16792  0.38562  Biso   1.000  O 
  O2       1.0000 0.03990  0.05705  0.89544  Biso   1.000  O 
  O3       1.0000 0.47787  0.42863  0.42262  Biso   1.000  O 
  O4       1.0000 0.48682  0.32070  0.92685  Biso   1.000  O 
  O5       1.0000 0.26478  0.09776  0.48923  Biso   1.000  O 
  O6       1.0000 0.29259  0.12304  0.98292  Biso   1.000  O 
  O7       1.0000 0.26304  0.42292  0.09383  Biso   1.000  O 
  O8       1.0000 0.27228  0.33955  0.61613  Biso   1.000  O 
  Hf5      1.0000 0.11601  0.54524  0.22455  Biso   1.000  Hf
  Hf6      1.0000 0.13294  0.74300  0.73497  Biso   1.000  Hf
  Hf7      1.0000 0.36790  0.76163  0.24181  Biso   1.000  Hf
  Hf8      1.0000 0.37169  0.98393  0.74264  Biso   1.000  Hf
  O9       1.0000 0.02424  0.69554  0.38823  Biso   1.000  O 
  O10      1.0000 0.03835  0.57119  0.86457  Biso   1.000  O 
  O11      1.0000 0.46308  0.92731  0.38309  Biso   1.000  O 
  O12      1.0000 0.47062  0.81940  0.88931  Biso   1.000  O 
  O13      1.0000 0.26268  0.61182  0.49138  Biso   1.000  O 
  O14      1.0000 0.26690  0.65202  0.98285  Biso   1.000  O 
  O15      1.0000 0.23299  0.88530  0.97388  Biso   1.000  O 
  O16      1.0000 0.23074  0.85876  0.47400  Biso   1.000  O 
  Hf9      1.0000 0.63699  0.01499  0.25166  Biso   1.000  Hf
  Hf10     1.0000 0.63975  0.23329  0.75624  Biso   1.000  Hf
  Hf11     1.0000 0.85540  0.26917  0.23706  Biso   1.000  Hf
  Hf12     1.0000 0.86971  0.48262  0.73635  Biso   1.000  Hf
  O17      1.0000 0.53387  0.17178  0.42154  Biso   1.000  O 
  O18      1.0000 0.54840  0.06529  0.90022  Biso   1.000  O 
  O19      1.0000 0.94753  0.44909  0.35783  Biso   1.000  O 
  O20      1.0000 0.96007  0.31382  0.83092  Biso   1.000  O 
  O21      1.0000 0.77230  0.11521  0.49519  Biso   1.000  O 
  O22      1.0000 0.77740  0.13669  0.99775  Biso   1.000  O 
  O23      1.0000 0.73897  0.38686  0.99582  Biso   1.000  O 
  O24      1.0000 0.72879  0.36380  0.49397  Biso   1.000  O 
  Hf13     1.0000 0.63282  0.51557  0.25316  Biso   1.000  Hf
  Hf14     1.0000 0.63545  0.73196  0.75369  Biso   1.000  Hf
  Hf15     1.0000 0.85444  0.76915  0.24413  Biso   1.000  Hf
  Hf16     1.0000 0.86185  0.98324  0.74102  Biso   1.000  Hf
  O25      1.0000 0.52772  0.67840  0.41032  Biso   1.000  O 
  O26      1.0000 0.53575  0.57337  0.91965  Biso   1.000  O 
  O27      1.0000 0.96046  0.93065  0.39493  Biso   1.000  O 
  O28      1.0000 0.96502  0.81814  0.89090  Biso   1.000  O 
  O29      1.0000 0.76311  0.61743  0.49931  Biso   1.000  O 
  O30      1.0000 0.77377  0.63616  0.99692  Biso   1.000  O 
  O31      1.0000 0.73324  0.88519  0.99862  Biso   1.000  O 
  O32      1.0000 0.72491  0.86636  0.49900  Biso   1.000  O 
  Pt1      1.0000 0.12866  0.30062  0.21597  Biso   1.000  Pt
