data_image0
_cell_length_a       10.1356
_cell_length_b       10.315
_cell_length_c       10.4773
_cell_angle_alpha    90
_cell_angle_beta     80
_cell_angle_gamma    90

_symmetry_space_group_name_H-M    "P 1"
_symmetry_int_tables_number       1

loop_
  _symmetry_equiv_pos_as_xyz
  'x, y, z'

loop_
  _atom_site_label
  _atom_site_occupancy
  _atom_site_fract_x
  _atom_site_fract_y
  _atom_site_fract_z
  _atom_site_thermal_displace_type
  _atom_site_B_iso_or_equiv
  _atom_site_type_symbol
  Hf1      1.0000 0.13582  0.02219  0.14686  Biso   1.000  Hf
  Hf2      1.0000 0.13629  0.22828  0.39867  Biso   1.000  Hf
  Hf3      1.0000 0.35797  0.27772  0.09653  Biso   1.000  Hf
  Hf4      1.0000 0.35397  0.47789  0.34702  Biso   1.000  Hf
  O1       1.0000 0.03433  0.17025  0.08012  Biso   1.000  O 
  O2       1.0000 0.03455  0.07960  0.32992  Biso   1.000  O 
  O3       1.0000 0.45411  0.43682  0.15359  Biso   1.000  O 
  O4       1.0000 0.48301  0.35520  0.43543  Biso   1.000  O 
  O5       1.0000 0.27825  0.12729  0.23977  Biso   1.000  O 
  O6       1.0000 0.26351  0.10390  0.49954  Biso   1.000  O 
  O7       1.0000 0.21980  0.38271  0.00436  Biso   1.000  O 
  O8       1.0000 0.20548  0.37540  0.25362  Biso   1.000  O 
  Hf5      1.0000 0.13263  0.01385  0.64980  Biso   1.000  Hf
  Hf6      1.0000 0.13168  0.22339  0.89599  Biso   1.000  Hf
  Hf7      1.0000 0.35620  0.26836  0.60728  Biso   1.000  Hf
  Hf8      1.0000 0.35433  0.47446  0.85504  Biso   1.000  Hf
  O9       1.0000 0.03226  0.16606  0.58306  Biso   1.000  O 
  O10      1.0000 0.02911  0.07522  0.83198  Biso   1.000  O 
  O11      1.0000 0.46014  0.41221  0.67572  Biso   1.000  O 
  O12      1.0000 0.45869  0.32524  0.91770  Biso   1.000  O 
  O13      1.0000 0.27159  0.12519  0.74293  Biso   1.000  O 
  O14      1.0000 0.26870  0.11671  0.99121  Biso   1.000  O 
  O15      1.0000 0.22103  0.37458  0.51183  Biso   1.000  O 
  O16      1.0000 0.21795  0.36606  0.75911  Biso   1.000  O 
  Hf9      1.0000 0.13481  0.52248  0.14411  Biso   1.000  Hf
  Hf10     1.0000 0.13326  0.72528  0.39756  Biso   1.000  Hf
  Hf11     1.0000 0.35786  0.77243  0.10457  Biso   1.000  Hf
  Hf12     1.0000 0.35726  0.96467  0.36172  Biso   1.000  Hf
  O17      1.0000 0.03178  0.67194  0.07982  Biso   1.000  O 
  O18      1.0000 0.02997  0.58143  0.32864  Biso   1.000  O 
  O19      1.0000 0.45947  0.91977  0.17369  Biso   1.000  O 
  O20      1.0000 0.45723  0.81829  0.42215  Biso   1.000  O 
  O21      1.0000 0.27117  0.63039  0.24102  Biso   1.000  O 
  O22      1.0000 0.26918  0.61428  0.49094  Biso   1.000  O 
  O23      1.0000 0.22057  0.88118  0.01137  Biso   1.000  O 
  O24      1.0000 0.21916  0.86966  0.26246  Biso   1.000  O 
  Hf13     1.0000 0.13317  0.51760  0.64645  Biso   1.000  Hf
  Hf14     1.0000 0.13034  0.72416  0.89804  Biso   1.000  Hf
  Hf15     1.0000 0.35600  0.76330  0.60701  Biso   1.000  Hf
  Hf16     1.0000 0.35302  0.97441  0.85560  Biso   1.000  Hf
  O25      1.0000 0.02802  0.66376  0.58058  Biso   1.000  O 
  O26      1.0000 0.02941  0.57639  0.83141  Biso   1.000  O 
  O27      1.0000 0.45699  0.91346  0.67028  Biso   1.000  O 
  O28      1.0000 0.45619  0.82741  0.92141  Biso   1.000  O 
  O29      1.0000 0.27010  0.62334  0.74192  Biso   1.000  O 
  O30      1.0000 0.26889  0.61752  0.99154  Biso   1.000  O 
  O31      1.0000 0.21765  0.86806  0.51394  Biso   1.000  O 
  O32      1.0000 0.21661  0.86573  0.76232  Biso   1.000  O 
  Hf17     1.0000 0.63779  0.01965  0.14732  Biso   1.000  Hf
  Hf18     1.0000 0.65056  0.22674  0.40158  Biso   1.000  Hf
  Hf19     1.0000 0.85881  0.27209  0.10414  Biso   1.000  Hf
  Hf20     1.0000 0.85955  0.47652  0.35355  Biso   1.000  Hf
  O33      1.0000 0.53230  0.16599  0.07705  Biso   1.000  O 
  O34      1.0000 0.55175  0.05373  0.34407  Biso   1.000  O 
  O35      1.0000 0.95951  0.42161  0.16722  Biso   1.000  O 
  O36      1.0000 0.96148  0.32879  0.42152  Biso   1.000  O 
  O37      1.0000 0.77734  0.12873  0.24076  Biso   1.000  O 
  O38      1.0000 0.77855  0.11548  0.49386  Biso   1.000  O 
  O39      1.0000 0.72099  0.37963  0.01038  Biso   1.000  O 
  O40      1.0000 0.72193  0.36979  0.26035  Biso   1.000  O 
  Hf21     1.0000 0.63345  0.01670  0.64598  Biso   1.000  Hf
  Hf22     1.0000 0.63338  0.22239  0.89677  Biso   1.000  Hf
  Hf23     1.0000 0.85985  0.26708  0.60834  Biso   1.000  Hf
  Hf24     1.0000 0.85483  0.47374  0.85611  Biso   1.000  Hf
  O41      1.0000 0.53221  0.16538  0.57909  Biso   1.000  O 
  O42      1.0000 0.52983  0.07629  0.82878  Biso   1.000  O 
  O43      1.0000 0.95964  0.41566  0.67224  Biso   1.000  O 
  O44      1.0000 0.95678  0.32495  0.91995  Biso   1.000  O 
  O45      1.0000 0.77073  0.12414  0.74239  Biso   1.000  O 
  O46      1.0000 0.76993  0.11546  0.99219  Biso   1.000  O 
  O47      1.0000 0.72475  0.37438  0.51333  Biso   1.000  O 
  O48      1.0000 0.71891  0.36614  0.76209  Biso   1.000  O 
  Hf25     1.0000 0.63462  0.52336  0.14386  Biso   1.000  Hf
  Hf26     1.0000 0.63579  0.72282  0.39538  Biso   1.000  Hf
  Hf27     1.0000 0.85714  0.77077  0.10410  Biso   1.000  Hf
  Hf28     1.0000 0.85754  0.97474  0.35440  Biso   1.000  Hf
  O49      1.0000 0.53561  0.67624  0.08002  Biso   1.000  O 
  O50      1.0000 0.53003  0.58132  0.32492  Biso   1.000  O 
  O51      1.0000 0.96139  0.91909  0.16953  Biso   1.000  O 
  O52      1.0000 0.95926  0.82874  0.42149  Biso   1.000  O 
  O53      1.0000 0.77330  0.62720  0.24044  Biso   1.000  O 
  O54      1.0000 0.77106  0.61611  0.49053  Biso   1.000  O 
  O55      1.0000 0.72033  0.88107  0.01036  Biso   1.000  O 
  O56      1.0000 0.72237  0.86654  0.25894  Biso   1.000  O 
  Hf29     1.0000 0.63397  0.51608  0.64790  Biso   1.000  Hf
  Hf30     1.0000 0.63054  0.72461  0.89659  Biso   1.000  Hf
  Hf31     1.0000 0.85388  0.76686  0.60483  Biso   1.000  Hf
  Hf32     1.0000 0.85204  0.97340  0.85581  Biso   1.000  Hf
  O57      1.0000 0.53081  0.66134  0.58025  Biso   1.000  O 
  O58      1.0000 0.52882  0.57712  0.83140  Biso   1.000  O 
  O59      1.0000 0.95541  0.91396  0.67126  Biso   1.000  O 
  O60      1.0000 0.95559  0.82598  0.92070  Biso   1.000  O 
  O61      1.0000 0.76993  0.62439  0.74121  Biso   1.000  O 
  O62      1.0000 0.76825  0.61594  0.99086  Biso   1.000  O 
  O63      1.0000 0.71732  0.87438  0.50987  Biso   1.000  O 
  O64      1.0000 0.71516  0.86649  0.76045  Biso   1.000  O 
  Pt1      1.0000 0.41698  0.22361  0.32558  Biso   1.000  Pt
