data_image0
_cell_length_a       10.0217
_cell_length_b       10.2787
_cell_length_c       5.03608
_cell_angle_alpha    90
_cell_angle_beta     90
_cell_angle_gamma    90

_symmetry_space_group_name_H-M    "P 1"
_symmetry_int_tables_number       1

loop_
  _symmetry_equiv_pos_as_xyz
  'x, y, z'

loop_
  _atom_site_label
  _atom_site_occupancy
  _atom_site_fract_x
  _atom_site_fract_y
  _atom_site_fract_z
  _atom_site_thermal_displace_type
  _atom_site_B_iso_or_equiv
  _atom_site_type_symbol
  Pt1      1.0000 0.12091  0.03015  0.24972  Biso   1.000  Pt
  Hf1      1.0000 0.11294  0.23724  0.74945  Biso   1.000  Hf
  Hf2      1.0000 0.38520  0.26585  0.27966  Biso   1.000  Hf
  Hf3      1.0000 0.35179  0.98477  0.70324  Biso   1.000  Hf
  O1       1.0000 0.00029  0.14541  0.03680  Biso   1.000  O 
  O2       1.0000 0.00678  0.07067  0.56223  Biso   1.000  O 
  O3       1.0000 0.00978  0.32564  0.45146  Biso   1.000  O 
  O4       1.0000 0.97677  0.39121  0.96108  Biso   1.000  O 
  O5       1.0000 0.24152  0.14544  0.46261  Biso   1.000  O 
  O6       1.0000 0.21907  0.07063  0.93664  Biso   1.000  O 
  O7       1.0000 0.23211  0.32564  0.04784  Biso   1.000  O 
  O8       1.0000 0.24922  0.39123  0.53771  Biso   1.000  O 
  Hf4      1.0000 0.12093  0.47692  0.24965  Biso   1.000  Hf
  Hf5      1.0000 0.11299  0.72822  0.74944  Biso   1.000  Hf
  Hf6      1.0000 0.36051  0.74402  0.23991  Biso   1.000  Hf
  Hf7      1.0000 0.37356  0.51208  0.74426  Biso   1.000  Hf
  O9       1.0000 0.00138  0.63810  0.01152  Biso   1.000  O 
  O10      1.0000 0.99518  0.58473  0.50185  Biso   1.000  O 
  O11      1.0000 0.95922  0.82486  0.58945  Biso   1.000  O 
  O12      1.0000 0.01220  0.89250  0.07171  Biso   1.000  O 
  O13      1.0000 0.24050  0.63814  0.48785  Biso   1.000  O 
  O14      1.0000 0.23080  0.58471  0.99701  Biso   1.000  O 
  O15      1.0000 0.26672  0.82486  0.90950  Biso   1.000  O 
  O16      1.0000 0.22967  0.89254  0.42776  Biso   1.000  O 
  Hf8      1.0000 0.62091  0.01011  0.24975  Biso   1.000  Hf
  Hf9      1.0000 0.61292  0.23490  0.74952  Biso   1.000  Hf
  Hf10     1.0000 0.85662  0.26585  0.21976  Biso   1.000  Hf
  Hf11     1.0000 0.87417  0.98475  0.79581  Biso   1.000  Hf
  O17      1.0000 0.50566  0.16406  0.03310  Biso   1.000  O 
  O18      1.0000 0.48833  0.11109  0.51590  Biso   1.000  O 
  O19      1.0000 0.50582  0.36944  0.53870  Biso   1.000  O 
  O20      1.0000 0.47643  0.41634  0.05227  Biso   1.000  O 
  O21      1.0000 0.73604  0.16418  0.46623  Biso   1.000  O 
  O22      1.0000 0.73757  0.11109  0.98301  Biso   1.000  O 
  O23      1.0000 0.72018  0.36942  0.96005  Biso   1.000  O 
  O24      1.0000 0.76552  0.41643  0.44694  Biso   1.000  O 
  Hf12     1.0000 0.62092  0.51867  0.24969  Biso   1.000  Hf
  Hf13     1.0000 0.61299  0.77184  0.74950  Biso   1.000  Hf
  Hf14     1.0000 0.88138  0.74398  0.25951  Biso   1.000  Hf
  Hf15     1.0000 0.85240  0.51208  0.75462  Biso   1.000  Hf
  O25      1.0000 0.48631  0.66049  0.99397  Biso   1.000  O 
  O26      1.0000 0.49222  0.61667  0.49675  Biso   1.000  O 
  O27      1.0000 0.48637  0.85957  0.45657  Biso   1.000  O 
  O28      1.0000 0.50204  0.91967  0.94820  Biso   1.000  O 
  O29      1.0000 0.73964  0.66053  0.50496  Biso   1.000  O 
  O30      1.0000 0.74965  0.61667  0.00265  Biso   1.000  O 
  O31      1.0000 0.75550  0.85956  0.04297  Biso   1.000  O 
  O32      1.0000 0.72388  0.91974  0.55088  Biso   1.000  O 
