data_image0
_cell_length_a       10.0368
_cell_length_b       5.09667
_cell_length_c       10.447
_cell_angle_alpha    90
_cell_angle_beta     90
_cell_angle_gamma    90

_symmetry_space_group_name_H-M    "P 1"
_symmetry_int_tables_number       1

loop_
  _symmetry_equiv_pos_as_xyz
  'x, y, z'

loop_
  _atom_site_label
  _atom_site_occupancy
  _atom_site_fract_x
  _atom_site_fract_y
  _atom_site_fract_z
  _atom_site_thermal_displace_type
  _atom_site_B_iso_or_equiv
  _atom_site_type_symbol
  Pt1      1.0000 0.12350  0.02115  0.19086  Biso   1.000  Pt
  Hf1      1.0000 0.13663  0.45896  0.42101  Biso   1.000  Hf
  Hf2      1.0000 0.35976  0.54942  0.16559  Biso   1.000  Hf
  Hf3      1.0000 0.36274  0.95900  0.42068  Biso   1.000  Hf
  Hf4      1.0000 0.63912  0.04062  0.07720  Biso   1.000  Hf
  Hf5      1.0000 0.63448  0.45497  0.32754  Biso   1.000  Hf
  Hf6      1.0000 0.86781  0.52779  0.08079  Biso   1.000  Hf
  Hf7      1.0000 0.85520  0.95272  0.33131  Biso   1.000  Hf
  O1       1.0000 0.04460  0.31778  0.08833  Biso   1.000  O 
  O2       1.0000 0.02568  0.17355  0.33449  Biso   1.000  O 
  O3       1.0000 0.47188  0.83601  0.08356  Biso   1.000  O 
  O4       1.0000 0.46051  0.65778  0.33634  Biso   1.000  O 
  O5       1.0000 0.27189  0.23726  0.28372  Biso   1.000  O 
  O6       1.0000 0.30227  0.30653  0.02353  Biso   1.000  O 
  O7       1.0000 0.21778  0.74423  0.29467  Biso   1.000  O 
  O8       1.0000 0.22239  0.79449  0.04967  Biso   1.000  O 
  O9       1.0000 0.53507  0.33747  0.16330  Biso   1.000  O 
  O10      1.0000 0.53055  0.16016  0.41323  Biso   1.000  O 
  O11      1.0000 0.96170  0.83339  0.16556  Biso   1.000  O 
  O12      1.0000 0.96570  0.67306  0.41897  Biso   1.000  O 
  O13      1.0000 0.77200  0.24463  0.45614  Biso   1.000  O 
  O14      1.0000 0.77500  0.24766  0.20645  Biso   1.000  O 
  O15      1.0000 0.72059  0.74326  0.45649  Biso   1.000  O 
  O16      1.0000 0.72599  0.74674  0.20681  Biso   1.000  O 
  Hf8      1.0000 0.13292  0.03982  0.67049  Biso   1.000  Hf
  Hf9      1.0000 0.13706  0.45632  0.92206  Biso   1.000  Hf
  Hf10     1.0000 0.35896  0.54403  0.67223  Biso   1.000  Hf
  Hf11     1.0000 0.35841  0.96713  0.92261  Biso   1.000  Hf
  Hf12     1.0000 0.63304  0.04118  0.58074  Biso   1.000  Hf
  Hf13     1.0000 0.63513  0.45930  0.82959  Biso   1.000  Hf
  Hf14     1.0000 0.85795  0.53964  0.58042  Biso   1.000  Hf
  Hf15     1.0000 0.86280  0.95398  0.83175  Biso   1.000  Hf
  O17      1.0000 0.02810  0.32297  0.57948  Biso   1.000  O 
  O18      1.0000 0.02878  0.17054  0.83301  Biso   1.000  O 
  O19      1.0000 0.46470  0.83724  0.58489  Biso   1.000  O 
  O20      1.0000 0.46478  0.67140  0.83287  Biso   1.000  O 
  O21      1.0000 0.27046  0.24382  0.78684  Biso   1.000  O 
  O22      1.0000 0.27289  0.25444  0.53972  Biso   1.000  O 
  O23      1.0000 0.22221  0.74636  0.79732  Biso   1.000  O 
  O24      1.0000 0.22256  0.75168  0.54435  Biso   1.000  O 
  O25      1.0000 0.53104  0.33739  0.66355  Biso   1.000  O 
  O26      1.0000 0.53209  0.16178  0.91166  Biso   1.000  O 
  O27      1.0000 0.96756  0.82091  0.67049  Biso   1.000  O 
  O28      1.0000 0.96462  0.66371  0.92259  Biso   1.000  O 
  O29      1.0000 0.77301  0.24367  0.95656  Biso   1.000  O 
  O30      1.0000 0.77317  0.25079  0.70626  Biso   1.000  O 
  O31      1.0000 0.72226  0.74205  0.95696  Biso   1.000  O 
  O32      1.0000 0.72318  0.75337  0.70653  Biso   1.000  O 
