data_image0
_cell_length_a       9.96238
_cell_length_b       5.16012
_cell_length_c       10.0003
_cell_angle_alpha    90
_cell_angle_beta     90
_cell_angle_gamma    90

_symmetry_space_group_name_H-M    "P 1"
_symmetry_int_tables_number       1

loop_
  _symmetry_equiv_pos_as_xyz
  'x, y, z'

loop_
  _atom_site_label
  _atom_site_occupancy
  _atom_site_fract_x
  _atom_site_fract_y
  _atom_site_fract_z
  _atom_site_thermal_displace_type
  _atom_site_B_iso_or_equiv
  _atom_site_type_symbol
  Pt1      1.0000 0.12418  0.01848  0.10723  Biso   1.000  Pt
  Hf1      1.0000 0.14253  0.47237  0.37391  Biso   1.000  Hf
  Hf2      1.0000 0.37004  0.54663  0.13198  Biso   1.000  Hf
  Hf3      1.0000 0.37064  0.98498  0.37763  Biso   1.000  Hf
  O1       1.0000 0.04553  0.34209  0.19335  Biso   1.000  O 
  O2       1.0000 0.04075  0.14451  0.44772  Biso   1.000  O 
  O3       1.0000 0.47117  0.87550  0.19762  Biso   1.000  O 
  O4       1.0000 0.47289  0.64792  0.44749  Biso   1.000  O 
  O5       1.0000 0.30117  0.30254  0.26957  Biso   1.000  O 
  O6       1.0000 0.27191  0.27176  0.50850  Biso   1.000  O 
  O7       1.0000 0.23687  0.77138  0.50037  Biso   1.000  O 
  O8       1.0000 0.22717  0.78875  0.24924  Biso   1.000  O 
  Hf4      1.0000 0.13774  0.04206  0.62907  Biso   1.000  Hf
  Hf5      1.0000 0.14283  0.47463  0.87840  Biso   1.000  Hf
  Hf6      1.0000 0.37258  0.54499  0.62663  Biso   1.000  Hf
  Hf7      1.0000 0.37715  0.97588  0.87776  Biso   1.000  Hf
  O9       1.0000 0.04050  0.37473  0.70019  Biso   1.000  O 
  O10      1.0000 0.03844  0.14730  0.94311  Biso   1.000  O 
  O11      1.0000 0.47091  0.88202  0.69446  Biso   1.000  O 
  O12      1.0000 0.46399  0.62956  0.94040  Biso   1.000  O 
  O13      1.0000 0.27644  0.24713  0.75618  Biso   1.000  O 
  O14      1.0000 0.26802  0.23886  0.01252  Biso   1.000  O 
  O15      1.0000 0.22650  0.74956  0.00347  Biso   1.000  O 
  O16      1.0000 0.23666  0.74663  0.75240  Biso   1.000  O 
  Hf8      1.0000 0.63728  0.03404  0.12682  Biso   1.000  Hf
  Hf9      1.0000 0.63928  0.47882  0.37269  Biso   1.000  Hf
  Hf10     1.0000 0.87181  0.52239  0.12250  Biso   1.000  Hf
  Hf11     1.0000 0.87882  0.97453  0.37495  Biso   1.000  Hf
  O17      1.0000 0.54983  0.38303  0.18493  Biso   1.000  O 
  O18      1.0000 0.54012  0.14675  0.44191  Biso   1.000  O 
  O19      1.0000 0.97232  0.84965  0.18939  Biso   1.000  O 
  O20      1.0000 0.97205  0.63986  0.44430  Biso   1.000  O 
  O21      1.0000 0.77688  0.23562  0.24778  Biso   1.000  O 
  O22      1.0000 0.77520  0.27530  0.49683  Biso   1.000  O 
  O23      1.0000 0.73851  0.77638  0.49684  Biso   1.000  O 
  O24      1.0000 0.74268  0.73915  0.24769  Biso   1.000  O 
  Hf12     1.0000 0.63639  0.04215  0.62217  Biso   1.000  Hf
  Hf13     1.0000 0.63970  0.47284  0.87529  Biso   1.000  Hf
  Hf14     1.0000 0.87270  0.53885  0.62352  Biso   1.000  Hf
  Hf15     1.0000 0.87083  0.96981  0.87253  Biso   1.000  Hf
  O25      1.0000 0.54170  0.37844  0.69421  Biso   1.000  O 
  O26      1.0000 0.54414  0.13349  0.94278  Biso   1.000  O 
  O27      1.0000 0.97013  0.87607  0.69223  Biso   1.000  O 
  O28      1.0000 0.97124  0.64187  0.94098  Biso   1.000  O 
  O29      1.0000 0.77365  0.24201  0.74696  Biso   1.000  O 
  O30      1.0000 0.77918  0.26862  0.99667  Biso   1.000  O 
  O31      1.0000 0.73632  0.76704  0.99846  Biso   1.000  O 
  O32      1.0000 0.73578  0.74146  0.74793  Biso   1.000  O 
