data_image0
_cell_length_a       10.0438
_cell_length_b       10.2741
_cell_length_c       10.4811
_cell_angle_alpha    90
_cell_angle_beta     90
_cell_angle_gamma    90

_symmetry_space_group_name_H-M    "P 1"
_symmetry_int_tables_number       1

loop_
  _symmetry_equiv_pos_as_xyz
  'x, y, z'

loop_
  _atom_site_label
  _atom_site_occupancy
  _atom_site_fract_x
  _atom_site_fract_y
  _atom_site_fract_z
  _atom_site_thermal_displace_type
  _atom_site_B_iso_or_equiv
  _atom_site_type_symbol
  Hf1      1.0000 0.13778  0.02140  0.17154  Biso   1.000  Hf
  Hf2      1.0000 0.13579  0.23072  0.42457  Biso   1.000  Hf
  Hf3      1.0000 0.34788  0.27215  0.17832  Biso   1.000  Hf
  Hf4      1.0000 0.36223  0.48178  0.42074  Biso   1.000  Hf
  Hf5      1.0000 0.64280  0.01937  0.07137  Biso   1.000  Hf
  Hf6      1.0000 0.63991  0.23068  0.33082  Biso   1.000  Hf
  Hf7      1.0000 0.86135  0.27017  0.08056  Biso   1.000  Hf
  Hf8      1.0000 0.86404  0.48342  0.33280  Biso   1.000  Hf
  O1       1.0000 0.03331  0.16598  0.08465  Biso   1.000  O 
  O2       1.0000 0.03139  0.08707  0.33423  Biso   1.000  O 
  O3       1.0000 0.44779  0.44477  0.10282  Biso   1.000  O 
  O4       1.0000 0.46551  0.33403  0.33349  Biso   1.000  O 
  O5       1.0000 0.27089  0.12710  0.29796  Biso   1.000  O 
  O6       1.0000 0.27515  0.12505  0.04449  Biso   1.000  O 
  O7       1.0000 0.21963  0.37736  0.29824  Biso   1.000  O 
  O8       1.0000 0.22078  0.37547  0.04462  Biso   1.000  O 
  O9       1.0000 0.51376  0.14310  0.18129  Biso   1.000  O 
  O10      1.0000 0.53294  0.08780  0.41974  Biso   1.000  O 
  O11      1.0000 0.96858  0.41574  0.16839  Biso   1.000  O 
  O12      1.0000 0.96660  0.33844  0.41996  Biso   1.000  O 
  O13      1.0000 0.77594  0.12710  0.45530  Biso   1.000  O 
  O14      1.0000 0.77567  0.12726  0.20820  Biso   1.000  O 
  O15      1.0000 0.72260  0.37526  0.45875  Biso   1.000  O 
  O16      1.0000 0.73105  0.38806  0.21548  Biso   1.000  O 
  Hf9      1.0000 0.13984  0.02433  0.67189  Biso   1.000  Hf
  Hf10     1.0000 0.13686  0.23323  0.92120  Biso   1.000  Hf
  Hf11     1.0000 0.35998  0.27583  0.67189  Biso   1.000  Hf
  Hf12     1.0000 0.35899  0.48652  0.92240  Biso   1.000  Hf
  Hf13     1.0000 0.63871  0.02340  0.57892  Biso   1.000  Hf
  Hf14     1.0000 0.63823  0.22651  0.82191  Biso   1.000  Hf
  Hf15     1.0000 0.86045  0.27434  0.58033  Biso   1.000  Hf
  Hf16     1.0000 0.86134  0.48448  0.82917  Biso   1.000  Hf
  O17      1.0000 0.03215  0.16831  0.58519  Biso   1.000  O 
  O18      1.0000 0.03500  0.08767  0.83267  Biso   1.000  O 
  O19      1.0000 0.46631  0.41949  0.58254  Biso   1.000  O 
  O20      1.0000 0.46688  0.34126  0.83134  Biso   1.000  O 
  O21      1.0000 0.27717  0.12843  0.79487  Biso   1.000  O 
  O22      1.0000 0.27555  0.12912  0.54582  Biso   1.000  O 
  O23      1.0000 0.22217  0.37774  0.79588  Biso   1.000  O 
  O24      1.0000 0.22353  0.37907  0.54597  Biso   1.000  O 
  O25      1.0000 0.53218  0.17076  0.66251  Biso   1.000  O 
  O26      1.0000 0.53958  0.06852  0.89728  Biso   1.000  O 
  O27      1.0000 0.96617  0.41931  0.66790  Biso   1.000  O 
  O28      1.0000 0.96385  0.33945  0.91739  Biso   1.000  O 
  O29      1.0000 0.78863  0.12317  0.94889  Biso   1.000  O 
  O30      1.0000 0.77677  0.12671  0.70154  Biso   1.000  O 
  O31      1.0000 0.71958  0.38182  0.95702  Biso   1.000  O 
  O32      1.0000 0.72451  0.37855  0.70673  Biso   1.000  O 
  Hf17     1.0000 0.13830  0.52336  0.17095  Biso   1.000  Hf
  Hf18     1.0000 0.13908  0.73205  0.42147  Biso   1.000  Hf
  Hf19     1.0000 0.35994  0.77502  0.17140  Biso   1.000  Hf
  Hf20     1.0000 0.36046  0.98213  0.42313  Biso   1.000  Hf
  Hf21     1.0000 0.63838  0.53268  0.08582  Biso   1.000  Hf
  Hf22     1.0000 0.63854  0.73498  0.33068  Biso   1.000  Hf
  Hf23     1.0000 0.86207  0.77260  0.07975  Biso   1.000  Hf
  Hf24     1.0000 0.85996  0.98140  0.32932  Biso   1.000  Hf
  O33      1.0000 0.03239  0.66562  0.08309  Biso   1.000  O 
  O34      1.0000 0.03497  0.58889  0.33236  Biso   1.000  O 
  O35      1.0000 0.46647  0.91536  0.07992  Biso   1.000  O 
  O36      1.0000 0.46563  0.83859  0.33479  Biso   1.000  O 
  O37      1.0000 0.27722  0.62689  0.29424  Biso   1.000  O 
  O38      1.0000 0.27478  0.62920  0.04328  Biso   1.000  O 
  O39      1.0000 0.22357  0.87732  0.29547  Biso   1.000  O 
  O40      1.0000 0.22159  0.87629  0.04552  Biso   1.000  O 
  O41      1.0000 0.53648  0.67797  0.16615  Biso   1.000  O 
  O42      1.0000 0.53399  0.58674  0.41465  Biso   1.000  O 
  O43      1.0000 0.96635  0.91673  0.16734  Biso   1.000  O 
  O44      1.0000 0.96607  0.83601  0.41644  Biso   1.000  O 
  O45      1.0000 0.77567  0.62709  0.45699  Biso   1.000  O 
  O46      1.0000 0.77753  0.63268  0.20821  Biso   1.000  O 
  O47      1.0000 0.72327  0.87748  0.45626  Biso   1.000  O 
  O48      1.0000 0.72407  0.87982  0.20537  Biso   1.000  O 
  Hf25     1.0000 0.13815  0.52388  0.67137  Biso   1.000  Hf
  Hf26     1.0000 0.13715  0.73450  0.92121  Biso   1.000  Hf
  Hf27     1.0000 0.36078  0.77281  0.67127  Biso   1.000  Hf
  Hf28     1.0000 0.35997  0.98191  0.91935  Biso   1.000  Hf
  Hf29     1.0000 0.63840  0.52345  0.57896  Biso   1.000  Hf
  Hf30     1.0000 0.63718  0.73244  0.82855  Biso   1.000  Hf
  Hf31     1.0000 0.86176  0.77385  0.57911  Biso   1.000  Hf
  Hf32     1.0000 0.86179  0.98120  0.82738  Biso   1.000  Hf
  O49      1.0000 0.03295  0.66775  0.58312  Biso   1.000  O 
  O50      1.0000 0.03175  0.58963  0.83303  Biso   1.000  O 
  O51      1.0000 0.46566  0.91841  0.58529  Biso   1.000  O 
  O52      1.0000 0.46184  0.83026  0.83509  Biso   1.000  O 
  O53      1.0000 0.27475  0.62645  0.79479  Biso   1.000  O 
  O54      1.0000 0.27599  0.62828  0.54436  Biso   1.000  O 
  O55      1.0000 0.22279  0.87744  0.79441  Biso   1.000  O 
  O56      1.0000 0.22353  0.87873  0.54497  Biso   1.000  O 
  O57      1.0000 0.53268  0.66812  0.66576  Biso   1.000  O 
  O58      1.0000 0.53377  0.58683  0.91836  Biso   1.000  O 
  O59      1.0000 0.96795  0.91789  0.66497  Biso   1.000  O 
  O60      1.0000 0.96643  0.83969  0.91726  Biso   1.000  O 
  O61      1.0000 0.77551  0.62976  0.95721  Biso   1.000  O 
  O62      1.0000 0.77542  0.62872  0.70599  Biso   1.000  O 
  O63      1.0000 0.72298  0.87611  0.95525  Biso   1.000  O 
  O64      1.0000 0.72327  0.87774  0.70521  Biso   1.000  O 
  Pt1      1.0000 0.58013  0.27519  0.05982  Biso   1.000  Pt
