data_image0
_cell_length_a       10.1143
_cell_length_b       10.2483
_cell_length_c       10.4588
_cell_angle_alpha    90
_cell_angle_beta     80
_cell_angle_gamma    90

_symmetry_space_group_name_H-M    "P 1"
_symmetry_int_tables_number       1

loop_
  _symmetry_equiv_pos_as_xyz
  'x, y, z'

loop_
  _atom_site_label
  _atom_site_occupancy
  _atom_site_fract_x
  _atom_site_fract_y
  _atom_site_fract_z
  _atom_site_thermal_displace_type
  _atom_site_B_iso_or_equiv
  _atom_site_type_symbol
  Pt1      1.0000 0.12330  0.00871  0.16922  Biso   1.000  Pt
  Hf1      1.0000 0.13720  0.23083  0.39400  Biso   1.000  Hf
  Hf2      1.0000 0.35988  0.26918  0.10016  Biso   1.000  Hf
  Hf3      1.0000 0.36089  0.47838  0.35348  Biso   1.000  Hf
  O1       1.0000 0.04348  0.15682  0.08112  Biso   1.000  O 
  O2       1.0000 0.02587  0.08573  0.32941  Biso   1.000  O 
  O3       1.0000 0.46487  0.41801  0.17041  Biso   1.000  O 
  O4       1.0000 0.46197  0.33092  0.42079  Biso   1.000  O 
  O5       1.0000 0.26998  0.12115  0.23184  Biso   1.000  O 
  O6       1.0000 0.27270  0.12183  0.48545  Biso   1.000  O 
  O7       1.0000 0.22622  0.38381  0.00880  Biso   1.000  O 
  O8       1.0000 0.22484  0.36929  0.25886  Biso   1.000  O 
  Hf4      1.0000 0.13109  0.01992  0.64437  Biso   1.000  Hf
  Hf5      1.0000 0.13526  0.22283  0.89680  Biso   1.000  Hf
  Hf6      1.0000 0.35671  0.27105  0.60434  Biso   1.000  Hf
  Hf7      1.0000 0.35550  0.47878  0.85599  Biso   1.000  Hf
  O9       1.0000 0.03011  0.16553  0.57540  Biso   1.000  O 
  O10      1.0000 0.02761  0.08072  0.82783  Biso   1.000  O 
  O11      1.0000 0.46043  0.41762  0.67184  Biso   1.000  O 
  O12      1.0000 0.46352  0.33773  0.92363  Biso   1.000  O 
  O13      1.0000 0.26834  0.12627  0.73396  Biso   1.000  O 
  O14      1.0000 0.28735  0.13785  0.97161  Biso   1.000  O 
  O15      1.0000 0.21969  0.37834  0.50946  Biso   1.000  O 
  O16      1.0000 0.22005  0.36899  0.76098  Biso   1.000  O 
  Hf8      1.0000 0.14090  0.52292  0.14583  Biso   1.000  Hf
  Hf9      1.0000 0.13691  0.72573  0.39904  Biso   1.000  Hf
  Hf10     1.0000 0.36355  0.77472  0.10275  Biso   1.000  Hf
  Hf11     1.0000 0.36394  0.97828  0.35371  Biso   1.000  Hf
  O17      1.0000 0.03875  0.67011  0.08018  Biso   1.000  O 
  O18      1.0000 0.03521  0.58058  0.33037  Biso   1.000  O 
  O19      1.0000 0.46748  0.91787  0.17213  Biso   1.000  O 
  O20      1.0000 0.46364  0.82938  0.42040  Biso   1.000  O 
  O21      1.0000 0.27762  0.63089  0.24153  Biso   1.000  O 
  O22      1.0000 0.27508  0.61963  0.49235  Biso   1.000  O 
  O23      1.0000 0.22778  0.89486  0.01421  Biso   1.000  O 
  O24      1.0000 0.21849  0.86929  0.26039  Biso   1.000  O 
  Hf12     1.0000 0.13654  0.51998  0.64841  Biso   1.000  Hf
  Hf13     1.0000 0.13371  0.73079  0.89776  Biso   1.000  Hf
  Hf14     1.0000 0.35979  0.77142  0.60644  Biso   1.000  Hf
  Hf15     1.0000 0.35878  0.98332  0.85572  Biso   1.000  Hf
  O25      1.0000 0.03209  0.66556  0.58111  Biso   1.000  O 
  O26      1.0000 0.03198  0.58132  0.83252  Biso   1.000  O 
  O27      1.0000 0.46349  0.91900  0.67051  Biso   1.000  O 
  O28      1.0000 0.45697  0.83100  0.92173  Biso   1.000  O 
  O29      1.0000 0.27244  0.62887  0.74182  Biso   1.000  O 
  O30      1.0000 0.26993  0.62478  0.99202  Biso   1.000  O 
  O31      1.0000 0.22365  0.87803  0.50976  Biso   1.000  O 
  O32      1.0000 0.22140  0.87070  0.76200  Biso   1.000  O 
  Hf16     1.0000 0.63684  0.02149  0.14531  Biso   1.000  Hf
  Hf17     1.0000 0.63598  0.22851  0.39645  Biso   1.000  Hf
  Hf18     1.0000 0.86813  0.26629  0.10668  Biso   1.000  Hf
  Hf19     1.0000 0.85991  0.47785  0.35454  Biso   1.000  Hf
  O33      1.0000 0.53668  0.16906  0.07957  Biso   1.000  O 
  O34      1.0000 0.53146  0.08110  0.33034  Biso   1.000  O 
  O35      1.0000 0.96788  0.41652  0.17237  Biso   1.000  O 
  O36      1.0000 0.96263  0.33253  0.42293  Biso   1.000  O 
  O37      1.0000 0.77306  0.12659  0.24196  Biso   1.000  O 
  O38      1.0000 0.77221  0.11963  0.49164  Biso   1.000  O 
  O39      1.0000 0.73015  0.37712  0.01145  Biso   1.000  O 
  O40      1.0000 0.72526  0.36867  0.26005  Biso   1.000  O 
  Hf20     1.0000 0.63210  0.02109  0.64779  Biso   1.000  Hf
  Hf21     1.0000 0.63290  0.22894  0.89846  Biso   1.000  Hf
  Hf22     1.0000 0.85717  0.27086  0.60584  Biso   1.000  Hf
  Hf23     1.0000 0.85844  0.47536  0.85799  Biso   1.000  Hf
  O41      1.0000 0.53096  0.16855  0.58013  Biso   1.000  O 
  O42      1.0000 0.53172  0.08068  0.83040  Biso   1.000  O 
  O43      1.0000 0.96294  0.41431  0.67532  Biso   1.000  O 
  O44      1.0000 0.96102  0.32870  0.92815  Biso   1.000  O 
  O45      1.0000 0.77158  0.12886  0.74126  Biso   1.000  O 
  O46      1.0000 0.76870  0.11922  0.99298  Biso   1.000  O 
  O47      1.0000 0.72052  0.37774  0.51100  Biso   1.000  O 
  O48      1.0000 0.72008  0.37106  0.76212  Biso   1.000  O 
  Hf24     1.0000 0.63912  0.51883  0.14505  Biso   1.000  Hf
  Hf25     1.0000 0.63758  0.72605  0.39638  Biso   1.000  Hf
  Hf26     1.0000 0.86186  0.76823  0.10271  Biso   1.000  Hf
  Hf27     1.0000 0.85598  0.97529  0.35744  Biso   1.000  Hf
  O49      1.0000 0.53814  0.66898  0.07925  Biso   1.000  O 
  O50      1.0000 0.53616  0.57886  0.33009  Biso   1.000  O 
  O51      1.0000 0.95983  0.91713  0.17090  Biso   1.000  O 
  O52      1.0000 0.96456  0.83244  0.42265  Biso   1.000  O 
  O53      1.0000 0.77692  0.62703  0.24032  Biso   1.000  O 
  O54      1.0000 0.77514  0.61981  0.49150  Biso   1.000  O 
  O55      1.0000 0.72645  0.87907  0.00926  Biso   1.000  O 
  O56      1.0000 0.72439  0.86892  0.26034  Biso   1.000  O 
  Hf28     1.0000 0.63540  0.52035  0.64797  Biso   1.000  Hf
  Hf29     1.0000 0.63266  0.72801  0.89712  Biso   1.000  Hf
  Hf30     1.0000 0.85814  0.76973  0.60657  Biso   1.000  Hf
  Hf31     1.0000 0.85884  0.97812  0.85560  Biso   1.000  Hf
  O57      1.0000 0.53362  0.66759  0.58016  Biso   1.000  O 
  O58      1.0000 0.52969  0.58294  0.82934  Biso   1.000  O 
  O59      1.0000 0.96267  0.91597  0.67192  Biso   1.000  O 
  O60      1.0000 0.95821  0.82949  0.92216  Biso   1.000  O 
  O61      1.0000 0.77323  0.62737  0.74255  Biso   1.000  O 
  O62      1.0000 0.76947  0.61872  0.99164  Biso   1.000  O 
  O63      1.0000 0.72119  0.87714  0.51079  Biso   1.000  O 
  O64      1.0000 0.72084  0.87002  0.76096  Biso   1.000  O 
