data_image0
_cell_length_a       5.03608
_cell_length_b       10.2788
_cell_length_c       10.0217
_cell_angle_alpha    90
_cell_angle_beta     90
_cell_angle_gamma    90

_symmetry_space_group_name_H-M    "P 1"
_symmetry_int_tables_number       1

loop_
  _symmetry_equiv_pos_as_xyz
  'x, y, z'

loop_
  _atom_site_label
  _atom_site_occupancy
  _atom_site_fract_x
  _atom_site_fract_y
  _atom_site_fract_z
  _atom_site_thermal_displace_type
  _atom_site_B_iso_or_equiv
  _atom_site_type_symbol
  Pt1      1.0000 0.24190  0.03013  0.12499  Biso   1.000  Pt
  Hf1      1.0000 0.25522  0.26585  0.38960  Biso   1.000  Hf
  Hf2      1.0000 0.74192  0.23721  0.12499  Biso   1.000  Hf
  Hf3      1.0000 0.68034  0.98474  0.36293  Biso   1.000  Hf
  O1       1.0000 0.03672  0.14540  0.00104  Biso   1.000  O 
  O2       1.0000 0.92233  0.07064  0.23407  Biso   1.000  O 
  O3       1.0000 0.03333  0.32560  0.23282  Biso   1.000  O 
  O4       1.0000 0.89920  0.39123  0.99163  Biso   1.000  O 
  O5       1.0000 0.44712  0.14540  0.24893  Biso   1.000  O 
  O6       1.0000 0.56148  0.07063  0.01592  Biso   1.000  O 
  O7       1.0000 0.45075  0.32562  0.01702  Biso   1.000  O 
  O8       1.0000 0.52188  0.39120  0.25772  Biso   1.000  O 
  Hf4      1.0000 0.21038  0.01011  0.62472  Biso   1.000  Hf
  Hf5      1.0000 0.16567  0.26584  0.85984  Biso   1.000  Hf
  Hf6      1.0000 0.71034  0.23490  0.62477  Biso   1.000  Hf
  Hf7      1.0000 0.73997  0.98476  0.88652  Biso   1.000  Hf
  O9       1.0000 0.00125  0.16419  0.50620  Biso   1.000  O 
  O10      1.0000 0.93598  0.11108  0.75301  Biso   1.000  O 
  O11      1.0000 0.91442  0.36943  0.73514  Biso   1.000  O 
  O12      1.0000 0.02243  0.41645  0.47702  Biso   1.000  O 
  O13      1.0000 0.41963  0.16404  0.74334  Biso   1.000  O 
  O14      1.0000 0.48482  0.11108  0.49647  Biso   1.000  O 
  O15      1.0000 0.50673  0.36943  0.51418  Biso   1.000  O 
  O16      1.0000 0.39874  0.41630  0.77224  Biso   1.000  O 
  Hf8      1.0000 0.24200  0.47688  0.12496  Biso   1.000  Hf
  Hf9      1.0000 0.21693  0.74395  0.36420  Biso   1.000  Hf
  Hf10     1.0000 0.74197  0.72817  0.12494  Biso   1.000  Hf
  Hf11     1.0000 0.72029  0.51210  0.38533  Biso   1.000  Hf
  O17      1.0000 0.01145  0.63811  0.00165  Biso   1.000  O 
  O18      1.0000 0.98201  0.58471  0.24664  Biso   1.000  O 
  O19      1.0000 0.89195  0.82483  0.28123  Biso   1.000  O 
  O20      1.0000 0.07062  0.89250  0.01347  Biso   1.000  O 
  O21      1.0000 0.47246  0.63809  0.24825  Biso   1.000  O 
  O22      1.0000 0.50196  0.58468  0.00327  Biso   1.000  O 
  O23      1.0000 0.52848  0.82488  0.96831  Biso   1.000  O 
  O24      1.0000 0.41269  0.89251  0.23652  Biso   1.000  O 
  Hf12     1.0000 0.21034  0.51865  0.62474  Biso   1.000  Hf
  Hf13     1.0000 0.20375  0.74406  0.88513  Biso   1.000  Hf
  Hf14     1.0000 0.71019  0.77184  0.62469  Biso   1.000  Hf
  Hf15     1.0000 0.70051  0.51207  0.86411  Biso   1.000  Hf
  O25      1.0000 0.96263  0.66054  0.50201  Biso   1.000  O 
  O26      1.0000 0.95534  0.61665  0.74943  Biso   1.000  O 
  O27      1.0000 0.99492  0.85956  0.75594  Biso   1.000  O 
  O28      1.0000 0.91559  0.91978  0.51708  Biso   1.000  O 
  O29      1.0000 0.45799  0.66046  0.74744  Biso   1.000  O 
  O30      1.0000 0.46534  0.61668  0.49999  Biso   1.000  O 
  O31      1.0000 0.42527  0.85957  0.49354  Biso   1.000  O 
  O32      1.0000 0.50447  0.91961  0.73250  Biso   1.000  O 
