data_image0
_cell_length_a       10.0375
_cell_length_b       10.1913
_cell_length_c       5.2219
_cell_angle_alpha    90
_cell_angle_beta     90
_cell_angle_gamma    90

_symmetry_space_group_name_H-M    "P 1"
_symmetry_int_tables_number       1

loop_
  _symmetry_equiv_pos_as_xyz
  'x, y, z'

loop_
  _atom_site_label
  _atom_site_occupancy
  _atom_site_fract_x
  _atom_site_fract_y
  _atom_site_fract_z
  _atom_site_thermal_displace_type
  _atom_site_B_iso_or_equiv
  _atom_site_type_symbol
  Pt1      1.0000 0.12319  0.00815  0.37712  Biso   1.000  Pt
  Hf1      1.0000 0.14343  0.22859  0.83867  Biso   1.000  Hf
  Hf2      1.0000 0.36136  0.27100  0.33281  Biso   1.000  Hf
  Hf3      1.0000 0.36234  0.47928  0.84244  Biso   1.000  Hf
  Hf4      1.0000 0.63791  0.02195  0.15691  Biso   1.000  Hf
  Hf5      1.0000 0.63816  0.22985  0.65777  Biso   1.000  Hf
  Hf6      1.0000 0.87043  0.26559  0.16622  Biso   1.000  Hf
  Hf7      1.0000 0.86509  0.47596  0.66385  Biso   1.000  Hf
  O1       1.0000 0.04499  0.15502  0.16657  Biso   1.000  O 
  O2       1.0000 0.02752  0.08763  0.66211  Biso   1.000  O 
  O3       1.0000 0.46988  0.41795  0.16862  Biso   1.000  O 
  O4       1.0000 0.46728  0.33342  0.66735  Biso   1.000  O 
  O5       1.0000 0.27161  0.11465  0.55235  Biso   1.000  O 
  O6       1.0000 0.30357  0.14965  0.03708  Biso   1.000  O 
  O7       1.0000 0.22660  0.37261  0.58970  Biso   1.000  O 
  O8       1.0000 0.22383  0.38374  0.08893  Biso   1.000  O 
  O9       1.0000 0.53653  0.16936  0.32599  Biso   1.000  O 
  O10      1.0000 0.53589  0.07896  0.82032  Biso   1.000  O 
  O11      1.0000 0.97291  0.41198  0.34409  Biso   1.000  O 
  O12      1.0000 0.96967  0.33218  0.84777  Biso   1.000  O 
  O13      1.0000 0.77591  0.12201  0.91400  Biso   1.000  O 
  O14      1.0000 0.77650  0.12488  0.41258  Biso   1.000  O 
  O15      1.0000 0.72657  0.37118  0.91598  Biso   1.000  O 
  O16      1.0000 0.72912  0.37437  0.41374  Biso   1.000  O 
  Hf8      1.0000 0.14303  0.52260  0.34706  Biso   1.000  Hf
  Hf9      1.0000 0.13959  0.72982  0.84913  Biso   1.000  Hf
  Hf10     1.0000 0.36650  0.77542  0.34109  Biso   1.000  Hf
  Hf11     1.0000 0.36765  0.98340  0.84364  Biso   1.000  Hf
  Hf12     1.0000 0.64380  0.51865  0.15886  Biso   1.000  Hf
  Hf13     1.0000 0.64035  0.72683  0.65667  Biso   1.000  Hf
  Hf14     1.0000 0.86459  0.76805  0.15715  Biso   1.000  Hf
  Hf15     1.0000 0.86146  0.97689  0.66224  Biso   1.000  Hf
  O17      1.0000 0.03815  0.66665  0.17269  Biso   1.000  O 
  O18      1.0000 0.03639  0.58383  0.67542  Biso   1.000  O 
  O19      1.0000 0.47552  0.91760  0.16675  Biso   1.000  O 
  O20      1.0000 0.46797  0.83255  0.66877  Biso   1.000  O 
  O21      1.0000 0.27916  0.62564  0.59151  Biso   1.000  O 
  O22      1.0000 0.28281  0.63222  0.09114  Biso   1.000  O 
  O23      1.0000 0.22268  0.87206  0.59229  Biso   1.000  O 
  O24      1.0000 0.22832  0.88976  0.09601  Biso   1.000  O 
  O25      1.0000 0.53782  0.66705  0.32835  Biso   1.000  O 
  O26      1.0000 0.53610  0.58186  0.83003  Biso   1.000  O 
  O27      1.0000 0.96456  0.91674  0.32633  Biso   1.000  O 
  O28      1.0000 0.96851  0.83391  0.83273  Biso   1.000  O 
  O29      1.0000 0.77825  0.62158  0.91216  Biso   1.000  O 
  O30      1.0000 0.78033  0.62406  0.41323  Biso   1.000  O 
  O31      1.0000 0.72499  0.87116  0.91049  Biso   1.000  O 
  O32      1.0000 0.72878  0.87514  0.41241  Biso   1.000  O 
