data_image0
_cell_length_a       10.1622
_cell_length_b       5.1837
_cell_length_c       10.5181
_cell_angle_alpha    90
_cell_angle_beta     80
_cell_angle_gamma    90

_symmetry_space_group_name_H-M    "P 1"
_symmetry_int_tables_number       1

loop_
  _symmetry_equiv_pos_as_xyz
  'x, y, z'

loop_
  _atom_site_label
  _atom_site_occupancy
  _atom_site_fract_x
  _atom_site_fract_y
  _atom_site_fract_z
  _atom_site_thermal_displace_type
  _atom_site_B_iso_or_equiv
  _atom_site_type_symbol
  Hf1      1.0000 0.13376  0.04578  0.14477  Biso   1.000  Hf
  Hf2      1.0000 0.13435  0.44986  0.39969  Biso   1.000  Hf
  Hf3      1.0000 0.35770  0.55808  0.09740  Biso   1.000  Hf
  Hf4      1.0000 0.35145  0.92597  0.35379  Biso   1.000  Hf
  O1       1.0000 0.03212  0.34455  0.07895  Biso   1.000  O 
  O2       1.0000 0.03127  0.16273  0.32747  Biso   1.000  O 
  O3       1.0000 0.45289  0.87229  0.15925  Biso   1.000  O 
  O4       1.0000 0.47981  0.68895  0.43993  Biso   1.000  O 
  O5       1.0000 0.27434  0.25593  0.23914  Biso   1.000  O 
  O6       1.0000 0.25971  0.19556  0.49756  Biso   1.000  O 
  O7       1.0000 0.21915  0.76909  0.00664  Biso   1.000  O 
  O8       1.0000 0.20459  0.75128  0.25662  Biso   1.000  O 
  Hf5      1.0000 0.13183  0.02217  0.64985  Biso   1.000  Hf
  Hf6      1.0000 0.13013  0.43990  0.89736  Biso   1.000  Hf
  Hf7      1.0000 0.35618  0.52467  0.61058  Biso   1.000  Hf
  Hf8      1.0000 0.35308  0.94301  0.85600  Biso   1.000  Hf
  O9       1.0000 0.02879  0.32157  0.58224  Biso   1.000  O 
  O10      1.0000 0.02861  0.14551  0.83185  Biso   1.000  O 
  O11      1.0000 0.45939  0.81317  0.67705  Biso   1.000  O 
  O12      1.0000 0.45849  0.64887  0.91964  Biso   1.000  O 
  O13      1.0000 0.27058  0.24072  0.74301  Biso   1.000  O 
  O14      1.0000 0.26835  0.22908  0.99096  Biso   1.000  O 
  O15      1.0000 0.21921  0.72774  0.51682  Biso   1.000  O 
  O16      1.0000 0.21769  0.72446  0.76190  Biso   1.000  O 
  Hf9      1.0000 0.63624  0.04339  0.14423  Biso   1.000  Hf
  Hf10     1.0000 0.65012  0.44399  0.40037  Biso   1.000  Hf
  Hf11     1.0000 0.85731  0.54294  0.10415  Biso   1.000  Hf
  Hf12     1.0000 0.85982  0.94668  0.35354  Biso   1.000  Hf
  O17      1.0000 0.53407  0.34490  0.07592  Biso   1.000  O 
  O18      1.0000 0.55000  0.11027  0.33610  Biso   1.000  O 
  O19      1.0000 0.95974  0.84129  0.16751  Biso   1.000  O 
  O20      1.0000 0.96103  0.65646  0.42340  Biso   1.000  O 
  O21      1.0000 0.77719  0.25462  0.23968  Biso   1.000  O 
  O22      1.0000 0.77681  0.22387  0.49299  Biso   1.000  O 
  O23      1.0000 0.72027  0.76267  0.01115  Biso   1.000  O 
  O24      1.0000 0.72422  0.73181  0.26025  Biso   1.000  O 
  Hf13     1.0000 0.63386  0.02537  0.64741  Biso   1.000  Hf
  Hf14     1.0000 0.63219  0.43915  0.89620  Biso   1.000  Hf
  Hf15     1.0000 0.85768  0.52724  0.60811  Biso   1.000  Hf
  Hf16     1.0000 0.85287  0.93895  0.85685  Biso   1.000  Hf
  O25      1.0000 0.53103  0.31383  0.57772  Biso   1.000  O 
  O26      1.0000 0.52865  0.15003  0.82848  Biso   1.000  O 
  O27      1.0000 0.95692  0.82110  0.67365  Biso   1.000  O 
  O28      1.0000 0.95600  0.64430  0.92058  Biso   1.000  O 
  O29      1.0000 0.76971  0.24094  0.74187  Biso   1.000  O 
  O30      1.0000 0.76911  0.22357  0.99088  Biso   1.000  O 
  O31      1.0000 0.72288  0.74105  0.51324  Biso   1.000  O 
  O32      1.0000 0.71717  0.72589  0.76241  Biso   1.000  O 
  Pt1      1.0000 0.41416  0.43574  0.32637  Biso   1.000  Pt
