data_image0
_cell_length_a       10.0643
_cell_length_b       5.16311
_cell_length_c       10.5222
_cell_angle_alpha    90
_cell_angle_beta     90
_cell_angle_gamma    90

_symmetry_space_group_name_H-M    "P 1"
_symmetry_int_tables_number       1

loop_
  _symmetry_equiv_pos_as_xyz
  'x, y, z'

loop_
  _atom_site_label
  _atom_site_occupancy
  _atom_site_fract_x
  _atom_site_fract_y
  _atom_site_fract_z
  _atom_site_thermal_displace_type
  _atom_site_B_iso_or_equiv
  _atom_site_type_symbol
  Hf1      1.0000 0.13765  0.04699  0.17111  Biso   1.000  Hf
  Hf2      1.0000 0.13679  0.46646  0.42438  Biso   1.000  Hf
  Hf3      1.0000 0.34831  0.55117  0.17817  Biso   1.000  Hf
  Hf4      1.0000 0.36213  0.96870  0.42262  Biso   1.000  Hf
  Hf5      1.0000 0.64575  0.06461  0.07776  Biso   1.000  Hf
  Hf6      1.0000 0.64073  0.47132  0.33357  Biso   1.000  Hf
  Hf7      1.0000 0.86266  0.54393  0.08148  Biso   1.000  Hf
  Hf8      1.0000 0.86348  0.97040  0.33380  Biso   1.000  Hf
  O1       1.0000 0.03268  0.33059  0.08347  Biso   1.000  O 
  O2       1.0000 0.03362  0.18246  0.33263  Biso   1.000  O 
  O3       1.0000 0.44909  0.88362  0.09515  Biso   1.000  O 
  O4       1.0000 0.46637  0.68072  0.33286  Biso   1.000  O 
  O5       1.0000 0.27230  0.25962  0.29726  Biso   1.000  O 
  O6       1.0000 0.27414  0.25546  0.04335  Biso   1.000  O 
  O7       1.0000 0.22083  0.76027  0.29844  Biso   1.000  O 
  O8       1.0000 0.21926  0.75090  0.04515  Biso   1.000  O 
  O9       1.0000 0.51703  0.30498  0.18568  Biso   1.000  O 
  O10      1.0000 0.53332  0.18329  0.42066  Biso   1.000  O 
  O11      1.0000 0.96877  0.83237  0.16992  Biso   1.000  O 
  O12      1.0000 0.96669  0.67947  0.42033  Biso   1.000  O 
  O13      1.0000 0.77561  0.25950  0.45746  Biso   1.000  O 
  O14      1.0000 0.77823  0.26704  0.21178  Biso   1.000  O 
  O15      1.0000 0.72336  0.75723  0.45995  Biso   1.000  O 
  O16      1.0000 0.73169  0.78192  0.21562  Biso   1.000  O 
  Hf9      1.0000 0.13977  0.05374  0.67169  Biso   1.000  Hf
  Hf10     1.0000 0.13599  0.47692  0.92131  Biso   1.000  Hf
  Hf11     1.0000 0.35988  0.55422  0.67150  Biso   1.000  Hf
  Hf12     1.0000 0.35827  0.97871  0.91970  Biso   1.000  Hf
  Hf13     1.0000 0.63882  0.05054  0.57954  Biso   1.000  Hf
  Hf14     1.0000 0.63670  0.45889  0.82211  Biso   1.000  Hf
  Hf15     1.0000 0.86162  0.55328  0.58097  Biso   1.000  Hf
  Hf16     1.0000 0.86312  0.97305  0.82746  Biso   1.000  Hf
  O17      1.0000 0.03226  0.33909  0.58390  Biso   1.000  O 
  O18      1.0000 0.03408  0.18624  0.83124  Biso   1.000  O 
  O19      1.0000 0.46658  0.84005  0.58273  Biso   1.000  O 
  O20      1.0000 0.46322  0.67653  0.83076  Biso   1.000  O 
  O21      1.0000 0.27584  0.26189  0.79463  Biso   1.000  O 
  O22      1.0000 0.27534  0.26119  0.54532  Biso   1.000  O 
  O23      1.0000 0.22211  0.76199  0.79513  Biso   1.000  O 
  O24      1.0000 0.22428  0.76231  0.54570  Biso   1.000  O 
  O25      1.0000 0.53124  0.34143  0.66401  Biso   1.000  O 
  O26      1.0000 0.53974  0.14564  0.90226  Biso   1.000  O 
  O27      1.0000 0.96836  0.84141  0.66660  Biso   1.000  O 
  O28      1.0000 0.96481  0.68949  0.91850  Biso   1.000  O 
  O29      1.0000 0.78857  0.25687  0.95078  Biso   1.000  O 
  O30      1.0000 0.77599  0.25773  0.70249  Biso   1.000  O 
  O31      1.0000 0.72172  0.77115  0.95641  Biso   1.000  O 
  O32      1.0000 0.72512  0.75884  0.70682  Biso   1.000  O 
  Pt1      1.0000 0.58262  0.55652  0.05948  Biso   1.000  Pt
