data_image0
_cell_length_a       5.08586
_cell_length_b       10.3407
_cell_length_c       10.5204
_cell_angle_alpha    90
_cell_angle_beta     80
_cell_angle_gamma    90

_symmetry_space_group_name_H-M    "P 1"
_symmetry_int_tables_number       1

loop_
  _symmetry_equiv_pos_as_xyz
  'x, y, z'

loop_
  _atom_site_label
  _atom_site_occupancy
  _atom_site_fract_x
  _atom_site_fract_y
  _atom_site_fract_z
  _atom_site_thermal_displace_type
  _atom_site_B_iso_or_equiv
  _atom_site_type_symbol
  Hf1      1.0000 0.27177  0.02011  0.14742  Biso   1.000  Hf
  Hf2      1.0000 0.30278  0.22708  0.40487  Biso   1.000  Hf
  Hf3      1.0000 0.71141  0.27856  0.09658  Biso   1.000  Hf
  Hf4      1.0000 0.70975  0.47626  0.34547  Biso   1.000  Hf
  O1       1.0000 0.06224  0.16681  0.07684  Biso   1.000  O 
  O2       1.0000 0.10525  0.05460  0.34183  Biso   1.000  O 
  O3       1.0000 0.90419  0.43718  0.15200  Biso   1.000  O 
  O4       1.0000 0.96706  0.35226  0.43666  Biso   1.000  O 
  O5       1.0000 0.56069  0.12693  0.23853  Biso   1.000  O 
  O6       1.0000 0.53907  0.10001  0.50295  Biso   1.000  O 
  O7       1.0000 0.43516  0.38305  0.00483  Biso   1.000  O 
  O8       1.0000 0.41190  0.37548  0.25289  Biso   1.000  O 
  Hf5      1.0000 0.26623  0.00989  0.64943  Biso   1.000  Hf
  Hf6      1.0000 0.26714  0.21819  0.89575  Biso   1.000  Hf
  Hf7      1.0000 0.72050  0.26406  0.61044  Biso   1.000  Hf
  Hf8      1.0000 0.71020  0.47032  0.85548  Biso   1.000  Hf
  O9       1.0000 0.06721  0.16189  0.58095  Biso   1.000  O 
  O10      1.0000 0.05961  0.07209  0.82928  Biso   1.000  O 
  O11      1.0000 0.92372  0.40852  0.67714  Biso   1.000  O 
  O12      1.0000 0.91800  0.32080  0.91712  Biso   1.000  O 
  O13      1.0000 0.54405  0.12071  0.74422  Biso   1.000  O 
  O14      1.0000 0.54006  0.11213  0.99125  Biso   1.000  O 
  O15      1.0000 0.45474  0.37097  0.51507  Biso   1.000  O 
  O16      1.0000 0.44013  0.36201  0.76046  Biso   1.000  O 
  Hf9      1.0000 0.26404  0.52358  0.14265  Biso   1.000  Hf
  Hf10     1.0000 0.26595  0.71979  0.39675  Biso   1.000  Hf
  Hf11     1.0000 0.70980  0.77165  0.10460  Biso   1.000  Hf
  Hf12     1.0000 0.71136  0.96223  0.36149  Biso   1.000  Hf
  O17      1.0000 0.06340  0.67775  0.07958  Biso   1.000  O 
  O18      1.0000 0.05279  0.58222  0.32338  Biso   1.000  O 
  O19      1.0000 0.91608  0.91922  0.17368  Biso   1.000  O 
  O20      1.0000 0.91248  0.81846  0.42380  Biso   1.000  O 
  O21      1.0000 0.53970  0.62820  0.24081  Biso   1.000  O 
  O22      1.0000 0.53495  0.61050  0.49010  Biso   1.000  O 
  O23      1.0000 0.43547  0.88261  0.01235  Biso   1.000  O 
  O24      1.0000 0.44066  0.86537  0.26179  Biso   1.000  O 
  Hf13     1.0000 0.26736  0.51312  0.64751  Biso   1.000  Hf
  Hf14     1.0000 0.25894  0.72057  0.89784  Biso   1.000  Hf
  Hf15     1.0000 0.70752  0.75974  0.60663  Biso   1.000  Hf
  Hf16     1.0000 0.70253  0.96980  0.85611  Biso   1.000  Hf
  O25      1.0000 0.05466  0.65612  0.57954  Biso   1.000  O 
  O26      1.0000 0.05791  0.57412  0.83085  Biso   1.000  O 
  O27      1.0000 0.90876  0.90809  0.67157  Biso   1.000  O 
  O28      1.0000 0.91162  0.82395  0.92183  Biso   1.000  O 
  O29      1.0000 0.53922  0.61920  0.74142  Biso   1.000  O 
  O30      1.0000 0.53748  0.61318  0.99063  Biso   1.000  O 
  O31      1.0000 0.43122  0.86440  0.51331  Biso   1.000  O 
  O32      1.0000 0.42974  0.86204  0.76238  Biso   1.000  O 
  Pt1      1.0000 0.83960  0.22287  0.32309  Biso   1.000  Pt
