data_image0
_cell_length_a       9.96446
_cell_length_b       10.3218
_cell_length_c       4.99625
_cell_angle_alpha    90
_cell_angle_beta     90
_cell_angle_gamma    90

_symmetry_space_group_name_H-M    "P 1"
_symmetry_int_tables_number       1

loop_
  _symmetry_equiv_pos_as_xyz
  'x, y, z'

loop_
  _atom_site_label
  _atom_site_occupancy
  _atom_site_fract_x
  _atom_site_fract_y
  _atom_site_fract_z
  _atom_site_thermal_displace_type
  _atom_site_B_iso_or_equiv
  _atom_site_type_symbol
  Pt1      1.0000 0.12287  0.00997  0.22182  Biso   1.000  Pt
  Hf1      1.0000 0.14699  0.23420  0.75723  Biso   1.000  Hf
  Hf2      1.0000 0.37055  0.26985  0.26396  Biso   1.000  Hf
  Hf3      1.0000 0.37282  0.48709  0.75552  Biso   1.000  Hf
  O1       1.0000 0.04412  0.17072  0.40097  Biso   1.000  O 
  O2       1.0000 0.03679  0.07334  0.89744  Biso   1.000  O 
  O3       1.0000 0.46896  0.43745  0.39295  Biso   1.000  O 
  O4       1.0000 0.46994  0.31839  0.89009  Biso   1.000  O 
  O5       1.0000 0.30176  0.14485  0.54892  Biso   1.000  O 
  O6       1.0000 0.26625  0.11911  0.03809  Biso   1.000  O 
  O7       1.0000 0.23420  0.37879  0.00432  Biso   1.000  O 
  O8       1.0000 0.23112  0.37805  0.50408  Biso   1.000  O 
  Hf4      1.0000 0.14062  0.51899  0.25244  Biso   1.000  Hf
  Hf5      1.0000 0.14095  0.73616  0.74797  Biso   1.000  Hf
  Hf6      1.0000 0.37198  0.77115  0.25600  Biso   1.000  Hf
  Hf7      1.0000 0.37573  0.98866  0.75593  Biso   1.000  Hf
  O9       1.0000 0.04253  0.68391  0.38696  Biso   1.000  O 
  O10      1.0000 0.04514  0.56831  0.88548  Biso   1.000  O 
  O11      1.0000 0.47254  0.93707  0.38768  Biso   1.000  O 
  O12      1.0000 0.46859  0.81678  0.88536  Biso   1.000  O 
  O13      1.0000 0.27920  0.62611  0.50034  Biso   1.000  O 
  O14      1.0000 0.27580  0.63212  0.00060  Biso   1.000  O 
  O15      1.0000 0.22855  0.87746  0.00649  Biso   1.000  O 
  O16      1.0000 0.23296  0.88441  0.50216  Biso   1.000  O 
  Hf8      1.0000 0.63451  0.01847  0.24864  Biso   1.000  Hf
  Hf9      1.0000 0.63912  0.23626  0.74920  Biso   1.000  Hf
  Hf10     1.0000 0.87321  0.26314  0.24822  Biso   1.000  Hf
  Hf11     1.0000 0.87464  0.48338  0.74832  Biso   1.000  Hf
  O17      1.0000 0.54811  0.19040  0.37487  Biso   1.000  O 
  O18      1.0000 0.54122  0.06794  0.88237  Biso   1.000  O 
  O19      1.0000 0.97136  0.42960  0.38332  Biso   1.000  O 
  O20      1.0000 0.97259  0.31793  0.88575  Biso   1.000  O 
  O21      1.0000 0.77462  0.11816  0.49505  Biso   1.000  O 
  O22      1.0000 0.77687  0.13392  0.99449  Biso   1.000  O 
  O23      1.0000 0.73844  0.38320  0.99837  Biso   1.000  O 
  O24      1.0000 0.73786  0.36828  0.49711  Biso   1.000  O 
  Hf12     1.0000 0.64034  0.51595  0.24980  Biso   1.000  Hf
  Hf13     1.0000 0.64123  0.73526  0.74764  Biso   1.000  Hf
  Hf14     1.0000 0.87166  0.76453  0.24439  Biso   1.000  Hf
  Hf15     1.0000 0.87573  0.98483  0.74622  Biso   1.000  Hf
  O25      1.0000 0.54436  0.68685  0.38328  Biso   1.000  O 
  O26      1.0000 0.54535  0.56755  0.88605  Biso   1.000  O 
  O27      1.0000 0.96985  0.93037  0.37722  Biso   1.000  O 
  O28      1.0000 0.97140  0.81810  0.88150  Biso   1.000  O 
  O29      1.0000 0.77735  0.61762  0.49465  Biso   1.000  O 
  O30      1.0000 0.77939  0.63349  0.99289  Biso   1.000  O 
  O31      1.0000 0.73755  0.88391  0.99251  Biso   1.000  O 
  O32      1.0000 0.74035  0.86915  0.49475  Biso   1.000  O 
