data_image0
_cell_length_a       10.168
_cell_length_b       10.3588
_cell_length_c       5.25408
_cell_angle_alpha    90
_cell_angle_beta     80
_cell_angle_gamma    90

_symmetry_space_group_name_H-M    "P 1"
_symmetry_int_tables_number       1

loop_
  _symmetry_equiv_pos_as_xyz
  'x, y, z'

loop_
  _atom_site_label
  _atom_site_occupancy
  _atom_site_fract_x
  _atom_site_fract_y
  _atom_site_fract_z
  _atom_site_thermal_displace_type
  _atom_site_B_iso_or_equiv
  _atom_site_type_symbol
  Hf1      1.0000 0.13345  0.01781  0.29940  Biso   1.000  Hf
  Hf2      1.0000 0.13510  0.22619  0.79504  Biso   1.000  Hf
  Hf3      1.0000 0.35701  0.27921  0.19605  Biso   1.000  Hf
  Hf4      1.0000 0.35232  0.47708  0.69465  Biso   1.000  Hf
  O1       1.0000 0.03346  0.16994  0.16396  Biso   1.000  O 
  O2       1.0000 0.03253  0.07796  0.66091  Biso   1.000  O 
  O3       1.0000 0.45486  0.43345  0.32094  Biso   1.000  O 
  O4       1.0000 0.48355  0.35295  0.86339  Biso   1.000  O 
  O5       1.0000 0.27665  0.12586  0.48171  Biso   1.000  O 
  O6       1.0000 0.26157  0.10340  0.99831  Biso   1.000  O 
  O7       1.0000 0.21959  0.38253  0.01101  Biso   1.000  O 
  O8       1.0000 0.20580  0.37376  0.50271  Biso   1.000  O 
  Hf5      1.0000 0.13287  0.52218  0.28879  Biso   1.000  Hf
  Hf6      1.0000 0.13085  0.72436  0.79767  Biso   1.000  Hf
  Hf7      1.0000 0.35653  0.76757  0.21370  Biso   1.000  Hf
  Hf8      1.0000 0.35475  0.96391  0.72440  Biso   1.000  Hf
  O9       1.0000 0.02732  0.66944  0.15909  Biso   1.000  O 
  O10      1.0000 0.02898  0.58050  0.65850  Biso   1.000  O 
  O11      1.0000 0.45677  0.91737  0.34668  Biso   1.000  O 
  O12      1.0000 0.45572  0.81884  0.84588  Biso   1.000  O 
  O13      1.0000 0.26926  0.62797  0.48360  Biso   1.000  O 
  O14      1.0000 0.26846  0.61490  0.98224  Biso   1.000  O 
  O15      1.0000 0.21802  0.87323  0.03011  Biso   1.000  O 
  O16      1.0000 0.21736  0.86765  0.52859  Biso   1.000  O 
  Hf9      1.0000 0.63626  0.01811  0.29399  Biso   1.000  Hf
  Hf10     1.0000 0.65070  0.22401  0.80346  Biso   1.000  Hf
  Hf11     1.0000 0.86118  0.27117  0.21521  Biso   1.000  Hf
  Hf12     1.0000 0.85881  0.47505  0.70982  Biso   1.000  Hf
  O17      1.0000 0.53218  0.16649  0.15232  Biso   1.000  O 
  O18      1.0000 0.55106  0.05230  0.68433  Biso   1.000  O 
  O19      1.0000 0.95909  0.42115  0.33864  Biso   1.000  O 
  O20      1.0000 0.96047  0.32677  0.84126  Biso   1.000  O 
  O21      1.0000 0.77602  0.12719  0.48355  Biso   1.000  O 
  O22      1.0000 0.77794  0.11377  0.98872  Biso   1.000  O 
  O23      1.0000 0.72503  0.37820  0.02760  Biso   1.000  O 
  O24      1.0000 0.72240  0.36841  0.52479  Biso   1.000  O 
  Hf13     1.0000 0.63437  0.52188  0.29194  Biso   1.000  Hf
  Hf14     1.0000 0.63348  0.72237  0.79116  Biso   1.000  Hf
  Hf15     1.0000 0.85377  0.76970  0.20864  Biso   1.000  Hf
  Hf16     1.0000 0.85433  0.97307  0.71017  Biso   1.000  Hf
  O25      1.0000 0.53413  0.67161  0.15996  Biso   1.000  O 
  O26      1.0000 0.52846  0.58145  0.65236  Biso   1.000  O 
  O27      1.0000 0.95715  0.91668  0.34096  Biso   1.000  O 
  O28      1.0000 0.95720  0.82783  0.84302  Biso   1.000  O 
  O29      1.0000 0.77152  0.62612  0.48166  Biso   1.000  O 
  O30      1.0000 0.76960  0.61491  0.98034  Biso   1.000  O 
  O31      1.0000 0.71748  0.87965  0.02103  Biso   1.000  O 
  O32      1.0000 0.71927  0.86555  0.51854  Biso   1.000  O 
  Pt1      1.0000 0.41631  0.22096  0.64782  Biso   1.000  Pt
