data_image0
_cell_length_a       5.11074
_cell_length_b       10.3614
_cell_length_c       10.2342
_cell_angle_alpha    90
_cell_angle_beta     90
_cell_angle_gamma    90

_symmetry_space_group_name_H-M    "P 1"
_symmetry_int_tables_number       1

loop_
  _symmetry_equiv_pos_as_xyz
  'x, y, z'

loop_
  _atom_site_label
  _atom_site_occupancy
  _atom_site_fract_x
  _atom_site_fract_y
  _atom_site_fract_z
  _atom_site_thermal_displace_type
  _atom_site_B_iso_or_equiv
  _atom_site_type_symbol
  Hf1      1.0000 0.05217  0.96362  0.11057  Biso   1.000  Hf
  Hf2      1.0000 0.26523  0.23668  0.39743  Biso   1.000  Hf
  Hf3      1.0000 0.81703  0.22315  0.10488  Biso   1.000  Hf
  Hf4      1.0000 0.76857  0.01172  0.35085  Biso   1.000  Hf
  O1       1.0000 0.06899  0.09961  0.98021  Biso   1.000  O 
  O2       1.0000 0.06052  0.11092  0.23770  Biso   1.000  O 
  O3       1.0000 0.84223  0.38313  0.22367  Biso   1.000  O 
  O4       1.0000 0.99185  0.36444  0.98823  Biso   1.000  O 
  O5       1.0000 0.59917  0.18027  0.28765  Biso   1.000  O 
  O6       1.0000 0.59191  0.06082  0.05193  Biso   1.000  O 
  O7       1.0000 0.57352  0.26306  0.92857  Biso   1.000  O 
  O8       1.0000 0.32376  0.42449  0.30315  Biso   1.000  O 
  Hf5      1.0000 0.03819  0.97936  0.62250  Biso   1.000  Hf
  Hf6      1.0000 0.19201  0.24470  0.83569  Biso   1.000  Hf
  Hf7      1.0000 0.73825  0.21685  0.60682  Biso   1.000  Hf
  Hf8      1.0000 0.56147  0.97350  0.87979  Biso   1.000  Hf
  O9       1.0000 0.00581  0.11951  0.49514  Biso   1.000  O 
  O10      1.0000 0.93761  0.09328  0.74136  Biso   1.000  O 
  O11      1.0000 0.89939  0.34726  0.73451  Biso   1.000  O 
  O12      1.0000 0.96150  0.36780  0.48937  Biso   1.000  O 
  O13      1.0000 0.41642  0.15060  0.71019  Biso   1.000  O 
  O14      1.0000 0.49978  0.07965  0.49362  Biso   1.000  O 
  O15      1.0000 0.47713  0.33673  0.52245  Biso   1.000  O 
  O16      1.0000 0.36000  0.41635  0.77158  Biso   1.000  O 
  Hf9      1.0000 0.09164  0.52480  0.15330  Biso   1.000  Hf
  Hf10     1.0000 0.03111  0.76445  0.36912  Biso   1.000  Hf
  Hf11     1.0000 0.58064  0.72121  0.11035  Biso   1.000  Hf
  Hf12     1.0000 0.66647  0.47445  0.39352  Biso   1.000  Hf
  O17      1.0000 0.89042  0.62903  0.00397  Biso   1.000  O 
  O18      1.0000 0.79971  0.61982  0.26268  Biso   1.000  O 
  O19      1.0000 0.76742  0.85920  0.23545  Biso   1.000  O 
  O20      1.0000 0.77720  0.84758  0.98830  Biso   1.000  O 
  O21      1.0000 0.28352  0.67596  0.24060  Biso   1.000  O 
  O22      1.0000 0.43333  0.54447  0.03609  Biso   1.000  O 
  O23      1.0000 0.27911  0.81439  0.01464  Biso   1.000  O 
  O24      1.0000 0.24304  0.91758  0.28026  Biso   1.000  O 
  Hf13     1.0000 0.12121  0.50228  0.63627  Biso   1.000  Hf
  Hf14     1.0000 0.03390  0.73921  0.85587  Biso   1.000  Hf
  Hf15     1.0000 0.57130  0.72600  0.60424  Biso   1.000  Hf
  Hf16     1.0000 0.67815  0.45332  0.88984  Biso   1.000  Hf
  O25      1.0000 0.87880  0.62536  0.50568  Biso   1.000  O 
  O26      1.0000 0.82538  0.58997  0.75314  Biso   1.000  O 
  O27      1.0000 0.76919  0.84202  0.74066  Biso   1.000  O 
  O28      1.0000 0.75896  0.87560  0.48664  Biso   1.000  O 
  O29      1.0000 0.30426  0.66207  0.73952  Biso   1.000  O 
  O30      1.0000 0.39675  0.57680  0.50913  Biso   1.000  O 
  O31      1.0000 0.24686  0.82638  0.53323  Biso   1.000  O 
  O32      1.0000 0.23071  0.91359  0.79021  Biso   1.000  O 
  Rb1      1.0000 0.33132  0.28057  0.12117  Biso   1.000  Rb
