data_image0
_cell_length_a       10.2062
_cell_length_b       5.17783
_cell_length_c       10.6389
_cell_angle_alpha    90
_cell_angle_beta     80
_cell_angle_gamma    90

_symmetry_space_group_name_H-M    "P 1"
_symmetry_int_tables_number       1

loop_
  _symmetry_equiv_pos_as_xyz
  'x, y, z'

loop_
  _atom_site_label
  _atom_site_occupancy
  _atom_site_fract_x
  _atom_site_fract_y
  _atom_site_fract_z
  _atom_site_thermal_displace_type
  _atom_site_B_iso_or_equiv
  _atom_site_type_symbol
  Hf1      1.0000 0.13213  0.04270  0.14743  Biso   1.000  Hf
  Hf2      1.0000 0.13503  0.45382  0.39232  Biso   1.000  Hf
  Hf3      1.0000 0.34596  0.55071  0.08457  Biso   1.000  Hf
  Hf4      1.0000 0.36620  0.95566  0.36017  Biso   1.000  Hf
  O1       1.0000 0.03111  0.32867  0.07366  Biso   1.000  O 
  O2       1.0000 0.02828  0.16716  0.32771  Biso   1.000  O 
  O3       1.0000 0.45926  0.87270  0.16677  Biso   1.000  O 
  O4       1.0000 0.48479  0.71856  0.45381  Biso   1.000  O 
  O5       1.0000 0.26071  0.25298  0.23374  Biso   1.000  O 
  O6       1.0000 0.28601  0.25184  0.48331  Biso   1.000  O 
  O7       1.0000 0.21428  0.77123  0.00429  Biso   1.000  O 
  O8       1.0000 0.22441  0.73823  0.25687  Biso   1.000  O 
  Hf5      1.0000 0.14889  0.04625  0.64164  Biso   1.000  Hf
  Hf6      1.0000 0.14444  0.45824  0.88938  Biso   1.000  Hf
  Hf7      1.0000 0.37134  0.55408  0.60844  Biso   1.000  Hf
  Hf8      1.0000 0.37009  0.96723  0.85054  Biso   1.000  Hf
  O9       1.0000 0.04338  0.33196  0.57515  Biso   1.000  O 
  O10      1.0000 0.04314  0.17348  0.82160  Biso   1.000  O 
  O11      1.0000 0.47825  0.82540  0.68468  Biso   1.000  O 
  O12      1.0000 0.47788  0.68334  0.92068  Biso   1.000  O 
  O13      1.0000 0.28471  0.25549  0.73615  Biso   1.000  O 
  O14      1.0000 0.28559  0.25752  0.98214  Biso   1.000  O 
  O15      1.0000 0.23147  0.75681  0.50873  Biso   1.000  O 
  O16      1.0000 0.23341  0.74583  0.75747  Biso   1.000  O 
  Hf9      1.0000 0.64112  0.03698  0.14632  Biso   1.000  Hf
  Hf10     1.0000 0.65852  0.45002  0.41105  Biso   1.000  Hf
  Hf11     1.0000 0.85860  0.53852  0.10647  Biso   1.000  Hf
  Hf12     1.0000 0.85865  0.95076  0.35464  Biso   1.000  Hf
  O17      1.0000 0.53117  0.33336  0.06976  Biso   1.000  O 
  O18      1.0000 0.56314  0.12094  0.34115  Biso   1.000  O 
  O19      1.0000 0.96286  0.82241  0.17681  Biso   1.000  O 
  O20      1.0000 0.96840  0.66801  0.42412  Biso   1.000  O 
  O21      1.0000 0.78345  0.25266  0.24072  Biso   1.000  O 
  O22      1.0000 0.78918  0.23672  0.49711  Biso   1.000  O 
  O23      1.0000 0.72169  0.75502  0.01365  Biso   1.000  O 
  O24      1.0000 0.72188  0.72763  0.26113  Biso   1.000  O 
  Hf13     1.0000 0.64768  0.04433  0.64962  Biso   1.000  Hf
  Hf14     1.0000 0.64995  0.45864  0.89552  Biso   1.000  Hf
  Hf15     1.0000 0.87219  0.54622  0.60859  Biso   1.000  Hf
  Hf16     1.0000 0.87120  0.95897  0.85425  Biso   1.000  Hf
  O25      1.0000 0.54201  0.32837  0.58116  Biso   1.000  O 
  O26      1.0000 0.54230  0.18136  0.82492  Biso   1.000  O 
  O27      1.0000 0.97729  0.83144  0.67394  Biso   1.000  O 
  O28      1.0000 0.97638  0.67353  0.92196  Biso   1.000  O 
  O29      1.0000 0.78575  0.26019  0.74220  Biso   1.000  O 
  O30      1.0000 0.78886  0.24466  0.98897  Biso   1.000  O 
  O31      1.0000 0.73454  0.75345  0.51706  Biso   1.000  O 
  O32      1.0000 0.73577  0.74845  0.76294  Biso   1.000  O 
  Rb1      1.0000 0.44885  0.47078  0.28415  Biso   1.000  Rb
