data_image0
_cell_length_a       10.0854
_cell_length_b       10.3383
_cell_length_c       10.0855
_cell_angle_alpha    90
_cell_angle_beta     90
_cell_angle_gamma    90

_symmetry_space_group_name_H-M    "P 1"
_symmetry_int_tables_number       1

loop_
  _symmetry_equiv_pos_as_xyz
  'x, y, z'

loop_
  _atom_site_label
  _atom_site_occupancy
  _atom_site_fract_x
  _atom_site_fract_y
  _atom_site_fract_z
  _atom_site_thermal_displace_type
  _atom_site_B_iso_or_equiv
  _atom_site_type_symbol
  Hf1      1.0000 0.12491  0.96521  0.12491  Biso   1.000  Hf
  Hf2      1.0000 0.12491  0.25005  0.39573  Biso   1.000  Hf
  Hf3      1.0000 0.39576  0.25005  0.12491  Biso   1.000  Hf
  Hf4      1.0000 0.37617  0.01171  0.37617  Biso   1.000  Hf
  O1       1.0000 0.96792  0.16773  0.96793  Biso   1.000  O 
  O2       1.0000 0.00589  0.08118  0.24398  Biso   1.000  O 
  O3       1.0000 0.96792  0.33238  0.28189  Biso   1.000  O 
  O4       1.0000 0.00588  0.41893  0.00585  Biso   1.000  O 
  O5       1.0000 0.28190  0.16773  0.28190  Biso   1.000  O 
  O6       1.0000 0.24394  0.08118  0.00585  Biso   1.000  O 
  O7       1.0000 0.28190  0.33238  0.96792  Biso   1.000  O 
  O8       1.0000 0.24394  0.41893  0.24397  Biso   1.000  O 
  Hf5      1.0000 0.12491  0.99144  0.62491  Biso   1.000  Hf
  Hf6      1.0000 0.12491  0.25006  0.85409  Biso   1.000  Hf
  Hf7      1.0000 0.37577  0.25006  0.62491  Biso   1.000  Hf
  Hf8      1.0000 0.37436  0.00305  0.87545  Biso   1.000  Hf
  O9       1.0000 0.99248  0.14387  0.49769  Biso   1.000  O 
  O10      1.0000 0.00301  0.10205  0.74034  Biso   1.000  O 
  O11      1.0000 0.99248  0.35624  0.75213  Biso   1.000  O 
  O12      1.0000 0.00301  0.39806  0.50948  Biso   1.000  O 
  O13      1.0000 0.25733  0.14388  0.75213  Biso   1.000  O 
  O14      1.0000 0.24681  0.10205  0.50948  Biso   1.000  O 
  O15      1.0000 0.25733  0.35623  0.49768  Biso   1.000  O 
  O16      1.0000 0.24681  0.39806  0.74034  Biso   1.000  O 
  Hf9      1.0000 0.12491  0.53490  0.12491  Biso   1.000  Hf
  Hf10     1.0000 0.12491  0.75005  0.38416  Biso   1.000  Hf
  Hf11     1.0000 0.38416  0.75005  0.12491  Biso   1.000  Hf
  Hf12     1.0000 0.37437  0.49706  0.37437  Biso   1.000  Hf
  O17      1.0000 0.00794  0.66430  0.00793  Biso   1.000  O 
  O18      1.0000 0.99195  0.59660  0.25785  Biso   1.000  O 
  O19      1.0000 0.00794  0.83580  0.24188  Biso   1.000  O 
  O20      1.0000 0.99195  0.90351  0.99196  Biso   1.000  O 
  O21      1.0000 0.24187  0.66431  0.24188  Biso   1.000  O 
  O22      1.0000 0.25786  0.59660  0.99196  Biso   1.000  O 
  O23      1.0000 0.24188  0.83581  0.00794  Biso   1.000  O 
  O24      1.0000 0.25787  0.90350  0.25785  Biso   1.000  O 
  Hf13     1.0000 0.12491  0.50867  0.62491  Biso   1.000  Hf
  Hf14     1.0000 0.12491  0.75005  0.86565  Biso   1.000  Hf
  Hf15     1.0000 0.37847  0.75005  0.62491  Biso   1.000  Hf
  Hf16     1.0000 0.37617  0.48839  0.87365  Biso   1.000  Hf
  O25      1.0000 0.99997  0.64835  0.50767  Biso   1.000  O 
  O26      1.0000 0.00359  0.60335  0.75796  Biso   1.000  O 
  O27      1.0000 0.99997  0.85176  0.74214  Biso   1.000  O 
  O28      1.0000 0.00358  0.89676  0.49186  Biso   1.000  O 
  O29      1.0000 0.24984  0.64836  0.74214  Biso   1.000  O 
  O30      1.0000 0.24623  0.60335  0.49185  Biso   1.000  O 
  O31      1.0000 0.24984  0.85175  0.50768  Biso   1.000  O 
  O32      1.0000 0.24623  0.89676  0.75796  Biso   1.000  O 
  Hf17     1.0000 0.62491  0.99143  0.12491  Biso   1.000  Hf
  Hf18     1.0000 0.62491  0.25005  0.37575  Biso   1.000  Hf
  Hf19     1.0000 0.85405  0.25006  0.12491  Biso   1.000  Hf
  Hf20     1.0000 0.87545  0.00305  0.37437  Biso   1.000  Hf
  O33      1.0000 0.49766  0.14385  0.99244  Biso   1.000  O 
  O34      1.0000 0.50949  0.10206  0.24679  Biso   1.000  O 
  O35      1.0000 0.49766  0.35626  0.25738  Biso   1.000  O 
  O36      1.0000 0.50949  0.39805  0.00302  Biso   1.000  O 
  O37      1.0000 0.75216  0.14385  0.25738  Biso   1.000  O 
  O38      1.0000 0.74033  0.10206  0.00303  Biso   1.000  O 
  O39      1.0000 0.75216  0.35626  0.99244  Biso   1.000  O 
  O40      1.0000 0.74033  0.39805  0.24679  Biso   1.000  O 
  Hf21     1.0000 0.62491  0.99924  0.62491  Biso   1.000  Hf
  Hf22     1.0000 0.62491  0.25005  0.87407  Biso   1.000  Hf
  Hf23     1.0000 0.87405  0.25006  0.62491  Biso   1.000  Hf
  Hf24     1.0000 0.87364  0.01171  0.87365  Biso   1.000  Hf
  O41      1.0000 0.49791  0.15117  0.49790  Biso   1.000  O 
  O42      1.0000 0.50211  0.10037  0.74767  Biso   1.000  O 
  O43      1.0000 0.49792  0.34894  0.75192  Biso   1.000  O 
  O44      1.0000 0.50211  0.39974  0.50215  Biso   1.000  O 
  O45      1.0000 0.75190  0.15116  0.75191  Biso   1.000  O 
  O46      1.0000 0.74770  0.10037  0.50215  Biso   1.000  O 
  O47      1.0000 0.75190  0.34894  0.49790  Biso   1.000  O 
  O48      1.0000 0.74770  0.39974  0.74767  Biso   1.000  O 
  Hf25     1.0000 0.62491  0.50868  0.12491  Biso   1.000  Hf
  Hf26     1.0000 0.62491  0.75005  0.37848  Biso   1.000  Hf
  Hf27     1.0000 0.86566  0.75005  0.12491  Biso   1.000  Hf
  Hf28     1.0000 0.87364  0.48839  0.37617  Biso   1.000  Hf
  O49      1.0000 0.50768  0.64835  0.99998  Biso   1.000  O 
  O50      1.0000 0.49185  0.60335  0.24623  Biso   1.000  O 
  O51      1.0000 0.50768  0.85175  0.24983  Biso   1.000  O 
  O52      1.0000 0.49185  0.89676  0.00358  Biso   1.000  O 
  O53      1.0000 0.74213  0.64836  0.24983  Biso   1.000  O 
  O54      1.0000 0.75797  0.60335  0.00358  Biso   1.000  O 
  O55      1.0000 0.74213  0.85175  0.99998  Biso   1.000  O 
  O56      1.0000 0.75797  0.89676  0.24623  Biso   1.000  O 
  Hf29     1.0000 0.62491  0.50087  0.62491  Biso   1.000  Hf
  Hf30     1.0000 0.62491  0.75005  0.87134  Biso   1.000  Hf
  Hf31     1.0000 0.87135  0.75005  0.62491  Biso   1.000  Hf
  Hf32     1.0000 0.87545  0.49706  0.87545  Biso   1.000  Hf
  O57      1.0000 0.49774  0.64923  0.49774  Biso   1.000  O 
  O58      1.0000 0.50132  0.60004  0.74850  Biso   1.000  O 
  O59      1.0000 0.49774  0.85088  0.75208  Biso   1.000  O 
  O60      1.0000 0.50132  0.90007  0.50132  Biso   1.000  O 
  O61      1.0000 0.75208  0.64923  0.75208  Biso   1.000  O 
  O62      1.0000 0.74849  0.60004  0.50132  Biso   1.000  O 
  O63      1.0000 0.75208  0.85088  0.49774  Biso   1.000  O 
  O64      1.0000 0.74849  0.90007  0.74850  Biso   1.000  O 
  Rb1      1.0000 0.12491  0.25005  0.12491  Biso   1.000  Rb
