data_image0
_cell_length_a       10.2342
_cell_length_b       10.3613
_cell_length_c       5.11074
_cell_angle_alpha    80
_cell_angle_beta     90
_cell_angle_gamma    90

_symmetry_space_group_name_H-M    "P 1"
_symmetry_int_tables_number       1

loop_
  _symmetry_equiv_pos_as_xyz
  'x, y, z'

loop_
  _atom_site_label
  _atom_site_occupancy
  _atom_site_fract_x
  _atom_site_fract_y
  _atom_site_fract_z
  _atom_site_thermal_displace_type
  _atom_site_B_iso_or_equiv
  _atom_site_type_symbol
  Hf1      1.0000 0.07791  0.96200  0.20117  Biso   1.000  Hf
  Hf2      1.0000 0.14100  0.24125  0.87209  Biso   1.000  Hf
  Hf3      1.0000 0.40989  0.22826  0.25204  Biso   1.000  Hf
  Hf4      1.0000 0.36064  0.99769  0.78638  Biso   1.000  Hf
  O1       1.0000 0.02550  0.07595  0.93132  Biso   1.000  O 
  O2       1.0000 0.94614  0.05198  0.41667  Biso   1.000  O 
  O3       1.0000 0.95709  0.28917  0.64499  Biso   1.000  O 
  O4       1.0000 0.00487  0.38064  0.08608  Biso   1.000  O 
  O5       1.0000 0.31794  0.19345  0.64222  Biso   1.000  O 
  O6       1.0000 0.25951  0.11150  0.07577  Biso   1.000  O 
  O7       1.0000 0.26229  0.37685  0.09958  Biso   1.000  O 
  O8       1.0000 0.19034  0.41511  0.61097  Biso   1.000  O 
  Hf5      1.0000 0.12939  0.52010  0.25039  Biso   1.000  Hf
  Hf6      1.0000 0.12550  0.74562  0.73492  Biso   1.000  Hf
  Hf7      1.0000 0.37970  0.73298  0.19342  Biso   1.000  Hf
  Hf8      1.0000 0.36124  0.47547  0.77451  Biso   1.000  Hf
  O9       1.0000 0.00345  0.59639  0.95299  Biso   1.000  O 
  O10      1.0000 0.95908  0.55612  0.43550  Biso   1.000  O 
  O11      1.0000 0.99394  0.80000  0.42674  Biso   1.000  O 
  O12      1.0000 0.97148  0.83697  0.93707  Biso   1.000  O 
  O13      1.0000 0.22263  0.66455  0.44832  Biso   1.000  O 
  O14      1.0000 0.25054  0.59266  0.96787  Biso   1.000  O 
  O15      1.0000 0.22903  0.86706  0.01766  Biso   1.000  O 
  O16      1.0000 0.19599  0.93157  0.54927  Biso   1.000  O 
  Hf9      1.0000 0.59463  0.97398  0.23114  Biso   1.000  Hf
  Hf10     1.0000 0.63894  0.24050  0.79609  Biso   1.000  Hf
  Hf11     1.0000 0.84799  0.24244  0.32014  Biso   1.000  Hf
  Hf12     1.0000 0.85727  0.98671  0.77403  Biso   1.000  Hf
  O17      1.0000 0.51413  0.09985  0.98675  Biso   1.000  O 
  O18      1.0000 0.47766  0.04944  0.45619  Biso   1.000  O 
  O19      1.0000 0.53380  0.31759  0.45836  Biso   1.000  O 
  O20      1.0000 0.50220  0.35538  0.97361  Biso   1.000  O 
  O21      1.0000 0.72532  0.13066  0.55587  Biso   1.000  O 
  O22      1.0000 0.75830  0.11928  0.04088  Biso   1.000  O 
  O23      1.0000 0.74758  0.36884  0.03506  Biso   1.000  O 
  O24      1.0000 0.74901  0.39064  0.52603  Biso   1.000  O 
  Hf13     1.0000 0.61785  0.49440  0.24448  Biso   1.000  Hf
  Hf14     1.0000 0.63177  0.73122  0.73130  Biso   1.000  Hf
  Hf15     1.0000 0.86687  0.71732  0.19101  Biso   1.000  Hf
  Hf16     1.0000 0.89076  0.45218  0.78236  Biso   1.000  Hf
  O25      1.0000 0.49799  0.60356  0.95621  Biso   1.000  O 
  O26      1.0000 0.44912  0.55035  0.42720  Biso   1.000  O 
  O27      1.0000 0.49487  0.80323  0.44970  Biso   1.000  O 
  O28      1.0000 0.48056  0.85635  0.96163  Biso   1.000  O 
  O29      1.0000 0.70433  0.64322  0.42324  Biso   1.000  O 
  O30      1.0000 0.75263  0.57507  0.95025  Biso   1.000  O 
  O31      1.0000 0.72733  0.86113  0.01005  Biso   1.000  O 
  O32      1.0000 0.72362  0.89074  0.52355  Biso   1.000  O 
  Rb1      1.0000 0.12519  0.20107  0.39319  Biso   1.000  Rb
