data_image0
_cell_length_a       5.04593
_cell_length_b       10.4306
_cell_length_c       10.1635
_cell_angle_alpha    90
_cell_angle_beta     90
_cell_angle_gamma    90

_symmetry_space_group_name_H-M    "P 1"
_symmetry_int_tables_number       1

loop_
  _symmetry_equiv_pos_as_xyz
  'x, y, z'

loop_
  _atom_site_label
  _atom_site_occupancy
  _atom_site_fract_x
  _atom_site_fract_y
  _atom_site_fract_z
  _atom_site_thermal_displace_type
  _atom_site_B_iso_or_equiv
  _atom_site_type_symbol
  Hf1      1.0000 0.19475  0.97825  0.09998  Biso   1.000  Hf
  Hf2      1.0000 0.18924  0.23098  0.40827  Biso   1.000  Hf
  Hf3      1.0000 0.58020  0.26376  0.16776  Biso   1.000  Hf
  Hf4      1.0000 0.66308  0.48721  0.37910  Biso   1.000  Hf
  O1       1.0000 0.84422  0.18393  0.29152  Biso   1.000  O 
  O2       1.0000 0.03866  0.05527  0.46203  Biso   1.000  O 
  O3       1.0000 0.81933  0.43137  0.19909  Biso   1.000  O 
  O4       1.0000 0.90583  0.34768  0.47892  Biso   1.000  O 
  O5       1.0000 0.36506  0.11140  0.25028  Biso   1.000  O 
  O6       1.0000 0.51127  0.13974  0.50570  Biso   1.000  O 
  O7       1.0000 0.41471  0.38682  0.50392  Biso   1.000  O 
  O8       1.0000 0.31197  0.37576  0.26004  Biso   1.000  O 
  Hf5      1.0000 0.24830  0.01108  0.62400  Biso   1.000  Hf
  Hf6      1.0000 0.21357  0.23325  0.84920  Biso   1.000  Hf
  Hf7      1.0000 0.69598  0.28220  0.64045  Biso   1.000  Hf
  Hf8      1.0000 0.61742  0.48685  0.86890  Biso   1.000  Hf
  O9       1.0000 0.05038  0.18484  0.66823  Biso   1.000  O 
  O10      1.0000 0.01840  0.06843  0.92787  Biso   1.000  O 
  O11      1.0000 0.81973  0.46714  0.68481  Biso   1.000  O 
  O12      1.0000 0.82279  0.30900  0.85227  Biso   1.000  O 
  O13      1.0000 0.49602  0.11811  0.75415  Biso   1.000  O 
  O14      1.0000 0.54860  0.12452  0.01391  Biso   1.000  O 
  O15      1.0000 0.35178  0.38298  0.99792  Biso   1.000  O 
  O16      1.0000 0.36170  0.37758  0.74166  Biso   1.000  O 
  Hf9      1.0000 0.21282  0.52785  0.12922  Biso   1.000  Hf
  Hf10     1.0000 0.18645  0.74408  0.37743  Biso   1.000  Hf
  Hf11     1.0000 0.67594  0.76354  0.13049  Biso   1.000  Hf
  Hf12     1.0000 0.71314  0.00488  0.36507  Biso   1.000  Hf
  O17      1.0000 0.01059  0.68462  0.19690  Biso   1.000  O 
  O18      1.0000 0.98699  0.58176  0.43945  Biso   1.000  O 
  O19      1.0000 0.84461  0.94397  0.19004  Biso   1.000  O 
  O20      1.0000 0.83634  0.82336  0.43902  Biso   1.000  O 
  O21      1.0000 0.47615  0.62458  0.25409  Biso   1.000  O 
  O22      1.0000 0.44519  0.63948  0.49960  Biso   1.000  O 
  O23      1.0000 0.37226  0.89044  0.49350  Biso   1.000  O 
  O24      1.0000 0.39104  0.86492  0.24175  Biso   1.000  O 
  Hf13     1.0000 0.17227  0.51770  0.61254  Biso   1.000  Hf
  Hf14     1.0000 0.15237  0.73164  0.86759  Biso   1.000  Hf
  Hf15     1.0000 0.64301  0.77121  0.61648  Biso   1.000  Hf
  Hf16     1.0000 0.61058  0.98138  0.86943  Biso   1.000  Hf
  O25      1.0000 0.97516  0.69292  0.69016  Biso   1.000  O 
  O26      1.0000 0.94315  0.56977  0.94716  Biso   1.000  O 
  O27      1.0000 0.82933  0.93332  0.70354  Biso   1.000  O 
  O28      1.0000 0.84495  0.82833  0.96558  Biso   1.000  O 
  O29      1.0000 0.42932  0.62000  0.75075  Biso   1.000  O 
  O30      1.0000 0.49864  0.62838  0.00373  Biso   1.000  O 
  O31      1.0000 0.35344  0.87537  0.98785  Biso   1.000  O 
  O32      1.0000 0.36315  0.86467  0.74418  Biso   1.000  O 
  Rb1      1.0000 0.04421  0.24683  0.08080  Biso   1.000  Rb
