data_image0
_cell_length_a       10.0714
_cell_length_b       10.2898
_cell_length_c       10.4972
_cell_angle_alpha    90
_cell_angle_beta     90
_cell_angle_gamma    90

_symmetry_space_group_name_H-M    "P 1"
_symmetry_int_tables_number       1

loop_
  _symmetry_equiv_pos_as_xyz
  'x, y, z'

loop_
  _atom_site_label
  _atom_site_occupancy
  _atom_site_fract_x
  _atom_site_fract_y
  _atom_site_fract_z
  _atom_site_thermal_displace_type
  _atom_site_B_iso_or_equiv
  _atom_site_type_symbol
  Rb1      1.0000 0.08724  0.98142  0.14866  Biso   1.000  Rb
  Hf1      1.0000 0.13695  0.02601  0.67128  Biso   1.000  Hf
  Hf2      1.0000 0.14263  0.51988  0.17194  Biso   1.000  Hf
  Hf3      1.0000 0.13692  0.52594  0.67122  Biso   1.000  Hf
  Hf4      1.0000 0.13958  0.22971  0.42146  Biso   1.000  Hf
  Hf5      1.0000 0.13496  0.23398  0.92318  Biso   1.000  Hf
  Hf6      1.0000 0.13762  0.73194  0.42030  Biso   1.000  Hf
  Hf7      1.0000 0.14585  0.73320  0.91783  Biso   1.000  Hf
  Hf8      1.0000 0.35081  0.26056  0.17117  Biso   1.000  Hf
  Hf9      1.0000 0.35658  0.27417  0.67188  Biso   1.000  Hf
  Hf10     1.0000 0.36500  0.77214  0.17123  Biso   1.000  Hf
  Hf11     1.0000 0.35515  0.77662  0.66810  Biso   1.000  Hf
  Hf12     1.0000 0.35726  0.47917  0.42012  Biso   1.000  Hf
  Hf13     1.0000 0.35603  0.48030  0.92239  Biso   1.000  Hf
  Hf14     1.0000 0.35422  0.98316  0.41620  Biso   1.000  Hf
  Hf15     1.0000 0.35746  0.98683  0.92113  Biso   1.000  Hf
  Hf16     1.0000 0.64051  0.02964  0.07537  Biso   1.000  Hf
  Hf17     1.0000 0.63183  0.02437  0.58256  Biso   1.000  Hf
  Hf18     1.0000 0.63101  0.51524  0.07932  Biso   1.000  Hf
  Hf19     1.0000 0.63539  0.52365  0.57795  Biso   1.000  Hf
  Hf20     1.0000 0.63412  0.23501  0.32940  Biso   1.000  Hf
  Hf21     1.0000 0.63750  0.23553  0.82740  Biso   1.000  Hf
  Hf22     1.0000 0.63586  0.72595  0.33196  Biso   1.000  Hf
  Hf23     1.0000 0.62889  0.73431  0.82480  Biso   1.000  Hf
  Hf24     1.0000 0.86195  0.27606  0.07796  Biso   1.000  Hf
  Hf25     1.0000 0.86120  0.27737  0.57929  Biso   1.000  Hf
  Hf26     1.0000 0.86440  0.74270  0.05537  Biso   1.000  Hf
  Hf27     1.0000 0.85916  0.77410  0.57988  Biso   1.000  Hf
  Hf28     1.0000 0.86126  0.48315  0.32785  Biso   1.000  Hf
  Hf29     1.0000 0.85855  0.48150  0.82390  Biso   1.000  Hf
  Hf30     1.0000 0.85518  0.99643  0.35439  Biso   1.000  Hf
  Hf31     1.0000 0.85537  0.98387  0.82918  Biso   1.000  Hf
  O1       1.0000 0.03724  0.19940  0.08812  Biso   1.000  O 
  O2       1.0000 0.03406  0.17936  0.59600  Biso   1.000  O 
  O3       1.0000 0.04432  0.67885  0.08961  Biso   1.000  O 
  O4       1.0000 0.03160  0.67222  0.58689  Biso   1.000  O 
  O5       1.0000 0.02340  0.08494  0.36755  Biso   1.000  O 
  O6       1.0000 0.03204  0.08424  0.84037  Biso   1.000  O 
  O7       1.0000 0.03351  0.58580  0.33474  Biso   1.000  O 
  O8       1.0000 0.02911  0.58846  0.83636  Biso   1.000  O 
  O9       1.0000 0.46561  0.40799  0.08170  Biso   1.000  O 
  O10      1.0000 0.46574  0.41583  0.58134  Biso   1.000  O 
  O11      1.0000 0.47640  0.91508  0.08022  Biso   1.000  O 
  O12      1.0000 0.46233  0.91579  0.57866  Biso   1.000  O 
  O13      1.0000 0.46516  0.34024  0.33064  Biso   1.000  O 
  O14      1.0000 0.46567  0.34099  0.83013  Biso   1.000  O 
  O15      1.0000 0.47898  0.84657  0.32642  Biso   1.000  O 
  O16      1.0000 0.46455  0.84431  0.82567  Biso   1.000  O 
  O17      1.0000 0.27990  0.13098  0.30461  Biso   1.000  O 
  O18      1.0000 0.27250  0.12763  0.79126  Biso   1.000  O 
  O19      1.0000 0.27805  0.61983  0.29349  Biso   1.000  O 
  O20      1.0000 0.27420  0.62785  0.79338  Biso   1.000  O 
  O21      1.0000 0.28858  0.13289  0.03222  Biso   1.000  O 
  O22      1.0000 0.27410  0.12847  0.54647  Biso   1.000  O 
  O23      1.0000 0.27686  0.61718  0.04519  Biso   1.000  O 
  O24      1.0000 0.27284  0.62945  0.54385  Biso   1.000  O 
  O25      1.0000 0.21912  0.37424  0.29420  Biso   1.000  O 
  O26      1.0000 0.22056  0.37856  0.79482  Biso   1.000  O 
  O27      1.0000 0.23692  0.86016  0.30181  Biso   1.000  O 
  O28      1.0000 0.21936  0.87788  0.78989  Biso   1.000  O 
  O29      1.0000 0.22210  0.37713  0.04508  Biso   1.000  O 
  O30      1.0000 0.22159  0.38053  0.54515  Biso   1.000  O 
  O31      1.0000 0.25204  0.85558  0.02861  Biso   1.000  O 
  O32      1.0000 0.21805  0.88159  0.54461  Biso   1.000  O 
  O33      1.0000 0.53343  0.16696  0.16676  Biso   1.000  O 
  O34      1.0000 0.52863  0.16836  0.66801  Biso   1.000  O 
  O35      1.0000 0.53154  0.65940  0.17197  Biso   1.000  O 
  O36      1.0000 0.52637  0.66678  0.66584  Biso   1.000  O 
  O37      1.0000 0.53199  0.08905  0.41788  Biso   1.000  O 
  O38      1.0000 0.53497  0.09150  0.91426  Biso   1.000  O 
  O39      1.0000 0.52802  0.58940  0.41954  Biso   1.000  O 
  O40      1.0000 0.52395  0.59257  0.91967  Biso   1.000  O 
  O41      1.0000 0.95991  0.43245  0.15868  Biso   1.000  O 
  O42      1.0000 0.96307  0.42665  0.66116  Biso   1.000  O 
  O43      1.0000 0.84575  0.89592  0.17989  Biso   1.000  O 
  O44      1.0000 0.95972  0.92293  0.66534  Biso   1.000  O 
  O45      1.0000 0.96391  0.33744  0.41436  Biso   1.000  O 
  O46      1.0000 0.95889  0.33730  0.90631  Biso   1.000  O 
  O47      1.0000 0.96329  0.83602  0.41342  Biso   1.000  O 
  O48      1.0000 0.97065  0.84213  0.91948  Biso   1.000  O 
  O49      1.0000 0.77744  0.12962  0.95701  Biso   1.000  O 
  O50      1.0000 0.76687  0.13323  0.46508  Biso   1.000  O 
  O51      1.0000 0.76625  0.61960  0.94879  Biso   1.000  O 
  O52      1.0000 0.77408  0.62678  0.45499  Biso   1.000  O 
  O53      1.0000 0.77871  0.13232  0.21248  Biso   1.000  O 
  O54      1.0000 0.77374  0.13051  0.70848  Biso   1.000  O 
  O55      1.0000 0.77298  0.63212  0.20318  Biso   1.000  O 
  O56      1.0000 0.77022  0.63124  0.70337  Biso   1.000  O 
  O57      1.0000 0.71723  0.37931  0.95269  Biso   1.000  O 
  O58      1.0000 0.72178  0.38011  0.45392  Biso   1.000  O 
  O59      1.0000 0.72174  0.87375  0.95410  Biso   1.000  O 
  O60      1.0000 0.72172  0.87747  0.46168  Biso   1.000  O 
  O61      1.0000 0.72215  0.38039  0.20571  Biso   1.000  O 
  O62      1.0000 0.72208  0.37956  0.70227  Biso   1.000  O 
  O63      1.0000 0.70494  0.88922  0.21242  Biso   1.000  O 
  O64      1.0000 0.71934  0.87989  0.70639  Biso   1.000  O 
