data_image0
_cell_length_a       10.1692
_cell_length_b       10.2942
_cell_length_c       5.07319
_cell_angle_alpha    90
_cell_angle_beta     90
_cell_angle_gamma    90

_symmetry_space_group_name_H-M    "P 1"
_symmetry_int_tables_number       1

loop_
  _symmetry_equiv_pos_as_xyz
  'x, y, z'

loop_
  _atom_site_label
  _atom_site_occupancy
  _atom_site_fract_x
  _atom_site_fract_y
  _atom_site_fract_z
  _atom_site_thermal_displace_type
  _atom_site_B_iso_or_equiv
  _atom_site_type_symbol
  Rb1      1.0000 0.12070  0.98082  0.28578  Biso   1.000  Rb
  Hf1      1.0000 0.10403  0.50398  0.24964  Biso   1.000  Hf
  Hf2      1.0000 0.63012  0.01044  0.25348  Biso   1.000  Hf
  Hf3      1.0000 0.58367  0.52279  0.30270  Biso   1.000  Hf
  Hf4      1.0000 0.10843  0.28110  0.75101  Biso   1.000  Hf
  Hf5      1.0000 0.06881  0.75506  0.74708  Biso   1.000  Hf
  Hf6      1.0000 0.62591  0.26078  0.72233  Biso   1.000  Hf
  Hf7      1.0000 0.59981  0.78818  0.80191  Biso   1.000  Hf
  Hf8      1.0000 0.38280  0.25168  0.24670  Biso   1.000  Hf
  Hf9      1.0000 0.33947  0.74839  0.17982  Biso   1.000  Hf
  Hf10     1.0000 0.88826  0.24421  0.22111  Biso   1.000  Hf
  Hf11     1.0000 0.85755  0.73397  0.25829  Biso   1.000  Hf
  Hf12     1.0000 0.36153  0.05159  0.77460  Biso   1.000  Hf
  Hf13     1.0000 0.35255  0.51323  0.78478  Biso   1.000  Hf
  Hf14     1.0000 0.87398  0.02359  0.75125  Biso   1.000  Hf
  Hf15     1.0000 0.82347  0.52012  0.78050  Biso   1.000  Hf
  O1       1.0000 0.97938  0.16703  0.98649  Biso   1.000  O 
  O2       1.0000 0.97571  0.62284  0.01438  Biso   1.000  O 
  O3       1.0000 0.51360  0.14576  0.00570  Biso   1.000  O 
  O4       1.0000 0.45781  0.67084  0.97527  Biso   1.000  O 
  O5       1.0000 0.98979  0.13295  0.52359  Biso   1.000  O 
  O6       1.0000 0.95689  0.60572  0.51763  Biso   1.000  O 
  O7       1.0000 0.50047  0.11916  0.50421  Biso   1.000  O 
  O8       1.0000 0.42448  0.61272  0.46059  Biso   1.000  O 
  O9       1.0000 0.99152  0.36466  0.44879  Biso   1.000  O 
  O10      1.0000 0.93569  0.86137  0.52072  Biso   1.000  O 
  O11      1.0000 0.47335  0.37326  0.55318  Biso   1.000  O 
  O12      1.0000 0.48245  0.85606  0.44709  Biso   1.000  O 
  O13      1.0000 0.97636  0.41574  0.95606  Biso   1.000  O 
  O14      1.0000 0.93443  0.88640  0.98847  Biso   1.000  O 
  O15      1.0000 0.49572  0.39596  0.05413  Biso   1.000  O 
  O16      1.0000 0.45861  0.92393  0.96676  Biso   1.000  O 
  O17      1.0000 0.25470  0.18446  0.52586  Biso   1.000  O 
  O18      1.0000 0.17264  0.70590  0.40114  Biso   1.000  O 
  O19      1.0000 0.74257  0.16440  0.45947  Biso   1.000  O 
  O20      1.0000 0.70025  0.66664  0.53418  Biso   1.000  O 
  O21      1.0000 0.26897  0.13365  0.00067  Biso   1.000  O 
  O22      1.0000 0.20793  0.63683  0.95479  Biso   1.000  O 
  O23      1.0000 0.73344  0.12039  0.97494  Biso   1.000  O 
  O24      1.0000 0.72801  0.60055  0.03454  Biso   1.000  O 
  O25      1.0000 0.24445  0.36910  0.06213  Biso   1.000  O 
  O26      1.0000 0.20913  0.88770  0.87697  Biso   1.000  O 
  O27      1.0000 0.73074  0.37003  0.98633  Biso   1.000  O 
  O28      1.0000 0.70831  0.84536  0.11526  Biso   1.000  O 
  O29      1.0000 0.20834  0.44178  0.56577  Biso   1.000  O 
  O30      1.0000 0.35063  0.90388  0.44907  Biso   1.000  O 
  O31      1.0000 0.71876  0.41611  0.50494  Biso   1.000  O 
  O32      1.0000 0.69133  0.93253  0.59638  Biso   1.000  O 
