data_image0
_cell_length_a       10.1137
_cell_length_b       10.386
_cell_length_c       5.25216
_cell_angle_alpha    90
_cell_angle_beta     90
_cell_angle_gamma    90

_symmetry_space_group_name_H-M    "P 1"
_symmetry_int_tables_number       1

loop_
  _symmetry_equiv_pos_as_xyz
  'x, y, z'

loop_
  _atom_site_label
  _atom_site_occupancy
  _atom_site_fract_x
  _atom_site_fract_y
  _atom_site_fract_z
  _atom_site_thermal_displace_type
  _atom_site_B_iso_or_equiv
  _atom_site_type_symbol
  Rb1      1.0000 0.08243  0.98915  0.29742  Biso   1.000  Rb
  Hf1      1.0000 0.14218  0.52246  0.34169  Biso   1.000  Hf
  Hf2      1.0000 0.13659  0.23537  0.84726  Biso   1.000  Hf
  Hf3      1.0000 0.14800  0.73297  0.82994  Biso   1.000  Hf
  Hf4      1.0000 0.35201  0.26616  0.34330  Biso   1.000  Hf
  Hf5      1.0000 0.36073  0.77435  0.33291  Biso   1.000  Hf
  Hf6      1.0000 0.35625  0.47935  0.84039  Biso   1.000  Hf
  Hf7      1.0000 0.35483  0.98365  0.82901  Biso   1.000  Hf
  Hf8      1.0000 0.63224  0.03173  0.16000  Biso   1.000  Hf
  Hf9      1.0000 0.62991  0.51634  0.15723  Biso   1.000  Hf
  Hf10     1.0000 0.63553  0.23856  0.65801  Biso   1.000  Hf
  Hf11     1.0000 0.62815  0.72724  0.65398  Biso   1.000  Hf
  Hf12     1.0000 0.86117  0.28006  0.15725  Biso   1.000  Hf
  Hf13     1.0000 0.86539  0.74315  0.11058  Biso   1.000  Hf
  Hf14     1.0000 0.86129  0.48350  0.64622  Biso   1.000  Hf
  Hf15     1.0000 0.85116  0.99800  0.71313  Biso   1.000  Hf
  O1       1.0000 0.04093  0.21308  0.19769  Biso   1.000  O 
  O2       1.0000 0.04473  0.68103  0.18246  Biso   1.000  O 
  O3       1.0000 0.02356  0.08424  0.76596  Biso   1.000  O 
  O4       1.0000 0.03192  0.58674  0.67227  Biso   1.000  O 
  O5       1.0000 0.46504  0.41049  0.16295  Biso   1.000  O 
  O6       1.0000 0.47028  0.91553  0.15618  Biso   1.000  O 
  O7       1.0000 0.46545  0.34161  0.65917  Biso   1.000  O 
  O8       1.0000 0.47630  0.84806  0.64540  Biso   1.000  O 
  O9       1.0000 0.27912  0.13268  0.60190  Biso   1.000  O 
  O10      1.0000 0.27756  0.62197  0.58361  Biso   1.000  O 
  O11      1.0000 0.29030  0.13401  0.06598  Biso   1.000  O 
  O12      1.0000 0.27569  0.61819  0.08624  Biso   1.000  O 
  O13      1.0000 0.21937  0.37749  0.58742  Biso   1.000  O 
  O14      1.0000 0.23452  0.86373  0.58462  Biso   1.000  O 
  O15      1.0000 0.22264  0.37894  0.08870  Biso   1.000  O 
  O16      1.0000 0.24565  0.85831  0.05590  Biso   1.000  O 
  O17      1.0000 0.53294  0.17128  0.33495  Biso   1.000  O 
  O18      1.0000 0.52847  0.66103  0.33829  Biso   1.000  O 
  O19      1.0000 0.53642  0.09130  0.82776  Biso   1.000  O 
  O20      1.0000 0.52446  0.59179  0.84026  Biso   1.000  O 
  O21      1.0000 0.95871  0.43894  0.30702  Biso   1.000  O 
  O22      1.0000 0.84507  0.89121  0.37204  Biso   1.000  O 
  O23      1.0000 0.95851  0.33802  0.81091  Biso   1.000  O 
  O24      1.0000 0.97007  0.83960  0.83129  Biso   1.000  O 
  O25      1.0000 0.76977  0.13793  0.93388  Biso   1.000  O 
  O26      1.0000 0.76818  0.62153  0.89527  Biso   1.000  O 
  O27      1.0000 0.78006  0.13224  0.43145  Biso   1.000  O 
  O28      1.0000 0.76881  0.63199  0.40057  Biso   1.000  O 
  O29      1.0000 0.71847  0.38348  0.90430  Biso   1.000  O 
  O30      1.0000 0.72386  0.87631  0.92322  Biso   1.000  O 
  O31      1.0000 0.72312  0.38017  0.40597  Biso   1.000  O 
  O32      1.0000 0.70362  0.89055  0.42545  Biso   1.000  O 
