data_image0
_cell_length_a       10.1571
_cell_length_b       10.3094
_cell_length_c       10.5459
_cell_angle_alpha    90
_cell_angle_beta     80
_cell_angle_gamma    90

_symmetry_space_group_name_H-M    "P 1"
_symmetry_int_tables_number       1

loop_
  _symmetry_equiv_pos_as_xyz
  'x, y, z'

loop_
  _atom_site_label
  _atom_site_occupancy
  _atom_site_fract_x
  _atom_site_fract_y
  _atom_site_fract_z
  _atom_site_thermal_displace_type
  _atom_site_B_iso_or_equiv
  _atom_site_type_symbol
  Hf1      1.0000 0.13290  0.02073  0.14430  Biso   1.000  Hf
  Hf2      1.0000 0.13451  0.22636  0.39278  Biso   1.000  Hf
  Hf3      1.0000 0.34749  0.27305  0.08525  Biso   1.000  Hf
  Hf4      1.0000 0.36025  0.49070  0.35662  Biso   1.000  Hf
  O1       1.0000 0.03219  0.16709  0.07475  Biso   1.000  O 
  O2       1.0000 0.02829  0.08262  0.32808  Biso   1.000  O 
  O3       1.0000 0.45706  0.43251  0.15972  Biso   1.000  O 
  O4       1.0000 0.48376  0.37463  0.45265  Biso   1.000  O 
  O5       1.0000 0.26288  0.12621  0.23142  Biso   1.000  O 
  O6       1.0000 0.28410  0.12247  0.48193  Biso   1.000  O 
  O7       1.0000 0.21491  0.38332  0.00441  Biso   1.000  O 
  O8       1.0000 0.22419  0.37124  0.25769  Biso   1.000  O 
  Hf5      1.0000 0.14388  0.02300  0.64275  Biso   1.000  Hf
  Hf6      1.0000 0.13706  0.22964  0.88968  Biso   1.000  Hf
  Hf7      1.0000 0.36629  0.28093  0.60622  Biso   1.000  Hf
  Hf8      1.0000 0.36266  0.48339  0.85512  Biso   1.000  Hf
  O9       1.0000 0.04082  0.16841  0.57737  Biso   1.000  O 
  O10      1.0000 0.03663  0.08427  0.82435  Biso   1.000  O 
  O11      1.0000 0.47084  0.41484  0.68662  Biso   1.000  O 
  O12      1.0000 0.46829  0.33554  0.91955  Biso   1.000  O 
  O13      1.0000 0.27835  0.13038  0.73592  Biso   1.000  O 
  O14      1.0000 0.27578  0.12465  0.98199  Biso   1.000  O 
  O15      1.0000 0.22758  0.37922  0.50706  Biso   1.000  O 
  O16      1.0000 0.22609  0.37426  0.75797  Biso   1.000  O 
  Hf9      1.0000 0.13764  0.52267  0.14861  Biso   1.000  Hf
  Hf10     1.0000 0.13576  0.73020  0.39663  Biso   1.000  Hf
  Hf11     1.0000 0.35829  0.77404  0.10400  Biso   1.000  Hf
  Hf12     1.0000 0.36402  0.96671  0.35737  Biso   1.000  Hf
  O17      1.0000 0.03240  0.66587  0.07872  Biso   1.000  O 
  O18      1.0000 0.03345  0.58344  0.32890  Biso   1.000  O 
  O19      1.0000 0.46342  0.91801  0.17458  Biso   1.000  O 
  O20      1.0000 0.46234  0.82289  0.42401  Biso   1.000  O 
  O21      1.0000 0.27348  0.63248  0.24224  Biso   1.000  O 
  O22      1.0000 0.27390  0.62437  0.49208  Biso   1.000  O 
  O23      1.0000 0.22078  0.88041  0.00986  Biso   1.000  O 
  O24      1.0000 0.22091  0.87096  0.26070  Biso   1.000  O 
  Hf13     1.0000 0.13967  0.52283  0.64574  Biso   1.000  Hf
  Hf14     1.0000 0.14004  0.72980  0.89663  Biso   1.000  Hf
  Hf15     1.0000 0.36263  0.77044  0.60671  Biso   1.000  Hf
  Hf16     1.0000 0.36194  0.98033  0.85134  Biso   1.000  Hf
  O25      1.0000 0.03366  0.66712  0.57837  Biso   1.000  O 
  O26      1.0000 0.03629  0.58551  0.82748  Biso   1.000  O 
  O27      1.0000 0.46633  0.91749  0.67027  Biso   1.000  O 
  O28      1.0000 0.46714  0.83781  0.92128  Biso   1.000  O 
  O29      1.0000 0.27803  0.62885  0.74115  Biso   1.000  O 
  O30      1.0000 0.27909  0.62589  0.99225  Biso   1.000  O 
  O31      1.0000 0.22441  0.87806  0.51141  Biso   1.000  O 
  O32      1.0000 0.22503  0.87167  0.75997  Biso   1.000  O 
  Hf17     1.0000 0.64209  0.01643  0.14799  Biso   1.000  Hf
  Hf18     1.0000 0.65732  0.22944  0.41074  Biso   1.000  Hf
  Hf19     1.0000 0.85898  0.27247  0.10578  Biso   1.000  Hf
  Hf20     1.0000 0.86089  0.47850  0.35413  Biso   1.000  Hf
  O33      1.0000 0.53000  0.15929  0.07178  Biso   1.000  O 
  O34      1.0000 0.55865  0.05301  0.34604  Biso   1.000  O 
  O35      1.0000 0.96492  0.41625  0.17309  Biso   1.000  O 
  O36      1.0000 0.96552  0.33267  0.42274  Biso   1.000  O 
  O37      1.0000 0.77791  0.13008  0.24149  Biso   1.000  O 
  O38      1.0000 0.78631  0.11910  0.49728  Biso   1.000  O 
  O39      1.0000 0.72069  0.37808  0.01283  Biso   1.000  O 
  O40      1.0000 0.71986  0.37100  0.26285  Biso   1.000  O 
  Hf21     1.0000 0.64081  0.02235  0.64640  Biso   1.000  Hf
  Hf22     1.0000 0.64204  0.22722  0.89675  Biso   1.000  Hf
  Hf23     1.0000 0.86698  0.27244  0.60934  Biso   1.000  Hf
  Hf24     1.0000 0.86232  0.48054  0.85543  Biso   1.000  Hf
  O41      1.0000 0.53885  0.17065  0.58051  Biso   1.000  O 
  O42      1.0000 0.53605  0.08553  0.82494  Biso   1.000  O 
  O43      1.0000 0.96940  0.41779  0.67373  Biso   1.000  O 
  O44      1.0000 0.96577  0.33485  0.92088  Biso   1.000  O 
  O45      1.0000 0.77921  0.12965  0.74302  Biso   1.000  O 
  O46      1.0000 0.78058  0.12235  0.99128  Biso   1.000  O 
  O47      1.0000 0.73167  0.37891  0.51665  Biso   1.000  O 
  O48      1.0000 0.72788  0.37260  0.76324  Biso   1.000  O 
  Hf25     1.0000 0.63402  0.52416  0.14391  Biso   1.000  Hf
  Hf26     1.0000 0.64082  0.72616  0.39672  Biso   1.000  Hf
  Hf27     1.0000 0.85883  0.76879  0.10449  Biso   1.000  Hf
  Hf28     1.0000 0.85641  0.97603  0.35440  Biso   1.000  Hf
  O49      1.0000 0.53425  0.67443  0.07813  Biso   1.000  O 
  O50      1.0000 0.53326  0.59087  0.32222  Biso   1.000  O 
  O51      1.0000 0.96065  0.91429  0.17372  Biso   1.000  O 
  O52      1.0000 0.96363  0.83329  0.42236  Biso   1.000  O 
  O53      1.0000 0.77681  0.62594  0.24036  Biso   1.000  O 
  O54      1.0000 0.77627  0.62017  0.49034  Biso   1.000  O 
  O55      1.0000 0.72226  0.87825  0.01031  Biso   1.000  O 
  O56      1.0000 0.72365  0.86491  0.25813  Biso   1.000  O 
  Hf29     1.0000 0.64019  0.52230  0.64871  Biso   1.000  Hf
  Hf30     1.0000 0.63988  0.73198  0.89583  Biso   1.000  Hf
  Hf31     1.0000 0.86190  0.77311  0.60498  Biso   1.000  Hf
  Hf32     1.0000 0.86305  0.97918  0.85381  Biso   1.000  Hf
  O57      1.0000 0.53468  0.66418  0.57954  Biso   1.000  O 
  O58      1.0000 0.53585  0.58774  0.83010  Biso   1.000  O 
  O59      1.0000 0.96740  0.91752  0.67159  Biso   1.000  O 
  O60      1.0000 0.96825  0.83506  0.92229  Biso   1.000  O 
  O61      1.0000 0.77740  0.63031  0.74011  Biso   1.000  O 
  O62      1.0000 0.77765  0.62283  0.98914  Biso   1.000  O 
  O63      1.0000 0.72314  0.87736  0.51106  Biso   1.000  O 
  O64      1.0000 0.72537  0.87355  0.76013  Biso   1.000  O 
  Rb1      1.0000 0.44896  0.23632  0.28948  Biso   1.000  Rb
