data_image0
_cell_length_a       10.0794
_cell_length_b       10.3453
_cell_length_c       5.16002
_cell_angle_alpha    90
_cell_angle_beta     90
_cell_angle_gamma    90

_symmetry_space_group_name_H-M    "P 1"
_symmetry_int_tables_number       1

loop_
  _symmetry_equiv_pos_as_xyz
  'x, y, z'

loop_
  _atom_site_label
  _atom_site_occupancy
  _atom_site_fract_x
  _atom_site_fract_y
  _atom_site_fract_z
  _atom_site_thermal_displace_type
  _atom_site_B_iso_or_equiv
  _atom_site_type_symbol
  Hf1      1.0000 0.04618  0.96644  0.22886  Biso   1.000  Hf
  Hf2      1.0000 0.10030  0.20736  0.61677  Biso   1.000  Hf
  Hf3      1.0000 0.37408  0.25682  0.20780  Biso   1.000  Hf
  Hf4      1.0000 0.31871  0.49378  0.74208  Biso   1.000  Hf
  O1       1.0000 0.96163  0.10540  0.36930  Biso   1.000  O 
  O2       1.0000 0.01840  0.07491  0.88172  Biso   1.000  O 
  O3       1.0000 0.42128  0.42974  0.43266  Biso   1.000  O 
  O4       1.0000 0.47215  0.38181  0.96182  Biso   1.000  O 
  O5       1.0000 0.22010  0.13114  0.34933  Biso   1.000  O 
  O6       1.0000 0.25376  0.19229  0.85870  Biso   1.000  O 
  O7       1.0000 0.25183  0.41254  0.06742  Biso   1.000  O 
  O8       1.0000 0.15722  0.39255  0.54082  Biso   1.000  O 
  Hf5      1.0000 0.10459  0.53704  0.26872  Biso   1.000  Hf
  Hf6      1.0000 0.06529  0.75616  0.74958  Biso   1.000  Hf
  Hf7      1.0000 0.32115  0.78769  0.27172  Biso   1.000  Hf
  Hf8      1.0000 0.37385  0.02668  0.73965  Biso   1.000  Hf
  O9       1.0000 0.96822  0.65461  0.45920  Biso   1.000  O 
  O10      1.0000 0.98284  0.56852  0.90311  Biso   1.000  O 
  O11      1.0000 0.43064  0.93351  0.46016  Biso   1.000  O 
  O12      1.0000 0.43326  0.87802  0.96255  Biso   1.000  O 
  O13      1.0000 0.22346  0.64067  0.53647  Biso   1.000  O 
  O14      1.0000 0.21208  0.66680  0.04419  Biso   1.000  O 
  O15      1.0000 0.21230  0.91376  0.01271  Biso   1.000  O 
  O16      1.0000 0.18197  0.88177  0.51148  Biso   1.000  O 
  Hf9      1.0000 0.57858  0.98495  0.19067  Biso   1.000  Hf
  Hf10     1.0000 0.60393  0.25492  0.77040  Biso   1.000  Hf
  Hf11     1.0000 0.80976  0.26355  0.28541  Biso   1.000  Hf
  Hf12     1.0000 0.84202  0.48895  0.67586  Biso   1.000  Hf
  O17      1.0000 0.45449  0.18709  0.54095  Biso   1.000  O 
  O18      1.0000 0.50272  0.11548  0.03879  Biso   1.000  O 
  O19      1.0000 0.91798  0.44003  0.32442  Biso   1.000  O 
  O20      1.0000 0.90133  0.28354  0.65632  Biso   1.000  O 
  O21      1.0000 0.70368  0.12031  0.48930  Biso   1.000  O 
  O22      1.0000 0.74027  0.14299  0.99105  Biso   1.000  O 
  O23      1.0000 0.72753  0.39521  0.95971  Biso   1.000  O 
  O24      1.0000 0.66949  0.37319  0.46228  Biso   1.000  O 
  Hf13     1.0000 0.57321  0.52186  0.23339  Biso   1.000  Hf
  Hf14     1.0000 0.57119  0.75416  0.74620  Biso   1.000  Hf
  Hf15     1.0000 0.81334  0.75221  0.27517  Biso   1.000  Hf
  Hf16     1.0000 0.84886  0.02164  0.69799  Biso   1.000  Hf
  O25      1.0000 0.48280  0.68364  0.39989  Biso   1.000  O 
  O26      1.0000 0.44589  0.62166  0.90620  Biso   1.000  O 
  O27      1.0000 0.92740  0.88281  0.53235  Biso   1.000  O 
  O28      1.0000 0.97041  0.80579  0.04370  Biso   1.000  O 
  O29      1.0000 0.70945  0.61941  0.52300  Biso   1.000  O 
  O30      1.0000 0.70940  0.63833  0.02363  Biso   1.000  O 
  O31      1.0000 0.69277  0.89647  0.96710  Biso   1.000  O 
  O32      1.0000 0.68245  0.87253  0.46826  Biso   1.000  O 
  Rb1      1.0000 0.05271  0.28676  0.06283  Biso   1.000  Rb
