data_image0
_cell_length_a       5.01537
_cell_length_b       10.4282
_cell_length_c       10.1417
_cell_angle_alpha    90
_cell_angle_beta     90
_cell_angle_gamma    90

_symmetry_space_group_name_H-M    "P 1"
_symmetry_int_tables_number       1

loop_
  _symmetry_equiv_pos_as_xyz
  'x, y, z'

loop_
  _atom_site_label
  _atom_site_occupancy
  _atom_site_fract_x
  _atom_site_fract_y
  _atom_site_fract_z
  _atom_site_thermal_displace_type
  _atom_site_B_iso_or_equiv
  _atom_site_type_symbol
  Rb1      1.0000 0.20835  0.99231  0.12658  Biso   1.000  Rb
  Hf1      1.0000 0.26504  0.02715  0.63498  Biso   1.000  Hf
  Hf2      1.0000 0.27974  0.51326  0.13229  Biso   1.000  Hf
  Hf3      1.0000 0.28448  0.52292  0.62503  Biso   1.000  Hf
  Hf4      1.0000 0.27678  0.23853  0.37638  Biso   1.000  Hf
  Hf5      1.0000 0.29571  0.23706  0.87640  Biso   1.000  Hf
  Hf6      1.0000 0.27734  0.73459  0.37940  Biso   1.000  Hf
  Hf7      1.0000 0.30028  0.73933  0.86900  Biso   1.000  Hf
  Hf8      1.0000 0.72542  0.26364  0.13035  Biso   1.000  Hf
  Hf9      1.0000 0.74522  0.27640  0.62500  Biso   1.000  Hf
  Hf10     1.0000 0.78365  0.72344  0.08084  Biso   1.000  Hf
  Hf11     1.0000 0.74926  0.77310  0.62209  Biso   1.000  Hf
  Hf12     1.0000 0.74248  0.48928  0.37592  Biso   1.000  Hf
  Hf13     1.0000 0.74698  0.47926  0.87514  Biso   1.000  Hf
  Hf14     1.0000 0.73606  0.99913  0.39853  Biso   1.000  Hf
  Hf15     1.0000 0.74435  0.99114  0.87152  Biso   1.000  Hf
  O1       1.0000 0.07714  0.21432  0.20303  Biso   1.000  O 
  O2       1.0000 0.09630  0.20259  0.68089  Biso   1.000  O 
  O3       1.0000 0.11094  0.69447  0.19782  Biso   1.000  O 
  O4       1.0000 0.08955  0.69064  0.69290  Biso   1.000  O 
  O5       1.0000 0.08418  0.07197  0.44289  Biso   1.000  O 
  O6       1.0000 0.09695  0.07199  0.88427  Biso   1.000  O 
  O7       1.0000 0.08755  0.57265  0.44463  Biso   1.000  O 
  O8       1.0000 0.03494  0.59464  0.96700  Biso   1.000  O 
  O9       1.0000 0.92629  0.44485  0.19434  Biso   1.000  O 
  O10      1.0000 0.94751  0.44335  0.69811  Biso   1.000  O 
  O11      1.0000 0.77007  0.88725  0.20939  Biso   1.000  O 
  O12      1.0000 0.92481  0.94320  0.67894  Biso   1.000  O 
  O13      1.0000 0.94086  0.32710  0.44778  Biso   1.000  O 
  O14      1.0000 0.95636  0.32691  0.94524  Biso   1.000  O 
  O15      1.0000 0.94757  0.82325  0.44647  Biso   1.000  O 
  O16      1.0000 0.99143  0.83766  0.93995  Biso   1.000  O 
  O17      1.0000 0.58331  0.13253  0.26694  Biso   1.000  O 
  O18      1.0000 0.56166  0.12952  0.74815  Biso   1.000  O 
  O19      1.0000 0.56175  0.62018  0.24301  Biso   1.000  O 
  O20      1.0000 0.56200  0.62369  0.74559  Biso   1.000  O 
  O21      1.0000 0.54178  0.13955  0.51038  Biso   1.000  O 
  O22      1.0000 0.58593  0.13878  0.99448  Biso   1.000  O 
  O23      1.0000 0.55703  0.63800  0.49657  Biso   1.000  O 
  O24      1.0000 0.52725  0.61643  0.98897  Biso   1.000  O 
  O25      1.0000 0.47381  0.39028  0.50146  Biso   1.000  O 
  O26      1.0000 0.45925  0.37677  0.00383  Biso   1.000  O 
  O27      1.0000 0.46248  0.88857  0.50714  Biso   1.000  O 
  O28      1.0000 0.52718  0.85653  0.98933  Biso   1.000  O 
  O29      1.0000 0.46652  0.37646  0.25464  Biso   1.000  O 
  O30      1.0000 0.47429  0.37652  0.75151  Biso   1.000  O 
  O31      1.0000 0.52552  0.87214  0.27216  Biso   1.000  O 
  O32      1.0000 0.47330  0.87758  0.74858  Biso   1.000  O 
