data_image0
_cell_length_a       10.2073
_cell_length_b       10.4057
_cell_length_c       5.26465
_cell_angle_alpha    90
_cell_angle_beta     80
_cell_angle_gamma    90

_symmetry_space_group_name_H-M    "P 1"
_symmetry_int_tables_number       1

loop_
  _symmetry_equiv_pos_as_xyz
  'x, y, z'

loop_
  _atom_site_label
  _atom_site_occupancy
  _atom_site_fract_x
  _atom_site_fract_y
  _atom_site_fract_z
  _atom_site_thermal_displace_type
  _atom_site_B_iso_or_equiv
  _atom_site_type_symbol
  Rb1      1.0000 0.07997  0.99122  0.27020  Biso   1.000  Rb
  Hf1      1.0000 0.14119  0.52249  0.28683  Biso   1.000  Hf
  Hf2      1.0000 0.63609  0.03141  0.29746  Biso   1.000  Hf
  Hf3      1.0000 0.62807  0.51567  0.28917  Biso   1.000  Hf
  Hf4      1.0000 0.13357  0.23550  0.79732  Biso   1.000  Hf
  Hf5      1.0000 0.14623  0.73247  0.77815  Biso   1.000  Hf
  Hf6      1.0000 0.63114  0.23787  0.79613  Biso   1.000  Hf
  Hf7      1.0000 0.62298  0.72503  0.78835  Biso   1.000  Hf
  Hf8      1.0000 0.35150  0.26512  0.20796  Biso   1.000  Hf
  Hf9      1.0000 0.36182  0.77605  0.20149  Biso   1.000  Hf
  Hf10     1.0000 0.85980  0.27941  0.20864  Biso   1.000  Hf
  Hf11     1.0000 0.86382  0.74158  0.15376  Biso   1.000  Hf
  Hf12     1.0000 0.35291  0.47802  0.70478  Biso   1.000  Hf
  Hf13     1.0000 0.35091  0.98462  0.69736  Biso   1.000  Hf
  Hf14     1.0000 0.85934  0.48238  0.69416  Biso   1.000  Hf
  Hf15     1.0000 0.84958  0.99524  0.76420  Biso   1.000  Hf
  O1       1.0000 0.04193  0.21521  0.17974  Biso   1.000  O 
  O2       1.0000 0.04533  0.68067  0.16486  Biso   1.000  O 
  O3       1.0000 0.53109  0.16976  0.15475  Biso   1.000  O 
  O4       1.0000 0.53247  0.66297  0.14555  Biso   1.000  O 
  O5       1.0000 0.02358  0.08386  0.75324  Biso   1.000  O 
  O6       1.0000 0.03072  0.58676  0.65942  Biso   1.000  O 
  O7       1.0000 0.53629  0.09105  0.65245  Biso   1.000  O 
  O8       1.0000 0.52435  0.58456  0.64908  Biso   1.000  O 
  O9       1.0000 0.45907  0.41322  0.34346  Biso   1.000  O 
  O10      1.0000 0.46754  0.91833  0.34036  Biso   1.000  O 
  O11      1.0000 0.95425  0.44060  0.32012  Biso   1.000  O 
  O12      1.0000 0.84668  0.88240  0.43520  Biso   1.000  O 
  O13      1.0000 0.46134  0.34044  0.84435  Biso   1.000  O 
  O14      1.0000 0.47441  0.84704  0.83877  Biso   1.000  O 
  O15      1.0000 0.95377  0.33674  0.82395  Biso   1.000  O 
  O16      1.0000 0.96771  0.83979  0.84410  Biso   1.000  O 
  O17      1.0000 0.28028  0.13679  0.49705  Biso   1.000  O 
  O18      1.0000 0.27514  0.62618  0.46972  Biso   1.000  O 
  O19      1.0000 0.78302  0.13326  0.49344  Biso   1.000  O 
  O20      1.0000 0.76165  0.63520  0.46756  Biso   1.000  O 
  O21      1.0000 0.28180  0.13468  0.96081  Biso   1.000  O 
  O22      1.0000 0.27261  0.62162  0.97370  Biso   1.000  O 
  O23      1.0000 0.77039  0.12938  0.00239  Biso   1.000  O 
  O24      1.0000 0.76624  0.62042  0.96223  Biso   1.000  O 
  O25      1.0000 0.22397  0.38187  0.01392  Biso   1.000  O 
  O26      1.0000 0.23830  0.86970  0.98317  Biso   1.000  O 
  O27      1.0000 0.72047  0.38177  0.01458  Biso   1.000  O 
  O28      1.0000 0.72782  0.87903  0.03827  Biso   1.000  O 
  O29      1.0000 0.21500  0.37539  0.51537  Biso   1.000  O 
  O30      1.0000 0.23515  0.86100  0.51215  Biso   1.000  O 
  O31      1.0000 0.71955  0.37511  0.51546  Biso   1.000  O 
  O32      1.0000 0.70596  0.88799  0.54801  Biso   1.000  O 
