data_image0
_cell_length_a       10.1231
_cell_length_b       5.16301
_cell_length_c       10.6406
_cell_angle_alpha    90
_cell_angle_beta     90
_cell_angle_gamma    90

_symmetry_space_group_name_H-M    "P 1"
_symmetry_int_tables_number       1

loop_
  _symmetry_equiv_pos_as_xyz
  'x, y, z'

loop_
  _atom_site_label
  _atom_site_occupancy
  _atom_site_fract_x
  _atom_site_fract_y
  _atom_site_fract_z
  _atom_site_thermal_displace_type
  _atom_site_B_iso_or_equiv
  _atom_site_type_symbol
  Hf1      1.0000 0.13630  0.04693  0.17412  Biso   1.000  Hf
  Hf2      1.0000 0.12582  0.46505  0.42464  Biso   1.000  Hf
  Hf3      1.0000 0.34587  0.55226  0.18752  Biso   1.000  Hf
  Hf4      1.0000 0.35191  0.96621  0.42788  Biso   1.000  Hf
  Hf5      1.0000 0.63408  0.05081  0.09294  Biso   1.000  Hf
  Hf6      1.0000 0.62925  0.46525  0.33515  Biso   1.000  Hf
  Hf7      1.0000 0.87585  0.55408  0.07495  Biso   1.000  Hf
  Hf8      1.0000 0.85447  0.96971  0.32848  Biso   1.000  Hf
  O1       1.0000 0.03454  0.31790  0.07612  Biso   1.000  O 
  O2       1.0000 0.02063  0.19416  0.32714  Biso   1.000  O 
  O3       1.0000 0.44630  0.86941  0.10694  Biso   1.000  O 
  O4       1.0000 0.45694  0.67849  0.34198  Biso   1.000  O 
  O5       1.0000 0.26228  0.25613  0.30108  Biso   1.000  O 
  O6       1.0000 0.27793  0.25886  0.04671  Biso   1.000  O 
  O7       1.0000 0.21318  0.75862  0.30348  Biso   1.000  O 
  O8       1.0000 0.21865  0.75415  0.05010  Biso   1.000  O 
  O9       1.0000 0.51404  0.31921  0.19275  Biso   1.000  O 
  O10      1.0000 0.52100  0.17913  0.42393  Biso   1.000  O 
  O11      1.0000 0.96825  0.82716  0.17750  Biso   1.000  O 
  O12      1.0000 0.95916  0.69335  0.42323  Biso   1.000  O 
  O13      1.0000 0.76626  0.25529  0.44933  Biso   1.000  O 
  O14      1.0000 0.76853  0.27168  0.19879  Biso   1.000  O 
  O15      1.0000 0.71559  0.75304  0.46038  Biso   1.000  O 
  O16      1.0000 0.71391  0.76312  0.21512  Biso   1.000  O 
  Hf9      1.0000 0.12601  0.05812  0.67360  Biso   1.000  Hf
  Hf10     1.0000 0.12552  0.48917  0.92111  Biso   1.000  Hf
  Hf11     1.0000 0.34410  0.55994  0.67280  Biso   1.000  Hf
  Hf12     1.0000 0.34046  0.99084  0.92637  Biso   1.000  Hf
  Hf13     1.0000 0.62896  0.04124  0.57260  Biso   1.000  Hf
  Hf14     1.0000 0.62539  0.44859  0.79459  Biso   1.000  Hf
  Hf15     1.0000 0.85548  0.56277  0.57986  Biso   1.000  Hf
  Hf16     1.0000 0.85254  0.00036  0.83190  Biso   1.000  Hf
  O17      1.0000 0.01949  0.33555  0.57897  Biso   1.000  O 
  O18      1.0000 0.02048  0.21042  0.82695  Biso   1.000  O 
  O19      1.0000 0.45889  0.82633  0.58101  Biso   1.000  O 
  O20      1.0000 0.45123  0.68670  0.82380  Biso   1.000  O 
  O21      1.0000 0.26297  0.26828  0.79667  Biso   1.000  O 
  O22      1.0000 0.26143  0.26163  0.54732  Biso   1.000  O 
  O23      1.0000 0.21050  0.77152  0.79800  Biso   1.000  O 
  O24      1.0000 0.21226  0.76402  0.54960  Biso   1.000  O 
  O25      1.0000 0.51107  0.32054  0.65950  Biso   1.000  O 
  O26      1.0000 0.52002  0.16113  0.91953  Biso   1.000  O 
  O27      1.0000 0.95896  0.83945  0.67273  Biso   1.000  O 
  O28      1.0000 0.96261  0.71352  0.91910  Biso   1.000  O 
  O29      1.0000 0.76496  0.33711  0.93151  Biso   1.000  O 
  O30      1.0000 0.76669  0.25526  0.68728  Biso   1.000  O 
  O31      1.0000 0.74689  0.87218  0.98164  Biso   1.000  O 
  O32      1.0000 0.71449  0.76408  0.71296  Biso   1.000  O 
  Rb1      1.0000 0.58370  0.55376  0.01754  Biso   1.000  Rb
