data_image0
_cell_length_a       10.0548
_cell_length_b       10.2805
_cell_length_c       10.4904
_cell_angle_alpha    90
_cell_angle_beta     90
_cell_angle_gamma    90

_symmetry_space_group_name_H-M    "P 1"
_symmetry_int_tables_number       1

loop_
  _symmetry_equiv_pos_as_xyz
  'x, y, z'

loop_
  _atom_site_label
  _atom_site_occupancy
  _atom_site_fract_x
  _atom_site_fract_y
  _atom_site_fract_z
  _atom_site_thermal_displace_type
  _atom_site_B_iso_or_equiv
  _atom_site_type_symbol
  Hf1      1.0000 0.13924  0.02099  0.17131  Biso   1.000  Hf
  Hf2      1.0000 0.13312  0.23243  0.42211  Biso   1.000  Hf
  Hf3      1.0000 0.35663  0.26769  0.17644  Biso   1.000  Hf
  Hf4      1.0000 0.35745  0.48292  0.42304  Biso   1.000  Hf
  Hf5      1.0000 0.63671  0.01399  0.06767  Biso   1.000  Hf
  Hf6      1.0000 0.62925  0.23186  0.34398  Biso   1.000  Hf
  Hf7      1.0000 0.87635  0.27061  0.07197  Biso   1.000  Hf
  Hf8      1.0000 0.86073  0.48309  0.33117  Biso   1.000  Hf
  O1       1.0000 0.04015  0.16384  0.07869  Biso   1.000  O 
  O2       1.0000 0.02428  0.09300  0.32757  Biso   1.000  O 
  O3       1.0000 0.47015  0.42077  0.08532  Biso   1.000  O 
  O4       1.0000 0.45633  0.33203  0.34347  Biso   1.000  O 
  O5       1.0000 0.26715  0.12543  0.29787  Biso   1.000  O 
  O6       1.0000 0.27851  0.12192  0.04289  Biso   1.000  O 
  O7       1.0000 0.21859  0.37699  0.29590  Biso   1.000  O 
  O8       1.0000 0.22616  0.37550  0.04343  Biso   1.000  O 
  O9       1.0000 0.50856  0.13009  0.18752  Biso   1.000  O 
  O10      1.0000 0.52622  0.08802  0.42904  Biso   1.000  O 
  O11      1.0000 0.96692  0.41612  0.16842  Biso   1.000  O 
  O12      1.0000 0.96252  0.33951  0.41946  Biso   1.000  O 
  O13      1.0000 0.77443  0.12406  0.45541  Biso   1.000  O 
  O14      1.0000 0.75486  0.14552  0.19442  Biso   1.000  O 
  O15      1.0000 0.72049  0.37564  0.46247  Biso   1.000  O 
  O16      1.0000 0.71763  0.39683  0.21390  Biso   1.000  O 
  Hf9      1.0000 0.13514  0.02445  0.66987  Biso   1.000  Hf
  Hf10     1.0000 0.13956  0.23133  0.91768  Biso   1.000  Hf
  Hf11     1.0000 0.35951  0.27443  0.67115  Biso   1.000  Hf
  Hf12     1.0000 0.35533  0.48368  0.91920  Biso   1.000  Hf
  Hf13     1.0000 0.63433  0.02403  0.58310  Biso   1.000  Hf
  Hf14     1.0000 0.63294  0.22813  0.83558  Biso   1.000  Hf
  Hf15     1.0000 0.85680  0.27327  0.58259  Biso   1.000  Hf
  Hf16     1.0000 0.85708  0.48406  0.82882  Biso   1.000  Hf
  O17      1.0000 0.02847  0.16788  0.58247  Biso   1.000  O 
  O18      1.0000 0.03243  0.08795  0.83066  Biso   1.000  O 
  O19      1.0000 0.46276  0.42146  0.58633  Biso   1.000  O 
  O20      1.0000 0.46184  0.33857  0.83551  Biso   1.000  O 
  O21      1.0000 0.27392  0.12694  0.79302  Biso   1.000  O 
  O22      1.0000 0.27128  0.12943  0.54511  Biso   1.000  O 
  O23      1.0000 0.22014  0.37736  0.79333  Biso   1.000  O 
  O24      1.0000 0.21976  0.37942  0.54515  Biso   1.000  O 
  O25      1.0000 0.53003  0.17066  0.66819  Biso   1.000  O 
  O26      1.0000 0.52990  0.06867  0.89942  Biso   1.000  O 
  O27      1.0000 0.96183  0.41960  0.66660  Biso   1.000  O 
  O28      1.0000 0.96599  0.33934  0.91180  Biso   1.000  O 
  O29      1.0000 0.78669  0.12137  0.94783  Biso   1.000  O 
  O30      1.0000 0.77250  0.12814  0.70385  Biso   1.000  O 
  O31      1.0000 0.71888  0.38234  0.96560  Biso   1.000  O 
  O32      1.0000 0.72006  0.37891  0.71231  Biso   1.000  O 
  Hf17     1.0000 0.13960  0.52117  0.17132  Biso   1.000  Hf
  Hf18     1.0000 0.13528  0.73178  0.42063  Biso   1.000  Hf
  Hf19     1.0000 0.35883  0.77289  0.17230  Biso   1.000  Hf
  Hf20     1.0000 0.35887  0.98118  0.42404  Biso   1.000  Hf
  Hf21     1.0000 0.64365  0.53959  0.07915  Biso   1.000  Hf
  Hf22     1.0000 0.63722  0.73409  0.33040  Biso   1.000  Hf
  Hf23     1.0000 0.86635  0.77533  0.07865  Biso   1.000  Hf
  Hf24     1.0000 0.85887  0.98200  0.32830  Biso   1.000  Hf
  O33      1.0000 0.03472  0.66507  0.08253  Biso   1.000  O 
  O34      1.0000 0.03128  0.58866  0.33151  Biso   1.000  O 
  O35      1.0000 0.46652  0.90681  0.07629  Biso   1.000  O 
  O36      1.0000 0.46516  0.83966  0.33310  Biso   1.000  O 
  O37      1.0000 0.27380  0.62622  0.29523  Biso   1.000  O 
  O38      1.0000 0.27876  0.62428  0.04514  Biso   1.000  O 
  O39      1.0000 0.22155  0.87574  0.29540  Biso   1.000  O 
  O40      1.0000 0.22199  0.87382  0.04579  Biso   1.000  O 
  O41      1.0000 0.53215  0.67053  0.16956  Biso   1.000  O 
  O42      1.0000 0.53100  0.58743  0.41684  Biso   1.000  O 
  O43      1.0000 0.96631  0.92065  0.16583  Biso   1.000  O 
  O44      1.0000 0.96299  0.83989  0.41440  Biso   1.000  O 
  O45      1.0000 0.77360  0.62655  0.45513  Biso   1.000  O 
  O46      1.0000 0.77931  0.63760  0.20583  Biso   1.000  O 
  O47      1.0000 0.72041  0.87699  0.45621  Biso   1.000  O 
  O48      1.0000 0.72523  0.88217  0.20579  Biso   1.000  O 
  Hf25     1.0000 0.13374  0.52386  0.67019  Biso   1.000  Hf
  Hf26     1.0000 0.13387  0.73202  0.92108  Biso   1.000  Hf
  Hf27     1.0000 0.35747  0.77262  0.67074  Biso   1.000  Hf
  Hf28     1.0000 0.35444  0.97834  0.91857  Biso   1.000  Hf
  Hf29     1.0000 0.63561  0.52361  0.58004  Biso   1.000  Hf
  Hf30     1.0000 0.63431  0.73337  0.82575  Biso   1.000  Hf
  Hf31     1.0000 0.85795  0.77475  0.57802  Biso   1.000  Hf
  Hf32     1.0000 0.86080  0.98200  0.82639  Biso   1.000  Hf
  O49      1.0000 0.02876  0.66814  0.58077  Biso   1.000  O 
  O50      1.0000 0.02799  0.58934  0.83134  Biso   1.000  O 
  O51      1.0000 0.46323  0.91698  0.58609  Biso   1.000  O 
  O52      1.0000 0.45969  0.83137  0.83219  Biso   1.000  O 
  O53      1.0000 0.27111  0.62570  0.79410  Biso   1.000  O 
  O54      1.0000 0.27111  0.62904  0.54446  Biso   1.000  O 
  O55      1.0000 0.21889  0.87580  0.79366  Biso   1.000  O 
  O56      1.0000 0.22085  0.87861  0.54386  Biso   1.000  O 
  O57      1.0000 0.52977  0.66856  0.66487  Biso   1.000  O 
  O58      1.0000 0.52837  0.59056  0.91629  Biso   1.000  O 
  O59      1.0000 0.96565  0.91801  0.66296  Biso   1.000  O 
  O60      1.0000 0.96549  0.83970  0.91646  Biso   1.000  O 
  O61      1.0000 0.77359  0.63153  0.95339  Biso   1.000  O 
  O62      1.0000 0.77306  0.62903  0.70417  Biso   1.000  O 
  O63      1.0000 0.72130  0.87471  0.95294  Biso   1.000  O 
  O64      1.0000 0.72182  0.87792  0.70483  Biso   1.000  O 
  Re1      1.0000 0.60832  0.27132  0.10220  Biso   1.000  Re
