data_image0
_cell_length_a       10.1871
_cell_length_b       10.3038
_cell_length_c       5.27974
_cell_angle_alpha    90
_cell_angle_beta     80
_cell_angle_gamma    90

_symmetry_space_group_name_H-M    "P 1"
_symmetry_int_tables_number       1

loop_
  _symmetry_equiv_pos_as_xyz
  'x, y, z'

loop_
  _atom_site_label
  _atom_site_occupancy
  _atom_site_fract_x
  _atom_site_fract_y
  _atom_site_fract_z
  _atom_site_thermal_displace_type
  _atom_site_B_iso_or_equiv
  _atom_site_type_symbol
  Hf1      1.0000 0.13604  0.02220  0.29351  Biso   1.000  Hf
  Hf2      1.0000 0.14038  0.23704  0.77992  Biso   1.000  Hf
  Hf3      1.0000 0.35329  0.27679  0.17647  Biso   1.000  Hf
  Hf4      1.0000 0.34626  0.48610  0.70850  Biso   1.000  Hf
  O1       1.0000 0.04053  0.16912  0.14972  Biso   1.000  O 
  O2       1.0000 0.03661  0.08643  0.64898  Biso   1.000  O 
  O3       1.0000 0.46958  0.38850  0.39202  Biso   1.000  O 
  O4       1.0000 0.48768  0.36806  0.87761  Biso   1.000  O 
  O5       1.0000 0.28222  0.12600  0.45931  Biso   1.000  O 
  O6       1.0000 0.28897  0.12316  0.94377  Biso   1.000  O 
  O7       1.0000 0.20809  0.38897  0.01737  Biso   1.000  O 
  O8       1.0000 0.20896  0.38068  0.49519  Biso   1.000  O 
  Hf5      1.0000 0.12892  0.52735  0.29178  Biso   1.000  Hf
  Hf6      1.0000 0.12653  0.73209  0.79680  Biso   1.000  Hf
  Hf7      1.0000 0.35164  0.76897  0.20953  Biso   1.000  Hf
  Hf8      1.0000 0.35330  0.96557  0.70569  Biso   1.000  Hf
  O9       1.0000 0.01906  0.66990  0.15651  Biso   1.000  O 
  O10      1.0000 0.02489  0.59080  0.65560  Biso   1.000  O 
  O11      1.0000 0.45916  0.90988  0.34848  Biso   1.000  O 
  O12      1.0000 0.45827  0.82935  0.85192  Biso   1.000  O 
  O13      1.0000 0.26754  0.63031  0.48475  Biso   1.000  O 
  O14      1.0000 0.26480  0.62874  0.98499  Biso   1.000  O 
  O15      1.0000 0.21320  0.87965  0.02370  Biso   1.000  O 
  O16      1.0000 0.21261  0.86936  0.51812  Biso   1.000  O 
  Hf9      1.0000 0.64022  0.02196  0.29251  Biso   1.000  Hf
  Hf10     1.0000 0.64765  0.23310  0.80710  Biso   1.000  Hf
  Hf11     1.0000 0.86347  0.27256  0.21523  Biso   1.000  Hf
  Hf12     1.0000 0.85792  0.48010  0.71502  Biso   1.000  Hf
  O17      1.0000 0.53040  0.16185  0.15360  Biso   1.000  O 
  O18      1.0000 0.54317  0.06871  0.67687  Biso   1.000  O 
  O19      1.0000 0.95932  0.42049  0.34849  Biso   1.000  O 
  O20      1.0000 0.96522  0.33825  0.84595  Biso   1.000  O 
  O21      1.0000 0.77784  0.13030  0.48352  Biso   1.000  O 
  O22      1.0000 0.78354  0.12064  0.98832  Biso   1.000  O 
  O23      1.0000 0.72520  0.37699  0.03625  Biso   1.000  O 
  O24      1.0000 0.72492  0.37406  0.52982  Biso   1.000  O 
  Hf13     1.0000 0.63284  0.51991  0.30175  Biso   1.000  Hf
  Hf14     1.0000 0.63056  0.72519  0.79323  Biso   1.000  Hf
  Hf15     1.0000 0.84834  0.77373  0.21103  Biso   1.000  Hf
  Hf16     1.0000 0.85066  0.98096  0.70977  Biso   1.000  Hf
  O25      1.0000 0.51879  0.65143  0.14763  Biso   1.000  O 
  O26      1.0000 0.52192  0.59291  0.63846  Biso   1.000  O 
  O27      1.0000 0.95529  0.91793  0.34628  Biso   1.000  O 
  O28      1.0000 0.95624  0.83951  0.84861  Biso   1.000  O 
  O29      1.0000 0.76657  0.62853  0.48189  Biso   1.000  O 
  O30      1.0000 0.76801  0.62290  0.98334  Biso   1.000  O 
  O31      1.0000 0.70989  0.87793  0.02430  Biso   1.000  O 
  O32      1.0000 0.71546  0.87104  0.52318  Biso   1.000  O 
  Re1      1.0000 0.41516  0.23373  0.64564  Biso   1.000  Re
