data_image0
_cell_length_a       5.09959
_cell_length_b       10.2767
_cell_length_c       10.5971
_cell_angle_alpha    90
_cell_angle_beta     80
_cell_angle_gamma    90

_symmetry_space_group_name_H-M    "P 1"
_symmetry_int_tables_number       1

loop_
  _symmetry_equiv_pos_as_xyz
  'x, y, z'

loop_
  _atom_site_label
  _atom_site_occupancy
  _atom_site_fract_x
  _atom_site_fract_y
  _atom_site_fract_z
  _atom_site_thermal_displace_type
  _atom_site_B_iso_or_equiv
  _atom_site_type_symbol
  Hf1      1.0000 0.27445  0.02243  0.14631  Biso   1.000  Hf
  Hf2      1.0000 0.30005  0.24269  0.40151  Biso   1.000  Hf
  Hf3      1.0000 0.70997  0.26964  0.09344  Biso   1.000  Hf
  Hf4      1.0000 0.70313  0.48781  0.35697  Biso   1.000  Hf
  O1       1.0000 0.05406  0.15363  0.06514  Biso   1.000  O 
  O2       1.0000 0.09095  0.07197  0.33656  Biso   1.000  O 
  O3       1.0000 0.94505  0.38728  0.19399  Biso   1.000  O 
  O4       1.0000 0.97647  0.36872  0.43900  Biso   1.000  O 
  O5       1.0000 0.56805  0.12413  0.23330  Biso   1.000  O 
  O6       1.0000 0.59577  0.12369  0.47985  Biso   1.000  O 
  O7       1.0000 0.43331  0.37952  0.00699  Biso   1.000  O 
  O8       1.0000 0.43727  0.38238  0.25220  Biso   1.000  O 
  Hf5      1.0000 0.28330  0.02668  0.64417  Biso   1.000  Hf
  Hf6      1.0000 0.28255  0.23316  0.89103  Biso   1.000  Hf
  Hf7      1.0000 0.73573  0.28066  0.60332  Biso   1.000  Hf
  Hf8      1.0000 0.71954  0.48512  0.85483  Biso   1.000  Hf
  O9       1.0000 0.08702  0.17248  0.57659  Biso   1.000  O 
  O10      1.0000 0.07053  0.09329  0.81967  Biso   1.000  O 
  O11      1.0000 0.93851  0.41664  0.68300  Biso   1.000  O 
  O12      1.0000 0.94797  0.34950  0.92598  Biso   1.000  O 
  O13      1.0000 0.55881  0.13338  0.73544  Biso   1.000  O 
  O14      1.0000 0.55813  0.12854  0.98311  Biso   1.000  O 
  O15      1.0000 0.45181  0.38861  0.51986  Biso   1.000  O 
  O16      1.0000 0.45415  0.37752  0.75992  Biso   1.000  O 
  Hf9      1.0000 0.26553  0.52175  0.14745  Biso   1.000  Hf
  Hf10     1.0000 0.25831  0.72846  0.39687  Biso   1.000  Hf
  Hf11     1.0000 0.70344  0.77174  0.10371  Biso   1.000  Hf
  Hf12     1.0000 0.70643  0.96793  0.35423  Biso   1.000  Hf
  O17      1.0000 0.03514  0.65606  0.07284  Biso   1.000  O 
  O18      1.0000 0.04716  0.59571  0.31808  Biso   1.000  O 
  O19      1.0000 0.92161  0.90985  0.17637  Biso   1.000  O 
  O20      1.0000 0.91733  0.83326  0.42774  Biso   1.000  O 
  O21      1.0000 0.53695  0.62884  0.24047  Biso   1.000  O 
  O22      1.0000 0.53262  0.62917  0.49314  Biso   1.000  O 
  O23      1.0000 0.42717  0.87976  0.01258  Biso   1.000  O 
  O24      1.0000 0.43121  0.86797  0.25958  Biso   1.000  O 
  Hf13     1.0000 0.27131  0.52885  0.64943  Biso   1.000  Hf
  Hf14     1.0000 0.26878  0.73399  0.89757  Biso   1.000  Hf
  Hf15     1.0000 0.71104  0.77523  0.60632  Biso   1.000  Hf
  Hf16     1.0000 0.71377  0.98361  0.85207  Biso   1.000  Hf
  O25      1.0000 0.04806  0.66374  0.57542  Biso   1.000  O 
  O26      1.0000 0.05744  0.59721  0.82468  Biso   1.000  O 
  O27      1.0000 0.92614  0.91740  0.67425  Biso   1.000  O 
  O28      1.0000 0.92956  0.84513  0.92541  Biso   1.000  O 
  O29      1.0000 0.54531  0.63394  0.74252  Biso   1.000  O 
  O30      1.0000 0.54517  0.62938  0.99082  Biso   1.000  O 
  O31      1.0000 0.43326  0.88187  0.51132  Biso   1.000  O 
  O32      1.0000 0.43937  0.87705  0.76090  Biso   1.000  O 
  Re1      1.0000 0.83251  0.23479  0.32417  Biso   1.000  Re
