data_image0
_cell_length_a       5.04633
_cell_length_b       10.6152
_cell_length_c       10.0683
_cell_angle_alpha    90
_cell_angle_beta     90
_cell_angle_gamma    90

_symmetry_space_group_name_H-M    "P 1"
_symmetry_int_tables_number       1

loop_
  _symmetry_equiv_pos_as_xyz
  'x, y, z'

loop_
  _atom_site_label
  _atom_site_occupancy
  _atom_site_fract_x
  _atom_site_fract_y
  _atom_site_fract_z
  _atom_site_thermal_displace_type
  _atom_site_B_iso_or_equiv
  _atom_site_type_symbol
  Hf1      1.0000 0.27201  0.92697  0.12644  Biso   1.000  Hf
  Hf2      1.0000 0.29847  0.24836  0.39587  Biso   1.000  Hf
  Hf3      1.0000 0.75697  0.26401  0.12768  Biso   1.000  Hf
  Hf4      1.0000 0.78017  0.99976  0.37834  Biso   1.000  Hf
  O1       1.0000 0.00689  0.09399  0.97750  Biso   1.000  O 
  O2       1.0000 0.04918  0.04759  0.24318  Biso   1.000  O 
  O3       1.0000 0.07888  0.31019  0.23762  Biso   1.000  O 
  O4       1.0000 0.03155  0.33782  0.98833  Biso   1.000  O 
  O5       1.0000 0.57081  0.14609  0.26690  Biso   1.000  O 
  O6       1.0000 0.48995  0.04807  0.01137  Biso   1.000  O 
  O7       1.0000 0.44261  0.31038  0.01197  Biso   1.000  O 
  O8       1.0000 0.54668  0.38867  0.25888  Biso   1.000  O 
  Hf5      1.0000 0.30343  0.95936  0.63416  Biso   1.000  Hf
  Hf6      1.0000 0.24245  0.21081  0.85341  Biso   1.000  Hf
  Hf7      1.0000 0.73352  0.20760  0.63505  Biso   1.000  Hf
  Hf8      1.0000 0.80490  0.95583  0.86666  Biso   1.000  Hf
  O9       1.0000 0.97782  0.16038  0.47877  Biso   1.000  O 
  O10      1.0000 0.01822  0.07392  0.72820  Biso   1.000  O 
  O11      1.0000 0.01804  0.32690  0.72764  Biso   1.000  O 
  O12      1.0000 0.09990  0.41424  0.46864  Biso   1.000  O 
  O13      1.0000 0.52638  0.08824  0.76792  Biso   1.000  O 
  O14      1.0000 0.50137  0.08785  0.50915  Biso   1.000  O 
  O15      1.0000 0.59312  0.34978  0.50924  Biso   1.000  O 
  O16      1.0000 0.52493  0.34470  0.77246  Biso   1.000  O 
  Hf9      1.0000 0.27153  0.47409  0.13638  Biso   1.000  Hf
  Hf10     1.0000 0.28751  0.74714  0.39019  Biso   1.000  Hf
  Hf11     1.0000 0.74171  0.70774  0.13452  Biso   1.000  Hf
  Hf12     1.0000 0.76524  0.49977  0.39016  Biso   1.000  Hf
  O17      1.0000 0.04117  0.58794  0.97648  Biso   1.000  O 
  O18      1.0000 0.95484  0.55280  0.22229  Biso   1.000  O 
  O19      1.0000 0.05373  0.79123  0.23177  Biso   1.000  O 
  O20      1.0000 0.04333  0.83548  0.97582  Biso   1.000  O 
  O21      1.0000 0.47714  0.62360  0.26356  Biso   1.000  O 
  O22      1.0000 0.53932  0.55479  0.02111  Biso   1.000  O 
  O23      1.0000 0.47204  0.79216  0.01022  Biso   1.000  O 
  O24      1.0000 0.55766  0.87101  0.26221  Biso   1.000  O 
  Hf13     1.0000 0.31239  0.45313  0.63366  Biso   1.000  Hf
  Hf14     1.0000 0.25543  0.70470  0.85834  Biso   1.000  Hf
  Hf15     1.0000 0.75278  0.70985  0.63467  Biso   1.000  Hf
  Hf16     1.0000 0.82485  0.45946  0.86204  Biso   1.000  Hf
  O25      1.0000 0.96739  0.65945  0.47153  Biso   1.000  O 
  O26      1.0000 0.03882  0.57613  0.72383  Biso   1.000  O 
  O27      1.0000 0.03572  0.82415  0.72572  Biso   1.000  O 
  O28      1.0000 0.08498  0.90761  0.47570  Biso   1.000  O 
  O29      1.0000 0.54539  0.58984  0.76417  Biso   1.000  O 
  O30      1.0000 0.49130  0.59573  0.51546  Biso   1.000  O 
  O31      1.0000 0.56174  0.84158  0.51498  Biso   1.000  O 
  O32      1.0000 0.52941  0.84070  0.76306  Biso   1.000  O 
  Re1      1.0000 0.26402  0.16781  0.12494  Biso   1.000  Re
