data_image0
_cell_length_a       9.94364
_cell_length_b       10.3322
_cell_length_c       4.98661
_cell_angle_alpha    90
_cell_angle_beta     90
_cell_angle_gamma    90

_symmetry_space_group_name_H-M    "P 1"
_symmetry_int_tables_number       1

loop_
  _symmetry_equiv_pos_as_xyz
  'x, y, z'

loop_
  _atom_site_label
  _atom_site_occupancy
  _atom_site_fract_x
  _atom_site_fract_y
  _atom_site_fract_z
  _atom_site_thermal_displace_type
  _atom_site_B_iso_or_equiv
  _atom_site_type_symbol
  Re1      1.0000 0.13679  0.02228  0.25234  Biso   1.000  Re
  Hf1      1.0000 0.13455  0.23371  0.75628  Biso   1.000  Hf
  Hf2      1.0000 0.36645  0.26811  0.25076  Biso   1.000  Hf
  Hf3      1.0000 0.36614  0.48611  0.75169  Biso   1.000  Hf
  O1       1.0000 0.03258  0.17745  0.41156  Biso   1.000  O 
  O2       1.0000 0.03621  0.06762  0.93068  Biso   1.000  O 
  O3       1.0000 0.46271  0.43618  0.38545  Biso   1.000  O 
  O4       1.0000 0.46221  0.31667  0.88453  Biso   1.000  O 
  O5       1.0000 0.27074  0.11904  0.49153  Biso   1.000  O 
  O6       1.0000 0.27218  0.13005  0.99828  Biso   1.000  O 
  O7       1.0000 0.22875  0.38160  0.00097  Biso   1.000  O 
  O8       1.0000 0.22927  0.36826  0.50218  Biso   1.000  O 
  Hf4      1.0000 0.13387  0.51685  0.25287  Biso   1.000  Hf
  Hf5      1.0000 0.13334  0.73601  0.75114  Biso   1.000  Hf
  Hf6      1.0000 0.36410  0.76890  0.25198  Biso   1.000  Hf
  Hf7      1.0000 0.36366  0.98384  0.75203  Biso   1.000  Hf
  O9       1.0000 0.03644  0.68371  0.38649  Biso   1.000  O 
  O10      1.0000 0.03652  0.56732  0.88873  Biso   1.000  O 
  O11      1.0000 0.46389  0.93464  0.38953  Biso   1.000  O 
  O12      1.0000 0.46142  0.81708  0.88661  Biso   1.000  O 
  O13      1.0000 0.27084  0.62070  0.49953  Biso   1.000  O 
  O14      1.0000 0.27112  0.63447  0.99909  Biso   1.000  O 
  O15      1.0000 0.22228  0.88326  0.00441  Biso   1.000  O 
  O16      1.0000 0.22638  0.87314  0.49702  Biso   1.000  O 
  Hf8      1.0000 0.63406  0.01638  0.24791  Biso   1.000  Hf
  Hf9      1.0000 0.63370  0.23431  0.75090  Biso   1.000  Hf
  Hf10     1.0000 0.86555  0.26487  0.25402  Biso   1.000  Hf
  Hf11     1.0000 0.86597  0.48477  0.75236  Biso   1.000  Hf
  O17      1.0000 0.53662  0.18572  0.38482  Biso   1.000  O 
  O18      1.0000 0.53606  0.06693  0.88578  Biso   1.000  O 
  O19      1.0000 0.96488  0.43187  0.39140  Biso   1.000  O 
  O20      1.0000 0.96539  0.31683  0.89425  Biso   1.000  O 
  O21      1.0000 0.76850  0.11802  0.49795  Biso   1.000  O 
  O22      1.0000 0.77187  0.13452  0.99626  Biso   1.000  O 
  O23      1.0000 0.72890  0.38161  0.00038  Biso   1.000  O 
  O24      1.0000 0.72963  0.36866  0.49960  Biso   1.000  O 
  Hf12     1.0000 0.63445  0.51799  0.25122  Biso   1.000  Hf
  Hf13     1.0000 0.63470  0.73628  0.74848  Biso   1.000  Hf
  Hf14     1.0000 0.86830  0.76846  0.24741  Biso   1.000  Hf
  Hf15     1.0000 0.87063  0.98654  0.74553  Biso   1.000  Hf
  O25      1.0000 0.53646  0.68632  0.38555  Biso   1.000  O 
  O26      1.0000 0.53766  0.56743  0.88481  Biso   1.000  O 
  O27      1.0000 0.96990  0.93459  0.38383  Biso   1.000  O 
  O28      1.0000 0.96210  0.81710  0.88057  Biso   1.000  O 
  O29      1.0000 0.77121  0.61900  0.49857  Biso   1.000  O 
  O30      1.0000 0.77109  0.63477  0.99814  Biso   1.000  O 
  O31      1.0000 0.72993  0.88582  0.99175  Biso   1.000  O 
  O32      1.0000 0.73316  0.86974  0.49417  Biso   1.000  O 
