data_image0
_cell_length_a       10.0624
_cell_length_b       10.5733
_cell_length_c       5.03522
_cell_angle_alpha    90
_cell_angle_beta     90
_cell_angle_gamma    90

_symmetry_space_group_name_H-M    "P 1"
_symmetry_int_tables_number       1

loop_
  _symmetry_equiv_pos_as_xyz
  'x, y, z'

loop_
  _atom_site_label
  _atom_site_occupancy
  _atom_site_fract_x
  _atom_site_fract_y
  _atom_site_fract_z
  _atom_site_thermal_displace_type
  _atom_site_B_iso_or_equiv
  _atom_site_type_symbol
  Hf1      1.0000 0.13383  0.01040  0.24139  Biso   1.000  Hf
  Hf2      1.0000 0.13512  0.20891  0.74562  Biso   1.000  Hf
  Hf3      1.0000 0.37803  0.26402  0.24101  Biso   1.000  Hf
  Hf4      1.0000 0.37047  0.48596  0.74290  Biso   1.000  Hf
  O1       1.0000 0.00806  0.16837  0.42758  Biso   1.000  O 
  O2       1.0000 0.03207  0.05617  0.90327  Biso   1.000  O 
  O3       1.0000 0.47486  0.42937  0.40281  Biso   1.000  O 
  O4       1.0000 0.47496  0.31912  0.89642  Biso   1.000  O 
  O5       1.0000 0.26337  0.09799  0.49408  Biso   1.000  O 
  O6       1.0000 0.28694  0.12512  0.98668  Biso   1.000  O 
  O7       1.0000 0.25421  0.41285  0.04373  Biso   1.000  O 
  O8       1.0000 0.25246  0.34239  0.54497  Biso   1.000  O 
  Hf5      1.0000 0.12641  0.54688  0.22100  Biso   1.000  Hf
  Hf6      1.0000 0.13217  0.74232  0.73841  Biso   1.000  Hf
  Hf7      1.0000 0.37002  0.76410  0.24333  Biso   1.000  Hf
  Hf8      1.0000 0.36985  0.98022  0.74607  Biso   1.000  Hf
  O9       1.0000 0.02630  0.69311  0.39678  Biso   1.000  O 
  O10      1.0000 0.03245  0.57355  0.87123  Biso   1.000  O 
  O11      1.0000 0.46719  0.92799  0.38713  Biso   1.000  O 
  O12      1.0000 0.47060  0.81665  0.89072  Biso   1.000  O 
  O13      1.0000 0.26995  0.61336  0.48670  Biso   1.000  O 
  O14      1.0000 0.26915  0.64891  0.97699  Biso   1.000  O 
  O15      1.0000 0.23219  0.88547  0.98921  Biso   1.000  O 
  O16      1.0000 0.23428  0.85945  0.48603  Biso   1.000  O 
  Hf9      1.0000 0.63183  0.01164  0.24531  Biso   1.000  Hf
  Hf10     1.0000 0.63257  0.22887  0.74727  Biso   1.000  Hf
  Hf11     1.0000 0.85199  0.26130  0.24708  Biso   1.000  Hf
  Hf12     1.0000 0.86632  0.48178  0.74927  Biso   1.000  Hf
  O17      1.0000 0.53364  0.17433  0.40239  Biso   1.000  O 
  O18      1.0000 0.53847  0.06444  0.89329  Biso   1.000  O 
  O19      1.0000 0.96595  0.43465  0.39601  Biso   1.000  O 
  O20      1.0000 0.97820  0.31829  0.91572  Biso   1.000  O 
  O21      1.0000 0.76259  0.10889  0.49388  Biso   1.000  O 
  O22      1.0000 0.77057  0.13189  0.99049  Biso   1.000  O 
  O23      1.0000 0.73377  0.38278  0.99984  Biso   1.000  O 
  O24      1.0000 0.73195  0.36244  0.50530  Biso   1.000  O 
  Hf13     1.0000 0.63384  0.51509  0.24975  Biso   1.000  Hf
  Hf14     1.0000 0.63479  0.73036  0.74921  Biso   1.000  Hf
  Hf15     1.0000 0.86122  0.76811  0.24486  Biso   1.000  Hf
  Hf16     1.0000 0.86427  0.98117  0.74294  Biso   1.000  Hf
  O25      1.0000 0.53463  0.67972  0.39634  Biso   1.000  O 
  O26      1.0000 0.53435  0.56839  0.90151  Biso   1.000  O 
  O27      1.0000 0.96557  0.92943  0.39819  Biso   1.000  O 
  O28      1.0000 0.96496  0.81745  0.89636  Biso   1.000  O 
  O29      1.0000 0.76857  0.61135  0.49924  Biso   1.000  O 
  O30      1.0000 0.77057  0.63243  0.99714  Biso   1.000  O 
  O31      1.0000 0.73157  0.88232  0.99461  Biso   1.000  O 
  O32      1.0000 0.72934  0.86200  0.49639  Biso   1.000  O 
  Re1      1.0000 0.11364  0.31045  0.23806  Biso   1.000  Re
