data_image0
_cell_length_a       10.0135
_cell_length_b       10.4277
_cell_length_c       10.0498
_cell_angle_alpha    90
_cell_angle_beta     90
_cell_angle_gamma    90

_symmetry_space_group_name_H-M    "P 1"
_symmetry_int_tables_number       1

loop_
  _symmetry_equiv_pos_as_xyz
  'x, y, z'

loop_
  _atom_site_label
  _atom_site_occupancy
  _atom_site_fract_x
  _atom_site_fract_y
  _atom_site_fract_z
  _atom_site_thermal_displace_type
  _atom_site_B_iso_or_equiv
  _atom_site_type_symbol
  Hf1      1.0000 0.13253  0.02065  0.11966  Biso   1.000  Hf
  Hf2      1.0000 0.13426  0.22778  0.38309  Biso   1.000  Hf
  Hf3      1.0000 0.37590  0.26288  0.12080  Biso   1.000  Hf
  Hf4      1.0000 0.36726  0.48193  0.37449  Biso   1.000  Hf
  O1       1.0000 0.00324  0.17312  0.22965  Biso   1.000  O 
  O2       1.0000 0.03639  0.06128  0.45418  Biso   1.000  O 
  O3       1.0000 0.46782  0.43245  0.19629  Biso   1.000  O 
  O4       1.0000 0.46724  0.31758  0.44921  Biso   1.000  O 
  O5       1.0000 0.26463  0.10860  0.25027  Biso   1.000  O 
  O6       1.0000 0.27404  0.13039  0.50072  Biso   1.000  O 
  O7       1.0000 0.23259  0.38344  0.50289  Biso   1.000  O 
  O8       1.0000 0.24501  0.35128  0.25950  Biso   1.000  O 
  Hf5      1.0000 0.13585  0.01283  0.62633  Biso   1.000  Hf
  Hf6      1.0000 0.13947  0.22579  0.86706  Biso   1.000  Hf
  Hf7      1.0000 0.36840  0.26664  0.62559  Biso   1.000  Hf
  Hf8      1.0000 0.36969  0.48759  0.87275  Biso   1.000  Hf
  O9       1.0000 0.03509  0.17929  0.69298  Biso   1.000  O 
  O10      1.0000 0.03750  0.06240  0.93888  Biso   1.000  O 
  O11      1.0000 0.46791  0.43307  0.69616  Biso   1.000  O 
  O12      1.0000 0.46884  0.31827  0.94148  Biso   1.000  O 
  O13      1.0000 0.27300  0.11395  0.74600  Biso   1.000  O 
  O14      1.0000 0.28391  0.12986  0.99082  Biso   1.000  O 
  O15      1.0000 0.24011  0.39784  0.00369  Biso   1.000  O 
  O16      1.0000 0.23376  0.36621  0.75117  Biso   1.000  O 
  Hf9      1.0000 0.12810  0.54491  0.11273  Biso   1.000  Hf
  Hf10     1.0000 0.13493  0.73434  0.37777  Biso   1.000  Hf
  Hf11     1.0000 0.36604  0.76803  0.12567  Biso   1.000  Hf
  Hf12     1.0000 0.36463  0.98265  0.37534  Biso   1.000  Hf
  O17      1.0000 0.02787  0.69109  0.20315  Biso   1.000  O 
  O18      1.0000 0.03533  0.56710  0.44664  Biso   1.000  O 
  O19      1.0000 0.46325  0.93260  0.19592  Biso   1.000  O 
  O20      1.0000 0.46601  0.81527  0.44443  Biso   1.000  O 
  O21      1.0000 0.27042  0.61669  0.24668  Biso   1.000  O 
  O22      1.0000 0.27185  0.63149  0.49729  Biso   1.000  O 
  O23      1.0000 0.23141  0.88097  0.49948  Biso   1.000  O 
  O24      1.0000 0.22955  0.86409  0.24903  Biso   1.000  O 
  Hf13     1.0000 0.13414  0.51468  0.62530  Biso   1.000  Hf
  Hf14     1.0000 0.13234  0.74105  0.86769  Biso   1.000  Hf
  Hf15     1.0000 0.36957  0.76383  0.62275  Biso   1.000  Hf
  Hf16     1.0000 0.37034  0.98155  0.87393  Biso   1.000  Hf
  O25      1.0000 0.03757  0.68452  0.68944  Biso   1.000  O 
  O26      1.0000 0.03333  0.57336  0.93723  Biso   1.000  O 
  O27      1.0000 0.46879  0.93075  0.69372  Biso   1.000  O 
  O28      1.0000 0.46913  0.81847  0.94715  Biso   1.000  O 
  O29      1.0000 0.27019  0.61586  0.74599  Biso   1.000  O 
  O30      1.0000 0.27044  0.64598  0.99099  Biso   1.000  O 
  O31      1.0000 0.23097  0.88730  0.99850  Biso   1.000  O 
  O32      1.0000 0.23594  0.86586  0.74698  Biso   1.000  O 
  Hf17     1.0000 0.63099  0.01165  0.12443  Biso   1.000  Hf
  Hf18     1.0000 0.63220  0.23111  0.37851  Biso   1.000  Hf
  Hf19     1.0000 0.84694  0.26082  0.12709  Biso   1.000  Hf
  Hf20     1.0000 0.86728  0.48310  0.37762  Biso   1.000  Hf
  O33      1.0000 0.53441  0.17853  0.19946  Biso   1.000  O 
  O34      1.0000 0.53502  0.06502  0.44681  Biso   1.000  O 
  O35      1.0000 0.96209  0.43698  0.19506  Biso   1.000  O 
  O36      1.0000 0.96902  0.32088  0.45220  Biso   1.000  O 
  O37      1.0000 0.75863  0.11119  0.25017  Biso   1.000  O 
  O38      1.0000 0.77224  0.13402  0.49781  Biso   1.000  O 
  O39      1.0000 0.73223  0.38268  0.50148  Biso   1.000  O 
  O40      1.0000 0.72614  0.36711  0.25362  Biso   1.000  O 
  Hf21     1.0000 0.63611  0.01472  0.62336  Biso   1.000  Hf
  Hf22     1.0000 0.63397  0.23145  0.87227  Biso   1.000  Hf
  Hf23     1.0000 0.86804  0.26610  0.62529  Biso   1.000  Hf
  Hf24     1.0000 0.86389  0.48275  0.87609  Biso   1.000  Hf
  O41      1.0000 0.53772  0.18245  0.69390  Biso   1.000  O 
  O42      1.0000 0.53862  0.06649  0.94435  Biso   1.000  O 
  O43      1.0000 0.96795  0.43107  0.70198  Biso   1.000  O 
  O44      1.0000 0.97058  0.31700  0.95448  Biso   1.000  O 
  O45      1.0000 0.77192  0.11497  0.74755  Biso   1.000  O 
  O46      1.0000 0.77023  0.12968  0.99736  Biso   1.000  O 
  O47      1.0000 0.72717  0.38183  0.99980  Biso   1.000  O 
  O48      1.0000 0.73333  0.36590  0.75080  Biso   1.000  O 
  Hf25     1.0000 0.63298  0.51744  0.12721  Biso   1.000  Hf
  Hf26     1.0000 0.63444  0.73290  0.37519  Biso   1.000  Hf
  Hf27     1.0000 0.86219  0.76819  0.12542  Biso   1.000  Hf
  Hf28     1.0000 0.86940  0.98604  0.37204  Biso   1.000  Hf
  O49      1.0000 0.53493  0.68357  0.19591  Biso   1.000  O 
  O50      1.0000 0.53568  0.56596  0.44594  Biso   1.000  O 
  O51      1.0000 0.96250  0.93514  0.19121  Biso   1.000  O 
  O52      1.0000 0.96520  0.81774  0.44449  Biso   1.000  O 
  O53      1.0000 0.76929  0.61581  0.25005  Biso   1.000  O 
  O54      1.0000 0.76981  0.63287  0.49937  Biso   1.000  O 
  O55      1.0000 0.73291  0.88427  0.49712  Biso   1.000  O 
  O56      1.0000 0.72872  0.86534  0.24848  Biso   1.000  O 
  Hf29     1.0000 0.63527  0.51548  0.62460  Biso   1.000  Hf
  Hf30     1.0000 0.63547  0.73314  0.87495  Biso   1.000  Hf
  Hf31     1.0000 0.86761  0.76629  0.62252  Biso   1.000  Hf
  Hf32     1.0000 0.86615  0.98142  0.87388  Biso   1.000  Hf
  O57      1.0000 0.53655  0.68161  0.69652  Biso   1.000  O 
  O58      1.0000 0.53598  0.56869  0.94724  Biso   1.000  O 
  O59      1.0000 0.96875  0.92851  0.69918  Biso   1.000  O 
  O60      1.0000 0.96466  0.81621  0.94651  Biso   1.000  O 
  O61      1.0000 0.77168  0.61519  0.74913  Biso   1.000  O 
  O62      1.0000 0.77109  0.63212  0.99913  Biso   1.000  O 
  O63      1.0000 0.73013  0.88157  0.99789  Biso   1.000  O 
  O64      1.0000 0.73217  0.86506  0.74764  Biso   1.000  O 
  Re1      1.0000 0.10341  0.30650  0.11608  Biso   1.000  Re
