data_image0
_cell_length_a       10.0986
_cell_length_b       10.2616
_cell_length_c       10.4364
_cell_angle_alpha    90
_cell_angle_beta     80
_cell_angle_gamma    90

_symmetry_space_group_name_H-M    "P 1"
_symmetry_int_tables_number       1

loop_
  _symmetry_equiv_pos_as_xyz
  'x, y, z'

loop_
  _atom_site_label
  _atom_site_occupancy
  _atom_site_fract_x
  _atom_site_fract_y
  _atom_site_fract_z
  _atom_site_thermal_displace_type
  _atom_site_B_iso_or_equiv
  _atom_site_type_symbol
  Re1      1.0000 0.14065  0.02263  0.14994  Biso   1.000  Re
  Hf1      1.0000 0.13904  0.22991  0.39546  Biso   1.000  Hf
  Hf2      1.0000 0.35985  0.27122  0.10519  Biso   1.000  Hf
  Hf3      1.0000 0.36079  0.47962  0.35423  Biso   1.000  Hf
  O1       1.0000 0.03643  0.16573  0.08060  Biso   1.000  O 
  O2       1.0000 0.03993  0.08087  0.32107  Biso   1.000  O 
  O3       1.0000 0.46332  0.42028  0.16916  Biso   1.000  O 
  O4       1.0000 0.46241  0.33070  0.41987  Biso   1.000  O 
  O5       1.0000 0.27824  0.12717  0.24174  Biso   1.000  O 
  O6       1.0000 0.27585  0.12163  0.49179  Biso   1.000  O 
  O7       1.0000 0.22299  0.37866  0.01003  Biso   1.000  O 
  O8       1.0000 0.22309  0.37142  0.25972  Biso   1.000  O 
  Hf4      1.0000 0.13653  0.02165  0.64609  Biso   1.000  Hf
  Hf5      1.0000 0.13457  0.22722  0.89812  Biso   1.000  Hf
  Hf6      1.0000 0.35902  0.27203  0.60531  Biso   1.000  Hf
  Hf7      1.0000 0.35739  0.47912  0.85512  Biso   1.000  Hf
  O9       1.0000 0.03265  0.16678  0.57651  Biso   1.000  O 
  O10      1.0000 0.03147  0.08234  0.82834  Biso   1.000  O 
  O11      1.0000 0.46158  0.42067  0.66996  Biso   1.000  O 
  O12      1.0000 0.45873  0.32901  0.91989  Biso   1.000  O 
  O13      1.0000 0.27421  0.12945  0.74320  Biso   1.000  O 
  O14      1.0000 0.26954  0.11783  0.99831  Biso   1.000  O 
  O15      1.0000 0.22133  0.37912  0.50962  Biso   1.000  O 
  O16      1.0000 0.22024  0.37096  0.76032  Biso   1.000  O 
  Hf8      1.0000 0.13903  0.52190  0.14591  Biso   1.000  Hf
  Hf9      1.0000 0.13765  0.72933  0.39587  Biso   1.000  Hf
  Hf10     1.0000 0.35833  0.77556  0.10444  Biso   1.000  Hf
  Hf11     1.0000 0.36039  0.97871  0.35407  Biso   1.000  Hf
  O17      1.0000 0.03579  0.66812  0.07969  Biso   1.000  O 
  O18      1.0000 0.03493  0.58107  0.33056  Biso   1.000  O 
  O19      1.0000 0.46543  0.91884  0.17136  Biso   1.000  O 
  O20      1.0000 0.46390  0.83031  0.41960  Biso   1.000  O 
  O21      1.0000 0.27597  0.63147  0.24106  Biso   1.000  O 
  O22      1.0000 0.27548  0.62126  0.49103  Biso   1.000  O 
  O23      1.0000 0.21783  0.88120  0.00971  Biso   1.000  O 
  O24      1.0000 0.21889  0.87420  0.25796  Biso   1.000  O 
  Hf12     1.0000 0.13674  0.52179  0.64652  Biso   1.000  Hf
  Hf13     1.0000 0.13589  0.72968  0.89637  Biso   1.000  Hf
  Hf14     1.0000 0.35979  0.77166  0.60427  Biso   1.000  Hf
  Hf15     1.0000 0.35695  0.97908  0.85567  Biso   1.000  Hf
  O25      1.0000 0.03372  0.66938  0.58001  Biso   1.000  O 
  O26      1.0000 0.03275  0.58123  0.83060  Biso   1.000  O 
  O27      1.0000 0.46164  0.92022  0.67034  Biso   1.000  O 
  O28      1.0000 0.45932  0.83156  0.92066  Biso   1.000  O 
  O29      1.0000 0.27442  0.62951  0.74105  Biso   1.000  O 
  O30      1.0000 0.27342  0.62246  0.99130  Biso   1.000  O 
  O31      1.0000 0.22236  0.87922  0.50897  Biso   1.000  O 
  O32      1.0000 0.22087  0.87135  0.75926  Biso   1.000  O 
  Hf16     1.0000 0.63838  0.02214  0.14596  Biso   1.000  Hf
  Hf17     1.0000 0.63772  0.22914  0.39593  Biso   1.000  Hf
  Hf18     1.0000 0.86292  0.27016  0.10436  Biso   1.000  Hf
  Hf19     1.0000 0.86006  0.47887  0.35366  Biso   1.000  Hf
  O33      1.0000 0.53568  0.17026  0.08145  Biso   1.000  O 
  O34      1.0000 0.53556  0.08024  0.33167  Biso   1.000  O 
  O35      1.0000 0.96432  0.41956  0.16966  Biso   1.000  O 
  O36      1.0000 0.96281  0.33002  0.41875  Biso   1.000  O 
  O37      1.0000 0.77650  0.12913  0.24075  Biso   1.000  O 
  O38      1.0000 0.77630  0.12064  0.48971  Biso   1.000  O 
  O39      1.0000 0.72359  0.37928  0.00936  Biso   1.000  O 
  O40      1.0000 0.72275  0.37091  0.25924  Biso   1.000  O 
  Hf20     1.0000 0.63596  0.02165  0.64650  Biso   1.000  Hf
  Hf21     1.0000 0.63528  0.22934  0.89664  Biso   1.000  Hf
  Hf22     1.0000 0.85887  0.27166  0.60397  Biso   1.000  Hf
  Hf23     1.0000 0.85796  0.47906  0.85515  Biso   1.000  Hf
  O41      1.0000 0.53475  0.17095  0.58157  Biso   1.000  O 
  O42      1.0000 0.53193  0.08062  0.83205  Biso   1.000  O 
  O43      1.0000 0.96232  0.41839  0.67037  Biso   1.000  O 
  O44      1.0000 0.96158  0.33074  0.92106  Biso   1.000  O 
  O45      1.0000 0.77332  0.12962  0.74062  Biso   1.000  O 
  O46      1.0000 0.77254  0.12191  0.99074  Biso   1.000  O 
  O47      1.0000 0.72188  0.37943  0.50975  Biso   1.000  O 
  O48      1.0000 0.72049  0.37146  0.76002  Biso   1.000  O 
  Hf24     1.0000 0.63864  0.52246  0.14544  Biso   1.000  Hf
  Hf25     1.0000 0.63890  0.72903  0.39595  Biso   1.000  Hf
  Hf26     1.0000 0.86368  0.77313  0.10348  Biso   1.000  Hf
  Hf27     1.0000 0.86099  0.97945  0.35272  Biso   1.000  Hf
  O49      1.0000 0.53426  0.67041  0.08107  Biso   1.000  O 
  O50      1.0000 0.53593  0.58037  0.33118  Biso   1.000  O 
  O51      1.0000 0.97255  0.92048  0.16669  Biso   1.000  O 
  O52      1.0000 0.96388  0.83313  0.41990  Biso   1.000  O 
  O53      1.0000 0.77656  0.63010  0.24032  Biso   1.000  O 
  O54      1.0000 0.77586  0.62133  0.49084  Biso   1.000  O 
  O55      1.0000 0.72306  0.87941  0.00974  Biso   1.000  O 
  O56      1.0000 0.72772  0.87226  0.25905  Biso   1.000  O 
  Hf28     1.0000 0.63700  0.52189  0.64670  Biso   1.000  Hf
  Hf29     1.0000 0.63503  0.72917  0.89765  Biso   1.000  Hf
  Hf30     1.0000 0.85895  0.77203  0.60461  Biso   1.000  Hf
  Hf31     1.0000 0.85789  0.97930  0.85452  Biso   1.000  Hf
  O57      1.0000 0.53509  0.67040  0.58102  Biso   1.000  O 
  O58      1.0000 0.53303  0.58048  0.83176  Biso   1.000  O 
  O59      1.0000 0.96237  0.91931  0.66989  Biso   1.000  O 
  O60      1.0000 0.96056  0.83102  0.91934  Biso   1.000  O 
  O61      1.0000 0.77431  0.62958  0.74155  Biso   1.000  O 
  O62      1.0000 0.77355  0.62242  0.99154  Biso   1.000  O 
  O63      1.0000 0.72209  0.87975  0.50923  Biso   1.000  O 
  O64      1.0000 0.72036  0.87138  0.76002  Biso   1.000  O 
