data_image0
_cell_length_a       5.04318
_cell_length_b       10.2484
_cell_length_c       10.4297
_cell_angle_alpha    90
_cell_angle_beta     80
_cell_angle_gamma    90

_symmetry_space_group_name_H-M    "P 1"
_symmetry_int_tables_number       1

loop_
  _symmetry_equiv_pos_as_xyz
  'x, y, z'

loop_
  _atom_site_label
  _atom_site_occupancy
  _atom_site_fract_x
  _atom_site_fract_y
  _atom_site_fract_z
  _atom_site_thermal_displace_type
  _atom_site_B_iso_or_equiv
  _atom_site_type_symbol
  Re1      1.0000 0.28394  0.02247  0.15016  Biso   1.000  Re
  Hf1      1.0000 0.28067  0.23057  0.39497  Biso   1.000  Hf
  Hf2      1.0000 0.72565  0.26997  0.10539  Biso   1.000  Hf
  Hf3      1.0000 0.72399  0.47989  0.35340  Biso   1.000  Hf
  O1       1.0000 0.07443  0.16641  0.08191  Biso   1.000  O 
  O2       1.0000 0.08303  0.08042  0.32164  Biso   1.000  O 
  O3       1.0000 0.92961  0.42047  0.16905  Biso   1.000  O 
  O4       1.0000 0.92755  0.33019  0.41855  Biso   1.000  O 
  O5       1.0000 0.55850  0.12802  0.24187  Biso   1.000  O 
  O6       1.0000 0.55700  0.12120  0.49024  Biso   1.000  O 
  O7       1.0000 0.44745  0.37872  0.01004  Biso   1.000  O 
  O8       1.0000 0.44826  0.37176  0.25926  Biso   1.000  O 
  Hf4      1.0000 0.27519  0.02183  0.64603  Biso   1.000  Hf
  Hf5      1.0000 0.27343  0.22762  0.89825  Biso   1.000  Hf
  Hf6      1.0000 0.72103  0.27215  0.60451  Biso   1.000  Hf
  Hf7      1.0000 0.71941  0.47936  0.85535  Biso   1.000  Hf
  O9       1.0000 0.06992  0.16794  0.57687  Biso   1.000  O 
  O10      1.0000 0.06506  0.08248  0.82908  Biso   1.000  O 
  O11      1.0000 0.92847  0.41914  0.67018  Biso   1.000  O 
  O12      1.0000 0.92502  0.32944  0.92067  Biso   1.000  O 
  O13      1.0000 0.55091  0.12977  0.74230  Biso   1.000  O 
  O14      1.0000 0.54388  0.11879  0.99716  Biso   1.000  O 
  O15      1.0000 0.44601  0.37922  0.50946  Biso   1.000  O 
  O16      1.0000 0.44463  0.37137  0.76025  Biso   1.000  O 
  Hf8      1.0000 0.27994  0.52296  0.14537  Biso   1.000  Hf
  Hf9      1.0000 0.28066  0.72941  0.39577  Biso   1.000  Hf
  Hf10     1.0000 0.72366  0.77743  0.10366  Biso   1.000  Hf
  Hf11     1.0000 0.72565  0.97958  0.35230  Biso   1.000  Hf
  O17      1.0000 0.06948  0.66938  0.08052  Biso   1.000  O 
  O18      1.0000 0.07411  0.58093  0.33101  Biso   1.000  O 
  O19      1.0000 0.94945  0.92142  0.16666  Biso   1.000  O 
  O20      1.0000 0.93316  0.83281  0.41910  Biso   1.000  O 
  O21      1.0000 0.55516  0.63243  0.24066  Biso   1.000  O 
  O22      1.0000 0.55575  0.62153  0.49099  Biso   1.000  O 
  O23      1.0000 0.43577  0.88099  0.00993  Biso   1.000  O 
  O24      1.0000 0.44950  0.87530  0.25797  Biso   1.000  O 
  Hf12     1.0000 0.27802  0.52205  0.64691  Biso   1.000  Hf
  Hf13     1.0000 0.27568  0.73015  0.89727  Biso   1.000  Hf
  Hf14     1.0000 0.72306  0.77215  0.60416  Biso   1.000  Hf
  Hf15     1.0000 0.71882  0.97965  0.85503  Biso   1.000  Hf
  O25      1.0000 0.07297  0.66996  0.58012  Biso   1.000  O 
  O26      1.0000 0.07019  0.58115  0.83117  Biso   1.000  O 
  O27      1.0000 0.92897  0.91983  0.66979  Biso   1.000  O 
  O28      1.0000 0.92393  0.83203  0.91918  Biso   1.000  O 
  O29      1.0000 0.55372  0.62986  0.74133  Biso   1.000  O 
  O30      1.0000 0.55330  0.62389  0.99137  Biso   1.000  O 
  O31      1.0000 0.44927  0.87971  0.50830  Biso   1.000  O 
  O32      1.0000 0.44585  0.87173  0.75907  Biso   1.000  O 
