data_image0
_cell_length_a       10.073
_cell_length_b       5.19723
_cell_length_c       10.4922
_cell_angle_alpha    90
_cell_angle_beta     90
_cell_angle_gamma    90

_symmetry_space_group_name_H-M    "P 1"
_symmetry_int_tables_number       1

loop_
  _symmetry_equiv_pos_as_xyz
  'x, y, z'

loop_
  _atom_site_label
  _atom_site_occupancy
  _atom_site_fract_x
  _atom_site_fract_y
  _atom_site_fract_z
  _atom_site_thermal_displace_type
  _atom_site_B_iso_or_equiv
  _atom_site_type_symbol
  Hf1      1.0000 0.13967  0.03764  0.16986  Biso   1.000  Hf
  Hf2      1.0000 0.13153  0.45476  0.42086  Biso   1.000  Hf
  Hf3      1.0000 0.35508  0.53711  0.17607  Biso   1.000  Hf
  Hf4      1.0000 0.35226  0.95357  0.42562  Biso   1.000  Hf
  Hf5      1.0000 0.64145  0.07861  0.06554  Biso   1.000  Hf
  Hf6      1.0000 0.62444  0.44881  0.35002  Biso   1.000  Hf
  Hf7      1.0000 0.87861  0.54624  0.06969  Biso   1.000  Hf
  Hf8      1.0000 0.86068  0.95154  0.33426  Biso   1.000  Hf
  O1       1.0000 0.04005  0.32304  0.07730  Biso   1.000  O 
  O2       1.0000 0.02433  0.17730  0.32728  Biso   1.000  O 
  O3       1.0000 0.46542  0.83604  0.07899  Biso   1.000  O 
  O4       1.0000 0.45139  0.65136  0.34832  Biso   1.000  O 
  O5       1.0000 0.26651  0.24543  0.29626  Biso   1.000  O 
  O6       1.0000 0.28052  0.24325  0.04191  Biso   1.000  O 
  O7       1.0000 0.21604  0.74819  0.29531  Biso   1.000  O 
  O8       1.0000 0.22364  0.74667  0.04299  Biso   1.000  O 
  O9       1.0000 0.51075  0.27610  0.18727  Biso   1.000  O 
  O10      1.0000 0.52631  0.14988  0.42578  Biso   1.000  O 
  O11      1.0000 0.96790  0.82951  0.16886  Biso   1.000  O 
  O12      1.0000 0.95900  0.66626  0.41795  Biso   1.000  O 
  O13      1.0000 0.77236  0.23159  0.45757  Biso   1.000  O 
  O14      1.0000 0.75765  0.32946  0.19879  Biso   1.000  O 
  O15      1.0000 0.71685  0.73507  0.46378  Biso   1.000  O 
  O16      1.0000 0.71953  0.82954  0.20972  Biso   1.000  O 
  Hf9      1.0000 0.13125  0.03443  0.66829  Biso   1.000  Hf
  Hf10     1.0000 0.13676  0.44612  0.91711  Biso   1.000  Hf
  Hf11     1.0000 0.35662  0.53236  0.66994  Biso   1.000  Hf
  Hf12     1.0000 0.34961  0.94567  0.91498  Biso   1.000  Hf
  Hf13     1.0000 0.63218  0.03087  0.58608  Biso   1.000  Hf
  Hf14     1.0000 0.62921  0.44847  0.83415  Biso   1.000  Hf
  Hf15     1.0000 0.85383  0.53103  0.58279  Biso   1.000  Hf
  Hf16     1.0000 0.85749  0.95216  0.82662  Biso   1.000  Hf
  O17      1.0000 0.02603  0.32358  0.58081  Biso   1.000  O 
  O18      1.0000 0.02943  0.16083  0.82932  Biso   1.000  O 
  O19      1.0000 0.45620  0.83490  0.59281  Biso   1.000  O 
  O20      1.0000 0.45371  0.64400  0.83685  Biso   1.000  O 
  O21      1.0000 0.27004  0.23764  0.79115  Biso   1.000  O 
  O22      1.0000 0.26710  0.24649  0.54384  Biso   1.000  O 
  O23      1.0000 0.21622  0.73905  0.79134  Biso   1.000  O 
  O24      1.0000 0.21647  0.74449  0.54409  Biso   1.000  O 
  O25      1.0000 0.52991  0.33615  0.66232  Biso   1.000  O 
  O26      1.0000 0.52826  0.12600  0.89522  Biso   1.000  O 
  O27      1.0000 0.95987  0.82588  0.66191  Biso   1.000  O 
  O28      1.0000 0.96603  0.66217  0.90918  Biso   1.000  O 
  O29      1.0000 0.78355  0.23587  0.94716  Biso   1.000  O 
  O30      1.0000 0.76998  0.24086  0.70497  Biso   1.000  O 
  O31      1.0000 0.71938  0.74876  0.96179  Biso   1.000  O 
  O32      1.0000 0.71849  0.74023  0.71189  Biso   1.000  O 
  Re1      1.0000 0.61042  0.56632  0.10909  Biso   1.000  Re
