data_image0
_cell_length_a       10.1065
_cell_length_b       10.3025
_cell_length_c       10.0809
_cell_angle_alpha    90
_cell_angle_beta     90
_cell_angle_gamma    90

_symmetry_space_group_name_H-M    "P 1"
_symmetry_int_tables_number       1

loop_
  _symmetry_equiv_pos_as_xyz
  'x, y, z'

loop_
  _atom_site_label
  _atom_site_occupancy
  _atom_site_fract_x
  _atom_site_fract_y
  _atom_site_fract_z
  _atom_site_thermal_displace_type
  _atom_site_B_iso_or_equiv
  _atom_site_type_symbol
  Hf1      1.0000 0.12832  0.94516  0.12499  Biso   1.000  Hf
  Hf2      1.0000 0.15487  0.27943  0.38677  Biso   1.000  Hf
  Hf3      1.0000 0.38947  0.26837  0.14423  Biso   1.000  Hf
  Hf4      1.0000 0.40211  0.99502  0.37163  Biso   1.000  Hf
  O1       1.0000 0.02470  0.16572  0.99706  Biso   1.000  O 
  O2       1.0000 0.03300  0.07007  0.26296  Biso   1.000  O 
  O3       1.0000 0.01646  0.33023  0.24680  Biso   1.000  O 
  O4       1.0000 0.04186  0.41101  0.99449  Biso   1.000  O 
  O5       1.0000 0.28088  0.15635  0.27917  Biso   1.000  O 
  O6       1.0000 0.22082  0.07526  0.00302  Biso   1.000  O 
  O7       1.0000 0.23434  0.32499  0.02276  Biso   1.000  O 
  O8       1.0000 0.26407  0.41822  0.25766  Biso   1.000  O 
  Hf5      1.0000 0.16392  0.00971  0.62531  Biso   1.000  Hf
  Hf6      1.0000 0.16405  0.25443  0.87239  Biso   1.000  Hf
  Hf7      1.0000 0.42523  0.24938  0.63455  Biso   1.000  Hf
  Hf8      1.0000 0.41876  0.00623  0.88033  Biso   1.000  Hf
  O9       1.0000 0.07309  0.16526  0.52304  Biso   1.000  O 
  O10      1.0000 0.03597  0.10712  0.75724  Biso   1.000  O 
  O11      1.0000 0.05738  0.36052  0.74299  Biso   1.000  O 
  O12      1.0000 0.03968  0.41528  0.49701  Biso   1.000  O 
  O13      1.0000 0.29091  0.15000  0.75924  Biso   1.000  O 
  O14      1.0000 0.32665  0.09836  0.52770  Biso   1.000  O 
  O15      1.0000 0.29661  0.35777  0.51100  Biso   1.000  O 
  O16      1.0000 0.30745  0.39572  0.75974  Biso   1.000  O 
  Hf9      1.0000 0.13300  0.50129  0.11866  Biso   1.000  Hf
  Hf10     1.0000 0.15249  0.75475  0.38232  Biso   1.000  Hf
  Hf11     1.0000 0.38668  0.74676  0.12500  Biso   1.000  Hf
  Hf12     1.0000 0.40555  0.50468  0.38710  Biso   1.000  Hf
  O17      1.0000 0.05059  0.65863  0.97896  Biso   1.000  O 
  O18      1.0000 0.97088  0.57800  0.21510  Biso   1.000  O 
  O19      1.0000 0.00337  0.82731  0.25285  Biso   1.000  O 
  O20      1.0000 0.98260  0.89362  0.00039  Biso   1.000  O 
  O21      1.0000 0.21893  0.66501  0.21272  Biso   1.000  O 
  O22      1.0000 0.29469  0.58480  0.97085  Biso   1.000  O 
  O23      1.0000 0.29683  0.83617  0.99147  Biso   1.000  O 
  O24      1.0000 0.27328  0.89307  0.25328  Biso   1.000  O 
  Hf13     1.0000 0.17982  0.49219  0.63210  Biso   1.000  Hf
  Hf14     1.0000 0.18443  0.74266  0.85510  Biso   1.000  Hf
  Hf15     1.0000 0.43230  0.77538  0.62599  Biso   1.000  Hf
  Hf16     1.0000 0.44181  0.51440  0.85655  Biso   1.000  Hf
  O25      1.0000 0.99396  0.66368  0.47068  Biso   1.000  O 
  O26      1.0000 0.05202  0.61304  0.73052  Biso   1.000  O 
  O27      1.0000 0.06813  0.86021  0.74085  Biso   1.000  O 
  O28      1.0000 0.04559  0.90868  0.49754  Biso   1.000  O 
  O29      1.0000 0.30586  0.64525  0.72437  Biso   1.000  O 
  O30      1.0000 0.24521  0.59858  0.47186  Biso   1.000  O 
  O31      1.0000 0.28908  0.85565  0.49943  Biso   1.000  O 
  O32      1.0000 0.31095  0.89918  0.74695  Biso   1.000  O 
  Hf17     1.0000 0.62270  0.99007  0.12651  Biso   1.000  Hf
  Hf18     1.0000 0.65186  0.26344  0.36739  Biso   1.000  Hf
  Hf19     1.0000 0.85717  0.27120  0.11977  Biso   1.000  Hf
  Hf20     1.0000 0.90125  0.99323  0.36954  Biso   1.000  Hf
  O33      1.0000 0.47499  0.13835  0.01419  Biso   1.000  O 
  O34      1.0000 0.52974  0.10807  0.27260  Biso   1.000  O 
  O35      1.0000 0.51264  0.36671  0.26626  Biso   1.000  O 
  O36      1.0000 0.48714  0.39847  0.00553  Biso   1.000  O 
  O37      1.0000 0.79505  0.15859  0.27717  Biso   1.000  O 
  O38      1.0000 0.73458  0.11200  0.01783  Biso   1.000  O 
  O39      1.0000 0.79069  0.37709  0.98058  Biso   1.000  O 
  O40      1.0000 0.76066  0.41298  0.24430  Biso   1.000  O 
  Hf21     1.0000 0.66617  0.01484  0.63041  Biso   1.000  Hf
  Hf22     1.0000 0.65268  0.25062  0.89936  Biso   1.000  Hf
  Hf23     1.0000 0.91548  0.25045  0.63001  Biso   1.000  Hf
  Hf24     1.0000 0.90522  0.02034  0.88528  Biso   1.000  Hf
  O41      1.0000 0.57882  0.16944  0.52894  Biso   1.000  O 
  O42      1.0000 0.53804  0.11240  0.76600  Biso   1.000  O 
  O43      1.0000 0.56145  0.36513  0.75588  Biso   1.000  O 
  O44      1.0000 0.53637  0.41028  0.50869  Biso   1.000  O 
  O45      1.0000 0.78642  0.16428  0.76746  Biso   1.000  O 
  O46      1.0000 0.82497  0.09317  0.53122  Biso   1.000  O 
  O47      1.0000 0.79240  0.34953  0.49234  Biso   1.000  O 
  O48      1.0000 0.82235  0.41200  0.72721  Biso   1.000  O 
  Hf25     1.0000 0.62916  0.50970  0.11849  Biso   1.000  Hf
  Hf26     1.0000 0.65532  0.76500  0.38013  Biso   1.000  Hf
  Hf27     1.0000 0.87858  0.74119  0.11460  Biso   1.000  Hf
  Hf28     1.0000 0.89742  0.50150  0.38164  Biso   1.000  Hf
  O49      1.0000 0.55076  0.65636  0.97830  Biso   1.000  O 
  O50      1.0000 0.47401  0.59527  0.22030  Biso   1.000  O 
  O51      1.0000 0.51375  0.85137  0.25146  Biso   1.000  O 
  O52      1.0000 0.49076  0.89544  0.00856  Biso   1.000  O 
  O53      1.0000 0.72233  0.66488  0.22113  Biso   1.000  O 
  O54      1.0000 0.80217  0.61657  0.98393  Biso   1.000  O 
  O55      1.0000 0.73933  0.85915  0.00338  Biso   1.000  O 
  O56      1.0000 0.75947  0.90798  0.25502  Biso   1.000  O 
  Hf29     1.0000 0.67840  0.49516  0.62457  Biso   1.000  Hf
  Hf30     1.0000 0.68601  0.75879  0.86562  Biso   1.000  Hf
  Hf31     1.0000 0.93056  0.77159  0.62710  Biso   1.000  Hf
  Hf32     1.0000 0.92911  0.51164  0.86540  Biso   1.000  Hf
  O57      1.0000 0.49802  0.66923  0.46864  Biso   1.000  O 
  O58      1.0000 0.55361  0.61988  0.72582  Biso   1.000  O 
  O59      1.0000 0.56199  0.86812  0.74950  Biso   1.000  O 
  O60      1.0000 0.54528  0.91492  0.50208  Biso   1.000  O 
  O61      1.0000 0.80079  0.65774  0.73389  Biso   1.000  O 
  O62      1.0000 0.74717  0.59964  0.46999  Biso   1.000  O 
  O63      1.0000 0.78740  0.85410  0.50417  Biso   1.000  O 
  O64      1.0000 0.81312  0.90830  0.75329  Biso   1.000  O 
  Re1      1.0000 0.12860  0.18875  0.13891  Biso   1.000  Re
