data_image0
_cell_length_a       9.99298
_cell_length_b       5.09561
_cell_length_c       10.457
_cell_angle_alpha    90
_cell_angle_beta     90
_cell_angle_gamma    90

_symmetry_space_group_name_H-M    "P 1"
_symmetry_int_tables_number       1

loop_
  _symmetry_equiv_pos_as_xyz
  'x, y, z'

loop_
  _atom_site_label
  _atom_site_occupancy
  _atom_site_fract_x
  _atom_site_fract_y
  _atom_site_fract_z
  _atom_site_thermal_displace_type
  _atom_site_B_iso_or_equiv
  _atom_site_type_symbol
  Re1      1.0000 0.14120  0.04343  0.17539  Biso   1.000  Re
  Hf1      1.0000 0.14010  0.46100  0.42105  Biso   1.000  Hf
  Hf2      1.0000 0.35772  0.54963  0.17215  Biso   1.000  Hf
  Hf3      1.0000 0.36216  0.96051  0.42192  Biso   1.000  Hf
  Hf4      1.0000 0.63827  0.04472  0.07787  Biso   1.000  Hf
  Hf5      1.0000 0.63873  0.45899  0.32710  Biso   1.000  Hf
  Hf6      1.0000 0.86635  0.54118  0.07887  Biso   1.000  Hf
  Hf7      1.0000 0.86242  0.96034  0.32686  Biso   1.000  Hf
  O1       1.0000 0.03461  0.32080  0.08407  Biso   1.000  O 
  O2       1.0000 0.03721  0.17286  0.32487  Biso   1.000  O 
  O3       1.0000 0.46854  0.82769  0.08242  Biso   1.000  O 
  O4       1.0000 0.46657  0.67287  0.33297  Biso   1.000  O 
  O5       1.0000 0.27779  0.24599  0.29537  Biso   1.000  O 
  O6       1.0000 0.27400  0.24588  0.05184  Biso   1.000  O 
  O7       1.0000 0.22029  0.75263  0.29498  Biso   1.000  O 
  O8       1.0000 0.21965  0.75448  0.04509  Biso   1.000  O 
  O9       1.0000 0.53202  0.33329  0.16684  Biso   1.000  O 
  O10      1.0000 0.53395  0.17246  0.41704  Biso   1.000  O 
  O11      1.0000 0.97835  0.83172  0.16603  Biso   1.000  O 
  O12      1.0000 0.96862  0.67457  0.41623  Biso   1.000  O 
  O13      1.0000 0.77886  0.24769  0.45326  Biso   1.000  O 
  O14      1.0000 0.77668  0.25263  0.20432  Biso   1.000  O 
  O15      1.0000 0.72431  0.74847  0.45427  Biso   1.000  O 
  O16      1.0000 0.72969  0.75359  0.20460  Biso   1.000  O 
  Hf8      1.0000 0.14014  0.04385  0.67221  Biso   1.000  Hf
  Hf9      1.0000 0.14103  0.45641  0.92377  Biso   1.000  Hf
  Hf10     1.0000 0.36307  0.54475  0.67234  Biso   1.000  Hf
  Hf11     1.0000 0.36278  0.95841  0.92306  Biso   1.000  Hf
  Hf12     1.0000 0.64006  0.04449  0.57855  Biso   1.000  Hf
  Hf13     1.0000 0.64130  0.46134  0.82926  Biso   1.000  Hf
  Hf14     1.0000 0.86225  0.54403  0.57764  Biso   1.000  Hf
  Hf15     1.0000 0.86355  0.95938  0.82873  Biso   1.000  Hf
  O17      1.0000 0.03199  0.32299  0.57780  Biso   1.000  O 
  O18      1.0000 0.03297  0.17640  0.83029  Biso   1.000  O 
  O19      1.0000 0.46866  0.83283  0.58390  Biso   1.000  O 
  O20      1.0000 0.46918  0.67323  0.83384  Biso   1.000  O 
  O21      1.0000 0.27872  0.24909  0.79745  Biso   1.000  O 
  O22      1.0000 0.27807  0.25528  0.54603  Biso   1.000  O 
  O23      1.0000 0.22541  0.74899  0.79527  Biso   1.000  O 
  O24      1.0000 0.22484  0.75320  0.54482  Biso   1.000  O 
  O25      1.0000 0.53483  0.33265  0.66722  Biso   1.000  O 
  O26      1.0000 0.53370  0.17496  0.91761  Biso   1.000  O 
  O27      1.0000 0.97031  0.82587  0.66785  Biso   1.000  O 
  O28      1.0000 0.97056  0.67162  0.91787  Biso   1.000  O 
  O29      1.0000 0.77893  0.25250  0.95491  Biso   1.000  O 
  O30      1.0000 0.77844  0.25420  0.70450  Biso   1.000  O 
  O31      1.0000 0.72640  0.75171  0.95497  Biso   1.000  O 
  O32      1.0000 0.72535  0.75507  0.70472  Biso   1.000  O 
