data_image0
_cell_length_a       10.008
_cell_length_b       10.2121
_cell_length_c       10.4528
_cell_angle_alpha    90
_cell_angle_beta     90
_cell_angle_gamma    90

_symmetry_space_group_name_H-M    "P 1"
_symmetry_int_tables_number       1

loop_
  _symmetry_equiv_pos_as_xyz
  'x, y, z'

loop_
  _atom_site_label
  _atom_site_occupancy
  _atom_site_fract_x
  _atom_site_fract_y
  _atom_site_fract_z
  _atom_site_thermal_displace_type
  _atom_site_B_iso_or_equiv
  _atom_site_type_symbol
  Re1      1.0000 0.14103  0.02239  0.17599  Biso   1.000  Re
  Hf1      1.0000 0.14062  0.23018  0.42069  Biso   1.000  Hf
  Hf2      1.0000 0.36031  0.27025  0.17231  Biso   1.000  Hf
  Hf3      1.0000 0.36213  0.47993  0.42155  Biso   1.000  Hf
  Hf4      1.0000 0.63866  0.02185  0.07750  Biso   1.000  Hf
  Hf5      1.0000 0.63911  0.22922  0.32834  Biso   1.000  Hf
  Hf6      1.0000 0.86350  0.26966  0.07941  Biso   1.000  Hf
  Hf7      1.0000 0.86152  0.47926  0.32809  Biso   1.000  Hf
  O1       1.0000 0.03378  0.16163  0.08417  Biso   1.000  O 
  O2       1.0000 0.03866  0.08395  0.32675  Biso   1.000  O 
  O3       1.0000 0.46664  0.41541  0.08486  Biso   1.000  O 
  O4       1.0000 0.46660  0.33382  0.33464  Biso   1.000  O 
  O5       1.0000 0.27884  0.12144  0.29614  Biso   1.000  O 
  O6       1.0000 0.27280  0.12153  0.05103  Biso   1.000  O 
  O7       1.0000 0.22434  0.37449  0.29508  Biso   1.000  O 
  O8       1.0000 0.22407  0.37478  0.04528  Biso   1.000  O 
  O9       1.0000 0.53332  0.16572  0.16659  Biso   1.000  O 
  O10      1.0000 0.53408  0.08474  0.41674  Biso   1.000  O 
  O11      1.0000 0.96779  0.41553  0.16650  Biso   1.000  O 
  O12      1.0000 0.96760  0.33406  0.41522  Biso   1.000  O 
  O13      1.0000 0.77893  0.12329  0.45360  Biso   1.000  O 
  O14      1.0000 0.77687  0.12617  0.20474  Biso   1.000  O 
  O15      1.0000 0.72419  0.37363  0.45538  Biso   1.000  O 
  O16      1.0000 0.72408  0.37618  0.20520  Biso   1.000  O 
  Hf8      1.0000 0.13980  0.02151  0.67134  Biso   1.000  Hf
  Hf9      1.0000 0.13925  0.22694  0.92311  Biso   1.000  Hf
  Hf10     1.0000 0.36233  0.27188  0.67216  Biso   1.000  Hf
  Hf11     1.0000 0.36262  0.47926  0.92208  Biso   1.000  Hf
  Hf12     1.0000 0.63968  0.02159  0.57824  Biso   1.000  Hf
  Hf13     1.0000 0.64029  0.23004  0.82871  Biso   1.000  Hf
  Hf14     1.0000 0.86242  0.27136  0.57803  Biso   1.000  Hf
  Hf15     1.0000 0.86282  0.47921  0.82932  Biso   1.000  Hf
  O17      1.0000 0.03308  0.16301  0.57925  Biso   1.000  O 
  O18      1.0000 0.03289  0.08640  0.83070  Biso   1.000  O 
  O19      1.0000 0.46750  0.41665  0.58424  Biso   1.000  O 
  O20      1.0000 0.46825  0.33524  0.83421  Biso   1.000  O 
  O21      1.0000 0.27787  0.12409  0.79713  Biso   1.000  O 
  O22      1.0000 0.27797  0.12711  0.54576  Biso   1.000  O 
  O23      1.0000 0.22455  0.37397  0.79546  Biso   1.000  O 
  O24      1.0000 0.22414  0.37636  0.54471  Biso   1.000  O 
  O25      1.0000 0.53428  0.16619  0.66656  Biso   1.000  O 
  O26      1.0000 0.53282  0.08660  0.91717  Biso   1.000  O 
  O27      1.0000 0.96873  0.41425  0.66710  Biso   1.000  O 
  O28      1.0000 0.96932  0.33436  0.91749  Biso   1.000  O 
  O29      1.0000 0.77719  0.12474  0.95411  Biso   1.000  O 
  O30      1.0000 0.77763  0.12679  0.70415  Biso   1.000  O 
  O31      1.0000 0.72564  0.37470  0.95548  Biso   1.000  O 
  O32      1.0000 0.72475  0.37698  0.70523  Biso   1.000  O 
  Hf16     1.0000 0.13955  0.52142  0.17145  Biso   1.000  Hf
  Hf17     1.0000 0.13905  0.72919  0.42146  Biso   1.000  Hf
  Hf18     1.0000 0.35884  0.77528  0.17123  Biso   1.000  Hf
  Hf19     1.0000 0.36202  0.97898  0.42203  Biso   1.000  Hf
  Hf20     1.0000 0.63861  0.52170  0.07909  Biso   1.000  Hf
  Hf21     1.0000 0.63873  0.72913  0.32752  Biso   1.000  Hf
  Hf22     1.0000 0.86398  0.77250  0.07797  Biso   1.000  Hf
  Hf23     1.0000 0.86217  0.97950  0.32700  Biso   1.000  Hf
  O33      1.0000 0.03338  0.66443  0.08310  Biso   1.000  O 
  O34      1.0000 0.03348  0.58493  0.33321  Biso   1.000  O 
  O35      1.0000 0.46831  0.91501  0.08235  Biso   1.000  O 
  O36      1.0000 0.46688  0.83619  0.33266  Biso   1.000  O 
  O37      1.0000 0.27706  0.62526  0.29523  Biso   1.000  O 
  O38      1.0000 0.27696  0.62739  0.04516  Biso   1.000  O 
  O39      1.0000 0.21953  0.87579  0.29404  Biso   1.000  O 
  O40      1.0000 0.21953  0.87850  0.04538  Biso   1.000  O 
  O41      1.0000 0.53242  0.66715  0.16593  Biso   1.000  O 
  O42      1.0000 0.53414  0.58495  0.41614  Biso   1.000  O 
  O43      1.0000 0.97579  0.91778  0.16471  Biso   1.000  O 
  O44      1.0000 0.96803  0.83642  0.41607  Biso   1.000  O 
  O45      1.0000 0.77719  0.62418  0.45485  Biso   1.000  O 
  O46      1.0000 0.77674  0.62679  0.20498  Biso   1.000  O 
  O47      1.0000 0.72413  0.87422  0.45395  Biso   1.000  O 
  O48      1.0000 0.72855  0.87712  0.20454  Biso   1.000  O 
  Hf24     1.0000 0.14005  0.52140  0.67209  Biso   1.000  Hf
  Hf25     1.0000 0.14082  0.73013  0.92171  Biso   1.000  Hf
  Hf26     1.0000 0.36274  0.77129  0.67167  Biso   1.000  Hf
  Hf27     1.0000 0.36225  0.97860  0.92244  Biso   1.000  Hf
  Hf28     1.0000 0.64006  0.52160  0.57899  Biso   1.000  Hf
  Hf29     1.0000 0.64054  0.72940  0.82918  Biso   1.000  Hf
  Hf30     1.0000 0.86189  0.77156  0.57801  Biso   1.000  Hf
  Hf31     1.0000 0.86256  0.97946  0.82786  Biso   1.000  Hf
  O49      1.0000 0.03337  0.66500  0.58292  Biso   1.000  O 
  O50      1.0000 0.03443  0.58538  0.83360  Biso   1.000  O 
  O51      1.0000 0.46840  0.91591  0.58429  Biso   1.000  O 
  O52      1.0000 0.46814  0.83468  0.83426  Biso   1.000  O 
  O53      1.0000 0.27822  0.62411  0.79528  Biso   1.000  O 
  O54      1.0000 0.27756  0.62658  0.54539  Biso   1.000  O 
  O55      1.0000 0.22502  0.87425  0.79475  Biso   1.000  O 
  O56      1.0000 0.22483  0.87618  0.54493  Biso   1.000  O 
  O57      1.0000 0.53492  0.66630  0.66637  Biso   1.000  O 
  O58      1.0000 0.53525  0.58436  0.91620  Biso   1.000  O 
  O59      1.0000 0.96867  0.91507  0.66609  Biso   1.000  O 
  O60      1.0000 0.96854  0.83530  0.91578  Biso   1.000  O 
  O61      1.0000 0.77903  0.62532  0.95584  Biso   1.000  O 
  O62      1.0000 0.77824  0.62647  0.70545  Biso   1.000  O 
  O63      1.0000 0.72506  0.87482  0.95466  Biso   1.000  O 
  O64      1.0000 0.72476  0.87665  0.70465  Biso   1.000  O 
