data_image0
_cell_length_a       9.93566
_cell_length_b       5.1689
_cell_length_c       9.97758
_cell_angle_alpha    90
_cell_angle_beta     90
_cell_angle_gamma    90

_symmetry_space_group_name_H-M    "P 1"
_symmetry_int_tables_number       1

loop_
  _symmetry_equiv_pos_as_xyz
  'x, y, z'

loop_
  _atom_site_label
  _atom_site_occupancy
  _atom_site_fract_x
  _atom_site_fract_y
  _atom_site_fract_z
  _atom_site_thermal_displace_type
  _atom_site_B_iso_or_equiv
  _atom_site_type_symbol
  Re1      1.0000 0.13885  0.04173  0.12321  Biso   1.000  Re
  Hf1      1.0000 0.13312  0.46902  0.37398  Biso   1.000  Hf
  Hf2      1.0000 0.36551  0.54092  0.12654  Biso   1.000  Hf
  Hf3      1.0000 0.36522  0.97123  0.37506  Biso   1.000  Hf
  O1       1.0000 0.03879  0.35784  0.19383  Biso   1.000  O 
  O2       1.0000 0.03462  0.13931  0.44959  Biso   1.000  O 
  O3       1.0000 0.46501  0.87035  0.19489  Biso   1.000  O 
  O4       1.0000 0.46360  0.63567  0.44253  Biso   1.000  O 
  O5       1.0000 0.27041  0.24196  0.24623  Biso   1.000  O 
  O6       1.0000 0.27083  0.26829  0.49838  Biso   1.000  O 
  O7       1.0000 0.22967  0.76780  0.49974  Biso   1.000  O 
  O8       1.0000 0.22557  0.74930  0.24846  Biso   1.000  O 
  Hf4      1.0000 0.13461  0.03609  0.62656  Biso   1.000  Hf
  Hf5      1.0000 0.13496  0.47041  0.87817  Biso   1.000  Hf
  Hf6      1.0000 0.36652  0.53684  0.62535  Biso   1.000  Hf
  Hf7      1.0000 0.36605  0.97057  0.87666  Biso   1.000  Hf
  O9       1.0000 0.03452  0.36638  0.70083  Biso   1.000  O 
  O10      1.0000 0.03750  0.13294  0.95821  Biso   1.000  O 
  O11      1.0000 0.46335  0.87354  0.69351  Biso   1.000  O 
  O12      1.0000 0.46152  0.63327  0.94354  Biso   1.000  O 
  O13      1.0000 0.27136  0.23979  0.75041  Biso   1.000  O 
  O14      1.0000 0.27142  0.25687  0.00193  Biso   1.000  O 
  O15      1.0000 0.22370  0.76247  0.00189  Biso   1.000  O 
  O16      1.0000 0.22994  0.73725  0.75110  Biso   1.000  O 
  Hf8      1.0000 0.63529  0.03538  0.12564  Biso   1.000  Hf
  Hf9      1.0000 0.63526  0.47148  0.37450  Biso   1.000  Hf
  Hf10     1.0000 0.86983  0.53405  0.12457  Biso   1.000  Hf
  Hf11     1.0000 0.86965  0.97063  0.37368  Biso   1.000  Hf
  O17      1.0000 0.53710  0.37223  0.19255  Biso   1.000  O 
  O18      1.0000 0.53636  0.13638  0.44286  Biso   1.000  O 
  O19      1.0000 0.97421  0.86214  0.19308  Biso   1.000  O 
  O20      1.0000 0.96543  0.63570  0.44629  Biso   1.000  O 
  O21      1.0000 0.77203  0.23793  0.24897  Biso   1.000  O 
  O22      1.0000 0.77100  0.26896  0.49891  Biso   1.000  O 
  O23      1.0000 0.73066  0.76938  0.49810  Biso   1.000  O 
  O24      1.0000 0.73411  0.73883  0.24793  Biso   1.000  O 
  Hf12     1.0000 0.63441  0.03645  0.62451  Biso   1.000  Hf
  Hf13     1.0000 0.63460  0.47086  0.87563  Biso   1.000  Hf
  Hf14     1.0000 0.86654  0.53534  0.62626  Biso   1.000  Hf
  Hf15     1.0000 0.86715  0.97147  0.87631  Biso   1.000  Hf
  O25      1.0000 0.53728  0.37377  0.69322  Biso   1.000  O 
  O26      1.0000 0.53778  0.13377  0.94297  Biso   1.000  O 
  O27      1.0000 0.96526  0.87017  0.69617  Biso   1.000  O 
  O28      1.0000 0.96269  0.63269  0.94143  Biso   1.000  O 
  O29      1.0000 0.77048  0.23808  0.74956  Biso   1.000  O 
  O30      1.0000 0.77216  0.26988  0.99910  Biso   1.000  O 
  O31      1.0000 0.72999  0.76956  0.99873  Biso   1.000  O 
  O32      1.0000 0.72990  0.73952  0.74916  Biso   1.000  O 
