data_image0
_cell_length_a       4.96977
_cell_length_b       10.3311
_cell_length_c       9.98217
_cell_angle_alpha    90
_cell_angle_beta     90
_cell_angle_gamma    90

_symmetry_space_group_name_H-M    "P 1"
_symmetry_int_tables_number       1

loop_
  _symmetry_equiv_pos_as_xyz
  'x, y, z'

loop_
  _atom_site_label
  _atom_site_occupancy
  _atom_site_fract_x
  _atom_site_fract_y
  _atom_site_fract_z
  _atom_site_thermal_displace_type
  _atom_site_B_iso_or_equiv
  _atom_site_type_symbol
  Re1      1.0000 0.27486  0.02174  0.12104  Biso   1.000  Re
  Hf1      1.0000 0.26553  0.23349  0.37553  Biso   1.000  Hf
  Hf2      1.0000 0.73275  0.26635  0.12603  Biso   1.000  Hf
  Hf3      1.0000 0.73189  0.48551  0.37620  Biso   1.000  Hf
  O1       1.0000 0.06852  0.17870  0.19673  Biso   1.000  O 
  O2       1.0000 0.06818  0.06922  0.44992  Biso   1.000  O 
  O3       1.0000 0.92987  0.43261  0.19471  Biso   1.000  O 
  O4       1.0000 0.92818  0.31802  0.44515  Biso   1.000  O 
  O5       1.0000 0.53238  0.11737  0.24610  Biso   1.000  O 
  O6       1.0000 0.54245  0.13444  0.49771  Biso   1.000  O 
  O7       1.0000 0.45869  0.38392  0.50005  Biso   1.000  O 
  O8       1.0000 0.46002  0.36879  0.25025  Biso   1.000  O 
  Hf4      1.0000 0.26991  0.01804  0.62594  Biso   1.000  Hf
  Hf5      1.0000 0.27061  0.23594  0.87740  Biso   1.000  Hf
  Hf6      1.0000 0.73284  0.26775  0.62621  Biso   1.000  Hf
  Hf7      1.0000 0.73221  0.48625  0.87594  Biso   1.000  Hf
  O9       1.0000 0.07081  0.18458  0.69981  Biso   1.000  O 
  O10      1.0000 0.07613  0.06704  0.95651  Biso   1.000  O 
  O11      1.0000 0.92710  0.43610  0.69392  Biso   1.000  O 
  O12      1.0000 0.92668  0.31645  0.94421  Biso   1.000  O 
  O13      1.0000 0.54206  0.11958  0.75001  Biso   1.000  O 
  O14      1.0000 0.54764  0.13130  0.99956  Biso   1.000  O 
  O15      1.0000 0.45727  0.38068  0.00050  Biso   1.000  O 
  O16      1.0000 0.45885  0.36919  0.75040  Biso   1.000  O 
  Hf8      1.0000 0.26988  0.51771  0.12682  Biso   1.000  Hf
  Hf9      1.0000 0.26874  0.73737  0.37372  Biso   1.000  Hf
  Hf10     1.0000 0.73351  0.77077  0.12525  Biso   1.000  Hf
  Hf11     1.0000 0.73625  0.98633  0.37209  Biso   1.000  Hf
  O17      1.0000 0.07296  0.68443  0.19277  Biso   1.000  O 
  O18      1.0000 0.07342  0.56857  0.44304  Biso   1.000  O 
  O19      1.0000 0.94248  0.93495  0.19236  Biso   1.000  O 
  O20      1.0000 0.92796  0.81830  0.44356  Biso   1.000  O 
  O21      1.0000 0.54375  0.62123  0.24977  Biso   1.000  O 
  O22      1.0000 0.54092  0.63482  0.49921  Biso   1.000  O 
  O23      1.0000 0.46054  0.88515  0.49782  Biso   1.000  O 
  O24      1.0000 0.45687  0.87491  0.24598  Biso   1.000  O 
  Hf12     1.0000 0.26802  0.51860  0.62512  Biso   1.000  Hf
  Hf13     1.0000 0.26714  0.73534  0.87613  Biso   1.000  Hf
  Hf14     1.0000 0.73256  0.76880  0.62529  Biso   1.000  Hf
  Hf15     1.0000 0.73100  0.98461  0.87711  Biso   1.000  Hf
  O25      1.0000 0.07266  0.68631  0.69378  Biso   1.000  O 
  O26      1.0000 0.07509  0.56671  0.94395  Biso   1.000  O 
  O27      1.0000 0.92970  0.93602  0.69651  Biso   1.000  O 
  O28      1.0000 0.92083  0.81681  0.94177  Biso   1.000  O 
  O29      1.0000 0.54125  0.61970  0.74948  Biso   1.000  O 
  O30      1.0000 0.54393  0.63499  0.99988  Biso   1.000  O 
  O31      1.0000 0.44731  0.88549  0.99970  Biso   1.000  O 
  O32      1.0000 0.46033  0.86960  0.74977  Biso   1.000  O 
