data_image0
_cell_length_a       10.178
_cell_length_b       5.1524
_cell_length_c       10.5528
_cell_angle_alpha    90
_cell_angle_beta     80
_cell_angle_gamma    90

_symmetry_space_group_name_H-M    "P 1"
_symmetry_int_tables_number       1

loop_
  _symmetry_equiv_pos_as_xyz
  'x, y, z'

loop_
  _atom_site_label
  _atom_site_occupancy
  _atom_site_fract_x
  _atom_site_fract_y
  _atom_site_fract_z
  _atom_site_thermal_displace_type
  _atom_site_B_iso_or_equiv
  _atom_site_type_symbol
  Hf1      1.0000 0.13525  0.04568  0.14453  Biso   1.000  Hf
  Hf2      1.0000 0.13845  0.46016  0.39701  Biso   1.000  Hf
  Hf3      1.0000 0.35492  0.54769  0.09474  Biso   1.000  Hf
  Hf4      1.0000 0.35400  0.94605  0.35611  Biso   1.000  Hf
  O1       1.0000 0.03205  0.34134  0.07737  Biso   1.000  O 
  O2       1.0000 0.03430  0.17213  0.32579  Biso   1.000  O 
  O3       1.0000 0.46191  0.82912  0.17487  Biso   1.000  O 
  O4       1.0000 0.48139  0.70040  0.43989  Biso   1.000  O 
  O5       1.0000 0.27755  0.25346  0.23716  Biso   1.000  O 
  O6       1.0000 0.26720  0.22584  0.49649  Biso   1.000  O 
  O7       1.0000 0.21905  0.76599  0.00547  Biso   1.000  O 
  O8       1.0000 0.20899  0.75030  0.25450  Biso   1.000  O 
  Hf5      1.0000 0.13606  0.03889  0.64830  Biso   1.000  Hf
  Hf6      1.0000 0.13502  0.45462  0.89487  Biso   1.000  Hf
  Hf7      1.0000 0.36032  0.53868  0.60664  Biso   1.000  Hf
  Hf8      1.0000 0.35867  0.95604  0.85279  Biso   1.000  Hf
  O9       1.0000 0.03217  0.33026  0.57883  Biso   1.000  O 
  O10      1.0000 0.03214  0.16376  0.82877  Biso   1.000  O 
  O11      1.0000 0.46543  0.82137  0.67778  Biso   1.000  O 
  O12      1.0000 0.46694  0.67305  0.92328  Biso   1.000  O 
  O13      1.0000 0.27459  0.25357  0.74118  Biso   1.000  O 
  O14      1.0000 0.27359  0.24306  0.98768  Biso   1.000  O 
  O15      1.0000 0.22260  0.74956  0.51341  Biso   1.000  O 
  O16      1.0000 0.22239  0.73861  0.75931  Biso   1.000  O 
  Hf9      1.0000 0.63862  0.04186  0.14690  Biso   1.000  Hf
  Hf10     1.0000 0.64809  0.45572  0.40064  Biso   1.000  Hf
  Hf11     1.0000 0.85854  0.54489  0.10488  Biso   1.000  Hf
  Hf12     1.0000 0.86192  0.95598  0.35433  Biso   1.000  Hf
  O17      1.0000 0.52853  0.31913  0.07166  Biso   1.000  O 
  O18      1.0000 0.54648  0.12933  0.33563  Biso   1.000  O 
  O19      1.0000 0.96173  0.84022  0.16956  Biso   1.000  O 
  O20      1.0000 0.96536  0.66961  0.42409  Biso   1.000  O 
  O21      1.0000 0.77701  0.25825  0.23964  Biso   1.000  O 
  O22      1.0000 0.77913  0.23572  0.49230  Biso   1.000  O 
  O23      1.0000 0.71963  0.75831  0.01271  Biso   1.000  O 
  O24      1.0000 0.72644  0.74074  0.26141  Biso   1.000  O 
  Hf13     1.0000 0.63835  0.03859  0.64657  Biso   1.000  Hf
  Hf14     1.0000 0.63761  0.45060  0.89637  Biso   1.000  Hf
  Hf15     1.0000 0.86155  0.53990  0.60669  Biso   1.000  Hf
  Hf16     1.0000 0.85740  0.95280  0.85572  Biso   1.000  Hf
  O25      1.0000 0.53303  0.32268  0.57636  Biso   1.000  O 
  O26      1.0000 0.53180  0.17160  0.82416  Biso   1.000  O 
  O27      1.0000 0.96252  0.83015  0.67429  Biso   1.000  O 
  O28      1.0000 0.96240  0.66333  0.92124  Biso   1.000  O 
  O29      1.0000 0.77442  0.25340  0.74141  Biso   1.000  O 
  O30      1.0000 0.77513  0.23908  0.99078  Biso   1.000  O 
  O31      1.0000 0.72627  0.75186  0.51304  Biso   1.000  O 
  O32      1.0000 0.72193  0.73941  0.76224  Biso   1.000  O 
  Rh1      1.0000 0.41969  0.45489  0.31715  Biso   1.000  Rh
