data_image0
_cell_length_a       10.1196
_cell_length_b       10.2426
_cell_length_c       5.25973
_cell_angle_alpha    90
_cell_angle_beta     90
_cell_angle_gamma    90

_symmetry_space_group_name_H-M    "P 1"
_symmetry_int_tables_number       1

loop_
  _symmetry_equiv_pos_as_xyz
  'x, y, z'

loop_
  _atom_site_label
  _atom_site_occupancy
  _atom_site_fract_x
  _atom_site_fract_y
  _atom_site_fract_z
  _atom_site_thermal_displace_type
  _atom_site_B_iso_or_equiv
  _atom_site_type_symbol
  Hf1      1.0000 0.13355  0.01817  0.35209  Biso   1.000  Hf
  Hf2      1.0000 0.12895  0.22797  0.85712  Biso   1.000  Hf
  Hf3      1.0000 0.34634  0.26820  0.36981  Biso   1.000  Hf
  Hf4      1.0000 0.35089  0.48281  0.85838  Biso   1.000  Hf
  Hf5      1.0000 0.64217  0.01813  0.14833  Biso   1.000  Hf
  Hf6      1.0000 0.64558  0.22923  0.63282  Biso   1.000  Hf
  Hf7      1.0000 0.86419  0.27221  0.14990  Biso   1.000  Hf
  Hf8      1.0000 0.85982  0.48220  0.65633  Biso   1.000  Hf
  O1       1.0000 0.03062  0.16239  0.16978  Biso   1.000  O 
  O2       1.0000 0.02634  0.08512  0.66867  Biso   1.000  O 
  O3       1.0000 0.45345  0.43902  0.21200  Biso   1.000  O 
  O4       1.0000 0.47097  0.34252  0.65849  Biso   1.000  O 
  O5       1.0000 0.26778  0.12446  0.60639  Biso   1.000  O 
  O6       1.0000 0.26923  0.11809  0.10825  Biso   1.000  O 
  O7       1.0000 0.21732  0.37499  0.61278  Biso   1.000  O 
  O8       1.0000 0.21937  0.37461  0.10944  Biso   1.000  O 
  O9       1.0000 0.52591  0.15449  0.35213  Biso   1.000  O 
  O10      1.0000 0.52118  0.08511  0.83216  Biso   1.000  O 
  O11      1.0000 0.96688  0.41442  0.33806  Biso   1.000  O 
  O12      1.0000 0.96206  0.33627  0.83557  Biso   1.000  O 
  O13      1.0000 0.77042  0.12395  0.89284  Biso   1.000  O 
  O14      1.0000 0.77696  0.12387  0.39273  Biso   1.000  O 
  O15      1.0000 0.72541  0.38217  0.90152  Biso   1.000  O 
  O16      1.0000 0.72712  0.37606  0.40592  Biso   1.000  O 
  Hf9      1.0000 0.13715  0.52127  0.34900  Biso   1.000  Hf
  Hf10     1.0000 0.13041  0.73075  0.84838  Biso   1.000  Hf
  Hf11     1.0000 0.36115  0.77113  0.35195  Biso   1.000  Hf
  Hf12     1.0000 0.35159  0.97799  0.85590  Biso   1.000  Hf
  Hf13     1.0000 0.63949  0.52169  0.15635  Biso   1.000  Hf
  Hf14     1.0000 0.63268  0.72997  0.65628  Biso   1.000  Hf
  Hf15     1.0000 0.86273  0.76870  0.15857  Biso   1.000  Hf
  Hf16     1.0000 0.85800  0.97772  0.65666  Biso   1.000  Hf
  O17      1.0000 0.03345  0.66312  0.16777  Biso   1.000  O 
  O18      1.0000 0.02876  0.58733  0.66828  Biso   1.000  O 
  O19      1.0000 0.47014  0.91364  0.17072  Biso   1.000  O 
  O20      1.0000 0.46218  0.83605  0.67280  Biso   1.000  O 
  O21      1.0000 0.27119  0.62529  0.59552  Biso   1.000  O 
  O22      1.0000 0.27530  0.62597  0.09349  Biso   1.000  O 
  O23      1.0000 0.21975  0.87402  0.60110  Biso   1.000  O 
  O24      1.0000 0.22559  0.87300  0.10234  Biso   1.000  O 
  O25      1.0000 0.53380  0.66970  0.33447  Biso   1.000  O 
  O26      1.0000 0.52342  0.58568  0.83769  Biso   1.000  O 
  O27      1.0000 0.96606  0.91188  0.33823  Biso   1.000  O 
  O28      1.0000 0.95921  0.83600  0.83992  Biso   1.000  O 
  O29      1.0000 0.76683  0.62796  0.90658  Biso   1.000  O 
  O30      1.0000 0.77372  0.62542  0.40730  Biso   1.000  O 
  O31      1.0000 0.71650  0.87628  0.91080  Biso   1.000  O 
  O32      1.0000 0.72342  0.87477  0.41122  Biso   1.000  O 
  Rh1      1.0000 0.52012  0.27497  0.02997  Biso   1.000  Rh
