data_image0
_cell_length_a       10.1393
_cell_length_b       10.2684
_cell_length_c       5.07637
_cell_angle_alpha    90
_cell_angle_beta     90
_cell_angle_gamma    90

_symmetry_space_group_name_H-M    "P 1"
_symmetry_int_tables_number       1

loop_
  _symmetry_equiv_pos_as_xyz
  'x, y, z'

loop_
  _atom_site_label
  _atom_site_occupancy
  _atom_site_fract_x
  _atom_site_fract_y
  _atom_site_fract_z
  _atom_site_thermal_displace_type
  _atom_site_B_iso_or_equiv
  _atom_site_type_symbol
  Hf1      1.0000 0.13286  0.95434  0.24962  Biso   1.000  Hf
  Hf2      1.0000 0.14885  0.28971  0.74861  Biso   1.000  Hf
  Hf3      1.0000 0.38898  0.24800  0.30505  Biso   1.000  Hf
  Hf4      1.0000 0.39630  0.00250  0.78416  Biso   1.000  Hf
  O1       1.0000 0.99879  0.16475  0.84243  Biso   1.000  O 
  O2       1.0000 0.98187  0.07925  0.35904  Biso   1.000  O 
  O3       1.0000 0.01811  0.35173  0.45382  Biso   1.000  O 
  O4       1.0000 0.02197  0.41400  0.97785  Biso   1.000  O 
  O5       1.0000 0.29889  0.16472  0.65480  Biso   1.000  O 
  O6       1.0000 0.28367  0.07923  0.14026  Biso   1.000  O 
  O7       1.0000 0.24744  0.35169  0.04552  Biso   1.000  O 
  O8       1.0000 0.27576  0.41397  0.51937  Biso   1.000  O 
  Hf5      1.0000 0.13280  0.51226  0.24963  Biso   1.000  Hf
  Hf6      1.0000 0.14890  0.74065  0.74861  Biso   1.000  Hf
  Hf7      1.0000 0.39710  0.75945  0.26994  Biso   1.000  Hf
  Hf8      1.0000 0.41453  0.49385  0.77377  Biso   1.000  Hf
  O9       1.0000 0.01642  0.66086  0.07508  Biso   1.000  O 
  O10      1.0000 0.03128  0.59246  0.57093  Biso   1.000  O 
  O11      1.0000 0.00837  0.83997  0.48877  Biso   1.000  O 
  O12      1.0000 0.03569  0.89927  0.95597  Biso   1.000  O 
  O13      1.0000 0.24922  0.66084  0.42417  Biso   1.000  O 
  O14      1.0000 0.26643  0.59240  0.92624  Biso   1.000  O 
  O15      1.0000 0.25733  0.83995  0.01050  Biso   1.000  O 
  O16      1.0000 0.26218  0.89923  0.54119  Biso   1.000  O 
  Hf9      1.0000 0.63279  0.00807  0.24964  Biso   1.000  Hf
  Hf10     1.0000 0.64882  0.24066  0.74864  Biso   1.000  Hf
  Hf11     1.0000 0.87656  0.24805  0.19426  Biso   1.000  Hf
  Hf12     1.0000 0.90138  0.00254  0.71309  Biso   1.000  Hf
  O17      1.0000 0.50536  0.14923  0.02030  Biso   1.000  O 
  O18      1.0000 0.51830  0.10353  0.51472  Biso   1.000  O 
  O19      1.0000 0.52475  0.35616  0.53481  Biso   1.000  O 
  O20      1.0000 0.49365  0.39740  0.04778  Biso   1.000  O 
  O21      1.0000 0.76018  0.14927  0.47901  Biso   1.000  O 
  O22      1.0000 0.77938  0.10356  0.98255  Biso   1.000  O 
  O23      1.0000 0.77297  0.35617  0.96223  Biso   1.000  O 
  O24      1.0000 0.77196  0.39745  0.45129  Biso   1.000  O 
  Hf13     1.0000 0.63279  0.50015  0.24956  Biso   1.000  Hf
  Hf14     1.0000 0.64892  0.75710  0.74872  Biso   1.000  Hf
  Hf15     1.0000 0.86859  0.75944  0.22952  Biso   1.000  Hf
  Hf16     1.0000 0.88322  0.49385  0.72334  Biso   1.000  Hf
  O25      1.0000 0.53076  0.64622  0.99734  Biso   1.000  O 
  O26      1.0000 0.51301  0.60844  0.49914  Biso   1.000  O 
  O27      1.0000 0.51263  0.85760  0.52982  Biso   1.000  O 
  O28      1.0000 0.50605  0.89821  0.02257  Biso   1.000  O 
  O29      1.0000 0.76699  0.64624  0.49988  Biso   1.000  O 
  O30      1.0000 0.75259  0.60848  0.00009  Biso   1.000  O 
  O31      1.0000 0.78521  0.85764  0.96762  Biso   1.000  O 
  O32      1.0000 0.75966  0.89823  0.47691  Biso   1.000  O 
  Rh1      1.0000 0.13276  0.20390  0.24962  Biso   1.000  Rh
