data_image0
_cell_length_a       10.0632
_cell_length_b       5.23274
_cell_length_c       10.1094
_cell_angle_alpha    90
_cell_angle_beta     90
_cell_angle_gamma    90

_symmetry_space_group_name_H-M    "P 1"
_symmetry_int_tables_number       1

loop_
  _symmetry_equiv_pos_as_xyz
  'x, y, z'

loop_
  _atom_site_label
  _atom_site_occupancy
  _atom_site_fract_x
  _atom_site_fract_y
  _atom_site_fract_z
  _atom_site_thermal_displace_type
  _atom_site_B_iso_or_equiv
  _atom_site_type_symbol
  Hf1      1.0000 0.11878  0.08719  0.10878  Biso   1.000  Hf
  Hf2      1.0000 0.14402  0.41125  0.39019  Biso   1.000  Hf
  Hf3      1.0000 0.39301  0.51712  0.10534  Biso   1.000  Hf
  Hf4      1.0000 0.37253  0.91760  0.37511  Biso   1.000  Hf
  O1       1.0000 0.00462  0.33782  0.22712  Biso   1.000  O 
  O2       1.0000 0.03802  0.09625  0.46024  Biso   1.000  O 
  O3       1.0000 0.46913  0.85805  0.18921  Biso   1.000  O 
  O4       1.0000 0.48195  0.60696  0.46011  Biso   1.000  O 
  O5       1.0000 0.23890  0.11446  0.26441  Biso   1.000  O 
  O6       1.0000 0.28506  0.21843  0.50523  Biso   1.000  O 
  O7       1.0000 0.23676  0.72289  0.50496  Biso   1.000  O 
  O8       1.0000 0.29095  0.59040  0.27548  Biso   1.000  O 
  Hf5      1.0000 0.14473  0.99120  0.62965  Biso   1.000  Hf
  Hf6      1.0000 0.14198  0.42940  0.87209  Biso   1.000  Hf
  Hf7      1.0000 0.37595  0.49497  0.62828  Biso   1.000  Hf
  Hf8      1.0000 0.37705  0.92750  0.87460  Biso   1.000  Hf
  O9       1.0000 0.04816  0.33459  0.69052  Biso   1.000  O 
  O10      1.0000 0.04008  0.09266  0.92891  Biso   1.000  O 
  O11      1.0000 0.47353  0.83192  0.69679  Biso   1.000  O 
  O12      1.0000 0.48348  0.60220  0.93229  Biso   1.000  O 
  O13      1.0000 0.27859  0.19587  0.75147  Biso   1.000  O 
  O14      1.0000 0.28416  0.21554  0.99213  Biso   1.000  O 
  O15      1.0000 0.23322  0.78924  0.00583  Biso   1.000  O 
  O16      1.0000 0.24080  0.69658  0.75393  Biso   1.000  O 
  Hf9      1.0000 0.63532  0.02643  0.12492  Biso   1.000  Hf
  Hf10     1.0000 0.64177  0.43939  0.37741  Biso   1.000  Hf
  Hf11     1.0000 0.85544  0.52830  0.11634  Biso   1.000  Hf
  Hf12     1.0000 0.87350  0.94622  0.37322  Biso   1.000  Hf
  O17      1.0000 0.53850  0.35120  0.20295  Biso   1.000  O 
  O18      1.0000 0.54363  0.09959  0.44080  Biso   1.000  O 
  O19      1.0000 0.95760  0.86468  0.18091  Biso   1.000  O 
  O20      1.0000 0.97517  0.61064  0.44502  Biso   1.000  O 
  O21      1.0000 0.76794  0.20851  0.24709  Biso   1.000  O 
  O22      1.0000 0.77699  0.23694  0.49539  Biso   1.000  O 
  O23      1.0000 0.74399  0.73872  0.49455  Biso   1.000  O 
  O24      1.0000 0.73081  0.71283  0.24725  Biso   1.000  O 
  Hf13     1.0000 0.63885  0.98949  0.61616  Biso   1.000  Hf
  Hf14     1.0000 0.64879  0.41360  0.86537  Biso   1.000  Hf
  Hf15     1.0000 0.88097  0.49651  0.61768  Biso   1.000  Hf
  Hf16     1.0000 0.86998  0.91279  0.86654  Biso   1.000  Hf
  O25      1.0000 0.54258  0.32020  0.69490  Biso   1.000  O 
  O26      1.0000 0.53792  0.11062  0.95657  Biso   1.000  O 
  O27      1.0000 0.97457  0.82596  0.69445  Biso   1.000  O 
  O28      1.0000 0.96412  0.58221  0.93055  Biso   1.000  O 
  O29      1.0000 0.77643  0.18200  0.74220  Biso   1.000  O 
  O30      1.0000 0.77831  0.20231  0.99295  Biso   1.000  O 
  O31      1.0000 0.73551  0.70444  0.99396  Biso   1.000  O 
  O32      1.0000 0.73896  0.68494  0.74117  Biso   1.000  O 
  Rh1      1.0000 0.12103  0.60303  0.14861  Biso   1.000  Rh
