data_image0
_cell_length_a       10.0508
_cell_length_b       10.2203
_cell_length_c       5.03211
_cell_angle_alpha    90
_cell_angle_beta     90
_cell_angle_gamma    90

_symmetry_space_group_name_H-M    "P 1"
_symmetry_int_tables_number       1

loop_
  _symmetry_equiv_pos_as_xyz
  'x, y, z'

loop_
  _atom_site_label
  _atom_site_occupancy
  _atom_site_fract_x
  _atom_site_fract_y
  _atom_site_fract_z
  _atom_site_thermal_displace_type
  _atom_site_B_iso_or_equiv
  _atom_site_type_symbol
  Rh1      1.0000 0.10525  0.04400  0.25423  Biso   1.000  Rh
  Hf1      1.0000 0.09770  0.25244  0.75276  Biso   1.000  Hf
  Hf2      1.0000 0.38260  0.26403  0.27017  Biso   1.000  Hf
  Hf3      1.0000 0.32616  0.00317  0.72601  Biso   1.000  Hf
  O1       1.0000 0.98676  0.15729  0.01300  Biso   1.000  O 
  O2       1.0000 0.98274  0.09857  0.53185  Biso   1.000  O 
  O3       1.0000 0.02202  0.34342  0.42233  Biso   1.000  O 
  O4       1.0000 0.00346  0.42133  0.91941  Biso   1.000  O 
  O5       1.0000 0.23375  0.16260  0.46515  Biso   1.000  O 
  O6       1.0000 0.19265  0.08745  0.94660  Biso   1.000  O 
  O7       1.0000 0.25598  0.33807  0.92848  Biso   1.000  O 
  O8       1.0000 0.27183  0.42160  0.42540  Biso   1.000  O 
  Hf4      1.0000 0.11181  0.50669  0.24060  Biso   1.000  Hf
  Hf5      1.0000 0.09856  0.75285  0.71525  Biso   1.000  Hf
  Hf6      1.0000 0.36092  0.74058  0.21200  Biso   1.000  Hf
  Hf7      1.0000 0.36195  0.49929  0.75578  Biso   1.000  Hf
  O9       1.0000 0.99709  0.65326  0.00355  Biso   1.000  O 
  O10      1.0000 0.98006  0.60314  0.49006  Biso   1.000  O 
  O11      1.0000 0.92996  0.84556  0.59842  Biso   1.000  O 
  O12      1.0000 0.97757  0.91406  0.09416  Biso   1.000  O 
  O13      1.0000 0.21913  0.66398  0.44799  Biso   1.000  O 
  O14      1.0000 0.21955  0.59981  0.95691  Biso   1.000  O 
  O15      1.0000 0.22870  0.84850  0.93842  Biso   1.000  O 
  O16      1.0000 0.18681  0.91819  0.47242  Biso   1.000  O 
  Hf8      1.0000 0.58509  0.99645  0.25415  Biso   1.000  Hf
  Hf9      1.0000 0.59998  0.24726  0.79349  Biso   1.000  Hf
  Hf10     1.0000 0.85730  0.25196  0.27951  Biso   1.000  Hf
  Hf11     1.0000 0.83474  0.00815  0.78783  Biso   1.000  Hf
  O17      1.0000 0.48200  0.13578  0.00959  Biso   1.000  O 
  O18      1.0000 0.48585  0.11528  0.51225  Biso   1.000  O 
  O19      1.0000 0.51060  0.36546  0.51917  Biso   1.000  O 
  O20      1.0000 0.51574  0.38947  0.02188  Biso   1.000  O 
  O21      1.0000 0.74636  0.16865  0.56682  Biso   1.000  O 
  O22      1.0000 0.73752  0.10386  0.05988  Biso   1.000  O 
  O23      1.0000 0.74335  0.36528  0.96595  Biso   1.000  O 
  O24      1.0000 0.76924  0.41930  0.45628  Biso   1.000  O 
  Hf12     1.0000 0.61771  0.51571  0.27557  Biso   1.000  Hf
  Hf13     1.0000 0.59260  0.76716  0.75035  Biso   1.000  Hf
  Hf14     1.0000 0.86932  0.75297  0.25636  Biso   1.000  Hf
  Hf15     1.0000 0.84686  0.52198  0.76700  Biso   1.000  Hf
  O25      1.0000 0.49551  0.63659  0.00018  Biso   1.000  O 
  O26      1.0000 0.48188  0.61389  0.50373  Biso   1.000  O 
  O27      1.0000 0.44832  0.86074  0.48647  Biso   1.000  O 
  O28      1.0000 0.46263  0.90237  0.97944  Biso   1.000  O 
  O29      1.0000 0.72638  0.66526  0.51061  Biso   1.000  O 
  O30      1.0000 0.74583  0.60780  0.01127  Biso   1.000  O 
  O31      1.0000 0.73226  0.85368  0.04147  Biso   1.000  O 
  O32      1.0000 0.68847  0.92227  0.56003  Biso   1.000  O 
