data_image0
_cell_length_a       5.09406
_cell_length_b       10.289
_cell_length_c       10.5549
_cell_angle_alpha    90
_cell_angle_beta     80
_cell_angle_gamma    90

_symmetry_space_group_name_H-M    "P 1"
_symmetry_int_tables_number       1

loop_
  _symmetry_equiv_pos_as_xyz
  'x, y, z'

loop_
  _atom_site_label
  _atom_site_occupancy
  _atom_site_fract_x
  _atom_site_fract_y
  _atom_site_fract_z
  _atom_site_thermal_displace_type
  _atom_site_B_iso_or_equiv
  _atom_site_type_symbol
  Hf1      1.0000 0.27295  0.02093  0.14692  Biso   1.000  Hf
  Hf2      1.0000 0.30424  0.23218  0.40091  Biso   1.000  Hf
  Hf3      1.0000 0.70987  0.27377  0.09573  Biso   1.000  Hf
  Hf4      1.0000 0.71432  0.48061  0.35176  Biso   1.000  Hf
  O1       1.0000 0.05834  0.16072  0.07134  Biso   1.000  O 
  O2       1.0000 0.09885  0.06357  0.33934  Biso   1.000  O 
  O3       1.0000 0.92689  0.41437  0.17334  Biso   1.000  O 
  O4       1.0000 0.97230  0.35822  0.43803  Biso   1.000  O 
  O5       1.0000 0.56079  0.12722  0.23718  Biso   1.000  O 
  O6       1.0000 0.55444  0.11099  0.49649  Biso   1.000  O 
  O7       1.0000 0.43677  0.38169  0.00645  Biso   1.000  O 
  O8       1.0000 0.42762  0.37747  0.25442  Biso   1.000  O 
  Hf5      1.0000 0.27693  0.01858  0.64665  Biso   1.000  Hf
  Hf6      1.0000 0.27777  0.22541  0.89365  Biso   1.000  Hf
  Hf7      1.0000 0.73151  0.27111  0.60644  Biso   1.000  Hf
  Hf8      1.0000 0.72004  0.47776  0.85417  Biso   1.000  Hf
  O9       1.0000 0.07430  0.16541  0.57696  Biso   1.000  O 
  O10      1.0000 0.06566  0.08400  0.82410  Biso   1.000  O 
  O11      1.0000 0.93635  0.41157  0.67942  Biso   1.000  O 
  O12      1.0000 0.93604  0.33527  0.92218  Biso   1.000  O 
  O13      1.0000 0.55296  0.12686  0.74091  Biso   1.000  O 
  O14      1.0000 0.55206  0.11997  0.98797  Biso   1.000  O 
  O15      1.0000 0.46059  0.37706  0.51379  Biso   1.000  O 
  O16      1.0000 0.45117  0.36960  0.75954  Biso   1.000  O 
  Hf9      1.0000 0.27087  0.52337  0.14586  Biso   1.000  Hf
  Hf10     1.0000 0.26962  0.72522  0.39706  Biso   1.000  Hf
  Hf11     1.0000 0.71206  0.77239  0.10465  Biso   1.000  Hf
  Hf12     1.0000 0.71619  0.96875  0.35861  Biso   1.000  Hf
  O17      1.0000 0.05339  0.66587  0.07571  Biso   1.000  O 
  O18      1.0000 0.05618  0.58960  0.32200  Biso   1.000  O 
  O19      1.0000 0.92413  0.91504  0.17540  Biso   1.000  O 
  O20      1.0000 0.92122  0.82700  0.42572  Biso   1.000  O 
  O21      1.0000 0.54557  0.62847  0.24082  Biso   1.000  O 
  O22      1.0000 0.54064  0.61888  0.49152  Biso   1.000  O 
  O23      1.0000 0.43595  0.88065  0.01251  Biso   1.000  O 
  O24      1.0000 0.44277  0.86797  0.26105  Biso   1.000  O 
  Hf13     1.0000 0.27505  0.51986  0.64732  Biso   1.000  Hf
  Hf14     1.0000 0.27126  0.72671  0.89709  Biso   1.000  Hf
  Hf15     1.0000 0.71606  0.76759  0.60593  Biso   1.000  Hf
  Hf16     1.0000 0.71621  0.97634  0.85373  Biso   1.000  Hf
  O25      1.0000 0.05837  0.65994  0.57724  Biso   1.000  O 
  O26      1.0000 0.06398  0.58520  0.82651  Biso   1.000  O 
  O27      1.0000 0.92437  0.91233  0.67310  Biso   1.000  O 
  O28      1.0000 0.92921  0.83490  0.92399  Biso   1.000  O 
  O29      1.0000 0.54791  0.62599  0.74118  Biso   1.000  O 
  O30      1.0000 0.54959  0.62117  0.99033  Biso   1.000  O 
  O31      1.0000 0.43930  0.87278  0.51223  Biso   1.000  O 
  O32      1.0000 0.44159  0.86936  0.76159  Biso   1.000  O 
  Rh1      1.0000 0.85086  0.22905  0.31728  Biso   1.000  Rh
