data_image0
_cell_length_a       10.1979
_cell_length_b       10.2945
_cell_length_c       5.26373
_cell_angle_alpha    90
_cell_angle_beta     80
_cell_angle_gamma    90

_symmetry_space_group_name_H-M    "P 1"
_symmetry_int_tables_number       1

loop_
  _symmetry_equiv_pos_as_xyz
  'x, y, z'

loop_
  _atom_site_label
  _atom_site_occupancy
  _atom_site_fract_x
  _atom_site_fract_y
  _atom_site_fract_z
  _atom_site_thermal_displace_type
  _atom_site_B_iso_or_equiv
  _atom_site_type_symbol
  Hf1      1.0000 0.13494  0.01967  0.29598  Biso   1.000  Hf
  Hf2      1.0000 0.14182  0.22822  0.78303  Biso   1.000  Hf
  Hf3      1.0000 0.35523  0.27246  0.17754  Biso   1.000  Hf
  Hf4      1.0000 0.35579  0.48183  0.70031  Biso   1.000  Hf
  O1       1.0000 0.03549  0.16870  0.15768  Biso   1.000  O 
  O2       1.0000 0.03411  0.08163  0.65697  Biso   1.000  O 
  O3       1.0000 0.46648  0.40724  0.35991  Biso   1.000  O 
  O4       1.0000 0.48653  0.36255  0.87910  Biso   1.000  O 
  O5       1.0000 0.27692  0.12701  0.47670  Biso   1.000  O 
  O6       1.0000 0.27000  0.11220  0.98472  Biso   1.000  O 
  O7       1.0000 0.21862  0.38246  0.00443  Biso   1.000  O 
  O8       1.0000 0.21567  0.37361  0.49796  Biso   1.000  O 
  Hf5      1.0000 0.13627  0.52317  0.28944  Biso   1.000  Hf
  Hf6      1.0000 0.13646  0.72842  0.79631  Biso   1.000  Hf
  Hf7      1.0000 0.35915  0.77002  0.21126  Biso   1.000  Hf
  Hf8      1.0000 0.36041  0.97088  0.71501  Biso   1.000  Hf
  O9       1.0000 0.02861  0.66832  0.15753  Biso   1.000  O 
  O10      1.0000 0.03434  0.58467  0.65502  Biso   1.000  O 
  O11      1.0000 0.46371  0.91477  0.34840  Biso   1.000  O 
  O12      1.0000 0.46335  0.82658  0.84898  Biso   1.000  O 
  O13      1.0000 0.27444  0.62817  0.48241  Biso   1.000  O 
  O14      1.0000 0.27367  0.62087  0.98366  Biso   1.000  O 
  O15      1.0000 0.22022  0.87610  0.02603  Biso   1.000  O 
  O16      1.0000 0.22188  0.86935  0.52353  Biso   1.000  O 
  Hf9      1.0000 0.63792  0.02026  0.29645  Biso   1.000  Hf
  Hf10     1.0000 0.65246  0.23101  0.80686  Biso   1.000  Hf
  Hf11     1.0000 0.86452  0.27145  0.21606  Biso   1.000  Hf
  Hf12     1.0000 0.86477  0.47797  0.71185  Biso   1.000  Hf
  O17      1.0000 0.52924  0.16201  0.14855  Biso   1.000  O 
  O18      1.0000 0.54579  0.06211  0.68211  Biso   1.000  O 
  O19      1.0000 0.96485  0.41992  0.34205  Biso   1.000  O 
  O20      1.0000 0.96729  0.33071  0.84123  Biso   1.000  O 
  O21      1.0000 0.77706  0.12925  0.48686  Biso   1.000  O 
  O22      1.0000 0.78182  0.11728  0.99095  Biso   1.000  O 
  O23      1.0000 0.72765  0.37777  0.03251  Biso   1.000  O 
  O24      1.0000 0.72921  0.37325  0.52903  Biso   1.000  O 
  Hf13     1.0000 0.63801  0.52105  0.29718  Biso   1.000  Hf
  Hf14     1.0000 0.63744  0.72475  0.79274  Biso   1.000  Hf
  Hf15     1.0000 0.85663  0.77152  0.21018  Biso   1.000  Hf
  Hf16     1.0000 0.85919  0.97669  0.71079  Biso   1.000  Hf
  O25      1.0000 0.52973  0.66047  0.15287  Biso   1.000  O 
  O26      1.0000 0.52978  0.58858  0.64468  Biso   1.000  O 
  O27      1.0000 0.96140  0.91666  0.34462  Biso   1.000  O 
  O28      1.0000 0.96380  0.83259  0.84531  Biso   1.000  O 
  O29      1.0000 0.77408  0.62759  0.48214  Biso   1.000  O 
  O30      1.0000 0.77527  0.61900  0.98149  Biso   1.000  O 
  O31      1.0000 0.71841  0.87858  0.02425  Biso   1.000  O 
  O32      1.0000 0.72264  0.86919  0.52170  Biso   1.000  O 
  Rh1      1.0000 0.44024  0.23346  0.61414  Biso   1.000  Rh
