data_image0
_cell_length_a       5.05459
_cell_length_b       10.2086
_cell_length_c       10.4707
_cell_angle_alpha    90
_cell_angle_beta     80
_cell_angle_gamma    90

_symmetry_space_group_name_H-M    "P 1"
_symmetry_int_tables_number       1

loop_
  _symmetry_equiv_pos_as_xyz
  'x, y, z'

loop_
  _atom_site_label
  _atom_site_occupancy
  _atom_site_fract_x
  _atom_site_fract_y
  _atom_site_fract_z
  _atom_site_thermal_displace_type
  _atom_site_B_iso_or_equiv
  _atom_site_type_symbol
  Rh1      1.0000 0.24125  0.01052  0.16777  Biso   1.000  Rh
  Hf1      1.0000 0.27211  0.22945  0.39361  Biso   1.000  Hf
  Hf2      1.0000 0.73201  0.26445  0.10316  Biso   1.000  Hf
  Hf3      1.0000 0.72259  0.47768  0.35381  Biso   1.000  Hf
  O1       1.0000 0.09153  0.15579  0.08155  Biso   1.000  O 
  O2       1.0000 0.04712  0.08593  0.32797  Biso   1.000  O 
  O3       1.0000 0.93928  0.41368  0.17351  Biso   1.000  O 
  O4       1.0000 0.92658  0.33363  0.42411  Biso   1.000  O 
  O5       1.0000 0.53780  0.11869  0.23271  Biso   1.000  O 
  O6       1.0000 0.54219  0.12087  0.48638  Biso   1.000  O 
  O7       1.0000 0.46484  0.38143  0.01104  Biso   1.000  O 
  O8       1.0000 0.45534  0.36681  0.25913  Biso   1.000  O 
  Hf4      1.0000 0.25671  0.01975  0.64595  Biso   1.000  Hf
  Hf5      1.0000 0.26969  0.22367  0.89813  Biso   1.000  Hf
  Hf6      1.0000 0.71261  0.27080  0.60535  Biso   1.000  Hf
  Hf7      1.0000 0.71594  0.47598  0.85898  Biso   1.000  Hf
  O9       1.0000 0.05646  0.16417  0.57447  Biso   1.000  O 
  O10      1.0000 0.05573  0.08151  0.82781  Biso   1.000  O 
  O11      1.0000 0.92650  0.41251  0.67710  Biso   1.000  O 
  O12      1.0000 0.93052  0.33528  0.93131  Biso   1.000  O 
  O13      1.0000 0.53541  0.12626  0.73450  Biso   1.000  O 
  O14      1.0000 0.57058  0.13517  0.97440  Biso   1.000  O 
  O15      1.0000 0.43935  0.37718  0.51045  Biso   1.000  O 
  O16      1.0000 0.44190  0.36934  0.76300  Biso   1.000  O 
  Hf8      1.0000 0.28215  0.52084  0.14504  Biso   1.000  Hf
  Hf9      1.0000 0.27651  0.72481  0.39817  Biso   1.000  Hf
  Hf10     1.0000 0.72575  0.77306  0.10174  Biso   1.000  Hf
  Hf11     1.0000 0.72063  0.97598  0.35578  Biso   1.000  Hf
  O17      1.0000 0.07932  0.66878  0.07889  Biso   1.000  O 
  O18      1.0000 0.07335  0.57980  0.32945  Biso   1.000  O 
  O19      1.0000 0.93902  0.91361  0.17381  Biso   1.000  O 
  O20      1.0000 0.93240  0.83166  0.42247  Biso   1.000  O 
  O21      1.0000 0.55714  0.62911  0.24086  Biso   1.000  O 
  O22      1.0000 0.55254  0.61910  0.49243  Biso   1.000  O 
  O23      1.0000 0.46020  0.89264  0.01276  Biso   1.000  O 
  O24      1.0000 0.44381  0.86984  0.26016  Biso   1.000  O 
  Hf12     1.0000 0.27341  0.51947  0.64962  Biso   1.000  Hf
  Hf13     1.0000 0.26594  0.73104  0.89876  Biso   1.000  Hf
  Hf14     1.0000 0.72028  0.76972  0.60757  Biso   1.000  Hf
  Hf15     1.0000 0.72118  0.98182  0.85631  Biso   1.000  Hf
  O25      1.0000 0.06645  0.66410  0.57964  Biso   1.000  O 
  O26      1.0000 0.06099  0.58410  0.83061  Biso   1.000  O 
  O27      1.0000 0.93162  0.91518  0.67255  Biso   1.000  O 
  O28      1.0000 0.91437  0.83123  0.92442  Biso   1.000  O 
  O29      1.0000 0.54719  0.62714  0.74303  Biso   1.000  O 
  O30      1.0000 0.53720  0.62275  0.99249  Biso   1.000  O 
  O31      1.0000 0.44844  0.87675  0.51015  Biso   1.000  O 
  O32      1.0000 0.44564  0.86984  0.76190  Biso   1.000  O 
