data_image0
_cell_length_a       9.94613
_cell_length_b       10.368
_cell_length_c       9.99283
_cell_angle_alpha    90
_cell_angle_beta     90
_cell_angle_gamma    90

_symmetry_space_group_name_H-M    "P 1"
_symmetry_int_tables_number       1

loop_
  _symmetry_equiv_pos_as_xyz
  'x, y, z'

loop_
  _atom_site_label
  _atom_site_occupancy
  _atom_site_fract_x
  _atom_site_fract_y
  _atom_site_fract_z
  _atom_site_thermal_displace_type
  _atom_site_B_iso_or_equiv
  _atom_site_type_symbol
  Rh1      1.0000 0.12798  0.03320  0.10816  Biso   1.000  Rh
  Hf1      1.0000 0.13527  0.22985  0.37494  Biso   1.000  Hf
  Hf2      1.0000 0.36648  0.26562  0.12652  Biso   1.000  Hf
  Hf3      1.0000 0.36721  0.48211  0.37651  Biso   1.000  Hf
  O1       1.0000 0.03558  0.18402  0.19191  Biso   1.000  O 
  O2       1.0000 0.03848  0.06534  0.44901  Biso   1.000  O 
  O3       1.0000 0.46407  0.43281  0.19374  Biso   1.000  O 
  O4       1.0000 0.46542  0.31483  0.44457  Biso   1.000  O 
  O5       1.0000 0.26501  0.11030  0.24673  Biso   1.000  O 
  O6       1.0000 0.27405  0.13071  0.49833  Biso   1.000  O 
  O7       1.0000 0.23037  0.38026  0.49993  Biso   1.000  O 
  O8       1.0000 0.23090  0.36383  0.24997  Biso   1.000  O 
  Hf4      1.0000 0.13781  0.01562  0.62816  Biso   1.000  Hf
  Hf5      1.0000 0.13715  0.23562  0.87472  Biso   1.000  Hf
  Hf6      1.0000 0.36841  0.26502  0.62553  Biso   1.000  Hf
  Hf7      1.0000 0.36889  0.48304  0.87607  Biso   1.000  Hf
  O9       1.0000 0.03804  0.18289  0.69710  Biso   1.000  O 
  O10      1.0000 0.03960  0.06252  0.94067  Biso   1.000  O 
  O11      1.0000 0.46559  0.43289  0.69446  Biso   1.000  O 
  O12      1.0000 0.46451  0.31207  0.94312  Biso   1.000  O 
  O13      1.0000 0.27470  0.11754  0.75113  Biso   1.000  O 
  O14      1.0000 0.26579  0.13243  0.00060  Biso   1.000  O 
  O15      1.0000 0.23309  0.38089  0.99975  Biso   1.000  O 
  O16      1.0000 0.23157  0.36712  0.74971  Biso   1.000  O 
  Hf8      1.0000 0.13319  0.51483  0.12658  Biso   1.000  Hf
  Hf9      1.0000 0.13588  0.73200  0.37717  Biso   1.000  Hf
  Hf10     1.0000 0.36398  0.76507  0.12800  Biso   1.000  Hf
  Hf11     1.0000 0.36287  0.97937  0.37432  Biso   1.000  Hf
  O17      1.0000 0.03689  0.68328  0.19457  Biso   1.000  O 
  O18      1.0000 0.03694  0.56321  0.44549  Biso   1.000  O 
  O19      1.0000 0.46711  0.93144  0.19625  Biso   1.000  O 
  O20      1.0000 0.46724  0.81577  0.44933  Biso   1.000  O 
  O21      1.0000 0.26984  0.61105  0.24974  Biso   1.000  O 
  O22      1.0000 0.27314  0.63084  0.50070  Biso   1.000  O 
  O23      1.0000 0.22938  0.88073  0.50474  Biso   1.000  O 
  O24      1.0000 0.24134  0.85460  0.25983  Biso   1.000  O 
  Hf12     1.0000 0.13583  0.51565  0.62598  Biso   1.000  Hf
  Hf13     1.0000 0.13555  0.73285  0.87854  Biso   1.000  Hf
  Hf14     1.0000 0.36720  0.76578  0.62815  Biso   1.000  Hf
  Hf15     1.0000 0.36545  0.98093  0.87941  Biso   1.000  Hf
  O25      1.0000 0.03819  0.68356  0.69469  Biso   1.000  O 
  O26      1.0000 0.03812  0.56411  0.94538  Biso   1.000  O 
  O27      1.0000 0.46402  0.93318  0.69698  Biso   1.000  O 
  O28      1.0000 0.46262  0.81351  0.94326  Biso   1.000  O 
  O29      1.0000 0.27185  0.61668  0.75115  Biso   1.000  O 
  O30      1.0000 0.26782  0.63352  0.00035  Biso   1.000  O 
  O31      1.0000 0.22312  0.88700  0.00872  Biso   1.000  O 
  O32      1.0000 0.23017  0.86687  0.75429  Biso   1.000  O 
  Hf16     1.0000 0.63487  0.01610  0.12610  Biso   1.000  Hf
  Hf17     1.0000 0.63503  0.23193  0.37658  Biso   1.000  Hf
  Hf18     1.0000 0.86357  0.26645  0.12491  Biso   1.000  Hf
  Hf19     1.0000 0.86679  0.48259  0.37617  Biso   1.000  Hf
  O33      1.0000 0.53516  0.18311  0.19580  Biso   1.000  O 
  O34      1.0000 0.53814  0.06417  0.44298  Biso   1.000  O 
  O35      1.0000 0.96384  0.43168  0.19513  Biso   1.000  O 
  O36      1.0000 0.96474  0.31328  0.44287  Biso   1.000  O 
  O37      1.0000 0.77112  0.11753  0.24864  Biso   1.000  O 
  O38      1.0000 0.77326  0.13139  0.49830  Biso   1.000  O 
  O39      1.0000 0.73120  0.38119  0.50012  Biso   1.000  O 
  O40      1.0000 0.72871  0.36728  0.24992  Biso   1.000  O 
  Hf20     1.0000 0.63490  0.01394  0.62283  Biso   1.000  Hf
  Hf21     1.0000 0.63622  0.23135  0.87469  Biso   1.000  Hf
  Hf22     1.0000 0.86799  0.26461  0.62508  Biso   1.000  Hf
  Hf23     1.0000 0.86799  0.48242  0.87540  Biso   1.000  Hf
  O41      1.0000 0.53934  0.18318  0.69272  Biso   1.000  O 
  O42      1.0000 0.53844  0.06472  0.94647  Biso   1.000  O 
  O43      1.0000 0.96589  0.43247  0.69414  Biso   1.000  O 
  O44      1.0000 0.96653  0.31414  0.94388  Biso   1.000  O 
  O45      1.0000 0.77175  0.11499  0.74793  Biso   1.000  O 
  O46      1.0000 0.77472  0.13014  0.99772  Biso   1.000  O 
  O47      1.0000 0.73193  0.37996  0.99959  Biso   1.000  O 
  O48      1.0000 0.73176  0.36583  0.74953  Biso   1.000  O 
  Hf24     1.0000 0.63428  0.51714  0.12759  Biso   1.000  Hf
  Hf25     1.0000 0.63581  0.73421  0.37527  Biso   1.000  Hf
  Hf26     1.0000 0.87017  0.76707  0.12387  Biso   1.000  Hf
  Hf27     1.0000 0.86950  0.98530  0.37351  Biso   1.000  Hf
  O49      1.0000 0.53649  0.68397  0.19596  Biso   1.000  O 
  O50      1.0000 0.53836  0.56511  0.44359  Biso   1.000  O 
  O51      1.0000 0.97414  0.93841  0.18946  Biso   1.000  O 
  O52      1.0000 0.96483  0.81550  0.44186  Biso   1.000  O 
  O53      1.0000 0.77235  0.61704  0.24976  Biso   1.000  O 
  O54      1.0000 0.77134  0.63203  0.49965  Biso   1.000  O 
  O55      1.0000 0.73241  0.88270  0.49765  Biso   1.000  O 
  O56      1.0000 0.73678  0.86757  0.24752  Biso   1.000  O 
  Hf28     1.0000 0.63560  0.51556  0.62549  Biso   1.000  Hf
  Hf29     1.0000 0.63503  0.73126  0.87653  Biso   1.000  Hf
  Hf30     1.0000 0.86834  0.76544  0.62434  Biso   1.000  Hf
  Hf31     1.0000 0.86257  0.98029  0.87330  Biso   1.000  Hf
  O57      1.0000 0.53721  0.68193  0.69586  Biso   1.000  O 
  O58      1.0000 0.53919  0.56343  0.94575  Biso   1.000  O 
  O59      1.0000 0.96434  0.93306  0.69394  Biso   1.000  O 
  O60      1.0000 0.96319  0.81419  0.94091  Biso   1.000  O 
  O61      1.0000 0.77225  0.61618  0.74977  Biso   1.000  O 
  O62      1.0000 0.76901  0.63329  0.00027  Biso   1.000  O 
  O63      1.0000 0.72944  0.87999  0.99841  Biso   1.000  O 
  O64      1.0000 0.72976  0.86512  0.74818  Biso   1.000  O 
