data_image0
_cell_length_a       10.0087
_cell_length_b       10.2108
_cell_length_c       10.0087
_cell_angle_alpha    90
_cell_angle_beta     90
_cell_angle_gamma    90

_symmetry_space_group_name_H-M    "P 1"
_symmetry_int_tables_number       1

loop_
  _symmetry_equiv_pos_as_xyz
  'x, y, z'

loop_
  _atom_site_label
  _atom_site_occupancy
  _atom_site_fract_x
  _atom_site_fract_y
  _atom_site_fract_z
  _atom_site_thermal_displace_type
  _atom_site_B_iso_or_equiv
  _atom_site_type_symbol
  Rh1      1.0000 0.12328  0.03032  0.12490  Biso   1.000  Rh
  Hf1      1.0000 0.11839  0.25042  0.37894  Biso   1.000  Hf
  Hf2      1.0000 0.37738  0.25040  0.12327  Biso   1.000  Hf
  Hf3      1.0000 0.36228  0.99665  0.36703  Biso   1.000  Hf
  O1       1.0000 0.00679  0.14911  0.00688  Biso   1.000  O 
  O2       1.0000 0.99280  0.09402  0.25370  Biso   1.000  O 
  O3       1.0000 0.00089  0.34700  0.24572  Biso   1.000  O 
  O4       1.0000 0.98412  0.39704  0.99687  Biso   1.000  O 
  O5       1.0000 0.23979  0.14912  0.24291  Biso   1.000  O 
  O6       1.0000 0.24084  0.09406  0.99601  Biso   1.000  O 
  O7       1.0000 0.24575  0.34700  0.00401  Biso   1.000  O 
  O8       1.0000 0.24960  0.39701  0.25279  Biso   1.000  O 
  Hf4      1.0000 0.11685  0.00691  0.62484  Biso   1.000  Hf
  Hf5      1.0000 0.11529  0.25042  0.87077  Biso   1.000  Hf
  Hf6      1.0000 0.37005  0.24953  0.62366  Biso   1.000  Hf
  Hf7      1.0000 0.36828  0.99376  0.87020  Biso   1.000  Hf
  O9       1.0000 0.98858  0.14899  0.50025  Biso   1.000  O 
  O10      1.0000 0.99522  0.10323  0.75492  Biso   1.000  O 
  O11      1.0000 0.99022  0.35300  0.74671  Biso   1.000  O 
  O12      1.0000 0.99579  0.39806  0.49579  Biso   1.000  O 
  O13      1.0000 0.24511  0.14897  0.74945  Biso   1.000  O 
  O14      1.0000 0.23847  0.10325  0.49479  Biso   1.000  O 
  O15      1.0000 0.24350  0.35301  0.50296  Biso   1.000  O 
  O16      1.0000 0.23791  0.39804  0.75387  Biso   1.000  O 
  Hf8      1.0000 0.12330  0.49257  0.12488  Biso   1.000  Hf
  Hf9      1.0000 0.11657  0.74676  0.37119  Biso   1.000  Hf
  Hf10     1.0000 0.36970  0.74674  0.12132  Biso   1.000  Hf
  Hf11     1.0000 0.37110  0.50207  0.37594  Biso   1.000  Hf
  O17      1.0000 0.00014  0.64859  0.00012  Biso   1.000  O 
  O18      1.0000 0.99781  0.59627  0.24877  Biso   1.000  O 
  O19      1.0000 0.96876  0.84028  0.27744  Biso   1.000  O 
  O20      1.0000 0.01821  0.90355  0.01855  Biso   1.000  O 
  O21      1.0000 0.24647  0.64860  0.24966  Biso   1.000  O 
  O22      1.0000 0.24880  0.59626  0.00100  Biso   1.000  O 
  O23      1.0000 0.26480  0.84035  0.97236  Biso   1.000  O 
  O24      1.0000 0.22826  0.90355  0.23134  Biso   1.000  O 
  Hf12     1.0000 0.11683  0.50048  0.62485  Biso   1.000  Hf
  Hf13     1.0000 0.11712  0.74678  0.87847  Biso   1.000  Hf
  Hf14     1.0000 0.36404  0.75217  0.62096  Biso   1.000  Hf
  Hf15     1.0000 0.36546  0.50220  0.87300  Biso   1.000  Hf
  O25      1.0000 0.99324  0.64830  0.50126  Biso   1.000  O 
  O26      1.0000 0.99012  0.60221  0.74941  Biso   1.000  O 
  O27      1.0000 0.98704  0.85226  0.76646  Biso   1.000  O 
  O28      1.0000 0.98866  0.89923  0.51661  Biso   1.000  O 
  O29      1.0000 0.24039  0.64828  0.74843  Biso   1.000  O 
  O30      1.0000 0.24352  0.60221  0.50026  Biso   1.000  O 
  O31      1.0000 0.24649  0.85229  0.48335  Biso   1.000  O 
  O32      1.0000 0.24487  0.89919  0.73320  Biso   1.000  O 
  Hf16     1.0000 0.62329  0.00689  0.12490  Biso   1.000  Hf
  Hf17     1.0000 0.61883  0.24953  0.37809  Biso   1.000  Hf
  Hf18     1.0000 0.86921  0.25040  0.12653  Biso   1.000  Hf
  Hf19     1.0000 0.86532  0.99375  0.37954  Biso   1.000  Hf
  O33      1.0000 0.48744  0.14899  0.99496  Biso   1.000  O 
  O34      1.0000 0.49165  0.10322  0.24485  Biso   1.000  O 
  O35      1.0000 0.49981  0.35299  0.24994  Biso   1.000  O 
  O36      1.0000 0.49586  0.39802  0.00216  Biso   1.000  O 
  O37      1.0000 0.74623  0.14897  0.25477  Biso   1.000  O 
  O38      1.0000 0.75490  0.10322  0.00497  Biso   1.000  O 
  O39      1.0000 0.73390  0.35303  0.99975  Biso   1.000  O 
  O40      1.0000 0.75078  0.39805  0.24761  Biso   1.000  O 
  Hf20     1.0000 0.61679  0.99640  0.62485  Biso   1.000  Hf
  Hf21     1.0000 0.61484  0.24953  0.87165  Biso   1.000  Hf
  Hf22     1.0000 0.86363  0.24952  0.62605  Biso   1.000  Hf
  Hf23     1.0000 0.87131  0.99669  0.88267  Biso   1.000  Hf
  O41      1.0000 0.48719  0.14773  0.49353  Biso   1.000  O 
  O42      1.0000 0.49460  0.10328  0.74555  Biso   1.000  O 
  O43      1.0000 0.48907  0.35419  0.75099  Biso   1.000  O 
  O44      1.0000 0.49449  0.39772  0.50090  Biso   1.000  O 
  O45      1.0000 0.74653  0.14775  0.75623  Biso   1.000  O 
  O46      1.0000 0.73908  0.10328  0.50421  Biso   1.000  O 
  O47      1.0000 0.74463  0.35418  0.49871  Biso   1.000  O 
  O48      1.0000 0.73921  0.39772  0.74880  Biso   1.000  O 
  Hf24     1.0000 0.62331  0.50046  0.12489  Biso   1.000  Hf
  Hf25     1.0000 0.61620  0.75215  0.37204  Biso   1.000  Hf
  Hf26     1.0000 0.87693  0.74676  0.12842  Biso   1.000  Hf
  Hf27     1.0000 0.86820  0.50222  0.37671  Biso   1.000  Hf
  O49      1.0000 0.48840  0.64829  0.99965  Biso   1.000  O 
  O50      1.0000 0.49710  0.60219  0.24997  Biso   1.000  O 
  O51      1.0000 0.48002  0.85225  0.25282  Biso   1.000  O 
  O52      1.0000 0.50369  0.89921  0.99536  Biso   1.000  O 
  O53      1.0000 0.74528  0.64829  0.25005  Biso   1.000  O 
  O54      1.0000 0.73659  0.60223  0.99974  Biso   1.000  O 
  O55      1.0000 0.75354  0.85230  0.99696  Biso   1.000  O 
  O56      1.0000 0.72987  0.89921  0.25443  Biso   1.000  O 
  Hf28     1.0000 0.61683  0.50444  0.62486  Biso   1.000  Hf
  Hf29     1.0000 0.61746  0.75219  0.87766  Biso   1.000  Hf
  Hf30     1.0000 0.86960  0.75217  0.62875  Biso   1.000  Hf
  Hf31     1.0000 0.86255  0.50208  0.87377  Biso   1.000  Hf
  O57      1.0000 0.49306  0.64867  0.49949  Biso   1.000  O 
  O58      1.0000 0.49046  0.60353  0.74958  Biso   1.000  O 
  O59      1.0000 0.49158  0.85106  0.74848  Biso   1.000  O 
  O60      1.0000 0.49158  0.89936  0.49806  Biso   1.000  O 
  O61      1.0000 0.74057  0.64868  0.75022  Biso   1.000  O 
  O62      1.0000 0.74317  0.60352  0.50012  Biso   1.000  O 
  O63      1.0000 0.74199  0.85105  0.50128  Biso   1.000  O 
  O64      1.0000 0.74197  0.89938  0.75171  Biso   1.000  O 
