data_image0
_cell_length_a       5.07637
_cell_length_b       10.2684
_cell_length_c       10.1393
_cell_angle_alpha    90
_cell_angle_beta     90
_cell_angle_gamma    90

_symmetry_space_group_name_H-M    "P 1"
_symmetry_int_tables_number       1

loop_
  _symmetry_equiv_pos_as_xyz
  'x, y, z'

loop_
  _atom_site_label
  _atom_site_occupancy
  _atom_site_fract_x
  _atom_site_fract_y
  _atom_site_fract_z
  _atom_site_thermal_displace_type
  _atom_site_B_iso_or_equiv
  _atom_site_type_symbol
  Hf1      1.0000 0.26606  0.95433  0.12420  Biso   1.000  Hf
  Hf2      1.0000 0.35418  0.24803  0.37805  Biso   1.000  Hf
  Hf3      1.0000 0.76601  0.28972  0.12416  Biso   1.000  Hf
  Hf4      1.0000 0.83322  0.00253  0.36999  Biso   1.000  Hf
  O1       1.0000 0.96864  0.16477  0.96937  Biso   1.000  O 
  O2       1.0000 0.17627  0.07921  0.27834  Biso   1.000  O 
  O3       1.0000 0.07720  0.35160  0.24506  Biso   1.000  O 
  O4       1.0000 0.10684  0.41405  0.98811  Biso   1.000  O 
  O5       1.0000 0.69165  0.16475  0.27694  Biso   1.000  O 
  O6       1.0000 0.48412  0.07930  0.96807  Biso   1.000  O 
  O7       1.0000 0.45527  0.35181  0.00308  Biso   1.000  O 
  O8       1.0000 0.55361  0.41397  0.25818  Biso   1.000  O 
  Hf5      1.0000 0.33013  0.00810  0.62313  Biso   1.000  Hf
  Hf6      1.0000 0.30614  0.24807  0.86820  Biso   1.000  Hf
  Hf7      1.0000 0.83011  0.24070  0.62313  Biso   1.000  Hf
  Hf8      1.0000 0.82708  0.00258  0.87631  Biso   1.000  Hf
  O9       1.0000 0.08502  0.14931  0.50340  Biso   1.000  O 
  O10      1.0000 0.08040  0.10360  0.74593  Biso   1.000  O 
  O11      1.0000 0.05923  0.35623  0.74013  Biso   1.000  O 
  O12      1.0000 0.11081  0.39748  0.49073  Biso   1.000  O 
  O13      1.0000 0.57547  0.14926  0.74296  Biso   1.000  O 
  O14      1.0000 0.58005  0.10356  0.50042  Biso   1.000  O 
  O15      1.0000 0.60083  0.35617  0.50615  Biso   1.000  O 
  O16      1.0000 0.54923  0.39742  0.75548  Biso   1.000  O 
  Hf9      1.0000 0.26610  0.51225  0.12420  Biso   1.000  Hf
  Hf10     1.0000 0.32001  0.75944  0.38729  Biso   1.000  Hf
  Hf11     1.0000 0.76608  0.74065  0.12422  Biso   1.000  Hf
  Hf12     1.0000 0.82505  0.49393  0.38854  Biso   1.000  Hf
  O17      1.0000 0.07710  0.66087  0.01374  Biso   1.000  O 
  O18      1.0000 0.95854  0.59240  0.23587  Biso   1.000  O 
  O19      1.0000 0.04339  0.83994  0.25611  Biso   1.000  O 
  O20      1.0000 0.95855  0.89924  0.00450  Biso   1.000  O 
  O21      1.0000 0.45529  0.66081  0.23484  Biso   1.000  O 
  O22      1.0000 0.57384  0.59245  0.01265  Biso   1.000  O 
  O23      1.0000 0.61700  0.84003  0.99023  Biso   1.000  O 
  O24      1.0000 0.57364  0.89925  0.24387  Biso   1.000  O 
  Hf13     1.0000 0.32989  0.50016  0.62321  Biso   1.000  Hf
  Hf14     1.0000 0.34008  0.75952  0.85911  Biso   1.000  Hf
  Hf15     1.0000 0.83001  0.75713  0.62324  Biso   1.000  Hf
  Hf16     1.0000 0.83483  0.49384  0.85789  Biso   1.000  Hf
  O25      1.0000 0.06310  0.64629  0.49735  Biso   1.000  O 
  O26      1.0000 0.09640  0.60851  0.75081  Biso   1.000  O 
  O27      1.0000 0.06592  0.85768  0.75216  Biso   1.000  O 
  O28      1.0000 0.08710  0.89825  0.50395  Biso   1.000  O 
  O29      1.0000 0.59697  0.64625  0.74911  Biso   1.000  O 
  O30      1.0000 0.56367  0.60848  0.49569  Biso   1.000  O 
  O31      1.0000 0.59413  0.85763  0.49421  Biso   1.000  O 
  O32      1.0000 0.57297  0.89825  0.74244  Biso   1.000  O 
  Rh1      1.0000 0.26592  0.20389  0.12411  Biso   1.000  Rh
