data_image0
_cell_length_a       10.0171
_cell_length_b       10.2138
_cell_length_c       10.4451
_cell_angle_alpha    90
_cell_angle_beta     90
_cell_angle_gamma    90

_symmetry_space_group_name_H-M    "P 1"
_symmetry_int_tables_number       1

loop_
  _symmetry_equiv_pos_as_xyz
  'x, y, z'

loop_
  _atom_site_label
  _atom_site_occupancy
  _atom_site_fract_x
  _atom_site_fract_y
  _atom_site_fract_z
  _atom_site_thermal_displace_type
  _atom_site_B_iso_or_equiv
  _atom_site_type_symbol
  Rh1      1.0000 0.12353  0.01206  0.18949  Biso   1.000  Rh
  Hf1      1.0000 0.13931  0.23133  0.41841  Biso   1.000  Hf
  Hf2      1.0000 0.35965  0.26954  0.16777  Biso   1.000  Hf
  Hf3      1.0000 0.36138  0.47934  0.42097  Biso   1.000  Hf
  Hf4      1.0000 0.63905  0.02164  0.07720  Biso   1.000  Hf
  Hf5      1.0000 0.63696  0.22924  0.32828  Biso   1.000  Hf
  Hf6      1.0000 0.86737  0.26754  0.08202  Biso   1.000  Hf
  Hf7      1.0000 0.86134  0.47870  0.32927  Biso   1.000  Hf
  O1       1.0000 0.04468  0.15699  0.08966  Biso   1.000  O 
  O2       1.0000 0.02885  0.08508  0.33440  Biso   1.000  O 
  O3       1.0000 0.46750  0.41705  0.08501  Biso   1.000  O 
  O4       1.0000 0.46482  0.33139  0.33599  Biso   1.000  O 
  O5       1.0000 0.27215  0.11889  0.28627  Biso   1.000  O 
  O6       1.0000 0.29861  0.14360  0.02745  Biso   1.000  O 
  O7       1.0000 0.22393  0.37412  0.29449  Biso   1.000  O 
  O8       1.0000 0.22233  0.38165  0.04482  Biso   1.000  O 
  O9       1.0000 0.53596  0.16808  0.16416  Biso   1.000  O 
  O10      1.0000 0.53151  0.08206  0.41386  Biso   1.000  O 
  O11      1.0000 0.96942  0.41477  0.16785  Biso   1.000  O 
  O12      1.0000 0.96602  0.33420  0.41689  Biso   1.000  O 
  O13      1.0000 0.77411  0.12290  0.45582  Biso   1.000  O 
  O14      1.0000 0.77763  0.12445  0.20575  Biso   1.000  O 
  O15      1.0000 0.72304  0.37342  0.45604  Biso   1.000  O 
  O16      1.0000 0.72599  0.37433  0.20568  Biso   1.000  O 
  Hf8      1.0000 0.13493  0.02086  0.66882  Biso   1.000  Hf
  Hf9      1.0000 0.14133  0.22551  0.92154  Biso   1.000  Hf
  Hf10     1.0000 0.35974  0.27168  0.67041  Biso   1.000  Hf
  Hf11     1.0000 0.35902  0.47915  0.92164  Biso   1.000  Hf
  Hf12     1.0000 0.63444  0.02112  0.57946  Biso   1.000  Hf
  Hf13     1.0000 0.63721  0.22950  0.82934  Biso   1.000  Hf
  Hf14     1.0000 0.86002  0.27074  0.57925  Biso   1.000  Hf
  Hf15     1.0000 0.86256  0.47675  0.83136  Biso   1.000  Hf
  O17      1.0000 0.03109  0.16406  0.57957  Biso   1.000  O 
  O18      1.0000 0.03062  0.08480  0.83254  Biso   1.000  O 
  O19      1.0000 0.46537  0.41804  0.58475  Biso   1.000  O 
  O20      1.0000 0.46531  0.33434  0.83377  Biso   1.000  O 
  O21      1.0000 0.27314  0.12213  0.78749  Biso   1.000  O 
  O22      1.0000 0.27504  0.12811  0.53979  Biso   1.000  O 
  O23      1.0000 0.22288  0.37304  0.79523  Biso   1.000  O 
  O24      1.0000 0.22201  0.37663  0.54424  Biso   1.000  O 
  O25      1.0000 0.53224  0.16846  0.66406  Biso   1.000  O 
  O26      1.0000 0.53466  0.08079  0.91165  Biso   1.000  O 
  O27      1.0000 0.96752  0.41299  0.66936  Biso   1.000  O 
  O28      1.0000 0.96731  0.33153  0.92188  Biso   1.000  O 
  O29      1.0000 0.77618  0.12327  0.95644  Biso   1.000  O 
  O30      1.0000 0.77432  0.12637  0.70519  Biso   1.000  O 
  O31      1.0000 0.72362  0.37223  0.95728  Biso   1.000  O 
  O32      1.0000 0.72341  0.37660  0.70640  Biso   1.000  O 
  Hf16     1.0000 0.14095  0.52268  0.17139  Biso   1.000  Hf
  Hf17     1.0000 0.13811  0.72767  0.42260  Biso   1.000  Hf
  Hf18     1.0000 0.36120  0.77616  0.16914  Biso   1.000  Hf
  Hf19     1.0000 0.36245  0.98014  0.41984  Biso   1.000  Hf
  Hf20     1.0000 0.64010  0.51989  0.07877  Biso   1.000  Hf
  Hf21     1.0000 0.63769  0.72773  0.32770  Biso   1.000  Hf
  Hf22     1.0000 0.86307  0.76833  0.07758  Biso   1.000  Hf
  Hf23     1.0000 0.85805  0.97741  0.33120  Biso   1.000  Hf
  O33      1.0000 0.03631  0.66708  0.08495  Biso   1.000  O 
  O34      1.0000 0.03341  0.58382  0.33478  Biso   1.000  O 
  O35      1.0000 0.47210  0.91697  0.08324  Biso   1.000  O 
  O36      1.0000 0.46484  0.83335  0.33386  Biso   1.000  O 
  O37      1.0000 0.27714  0.62597  0.29491  Biso   1.000  O 
  O38      1.0000 0.28021  0.63100  0.04440  Biso   1.000  O 
  O39      1.0000 0.21838  0.87399  0.29394  Biso   1.000  O 
  O40      1.0000 0.22496  0.88621  0.04615  Biso   1.000  O 
  O41      1.0000 0.53429  0.66762  0.16431  Biso   1.000  O 
  O42      1.0000 0.53405  0.58273  0.41479  Biso   1.000  O 
  O43      1.0000 0.96837  0.91432  0.16758  Biso   1.000  O 
  O44      1.0000 0.96671  0.83453  0.41676  Biso   1.000  O 
  O45      1.0000 0.77636  0.62364  0.45546  Biso   1.000  O 
  O46      1.0000 0.77695  0.62499  0.20536  Biso   1.000  O 
  O47      1.0000 0.72231  0.87268  0.45545  Biso   1.000  O 
  O48      1.0000 0.72744  0.87537  0.20545  Biso   1.000  O 
  Hf24     1.0000 0.13858  0.52119  0.67295  Biso   1.000  Hf
  Hf25     1.0000 0.13883  0.73281  0.92239  Biso   1.000  Hf
  Hf26     1.0000 0.36177  0.77170  0.67178  Biso   1.000  Hf
  Hf27     1.0000 0.36104  0.98202  0.92189  Biso   1.000  Hf
  Hf28     1.0000 0.63889  0.52076  0.57955  Biso   1.000  Hf
  Hf29     1.0000 0.63807  0.72892  0.82884  Biso   1.000  Hf
  Hf30     1.0000 0.86044  0.77026  0.57983  Biso   1.000  Hf
  Hf31     1.0000 0.86301  0.97945  0.82894  Biso   1.000  Hf
  O49      1.0000 0.03232  0.66469  0.58456  Biso   1.000  O 
  O50      1.0000 0.03335  0.58480  0.83603  Biso   1.000  O 
  O51      1.0000 0.46655  0.91777  0.58434  Biso   1.000  O 
  O52      1.0000 0.46651  0.83346  0.83421  Biso   1.000  O 
  O53      1.0000 0.27600  0.62410  0.79502  Biso   1.000  O 
  O54      1.0000 0.27618  0.62609  0.54549  Biso   1.000  O 
  O55      1.0000 0.22371  0.87391  0.79491  Biso   1.000  O 
  O56      1.0000 0.22474  0.87643  0.54381  Biso   1.000  O 
  O57      1.0000 0.53424  0.66736  0.66457  Biso   1.000  O 
  O58      1.0000 0.53288  0.58262  0.91501  Biso   1.000  O 
  O59      1.0000 0.96764  0.91474  0.66636  Biso   1.000  O 
  O60      1.0000 0.96547  0.83417  0.91731  Biso   1.000  O 
  O61      1.0000 0.77576  0.62257  0.95609  Biso   1.000  O 
  O62      1.0000 0.77717  0.62529  0.70646  Biso   1.000  O 
  O63      1.0000 0.72330  0.87287  0.95508  Biso   1.000  O 
  O64      1.0000 0.72408  0.87638  0.70545  Biso   1.000  O 
