data_image0
_cell_length_a       10.0174
_cell_length_b       5.09454
_cell_length_c       10.4436
_cell_angle_alpha    90
_cell_angle_beta     90
_cell_angle_gamma    90

_symmetry_space_group_name_H-M    "P 1"
_symmetry_int_tables_number       1

loop_
  _symmetry_equiv_pos_as_xyz
  'x, y, z'

loop_
  _atom_site_label
  _atom_site_occupancy
  _atom_site_fract_x
  _atom_site_fract_y
  _atom_site_fract_z
  _atom_site_thermal_displace_type
  _atom_site_B_iso_or_equiv
  _atom_site_type_symbol
  Rh1      1.0000 0.12201  0.02414  0.19017  Biso   1.000  Rh
  Hf1      1.0000 0.13640  0.45914  0.41971  Biso   1.000  Hf
  Hf2      1.0000 0.35779  0.55019  0.16606  Biso   1.000  Hf
  Hf3      1.0000 0.36073  0.96095  0.41904  Biso   1.000  Hf
  Hf4      1.0000 0.63823  0.04072  0.07731  Biso   1.000  Hf
  Hf5      1.0000 0.63392  0.45528  0.32728  Biso   1.000  Hf
  Hf6      1.0000 0.86734  0.52855  0.08081  Biso   1.000  Hf
  Hf7      1.0000 0.85641  0.95291  0.33198  Biso   1.000  Hf
  O1       1.0000 0.04576  0.31390  0.09026  Biso   1.000  O 
  O2       1.0000 0.02607  0.16904  0.33540  Biso   1.000  O 
  O3       1.0000 0.47159  0.83581  0.08388  Biso   1.000  O 
  O4       1.0000 0.46098  0.66099  0.33558  Biso   1.000  O 
  O5       1.0000 0.27004  0.24259  0.28504  Biso   1.000  O 
  O6       1.0000 0.30137  0.30141  0.02499  Biso   1.000  O 
  O7       1.0000 0.21693  0.74826  0.29402  Biso   1.000  O 
  O8       1.0000 0.22218  0.78779  0.04828  Biso   1.000  O 
  O9       1.0000 0.53493  0.33836  0.16308  Biso   1.000  O 
  O10      1.0000 0.52958  0.16149  0.41277  Biso   1.000  O 
  O11      1.0000 0.96944  0.82237  0.16905  Biso   1.000  O 
  O12      1.0000 0.96432  0.66949  0.41858  Biso   1.000  O 
  O13      1.0000 0.77144  0.24442  0.45611  Biso   1.000  O 
  O14      1.0000 0.77607  0.24511  0.20577  Biso   1.000  O 
  O15      1.0000 0.72005  0.74377  0.45628  Biso   1.000  O 
  O16      1.0000 0.72804  0.74572  0.20607  Biso   1.000  O 
  Hf8      1.0000 0.13211  0.04078  0.67026  Biso   1.000  Hf
  Hf9      1.0000 0.13809  0.45818  0.92169  Biso   1.000  Hf
  Hf10     1.0000 0.35807  0.54442  0.67106  Biso   1.000  Hf
  Hf11     1.0000 0.35675  0.96509  0.92286  Biso   1.000  Hf
  Hf12     1.0000 0.63175  0.04077  0.58021  Biso   1.000  Hf
  Hf13     1.0000 0.63395  0.45847  0.82950  Biso   1.000  Hf
  Hf14     1.0000 0.85706  0.53894  0.58057  Biso   1.000  Hf
  Hf15     1.0000 0.86211  0.95346  0.83155  Biso   1.000  Hf
  O17      1.0000 0.02768  0.32404  0.58000  Biso   1.000  O 
  O18      1.0000 0.02791  0.17062  0.83432  Biso   1.000  O 
  O19      1.0000 0.46337  0.83807  0.58406  Biso   1.000  O 
  O20      1.0000 0.46352  0.67019  0.83282  Biso   1.000  O 
  O21      1.0000 0.26991  0.24419  0.78707  Biso   1.000  O 
  O22      1.0000 0.27228  0.25519  0.54002  Biso   1.000  O 
  O23      1.0000 0.22101  0.74612  0.79625  Biso   1.000  O 
  O24      1.0000 0.22125  0.75300  0.54349  Biso   1.000  O 
  O25      1.0000 0.53036  0.33797  0.66315  Biso   1.000  O 
  O26      1.0000 0.53103  0.16028  0.91154  Biso   1.000  O 
  O27      1.0000 0.96670  0.82169  0.67028  Biso   1.000  O 
  O28      1.0000 0.96376  0.66320  0.92355  Biso   1.000  O 
  O29      1.0000 0.77273  0.24261  0.95706  Biso   1.000  O 
  O30      1.0000 0.77230  0.25008  0.70642  Biso   1.000  O 
  O31      1.0000 0.72131  0.74134  0.95710  Biso   1.000  O 
  O32      1.0000 0.72200  0.75279  0.70658  Biso   1.000  O 
