data_image0
_cell_length_a       10.0469
_cell_length_b       10.5729
_cell_length_c       5.02167
_cell_angle_alpha    90
_cell_angle_beta     90
_cell_angle_gamma    90

_symmetry_space_group_name_H-M    "P 1"
_symmetry_int_tables_number       1

loop_
  _symmetry_equiv_pos_as_xyz
  'x, y, z'

loop_
  _atom_site_label
  _atom_site_occupancy
  _atom_site_fract_x
  _atom_site_fract_y
  _atom_site_fract_z
  _atom_site_thermal_displace_type
  _atom_site_B_iso_or_equiv
  _atom_site_type_symbol
  Hf1      1.0000 0.13540  0.00870  0.23974  Biso   1.000  Hf
  Hf2      1.0000 0.13542  0.21173  0.74041  Biso   1.000  Hf
  Hf3      1.0000 0.37141  0.26490  0.24499  Biso   1.000  Hf
  Hf4      1.0000 0.36892  0.48939  0.74553  Biso   1.000  Hf
  O1       1.0000 0.01377  0.16635  0.40937  Biso   1.000  O 
  O2       1.0000 0.03300  0.05959  0.89862  Biso   1.000  O 
  O3       1.0000 0.47257  0.42896  0.40651  Biso   1.000  O 
  O4       1.0000 0.47156  0.31981  0.90061  Biso   1.000  O 
  O5       1.0000 0.26530  0.10324  0.48561  Biso   1.000  O 
  O6       1.0000 0.28704  0.12587  0.97670  Biso   1.000  O 
  O7       1.0000 0.25693  0.41606  0.05705  Biso   1.000  O 
  O8       1.0000 0.24880  0.35004  0.55936  Biso   1.000  O 
  Hf5      1.0000 0.12245  0.54191  0.23364  Biso   1.000  Hf
  Hf6      1.0000 0.12901  0.74436  0.74234  Biso   1.000  Hf
  Hf7      1.0000 0.36633  0.76466  0.24492  Biso   1.000  Hf
  Hf8      1.0000 0.36747  0.98231  0.74295  Biso   1.000  Hf
  O9       1.0000 0.02635  0.69405  0.39286  Biso   1.000  O 
  O10      1.0000 0.03179  0.57527  0.87814  Biso   1.000  O 
  O11      1.0000 0.46327  0.92991  0.38238  Biso   1.000  O 
  O12      1.0000 0.46543  0.81869  0.88910  Biso   1.000  O 
  O13      1.0000 0.26534  0.61594  0.49299  Biso   1.000  O 
  O14      1.0000 0.26306  0.65205  0.98682  Biso   1.000  O 
  O15      1.0000 0.22826  0.88801  0.98676  Biso   1.000  O 
  O16      1.0000 0.23031  0.86258  0.48603  Biso   1.000  O 
  Hf9      1.0000 0.63327  0.01502  0.24757  Biso   1.000  Hf
  Hf10     1.0000 0.63081  0.23310  0.74933  Biso   1.000  Hf
  Hf11     1.0000 0.85228  0.26631  0.24854  Biso   1.000  Hf
  Hf12     1.0000 0.86519  0.48535  0.74884  Biso   1.000  Hf
  O17      1.0000 0.53248  0.17711  0.39956  Biso   1.000  O 
  O18      1.0000 0.54093  0.06545  0.88833  Biso   1.000  O 
  O19      1.0000 0.95402  0.44545  0.38658  Biso   1.000  O 
  O20      1.0000 0.96907  0.31867  0.88480  Biso   1.000  O 
  O21      1.0000 0.76529  0.11468  0.49643  Biso   1.000  O 
  O22      1.0000 0.77018  0.13750  0.99579  Biso   1.000  O 
  O23      1.0000 0.72865  0.38334  0.00094  Biso   1.000  O 
  O24      1.0000 0.72855  0.36518  0.50375  Biso   1.000  O 
  Hf13     1.0000 0.63216  0.51589  0.25408  Biso   1.000  Hf
  Hf14     1.0000 0.63174  0.73335  0.75238  Biso   1.000  Hf
  Hf15     1.0000 0.85738  0.76879  0.24886  Biso   1.000  Hf
  Hf16     1.0000 0.85968  0.98404  0.74433  Biso   1.000  Hf
  O25      1.0000 0.53005  0.68025  0.40020  Biso   1.000  O 
  O26      1.0000 0.53239  0.57140  0.90599  Biso   1.000  O 
  O27      1.0000 0.96182  0.93012  0.39864  Biso   1.000  O 
  O28      1.0000 0.96069  0.82002  0.89598  Biso   1.000  O 
  O29      1.0000 0.76402  0.61719  0.50356  Biso   1.000  O 
  O30      1.0000 0.76585  0.63367  0.00105  Biso   1.000  O 
  O31      1.0000 0.72777  0.88642  0.99822  Biso   1.000  O 
  O32      1.0000 0.72504  0.86635  0.49889  Biso   1.000  O 
  Rh1      1.0000 0.11351  0.30440  0.21668  Biso   1.000  Rh
