data_image0
_cell_length_a       10.0489
_cell_length_b       10.2619
_cell_length_c       10.5087
_cell_angle_alpha    90
_cell_angle_beta     90
_cell_angle_gamma    90

_symmetry_space_group_name_H-M    "P 1"
_symmetry_int_tables_number       1

loop_
  _symmetry_equiv_pos_as_xyz
  'x, y, z'

loop_
  _atom_site_label
  _atom_site_occupancy
  _atom_site_fract_x
  _atom_site_fract_y
  _atom_site_fract_z
  _atom_site_thermal_displace_type
  _atom_site_B_iso_or_equiv
  _atom_site_type_symbol
  Hf1      1.0000 0.14068  0.01978  0.17130  Biso   1.000  Hf
  Hf2      1.0000 0.13281  0.23273  0.42130  Biso   1.000  Hf
  Hf3      1.0000 0.35741  0.26774  0.17501  Biso   1.000  Hf
  Hf4      1.0000 0.35804  0.48380  0.42210  Biso   1.000  Hf
  Hf5      1.0000 0.63360  0.01790  0.06745  Biso   1.000  Hf
  Hf6      1.0000 0.63200  0.23626  0.33997  Biso   1.000  Hf
  Hf7      1.0000 0.88011  0.26853  0.06843  Biso   1.000  Hf
  Hf8      1.0000 0.85887  0.48480  0.33538  Biso   1.000  Hf
  O1       1.0000 0.04311  0.16184  0.07643  Biso   1.000  O 
  O2       1.0000 0.02521  0.09387  0.32588  Biso   1.000  O 
  O3       1.0000 0.47283  0.41104  0.08096  Biso   1.000  O 
  O4       1.0000 0.45793  0.33593  0.33792  Biso   1.000  O 
  O5       1.0000 0.26874  0.12539  0.29662  Biso   1.000  O 
  O6       1.0000 0.28232  0.12256  0.04257  Biso   1.000  O 
  O7       1.0000 0.21882  0.37550  0.29325  Biso   1.000  O 
  O8       1.0000 0.22637  0.37480  0.04324  Biso   1.000  O 
  O9       1.0000 0.51426  0.13742  0.19203  Biso   1.000  O 
  O10      1.0000 0.52575  0.09298  0.42970  Biso   1.000  O 
  O11      1.0000 0.96030  0.41612  0.16877  Biso   1.000  O 
  O12      1.0000 0.96287  0.34044  0.42013  Biso   1.000  O 
  O13      1.0000 0.77371  0.12625  0.45303  Biso   1.000  O 
  O14      1.0000 0.75964  0.14954  0.19226  Biso   1.000  O 
  O15      1.0000 0.72114  0.37541  0.46882  Biso   1.000  O 
  O16      1.0000 0.70348  0.41228  0.23513  Biso   1.000  O 
  Hf9      1.0000 0.13536  0.02511  0.66924  Biso   1.000  Hf
  Hf10     1.0000 0.14231  0.23236  0.91591  Biso   1.000  Hf
  Hf11     1.0000 0.35946  0.27553  0.66975  Biso   1.000  Hf
  Hf12     1.0000 0.35658  0.48520  0.91929  Biso   1.000  Hf
  Hf13     1.0000 0.63443  0.02625  0.58179  Biso   1.000  Hf
  Hf14     1.0000 0.63143  0.22972  0.83517  Biso   1.000  Hf
  Hf15     1.0000 0.85734  0.27436  0.58405  Biso   1.000  Hf
  Hf16     1.0000 0.85738  0.48600  0.82966  Biso   1.000  Hf
  O17      1.0000 0.02848  0.16735  0.58082  Biso   1.000  O 
  O18      1.0000 0.03235  0.09033  0.82940  Biso   1.000  O 
  O19      1.0000 0.46302  0.42102  0.58426  Biso   1.000  O 
  O20      1.0000 0.46166  0.34013  0.83400  Biso   1.000  O 
  O21      1.0000 0.27478  0.12742  0.79208  Biso   1.000  O 
  O22      1.0000 0.27141  0.13066  0.54438  Biso   1.000  O 
  O23      1.0000 0.22104  0.37860  0.79209  Biso   1.000  O 
  O24      1.0000 0.21981  0.38074  0.54343  Biso   1.000  O 
  O25      1.0000 0.52979  0.17171  0.66842  Biso   1.000  O 
  O26      1.0000 0.53145  0.06702  0.89589  Biso   1.000  O 
  O27      1.0000 0.96210  0.42065  0.66697  Biso   1.000  O 
  O28      1.0000 0.97014  0.34147  0.91011  Biso   1.000  O 
  O29      1.0000 0.78495  0.12380  0.94708  Biso   1.000  O 
  O30      1.0000 0.77229  0.12934  0.70306  Biso   1.000  O 
  O31      1.0000 0.72404  0.38453  0.96583  Biso   1.000  O 
  O32      1.0000 0.72024  0.38045  0.71490  Biso   1.000  O 
  Hf17     1.0000 0.13657  0.52127  0.17105  Biso   1.000  Hf
  Hf18     1.0000 0.13522  0.73246  0.42056  Biso   1.000  Hf
  Hf19     1.0000 0.35879  0.77239  0.17222  Biso   1.000  Hf
  Hf20     1.0000 0.36041  0.98252  0.42399  Biso   1.000  Hf
  Hf21     1.0000 0.64504  0.53652  0.08349  Biso   1.000  Hf
  Hf22     1.0000 0.63722  0.73476  0.33030  Biso   1.000  Hf
  Hf23     1.0000 0.86483  0.77680  0.07860  Biso   1.000  Hf
  Hf24     1.0000 0.85910  0.98271  0.32809  Biso   1.000  Hf
  O33      1.0000 0.03336  0.66437  0.08090  Biso   1.000  O 
  O34      1.0000 0.03141  0.59087  0.32953  Biso   1.000  O 
  O35      1.0000 0.46561  0.90914  0.07759  Biso   1.000  O 
  O36      1.0000 0.46576  0.84139  0.33166  Biso   1.000  O 
  O37      1.0000 0.27346  0.62572  0.29458  Biso   1.000  O 
  O38      1.0000 0.27801  0.62323  0.04549  Biso   1.000  O 
  O39      1.0000 0.22212  0.87550  0.29529  Biso   1.000  O 
  O40      1.0000 0.22206  0.87339  0.04537  Biso   1.000  O 
  O41      1.0000 0.53108  0.66812  0.17058  Biso   1.000  O 
  O42      1.0000 0.52946  0.59135  0.42008  Biso   1.000  O 
  O43      1.0000 0.96713  0.92002  0.16672  Biso   1.000  O 
  O44      1.0000 0.96320  0.84165  0.41541  Biso   1.000  O 
  O45      1.0000 0.77242  0.62807  0.45682  Biso   1.000  O 
  O46      1.0000 0.78056  0.64213  0.20646  Biso   1.000  O 
  O47      1.0000 0.72051  0.87816  0.45612  Biso   1.000  O 
  O48      1.0000 0.72375  0.88633  0.20559  Biso   1.000  O 
  Hf25     1.0000 0.13394  0.52516  0.66984  Biso   1.000  Hf
  Hf26     1.0000 0.13380  0.73355  0.92081  Biso   1.000  Hf
  Hf27     1.0000 0.35767  0.77330  0.67090  Biso   1.000  Hf
  Hf28     1.0000 0.35545  0.97952  0.91734  Biso   1.000  Hf
  Hf29     1.0000 0.63542  0.52469  0.58149  Biso   1.000  Hf
  Hf30     1.0000 0.63428  0.73411  0.82798  Biso   1.000  Hf
  Hf31     1.0000 0.85746  0.77623  0.57872  Biso   1.000  Hf
  Hf32     1.0000 0.86004  0.98346  0.82599  Biso   1.000  Hf
  O49      1.0000 0.02810  0.66848  0.57977  Biso   1.000  O 
  O50      1.0000 0.02817  0.59187  0.83021  Biso   1.000  O 
  O51      1.0000 0.46433  0.91727  0.58539  Biso   1.000  O 
  O52      1.0000 0.45860  0.83082  0.83348  Biso   1.000  O 
  O53      1.0000 0.27119  0.62678  0.79397  Biso   1.000  O 
  O54      1.0000 0.27116  0.63014  0.54424  Biso   1.000  O 
  O55      1.0000 0.21889  0.87696  0.79315  Biso   1.000  O 
  O56      1.0000 0.22134  0.87987  0.54352  Biso   1.000  O 
  O57      1.0000 0.52909  0.66806  0.66814  Biso   1.000  O 
  O58      1.0000 0.52881  0.59162  0.91969  Biso   1.000  O 
  O59      1.0000 0.96557  0.91871  0.66362  Biso   1.000  O 
  O60      1.0000 0.96559  0.84243  0.91630  Biso   1.000  O 
  O61      1.0000 0.77371  0.63297  0.95526  Biso   1.000  O 
  O62      1.0000 0.77319  0.63050  0.70554  Biso   1.000  O 
  O63      1.0000 0.72027  0.87762  0.95410  Biso   1.000  O 
  O64      1.0000 0.72132  0.87907  0.70534  Biso   1.000  O 
  Ru1      1.0000 0.61863  0.27070  0.09640  Biso   1.000  Ru
