data_image0
_cell_length_a       5.04654
_cell_length_b       10.2456
_cell_length_c       10.4133
_cell_angle_alpha    90
_cell_angle_beta     80
_cell_angle_gamma    90

_symmetry_space_group_name_H-M    "P 1"
_symmetry_int_tables_number       1

loop_
  _symmetry_equiv_pos_as_xyz
  'x, y, z'

loop_
  _atom_site_label
  _atom_site_occupancy
  _atom_site_fract_x
  _atom_site_fract_y
  _atom_site_fract_z
  _atom_site_thermal_displace_type
  _atom_site_B_iso_or_equiv
  _atom_site_type_symbol
  Ru1      1.0000 0.28100  0.02243  0.15141  Biso   1.000  Ru
  Hf1      1.0000 0.27830  0.23128  0.39485  Biso   1.000  Hf
  Hf2      1.0000 0.72540  0.26933  0.10606  Biso   1.000  Hf
  Hf3      1.0000 0.72235  0.48095  0.35382  Biso   1.000  Hf
  O1       1.0000 0.07018  0.16551  0.08085  Biso   1.000  O 
  O2       1.0000 0.07558  0.08569  0.31938  Biso   1.000  O 
  O3       1.0000 0.92859  0.42074  0.16938  Biso   1.000  O 
  O4       1.0000 0.92688  0.33234  0.41962  Biso   1.000  O 
  O5       1.0000 0.55216  0.12775  0.24122  Biso   1.000  O 
  O6       1.0000 0.55538  0.12270  0.48999  Biso   1.000  O 
  O7       1.0000 0.44665  0.37852  0.01036  Biso   1.000  O 
  O8       1.0000 0.44797  0.37225  0.25971  Biso   1.000  O 
  Hf4      1.0000 0.27461  0.02294  0.64613  Biso   1.000  Hf
  Hf5      1.0000 0.27025  0.22849  0.89977  Biso   1.000  Hf
  Hf6      1.0000 0.71914  0.27347  0.60497  Biso   1.000  Hf
  Hf7      1.0000 0.71711  0.48076  0.85550  Biso   1.000  Hf
  O9       1.0000 0.06766  0.16831  0.57651  Biso   1.000  O 
  O10      1.0000 0.06405  0.08375  0.82889  Biso   1.000  O 
  O11      1.0000 0.92672  0.42033  0.67058  Biso   1.000  O 
  O12      1.0000 0.92177  0.33011  0.92063  Biso   1.000  O 
  O13      1.0000 0.55007  0.13108  0.74360  Biso   1.000  O 
  O14      1.0000 0.54178  0.11553  0.00032  Biso   1.000  O 
  O15      1.0000 0.44458  0.38040  0.50982  Biso   1.000  O 
  O16      1.0000 0.44262  0.37269  0.76058  Biso   1.000  O 
  Hf8      1.0000 0.27896  0.52280  0.14564  Biso   1.000  Hf
  Hf9      1.0000 0.27761  0.73107  0.39523  Biso   1.000  Hf
  Hf10     1.0000 0.72344  0.77648  0.10328  Biso   1.000  Hf
  Hf11     1.0000 0.72202  0.98098  0.35095  Biso   1.000  Hf
  O17      1.0000 0.06948  0.66937  0.08048  Biso   1.000  O 
  O18      1.0000 0.07260  0.58192  0.33095  Biso   1.000  O 
  O19      1.0000 0.94506  0.92174  0.16702  Biso   1.000  O 
  O20      1.0000 0.92997  0.83425  0.41839  Biso   1.000  O 
  O21      1.0000 0.55388  0.63303  0.24084  Biso   1.000  O 
  O22      1.0000 0.55274  0.62292  0.49084  Biso   1.000  O 
  O23      1.0000 0.43955  0.88185  0.00971  Biso   1.000  O 
  O24      1.0000 0.44953  0.87612  0.25590  Biso   1.000  O 
  Hf12     1.0000 0.27589  0.52333  0.64698  Biso   1.000  Hf
  Hf13     1.0000 0.27345  0.73195  0.89724  Biso   1.000  Hf
  Hf14     1.0000 0.72034  0.77350  0.60369  Biso   1.000  Hf
  Hf15     1.0000 0.71453  0.98102  0.85543  Biso   1.000  Hf
  O25      1.0000 0.07020  0.67125  0.57989  Biso   1.000  O 
  O26      1.0000 0.06870  0.58229  0.83170  Biso   1.000  O 
  O27      1.0000 0.92574  0.92084  0.66975  Biso   1.000  O 
  O28      1.0000 0.92191  0.83296  0.91851  Biso   1.000  O 
  O29      1.0000 0.55155  0.63127  0.74141  Biso   1.000  O 
  O30      1.0000 0.55163  0.62578  0.99148  Biso   1.000  O 
  O31      1.0000 0.44566  0.88103  0.50773  Biso   1.000  O 
  O32      1.0000 0.44291  0.87308  0.75874  Biso   1.000  O 
