data_image0
_cell_length_a       10.173
_cell_length_b       5.14934
_cell_length_c       10.5751
_cell_angle_alpha    90
_cell_angle_beta     80
_cell_angle_gamma    90

_symmetry_space_group_name_H-M    "P 1"
_symmetry_int_tables_number       1

loop_
  _symmetry_equiv_pos_as_xyz
  'x, y, z'

loop_
  _atom_site_label
  _atom_site_occupancy
  _atom_site_fract_x
  _atom_site_fract_y
  _atom_site_fract_z
  _atom_site_thermal_displace_type
  _atom_site_B_iso_or_equiv
  _atom_site_type_symbol
  Hf1      1.0000 0.13455  0.04892  0.14273  Biso   1.000  Hf
  Hf2      1.0000 0.13572  0.47765  0.39430  Biso   1.000  Hf
  Hf3      1.0000 0.35218  0.54077  0.09641  Biso   1.000  Hf
  Hf4      1.0000 0.34681  0.94682  0.35421  Biso   1.000  Hf
  O1       1.0000 0.03005  0.34393  0.07596  Biso   1.000  O 
  O2       1.0000 0.03369  0.18664  0.32263  Biso   1.000  O 
  O3       1.0000 0.46943  0.77000  0.19246  Biso   1.000  O 
  O4       1.0000 0.47966  0.71855  0.44374  Biso   1.000  O 
  O5       1.0000 0.27935  0.25399  0.23687  Biso   1.000  O 
  O6       1.0000 0.28357  0.26316  0.48293  Biso   1.000  O 
  O7       1.0000 0.21730  0.76254  0.00546  Biso   1.000  O 
  O8       1.0000 0.20258  0.76093  0.24968  Biso   1.000  O 
  Hf5      1.0000 0.13772  0.06143  0.64726  Biso   1.000  Hf
  Hf6      1.0000 0.13511  0.47572  0.89394  Biso   1.000  Hf
  Hf7      1.0000 0.36016  0.56140  0.60792  Biso   1.000  Hf
  Hf8      1.0000 0.35775  0.97372  0.85364  Biso   1.000  Hf
  O9       1.0000 0.03551  0.34494  0.57546  Biso   1.000  O 
  O10      1.0000 0.03355  0.18385  0.82707  Biso   1.000  O 
  O11      1.0000 0.46671  0.83141  0.68259  Biso   1.000  O 
  O12      1.0000 0.47019  0.70159  0.92974  Biso   1.000  O 
  O13      1.0000 0.27571  0.27105  0.73895  Biso   1.000  O 
  O14      1.0000 0.27444  0.26325  0.98547  Biso   1.000  O 
  O15      1.0000 0.21674  0.77841  0.51667  Biso   1.000  O 
  O16      1.0000 0.22196  0.75904  0.75954  Biso   1.000  O 
  Hf9      1.0000 0.63947  0.03781  0.14822  Biso   1.000  Hf
  Hf10     1.0000 0.64094  0.46054  0.40014  Biso   1.000  Hf
  Hf11     1.0000 0.85637  0.54585  0.10513  Biso   1.000  Hf
  Hf12     1.0000 0.85660  0.96661  0.35384  Biso   1.000  Hf
  O17      1.0000 0.52252  0.29399  0.06906  Biso   1.000  O 
  O18      1.0000 0.54448  0.13716  0.32861  Biso   1.000  O 
  O19      1.0000 0.95720  0.84447  0.16911  Biso   1.000  O 
  O20      1.0000 0.96423  0.68945  0.42519  Biso   1.000  O 
  O21      1.0000 0.77566  0.25795  0.23775  Biso   1.000  O 
  O22      1.0000 0.77882  0.24987  0.49086  Biso   1.000  O 
  O23      1.0000 0.71669  0.75283  0.01317  Biso   1.000  O 
  O24      1.0000 0.72429  0.74136  0.26222  Biso   1.000  O 
  Hf13     1.0000 0.64150  0.05509  0.64595  Biso   1.000  Hf
  Hf14     1.0000 0.63796  0.46628  0.89752  Biso   1.000  Hf
  Hf15     1.0000 0.86072  0.55753  0.60540  Biso   1.000  Hf
  Hf16     1.0000 0.85505  0.97007  0.85562  Biso   1.000  Hf
  O25      1.0000 0.53151  0.33285  0.57651  Biso   1.000  O 
  O26      1.0000 0.53264  0.19675  0.82082  Biso   1.000  O 
  O27      1.0000 0.96268  0.84439  0.67551  Biso   1.000  O 
  O28      1.0000 0.96277  0.68511  0.92089  Biso   1.000  O 
  O29      1.0000 0.77691  0.26975  0.74046  Biso   1.000  O 
  O30      1.0000 0.77643  0.25782  0.99005  Biso   1.000  O 
  O31      1.0000 0.72426  0.76429  0.51343  Biso   1.000  O 
  O32      1.0000 0.72147  0.75520  0.76191  Biso   1.000  O 
  Ru1      1.0000 0.40540  0.47051  0.33097  Biso   1.000  Ru
