data_image0
_cell_length_a       9.99479
_cell_length_b       10.192
_cell_length_c       5.2209
_cell_angle_alpha    90
_cell_angle_beta     90
_cell_angle_gamma    90

_symmetry_space_group_name_H-M    "P 1"
_symmetry_int_tables_number       1

loop_
  _symmetry_equiv_pos_as_xyz
  'x, y, z'

loop_
  _atom_site_label
  _atom_site_occupancy
  _atom_site_fract_x
  _atom_site_fract_y
  _atom_site_fract_z
  _atom_site_thermal_displace_type
  _atom_site_B_iso_or_equiv
  _atom_site_type_symbol
  Ru1      1.0000 0.14027  0.02132  0.35312  Biso   1.000  Ru
  Hf1      1.0000 0.13915  0.22772  0.84629  Biso   1.000  Hf
  Hf2      1.0000 0.35958  0.27035  0.34682  Biso   1.000  Hf
  Hf3      1.0000 0.36202  0.48032  0.84452  Biso   1.000  Hf
  Hf4      1.0000 0.63848  0.02214  0.15438  Biso   1.000  Hf
  Hf5      1.0000 0.63915  0.23059  0.65734  Biso   1.000  Hf
  Hf6      1.0000 0.86412  0.26916  0.15924  Biso   1.000  Hf
  Hf7      1.0000 0.86176  0.47981  0.65841  Biso   1.000  Hf
  O1       1.0000 0.03155  0.15734  0.15564  Biso   1.000  O 
  O2       1.0000 0.03523  0.09077  0.64087  Biso   1.000  O 
  O3       1.0000 0.46612  0.41566  0.17074  Biso   1.000  O 
  O4       1.0000 0.46625  0.33456  0.67022  Biso   1.000  O 
  O5       1.0000 0.27747  0.12174  0.59559  Biso   1.000  O 
  O6       1.0000 0.27104  0.12032  0.10707  Biso   1.000  O 
  O7       1.0000 0.22405  0.37500  0.59132  Biso   1.000  O 
  O8       1.0000 0.22387  0.37411  0.09044  Biso   1.000  O 
  O9       1.0000 0.53256  0.16553  0.33498  Biso   1.000  O 
  O10      1.0000 0.53138  0.08822  0.83728  Biso   1.000  O 
  O11      1.0000 0.96845  0.41378  0.33650  Biso   1.000  O 
  O12      1.0000 0.96944  0.33555  0.83563  Biso   1.000  O 
  O13      1.0000 0.77801  0.12491  0.90475  Biso   1.000  O 
  O14      1.0000 0.77574  0.12673  0.40742  Biso   1.000  O 
  O15      1.0000 0.72530  0.37481  0.91227  Biso   1.000  O 
  O16      1.0000 0.72420  0.37688  0.41160  Biso   1.000  O 
  Hf8      1.0000 0.13941  0.52150  0.34439  Biso   1.000  Hf
  Hf9      1.0000 0.13942  0.73148  0.84255  Biso   1.000  Hf
  Hf10     1.0000 0.35888  0.77446  0.34199  Biso   1.000  Hf
  Hf11     1.0000 0.36015  0.97839  0.84566  Biso   1.000  Hf
  Hf12     1.0000 0.63855  0.52160  0.15955  Biso   1.000  Hf
  Hf13     1.0000 0.63900  0.72999  0.65659  Biso   1.000  Hf
  Hf14     1.0000 0.86313  0.77263  0.15422  Biso   1.000  Hf
  Hf15     1.0000 0.86225  0.98153  0.65188  Biso   1.000  Hf
  O17      1.0000 0.03180  0.66339  0.16287  Biso   1.000  O 
  O18      1.0000 0.03302  0.58701  0.66495  Biso   1.000  O 
  O19      1.0000 0.46839  0.91427  0.16599  Biso   1.000  O 
  O20      1.0000 0.46614  0.83616  0.66731  Biso   1.000  O 
  O21      1.0000 0.27707  0.62592  0.59147  Biso   1.000  O 
  O22      1.0000 0.27626  0.62700  0.09079  Biso   1.000  O 
  O23      1.0000 0.22072  0.87711  0.58438  Biso   1.000  O 
  O24      1.0000 0.22118  0.87693  0.08919  Biso   1.000  O 
  O25      1.0000 0.53296  0.66722  0.33268  Biso   1.000  O 
  O26      1.0000 0.53496  0.58498  0.83237  Biso   1.000  O 
  O27      1.0000 0.97588  0.91817  0.32904  Biso   1.000  O 
  O28      1.0000 0.96858  0.83899  0.83142  Biso   1.000  O 
  O29      1.0000 0.77832  0.62651  0.91170  Biso   1.000  O 
  O30      1.0000 0.77717  0.62708  0.41100  Biso   1.000  O 
  O31      1.0000 0.72416  0.87585  0.90729  Biso   1.000  O 
  O32      1.0000 0.72900  0.87750  0.40809  Biso   1.000  O 
