data_image0
_cell_length_a       10.0977
_cell_length_b       10.2636
_cell_length_c       10.4244
_cell_angle_alpha    90
_cell_angle_beta     80
_cell_angle_gamma    90

_symmetry_space_group_name_H-M    "P 1"
_symmetry_int_tables_number       1

loop_
  _symmetry_equiv_pos_as_xyz
  'x, y, z'

loop_
  _atom_site_label
  _atom_site_occupancy
  _atom_site_fract_x
  _atom_site_fract_y
  _atom_site_fract_z
  _atom_site_thermal_displace_type
  _atom_site_B_iso_or_equiv
  _atom_site_type_symbol
  Ru1      1.0000 0.14037  0.02195  0.15166  Biso   1.000  Ru
  Hf1      1.0000 0.13850  0.23044  0.39520  Biso   1.000  Hf
  Hf2      1.0000 0.35955  0.27135  0.10555  Biso   1.000  Hf
  Hf3      1.0000 0.36035  0.48020  0.35454  Biso   1.000  Hf
  O1       1.0000 0.03553  0.16568  0.08022  Biso   1.000  O 
  O2       1.0000 0.03787  0.08458  0.31941  Biso   1.000  O 
  O3       1.0000 0.46290  0.42076  0.16905  Biso   1.000  O 
  O4       1.0000 0.46146  0.33065  0.41980  Biso   1.000  O 
  O5       1.0000 0.27683  0.12746  0.24140  Biso   1.000  O 
  O6       1.0000 0.27525  0.12221  0.49178  Biso   1.000  O 
  O7       1.0000 0.22285  0.37870  0.01032  Biso   1.000  O 
  O8       1.0000 0.22272  0.37189  0.25984  Biso   1.000  O 
  Hf4      1.0000 0.13621  0.02232  0.64627  Biso   1.000  Hf
  Hf5      1.0000 0.13311  0.22724  0.89980  Biso   1.000  Hf
  Hf6      1.0000 0.35818  0.27258  0.60586  Biso   1.000  Hf
  Hf7      1.0000 0.35624  0.47978  0.85515  Biso   1.000  Hf
  O9       1.0000 0.03187  0.16683  0.57593  Biso   1.000  O 
  O10      1.0000 0.03079  0.08325  0.82797  Biso   1.000  O 
  O11      1.0000 0.46058  0.42173  0.66962  Biso   1.000  O 
  O12      1.0000 0.45681  0.32834  0.91936  Biso   1.000  O 
  O13      1.0000 0.27391  0.13009  0.74448  Biso   1.000  O 
  O14      1.0000 0.27145  0.11520  0.00076  Biso   1.000  O 
  O15      1.0000 0.22077  0.37975  0.50988  Biso   1.000  O 
  O16      1.0000 0.21936  0.37152  0.76061  Biso   1.000  O 
  Hf8      1.0000 0.13851  0.52206  0.14604  Biso   1.000  Hf
  Hf9      1.0000 0.13667  0.73010  0.39563  Biso   1.000  Hf
  Hf10     1.0000 0.35825  0.77466  0.10416  Biso   1.000  Hf
  Hf11     1.0000 0.35890  0.97919  0.35362  Biso   1.000  Hf
  O17      1.0000 0.03566  0.66904  0.08007  Biso   1.000  O 
  O18      1.0000 0.03438  0.58162  0.33061  Biso   1.000  O 
  O19      1.0000 0.46431  0.91927  0.17020  Biso   1.000  O 
  O20      1.0000 0.46253  0.83023  0.41865  Biso   1.000  O 
  O21      1.0000 0.27567  0.63162  0.24132  Biso   1.000  O 
  O22      1.0000 0.27454  0.62189  0.49109  Biso   1.000  O 
  O23      1.0000 0.21990  0.88165  0.00961  Biso   1.000  O 
  O24      1.0000 0.21922  0.87420  0.25681  Biso   1.000  O 
  Hf12     1.0000 0.13602  0.52238  0.64670  Biso   1.000  Hf
  Hf13     1.0000 0.13484  0.73099  0.89658  Biso   1.000  Hf
  Hf14     1.0000 0.35887  0.77226  0.60411  Biso   1.000  Hf
  Hf15     1.0000 0.35556  0.97939  0.85620  Biso   1.000  Hf
  O25      1.0000 0.03289  0.67016  0.58004  Biso   1.000  O 
  O26      1.0000 0.03219  0.58199  0.83113  Biso   1.000  O 
  O27      1.0000 0.46025  0.92113  0.66996  Biso   1.000  O 
  O28      1.0000 0.45821  0.83072  0.91941  Biso   1.000  O 
  O29      1.0000 0.27364  0.63036  0.74124  Biso   1.000  O 
  O30      1.0000 0.27229  0.62327  0.99142  Biso   1.000  O 
  O31      1.0000 0.22125  0.87995  0.50863  Biso   1.000  O 
  O32      1.0000 0.21968  0.87202  0.75910  Biso   1.000  O 
  Hf16     1.0000 0.63810  0.02221  0.14559  Biso   1.000  Hf
  Hf17     1.0000 0.63684  0.22947  0.39602  Biso   1.000  Hf
  Hf18     1.0000 0.86340  0.26951  0.10487  Biso   1.000  Hf
  Hf19     1.0000 0.85937  0.47948  0.35384  Biso   1.000  Hf
  O33      1.0000 0.53558  0.17098  0.08198  Biso   1.000  O 
  O34      1.0000 0.53462  0.08036  0.33161  Biso   1.000  O 
  O35      1.0000 0.96353  0.42052  0.16953  Biso   1.000  O 
  O36      1.0000 0.96260  0.33131  0.41916  Biso   1.000  O 
  O37      1.0000 0.77494  0.12956  0.24085  Biso   1.000  O 
  O38      1.0000 0.77574  0.12137  0.48959  Biso   1.000  O 
  O39      1.0000 0.72341  0.37912  0.00936  Biso   1.000  O 
  O40      1.0000 0.72245  0.37119  0.25954  Biso   1.000  O 
  Hf20     1.0000 0.63545  0.02209  0.64648  Biso   1.000  Hf
  Hf21     1.0000 0.63446  0.23020  0.89679  Biso   1.000  Hf
  Hf22     1.0000 0.85824  0.27233  0.60397  Biso   1.000  Hf
  Hf23     1.0000 0.85726  0.47978  0.85547  Biso   1.000  Hf
  O41      1.0000 0.53419  0.17175  0.58215  Biso   1.000  O 
  O42      1.0000 0.53158  0.08049  0.83304  Biso   1.000  O 
  O43      1.0000 0.96163  0.41901  0.67066  Biso   1.000  O 
  O44      1.0000 0.96089  0.33142  0.92125  Biso   1.000  O 
  O45      1.0000 0.77260  0.13034  0.74072  Biso   1.000  O 
  O46      1.0000 0.77165  0.12278  0.99082  Biso   1.000  O 
  O47      1.0000 0.72117  0.37998  0.50985  Biso   1.000  O 
  O48      1.0000 0.71976  0.37212  0.76009  Biso   1.000  O 
  Hf24     1.0000 0.63871  0.52221  0.14557  Biso   1.000  Hf
  Hf25     1.0000 0.63815  0.72983  0.39585  Biso   1.000  Hf
  Hf26     1.0000 0.86355  0.77337  0.10334  Biso   1.000  Hf
  Hf27     1.0000 0.86074  0.98066  0.35186  Biso   1.000  Hf
  O49      1.0000 0.53468  0.67045  0.08128  Biso   1.000  O 
  O50      1.0000 0.53581  0.58020  0.33171  Biso   1.000  O 
  O51      1.0000 0.97120  0.92241  0.16620  Biso   1.000  O 
  O52      1.0000 0.96311  0.83399  0.41943  Biso   1.000  O 
  O53      1.0000 0.77611  0.63076  0.24045  Biso   1.000  O 
  O54      1.0000 0.77504  0.62197  0.49091  Biso   1.000  O 
  O55      1.0000 0.72277  0.87925  0.00951  Biso   1.000  O 
  O56      1.0000 0.72736  0.87280  0.25854  Biso   1.000  O 
  Hf28     1.0000 0.63619  0.52247  0.64675  Biso   1.000  Hf
  Hf29     1.0000 0.63430  0.72966  0.89754  Biso   1.000  Hf
  Hf30     1.0000 0.85802  0.77278  0.60442  Biso   1.000  Hf
  Hf31     1.0000 0.85649  0.98033  0.85444  Biso   1.000  Hf
  O57      1.0000 0.53441  0.67150  0.58139  Biso   1.000  O 
  O58      1.0000 0.53259  0.58007  0.83242  Biso   1.000  O 
  O59      1.0000 0.96132  0.92006  0.66973  Biso   1.000  O 
  O60      1.0000 0.95967  0.83210  0.91920  Biso   1.000  O 
  O61      1.0000 0.77358  0.63027  0.74165  Biso   1.000  O 
  O62      1.0000 0.77327  0.62340  0.99181  Biso   1.000  O 
  O63      1.0000 0.72107  0.88044  0.50903  Biso   1.000  O 
  O64      1.0000 0.71939  0.87199  0.75985  Biso   1.000  O 
