data_image0
_cell_length_a       10.0237
_cell_length_b       5.24446
_cell_length_c       10.0872
_cell_angle_alpha    90
_cell_angle_beta     90
_cell_angle_gamma    90

_symmetry_space_group_name_H-M    "P 1"
_symmetry_int_tables_number       1

loop_
  _symmetry_equiv_pos_as_xyz
  'x, y, z'

loop_
  _atom_site_label
  _atom_site_occupancy
  _atom_site_fract_x
  _atom_site_fract_y
  _atom_site_fract_z
  _atom_site_thermal_displace_type
  _atom_site_B_iso_or_equiv
  _atom_site_type_symbol
  Hf1      1.0000 0.12351  0.10852  0.10998  Biso   1.000  Hf
  Hf2      1.0000 0.13092  0.45176  0.38966  Biso   1.000  Hf
  Hf3      1.0000 0.36646  0.52219  0.11819  Biso   1.000  Hf
  Hf4      1.0000 0.36020  0.95431  0.37339  Biso   1.000  Hf
  O1       1.0000 0.00420  0.36286  0.22777  Biso   1.000  O 
  O2       1.0000 0.03142  0.12204  0.45455  Biso   1.000  O 
  O3       1.0000 0.46014  0.85788  0.19506  Biso   1.000  O 
  O4       1.0000 0.46134  0.62491  0.44724  Biso   1.000  O 
  O5       1.0000 0.26082  0.20232  0.25054  Biso   1.000  O 
  O6       1.0000 0.27059  0.25276  0.50052  Biso   1.000  O 
  O7       1.0000 0.22654  0.75782  0.50236  Biso   1.000  O 
  O8       1.0000 0.23754  0.68067  0.25972  Biso   1.000  O 
  Hf5      1.0000 0.13203  0.01952  0.62760  Biso   1.000  Hf
  Hf6      1.0000 0.13673  0.45851  0.86656  Biso   1.000  Hf
  Hf7      1.0000 0.36630  0.52327  0.62397  Biso   1.000  Hf
  Hf8      1.0000 0.36511  0.95819  0.87169  Biso   1.000  Hf
  O9       1.0000 0.03449  0.36090  0.68839  Biso   1.000  O 
  O10      1.0000 0.03053  0.13105  0.92813  Biso   1.000  O 
  O11      1.0000 0.46462  0.85536  0.69348  Biso   1.000  O 
  O12      1.0000 0.46419  0.62720  0.94254  Biso   1.000  O 
  O13      1.0000 0.26853  0.22213  0.74488  Biso   1.000  O 
  O14      1.0000 0.28137  0.25481  0.98378  Biso   1.000  O 
  O15      1.0000 0.23547  0.79395  0.00005  Biso   1.000  O 
  O16      1.0000 0.23171  0.72478  0.74802  Biso   1.000  O 
  Hf9      1.0000 0.62851  0.02746  0.12605  Biso   1.000  Hf
  Hf10     1.0000 0.62746  0.45746  0.37726  Biso   1.000  Hf
  Hf11     1.0000 0.84502  0.53292  0.12827  Biso   1.000  Hf
  Hf12     1.0000 0.86120  0.96834  0.37509  Biso   1.000  Hf
  O17      1.0000 0.52823  0.35372  0.19822  Biso   1.000  O 
  O18      1.0000 0.53147  0.12329  0.44646  Biso   1.000  O 
  O19      1.0000 0.94977  0.89526  0.19279  Biso   1.000  O 
  O20      1.0000 0.96277  0.63729  0.44993  Biso   1.000  O 
  O21      1.0000 0.75708  0.22785  0.25146  Biso   1.000  O 
  O22      1.0000 0.76646  0.26318  0.49887  Biso   1.000  O 
  O23      1.0000 0.72737  0.76130  0.49989  Biso   1.000  O 
  O24      1.0000 0.71910  0.73109  0.25258  Biso   1.000  O 
  Hf13     1.0000 0.63368  0.02311  0.62280  Biso   1.000  Hf
  Hf14     1.0000 0.62943  0.45508  0.87274  Biso   1.000  Hf
  Hf15     1.0000 0.86464  0.52700  0.62360  Biso   1.000  Hf
  Hf16     1.0000 0.85580  0.95657  0.87461  Biso   1.000  Hf
  O25      1.0000 0.53387  0.35577  0.69451  Biso   1.000  O 
  O26      1.0000 0.53622  0.12394  0.94362  Biso   1.000  O 
  O27      1.0000 0.96273  0.85146  0.70318  Biso   1.000  O 
  O28      1.0000 0.96436  0.62558  0.95495  Biso   1.000  O 
  O29      1.0000 0.76879  0.22125  0.74871  Biso   1.000  O 
  O30      1.0000 0.76576  0.25512  0.99940  Biso   1.000  O 
  O31      1.0000 0.72061  0.75484  0.99939  Biso   1.000  O 
  O32      1.0000 0.72852  0.72136  0.74991  Biso   1.000  O 
  Ru1      1.0000 0.09922  0.62232  0.11389  Biso   1.000  Ru
