data_image0
_cell_length_a       10.0752
_cell_length_b       10.3032
_cell_length_c       10.1017
_cell_angle_alpha    90
_cell_angle_beta     90
_cell_angle_gamma    90

_symmetry_space_group_name_H-M    "P 1"
_symmetry_int_tables_number       1

loop_
  _symmetry_equiv_pos_as_xyz
  'x, y, z'

loop_
  _atom_site_label
  _atom_site_occupancy
  _atom_site_fract_x
  _atom_site_fract_y
  _atom_site_fract_z
  _atom_site_thermal_displace_type
  _atom_site_B_iso_or_equiv
  _atom_site_type_symbol
  Hf1      1.0000 0.10600  0.92728  0.14025  Biso   1.000  Hf
  Hf2      1.0000 0.14661  0.24768  0.36642  Biso   1.000  Hf
  Hf3      1.0000 0.37854  0.27707  0.11079  Biso   1.000  Hf
  Hf4      1.0000 0.38532  0.99189  0.38274  Biso   1.000  Hf
  O1       1.0000 0.02688  0.15498  0.95565  Biso   1.000  O 
  O2       1.0000 0.99566  0.08201  0.22044  Biso   1.000  O 
  O3       1.0000 0.00396  0.34255  0.25402  Biso   1.000  O 
  O4       1.0000 0.99722  0.40820  0.00556  Biso   1.000  O 
  O5       1.0000 0.28633  0.15326  0.24687  Biso   1.000  O 
  O6       1.0000 0.31285  0.15906  0.96109  Biso   1.000  O 
  O7       1.0000 0.27870  0.38935  0.99567  Biso   1.000  O 
  O8       1.0000 0.25969  0.40219  0.24766  Biso   1.000  O 
  Hf5      1.0000 0.14302  0.00027  0.62573  Biso   1.000  Hf
  Hf6      1.0000 0.16025  0.28108  0.87069  Biso   1.000  Hf
  Hf7      1.0000 0.38300  0.26268  0.62851  Biso   1.000  Hf
  Hf8      1.0000 0.38870  0.99038  0.89023  Biso   1.000  Hf
  O9       1.0000 0.99392  0.15587  0.46408  Biso   1.000  O 
  O10      1.0000 0.98219  0.08722  0.70659  Biso   1.000  O 
  O11      1.0000 0.01180  0.34791  0.74680  Biso   1.000  O 
  O12      1.0000 0.00034  0.39867  0.50898  Biso   1.000  O 
  O13      1.0000 0.23018  0.17002  0.71763  Biso   1.000  O 
  O14      1.0000 0.24779  0.09703  0.48345  Biso   1.000  O 
  O15      1.0000 0.25549  0.35554  0.49692  Biso   1.000  O 
  O16      1.0000 0.27518  0.41581  0.74701  Biso   1.000  O 
  Hf9      1.0000 0.12535  0.50982  0.13011  Biso   1.000  Hf
  Hf10     1.0000 0.13530  0.74243  0.39336  Biso   1.000  Hf
  Hf11     1.0000 0.38538  0.74842  0.12834  Biso   1.000  Hf
  Hf12     1.0000 0.38398  0.50382  0.36974  Biso   1.000  Hf
  O17      1.0000 0.01914  0.66615  0.04473  Biso   1.000  O 
  O18      1.0000 0.03320  0.58327  0.29780  Biso   1.000  O 
  O19      1.0000 0.98467  0.82571  0.26410  Biso   1.000  O 
  O20      1.0000 0.00009  0.89317  0.99305  Biso   1.000  O 
  O21      1.0000 0.26755  0.65188  0.26704  Biso   1.000  O 
  O22      1.0000 0.25981  0.61545  0.01826  Biso   1.000  O 
  O23      1.0000 0.24117  0.85229  0.01195  Biso   1.000  O 
  O24      1.0000 0.24330  0.89202  0.27822  Biso   1.000  O 
  Hf13     1.0000 0.13232  0.49622  0.62207  Biso   1.000  Hf
  Hf14     1.0000 0.14044  0.75131  0.87501  Biso   1.000  Hf
  Hf15     1.0000 0.40382  0.74548  0.61962  Biso   1.000  Hf
  Hf16     1.0000 0.39763  0.52416  0.87707  Biso   1.000  Hf
  O25      1.0000 0.03178  0.65443  0.54443  Biso   1.000  O 
  O26      1.0000 0.05661  0.58470  0.79331  Biso   1.000  O 
  O27      1.0000 0.00828  0.84341  0.75124  Biso   1.000  O 
  O28      1.0000 0.01092  0.90236  0.49657  Biso   1.000  O 
  O29      1.0000 0.29555  0.67319  0.77211  Biso   1.000  O 
  O30      1.0000 0.27382  0.60060  0.51432  Biso   1.000  O 
  O31      1.0000 0.25983  0.84840  0.52641  Biso   1.000  O 
  O32      1.0000 0.24189  0.92041  0.77887  Biso   1.000  O 
  Hf17     1.0000 0.63268  0.01232  0.12310  Biso   1.000  Hf
  Hf18     1.0000 0.62542  0.23903  0.37326  Biso   1.000  Hf
  Hf19     1.0000 0.88404  0.24515  0.11405  Biso   1.000  Hf
  Hf20     1.0000 0.87858  0.00230  0.37260  Biso   1.000  Hf
  O33      1.0000 0.52963  0.16769  0.02768  Biso   1.000  O 
  O34      1.0000 0.52749  0.08504  0.27864  Biso   1.000  O 
  O35      1.0000 0.51305  0.35114  0.24783  Biso   1.000  O 
  O36      1.0000 0.52986  0.41356  0.99338  Biso   1.000  O 
  O37      1.0000 0.76152  0.14765  0.25384  Biso   1.000  O 
  O38      1.0000 0.76831  0.10033  0.00672  Biso   1.000  O 
  O39      1.0000 0.78013  0.35311  0.98599  Biso   1.000  O 
  O40      1.0000 0.76311  0.38976  0.23303  Biso   1.000  O 
  Hf21     1.0000 0.62231  0.01497  0.63933  Biso   1.000  Hf
  Hf22     1.0000 0.63937  0.26130  0.87130  Biso   1.000  Hf
  Hf23     1.0000 0.88713  0.24352  0.61346  Biso   1.000  Hf
  Hf24     1.0000 0.89201  0.00168  0.86027  Biso   1.000  Hf
  O41      1.0000 0.50400  0.14815  0.51482  Biso   1.000  O 
  O42      1.0000 0.49747  0.11295  0.76618  Biso   1.000  O 
  O43      1.0000 0.51755  0.35946  0.74530  Biso   1.000  O 
  O44      1.0000 0.50592  0.39619  0.49667  Biso   1.000  O 
  O45      1.0000 0.75167  0.14672  0.75374  Biso   1.000  O 
  O46      1.0000 0.75291  0.09770  0.50566  Biso   1.000  O 
  O47      1.0000 0.75472  0.34803  0.48853  Biso   1.000  O 
  O48      1.0000 0.76634  0.39539  0.73657  Biso   1.000  O 
  Hf25     1.0000 0.63860  0.49449  0.12170  Biso   1.000  Hf
  Hf26     1.0000 0.64198  0.74541  0.36572  Biso   1.000  Hf
  Hf27     1.0000 0.85138  0.75729  0.10923  Biso   1.000  Hf
  Hf28     1.0000 0.88058  0.48121  0.36738  Biso   1.000  Hf
  O49      1.0000 0.52860  0.66467  0.98595  Biso   1.000  O 
  O50      1.0000 0.50910  0.59737  0.23489  Biso   1.000  O 
  O51      1.0000 0.49267  0.83875  0.27524  Biso   1.000  O 
  O52      1.0000 0.47300  0.91824  0.03712  Biso   1.000  O 
  O53      1.0000 0.76153  0.63575  0.24440  Biso   1.000  O 
  O54      1.0000 0.78374  0.60707  0.99359  Biso   1.000  O 
  O55      1.0000 0.75103  0.85867  0.98677  Biso   1.000  O 
  O56      1.0000 0.74899  0.89273  0.23582  Biso   1.000  O 
  Hf29     1.0000 0.64144  0.49211  0.60834  Biso   1.000  Hf
  Hf30     1.0000 0.65693  0.74316  0.85332  Biso   1.000  Hf
  Hf31     1.0000 0.88349  0.76526  0.61109  Biso   1.000  Hf
  Hf32     1.0000 0.89408  0.48743  0.86249  Biso   1.000  Hf
  O57      1.0000 0.51961  0.64284  0.48941  Biso   1.000  O 
  O58      1.0000 0.53698  0.60826  0.73801  Biso   1.000  O 
  O59      1.0000 0.50923  0.86045  0.76781  Biso   1.000  O 
  O60      1.0000 0.50971  0.89680  0.51849  Biso   1.000  O 
  O61      1.0000 0.79627  0.64360  0.74853  Biso   1.000  O 
  O62      1.0000 0.77172  0.60220  0.49600  Biso   1.000  O 
  O63      1.0000 0.76577  0.85210  0.47717  Biso   1.000  O 
  O64      1.0000 0.75812  0.89448  0.73317  Biso   1.000  O 
  Ru1      1.0000 0.14268  0.15221  0.10179  Biso   1.000  Ru
