data_image0
_cell_length_a       10.0895
_cell_length_b       10.2456
_cell_length_c       5.20592
_cell_angle_alpha    90
_cell_angle_beta     80
_cell_angle_gamma    90

_symmetry_space_group_name_H-M    "P 1"
_symmetry_int_tables_number       1

loop_
  _symmetry_equiv_pos_as_xyz
  'x, y, z'

loop_
  _atom_site_label
  _atom_site_occupancy
  _atom_site_fract_x
  _atom_site_fract_y
  _atom_site_fract_z
  _atom_site_thermal_displace_type
  _atom_site_B_iso_or_equiv
  _atom_site_type_symbol
  Ru1      1.0000 0.14020  0.02194  0.30194  Biso   1.000  Ru
  Hf1      1.0000 0.13754  0.22836  0.79624  Biso   1.000  Hf
  Hf2      1.0000 0.35895  0.27132  0.21368  Biso   1.000  Hf
  Hf3      1.0000 0.35977  0.48039  0.70956  Biso   1.000  Hf
  O1       1.0000 0.03400  0.16189  0.15029  Biso   1.000  O 
  O2       1.0000 0.03678  0.08704  0.63277  Biso   1.000  O 
  O3       1.0000 0.46272  0.42134  0.33781  Biso   1.000  O 
  O4       1.0000 0.45908  0.32794  0.83824  Biso   1.000  O 
  O5       1.0000 0.27750  0.12756  0.48871  Biso   1.000  O 
  O6       1.0000 0.27191  0.11561  0.00245  Biso   1.000  O 
  O7       1.0000 0.22229  0.37828  0.02088  Biso   1.000  O 
  O8       1.0000 0.22237  0.37184  0.52089  Biso   1.000  O 
  Hf4      1.0000 0.13860  0.52217  0.29278  Biso   1.000  Hf
  Hf5      1.0000 0.13732  0.73172  0.79100  Biso   1.000  Hf
  Hf6      1.0000 0.35853  0.77462  0.20713  Biso   1.000  Hf
  Hf7      1.0000 0.35748  0.97894  0.70954  Biso   1.000  Hf
  O9       1.0000 0.03483  0.66840  0.15787  Biso   1.000  O 
  O10      1.0000 0.03453  0.58272  0.66055  Biso   1.000  O 
  O11      1.0000 0.46383  0.91920  0.34118  Biso   1.000  O 
  O12      1.0000 0.46184  0.83023  0.83615  Biso   1.000  O 
  O13      1.0000 0.27615  0.63197  0.48264  Biso   1.000  O 
  O14      1.0000 0.27527  0.62336  0.98192  Biso   1.000  O 
  O15      1.0000 0.22010  0.88121  0.01667  Biso   1.000  O 
  O16      1.0000 0.21884  0.87464  0.51155  Biso   1.000  O 
  Hf8      1.0000 0.63773  0.02200  0.29175  Biso   1.000  Hf
  Hf9      1.0000 0.63692  0.23022  0.79260  Biso   1.000  Hf
  Hf10     1.0000 0.86316  0.26961  0.20879  Biso   1.000  Hf
  Hf11     1.0000 0.85988  0.47979  0.70894  Biso   1.000  Hf
  O17      1.0000 0.53594  0.17159  0.16572  Biso   1.000  O 
  O18      1.0000 0.53418  0.08008  0.66614  Biso   1.000  O 
  O19      1.0000 0.96440  0.41877  0.34094  Biso   1.000  O 
  O20      1.0000 0.96432  0.33160  0.84068  Biso   1.000  O 
  O21      1.0000 0.77453  0.12986  0.48100  Biso   1.000  O 
  O22      1.0000 0.77576  0.12251  0.97822  Biso   1.000  O 
  O23      1.0000 0.72341  0.37899  0.01912  Biso   1.000  O 
  O24      1.0000 0.72264  0.37161  0.51932  Biso   1.000  O 
  Hf12     1.0000 0.63878  0.52233  0.29203  Biso   1.000  Hf
  Hf13     1.0000 0.63810  0.73004  0.79355  Biso   1.000  Hf
  Hf14     1.0000 0.86304  0.77370  0.20620  Biso   1.000  Hf
  Hf15     1.0000 0.86042  0.98181  0.70364  Biso   1.000  Hf
  O25      1.0000 0.53526  0.67088  0.16263  Biso   1.000  O 
  O26      1.0000 0.53625  0.57942  0.66520  Biso   1.000  O 
  O27      1.0000 0.97187  0.92200  0.33186  Biso   1.000  O 
  O28      1.0000 0.96358  0.83508  0.83707  Biso   1.000  O 
  O29      1.0000 0.77644  0.63092  0.48181  Biso   1.000  O 
  O30      1.0000 0.77682  0.62377  0.98266  Biso   1.000  O 
  O31      1.0000 0.72258  0.87962  0.01790  Biso   1.000  O 
  O32      1.0000 0.72741  0.87314  0.51696  Biso   1.000  O 
