data_image0
_cell_length_a       10.0325
_cell_length_b       10.2418
_cell_length_c       10.4627
_cell_angle_alpha    90
_cell_angle_beta     90
_cell_angle_gamma    90

_symmetry_space_group_name_H-M    "P 1"
_symmetry_int_tables_number       1

loop_
  _symmetry_equiv_pos_as_xyz
  'x, y, z'

loop_
  _atom_site_label
  _atom_site_occupancy
  _atom_site_fract_x
  _atom_site_fract_y
  _atom_site_fract_z
  _atom_site_thermal_displace_type
  _atom_site_B_iso_or_equiv
  _atom_site_type_symbol
  Sb1      1.0000 0.12916  0.01883  0.17597  Biso   1.000  Sb
  Hf1      1.0000 0.13923  0.23085  0.42267  Biso   1.000  Hf
  Hf2      1.0000 0.36034  0.27087  0.17013  Biso   1.000  Hf
  Hf3      1.0000 0.36084  0.47946  0.42090  Biso   1.000  Hf
  Hf4      1.0000 0.63883  0.02140  0.07857  Biso   1.000  Hf
  Hf5      1.0000 0.63726  0.22982  0.32859  Biso   1.000  Hf
  Hf6      1.0000 0.86078  0.27154  0.07898  Biso   1.000  Hf
  Hf7      1.0000 0.86116  0.47909  0.32864  Biso   1.000  Hf
  O1       1.0000 0.03521  0.16912  0.08373  Biso   1.000  O 
  O2       1.0000 0.03032  0.08410  0.33551  Biso   1.000  O 
  O3       1.0000 0.46706  0.41578  0.08384  Biso   1.000  O 
  O4       1.0000 0.46626  0.33474  0.33386  Biso   1.000  O 
  O5       1.0000 0.27742  0.12641  0.29794  Biso   1.000  O 
  O6       1.0000 0.28399  0.13259  0.03784  Biso   1.000  O 
  O7       1.0000 0.22290  0.37469  0.29473  Biso   1.000  O 
  O8       1.0000 0.22286  0.37790  0.04459  Biso   1.000  O 
  O9       1.0000 0.53372  0.16671  0.16571  Biso   1.000  O 
  O10      1.0000 0.53330  0.08405  0.41628  Biso   1.000  O 
  O11      1.0000 0.96595  0.41707  0.16584  Biso   1.000  O 
  O12      1.0000 0.96613  0.33442  0.41628  Biso   1.000  O 
  O13      1.0000 0.77505  0.12390  0.45637  Biso   1.000  O 
  O14      1.0000 0.77612  0.12653  0.20626  Biso   1.000  O 
  O15      1.0000 0.72316  0.37408  0.45524  Biso   1.000  O 
  O16      1.0000 0.72331  0.37631  0.20521  Biso   1.000  O 
  Hf8      1.0000 0.13770  0.02122  0.67095  Biso   1.000  Hf
  Hf9      1.0000 0.13961  0.22988  0.92002  Biso   1.000  Hf
  Hf10     1.0000 0.36092  0.27161  0.67129  Biso   1.000  Hf
  Hf11     1.0000 0.36014  0.47940  0.92153  Biso   1.000  Hf
  Hf12     1.0000 0.63714  0.02161  0.58012  Biso   1.000  Hf
  Hf13     1.0000 0.63798  0.22945  0.82889  Biso   1.000  Hf
  Hf14     1.0000 0.86056  0.27156  0.57881  Biso   1.000  Hf
  Hf15     1.0000 0.86097  0.47875  0.82865  Biso   1.000  Hf
  O17      1.0000 0.03231  0.16611  0.58335  Biso   1.000  O 
  O18      1.0000 0.03284  0.08451  0.83401  Biso   1.000  O 
  O19      1.0000 0.46606  0.41662  0.58375  Biso   1.000  O 
  O20      1.0000 0.46600  0.33446  0.83391  Biso   1.000  O 
  O21      1.0000 0.27533  0.12400  0.79238  Biso   1.000  O 
  O22      1.0000 0.27590  0.12682  0.54499  Biso   1.000  O 
  O23      1.0000 0.22326  0.37447  0.79444  Biso   1.000  O 
  O24      1.0000 0.22301  0.37674  0.54479  Biso   1.000  O 
  O25      1.0000 0.53279  0.16702  0.66588  Biso   1.000  O 
  O26      1.0000 0.53420  0.08340  0.91467  Biso   1.000  O 
  O27      1.0000 0.96643  0.41585  0.66622  Biso   1.000  O 
  O28      1.0000 0.96552  0.33427  0.91672  Biso   1.000  O 
  O29      1.0000 0.77603  0.12453  0.95585  Biso   1.000  O 
  O30      1.0000 0.77568  0.12677  0.70569  Biso   1.000  O 
  O31      1.0000 0.72232  0.37429  0.95536  Biso   1.000  O 
  O32      1.0000 0.72311  0.37665  0.70517  Biso   1.000  O 
  Hf16     1.0000 0.13891  0.52142  0.17122  Biso   1.000  Hf
  Hf17     1.0000 0.13778  0.72861  0.42192  Biso   1.000  Hf
  Hf18     1.0000 0.36265  0.77104  0.16996  Biso   1.000  Hf
  Hf19     1.0000 0.36225  0.97953  0.42159  Biso   1.000  Hf
  Hf20     1.0000 0.63870  0.52049  0.07837  Biso   1.000  Hf
  Hf21     1.0000 0.63810  0.72832  0.32864  Biso   1.000  Hf
  Hf22     1.0000 0.86065  0.76874  0.07745  Biso   1.000  Hf
  Hf23     1.0000 0.85548  0.97871  0.33190  Biso   1.000  Hf
  O33      1.0000 0.03434  0.66733  0.08428  Biso   1.000  O 
  O34      1.0000 0.03282  0.58435  0.33428  Biso   1.000  O 
  O35      1.0000 0.46897  0.91640  0.08398  Biso   1.000  O 
  O36      1.0000 0.46692  0.83448  0.33357  Biso   1.000  O 
  O37      1.0000 0.27622  0.62436  0.29475  Biso   1.000  O 
  O38      1.0000 0.27705  0.62482  0.04495  Biso   1.000  O 
  O39      1.0000 0.22429  0.87227  0.29538  Biso   1.000  O 
  O40      1.0000 0.23024  0.87150  0.04020  Biso   1.000  O 
  O41      1.0000 0.53391  0.66561  0.16575  Biso   1.000  O 
  O42      1.0000 0.53285  0.58411  0.41589  Biso   1.000  O 
  O43      1.0000 0.95963  0.91683  0.16716  Biso   1.000  O 
  O44      1.0000 0.96570  0.83495  0.41621  Biso   1.000  O 
  O45      1.0000 0.77605  0.62411  0.45518  Biso   1.000  O 
  O46      1.0000 0.77623  0.62599  0.20501  Biso   1.000  O 
  O47      1.0000 0.72184  0.87343  0.45649  Biso   1.000  O 
  O48      1.0000 0.72301  0.87604  0.20641  Biso   1.000  O 
  Hf24     1.0000 0.13813  0.52163  0.67167  Biso   1.000  Hf
  Hf25     1.0000 0.13865  0.72956  0.92073  Biso   1.000  Hf
  Hf26     1.0000 0.36077  0.77158  0.67113  Biso   1.000  Hf
  Hf27     1.0000 0.36134  0.98010  0.92085  Biso   1.000  Hf
  Hf28     1.0000 0.63824  0.52131  0.57860  Biso   1.000  Hf
  Hf29     1.0000 0.63777  0.72946  0.82818  Biso   1.000  Hf
  Hf30     1.0000 0.86081  0.77129  0.57933  Biso   1.000  Hf
  Hf31     1.0000 0.86172  0.97972  0.82920  Biso   1.000  Hf
  O49      1.0000 0.03263  0.66634  0.58444  Biso   1.000  O 
  O50      1.0000 0.03263  0.58387  0.83397  Biso   1.000  O 
  O51      1.0000 0.46643  0.91678  0.58446  Biso   1.000  O 
  O52      1.0000 0.46669  0.83463  0.83294  Biso   1.000  O 
  O53      1.0000 0.27593  0.62425  0.79455  Biso   1.000  O 
  O54      1.0000 0.27556  0.62632  0.54483  Biso   1.000  O 
  O55      1.0000 0.22311  0.87405  0.79329  Biso   1.000  O 
  O56      1.0000 0.22350  0.87661  0.54421  Biso   1.000  O 
  O57      1.0000 0.53300  0.66639  0.66554  Biso   1.000  O 
  O58      1.0000 0.53217  0.58471  0.91597  Biso   1.000  O 
  O59      1.0000 0.96622  0.91629  0.66630  Biso   1.000  O 
  O60      1.0000 0.96652  0.83485  0.91687  Biso   1.000  O 
  O61      1.0000 0.77535  0.62369  0.95494  Biso   1.000  O 
  O62      1.0000 0.77599  0.62649  0.70518  Biso   1.000  O 
  O63      1.0000 0.72308  0.87398  0.95541  Biso   1.000  O 
  O64      1.0000 0.72358  0.87676  0.70574  Biso   1.000  O 
