data_image0
_cell_length_a       10.4129
_cell_length_b       10.4515
_cell_length_c       5.10581
_cell_angle_alpha    90
_cell_angle_beta     90
_cell_angle_gamma    90

_symmetry_space_group_name_H-M    "P 1"
_symmetry_int_tables_number       1

loop_
  _symmetry_equiv_pos_as_xyz
  'x, y, z'

loop_
  _atom_site_label
  _atom_site_occupancy
  _atom_site_fract_x
  _atom_site_fract_y
  _atom_site_fract_z
  _atom_site_thermal_displace_type
  _atom_site_B_iso_or_equiv
  _atom_site_type_symbol
  Hf1      1.0000 0.11031  0.93896  0.38874  Biso   1.000  Hf
  Hf2      1.0000 0.12181  0.24829  0.60862  Biso   1.000  Hf
  Hf3      1.0000 0.37123  0.23496  0.18744  Biso   1.000  Hf
  Hf4      1.0000 0.37950  0.97670  0.68987  Biso   1.000  Hf
  O1       1.0000 0.89620  0.12431  0.96056  Biso   1.000  O 
  O2       1.0000 0.98514  0.09800  0.49080  Biso   1.000  O 
  O3       1.0000 0.98530  0.35153  0.39003  Biso   1.000  O 
  O4       1.0000 0.01605  0.35395  0.87619  Biso   1.000  O 
  O5       1.0000 0.23123  0.08938  0.50657  Biso   1.000  O 
  O6       1.0000 0.32017  0.06308  0.03682  Biso   1.000  O 
  O7       1.0000 0.27920  0.29240  0.86114  Biso   1.000  O 
  O8       1.0000 0.24192  0.36863  0.39504  Biso   1.000  O 
  Hf5      1.0000 0.10937  0.49909  0.22790  Biso   1.000  Hf
  Hf6      1.0000 0.12274  0.68817  0.76947  Biso   1.000  Hf
  Hf7      1.0000 0.35768  0.71578  0.26349  Biso   1.000  Hf
  Hf8      1.0000 0.36497  0.46142  0.70783  Biso   1.000  Hf
  O9       1.0000 0.01574  0.66033  0.02259  Biso   1.000  O 
  O10      1.0000 0.99387  0.58637  0.50629  Biso   1.000  O 
  O11      1.0000 0.99020  0.81862  0.60232  Biso   1.000  O 
  O12      1.0000 0.95292  0.89484  0.13621  Biso   1.000  O 
  O13      1.0000 0.23824  0.60089  0.49109  Biso   1.000  O 
  O14      1.0000 0.21638  0.52692  0.97480  Biso   1.000  O 
  O15      1.0000 0.21607  0.83329  0.12119  Biso   1.000  O 
  O16      1.0000 0.24680  0.83573  0.60736  Biso   1.000  O 
  Hf9      1.0000 0.64060  0.96018  0.28973  Biso   1.000  Hf
  Hf10     1.0000 0.59151  0.22708  0.70766  Biso   1.000  Hf
  Hf11     1.0000 0.83686  0.21067  0.30752  Biso   1.000  Hf
  Hf12     1.0000 0.84514  0.95240  0.80994  Biso   1.000  Hf
  O17      1.0000 0.46578  0.12817  0.90943  Biso   1.000  O 
  O18      1.0000 0.49053  0.09184  0.42861  Biso   1.000  O 
  O19      1.0000 0.49251  0.34007  0.43245  Biso   1.000  O 
  O20      1.0000 0.51739  0.40043  0.91144  Biso   1.000  O 
  O21      1.0000 0.72582  0.09555  0.56876  Biso   1.000  O 
  O22      1.0000 0.75059  0.05921  0.08796  Biso   1.000  O 
  O23      1.0000 0.71474  0.31241  0.08216  Biso   1.000  O 
  O24      1.0000 0.74364  0.35113  0.56149  Biso   1.000  O 
  Hf13     1.0000 0.64803  0.47288  0.27230  Biso   1.000  Hf
  Hf14     1.0000 0.58409  0.71438  0.72509  Biso   1.000  Hf
  Hf15     1.0000 0.86715  0.72583  0.28955  Biso   1.000  Hf
  Hf16     1.0000 0.87443  0.47148  0.73388  Biso   1.000  Hf
  O25      1.0000 0.42509  0.63420  0.91162  Biso   1.000  O 
  O26      1.0000 0.49261  0.58461  0.44173  Biso   1.000  O 
  O27      1.0000 0.48847  0.83613  0.43589  Biso   1.000  O 
  O28      1.0000 0.51737  0.87485  0.91522  Biso   1.000  O 
  O29      1.0000 0.73950  0.60265  0.55564  Biso   1.000  O 
  O30      1.0000 0.80703  0.55306  0.08576  Biso   1.000  O 
  O31      1.0000 0.71471  0.78684  0.08595  Biso   1.000  O 
  O32      1.0000 0.73960  0.84719  0.56492  Biso   1.000  O 
  Sb1      1.0000 0.12689  0.12728  0.00492  Biso   1.000  Sb
