data_image0
_cell_length_a       10.1925
_cell_length_b       10.4995
_cell_length_c       5.29577
_cell_angle_alpha    90
_cell_angle_beta     90
_cell_angle_gamma    90

_symmetry_space_group_name_H-M    "P 1"
_symmetry_int_tables_number       1

loop_
  _symmetry_equiv_pos_as_xyz
  'x, y, z'

loop_
  _atom_site_label
  _atom_site_occupancy
  _atom_site_fract_x
  _atom_site_fract_y
  _atom_site_fract_z
  _atom_site_thermal_displace_type
  _atom_site_B_iso_or_equiv
  _atom_site_type_symbol
  Hf1      1.0000 0.11860  0.00718  0.36209  Biso   1.000  Hf
  Hf2      1.0000 0.12625  0.20458  0.88157  Biso   1.000  Hf
  Hf3      1.0000 0.34147  0.23603  0.41600  Biso   1.000  Hf
  Hf4      1.0000 0.37749  0.47605  0.81015  Biso   1.000  Hf
  Hf5      1.0000 0.61875  0.99546  0.19628  Biso   1.000  Hf
  Hf6      1.0000 0.65477  0.23547  0.59041  Biso   1.000  Hf
  Hf7      1.0000 0.86999  0.26693  0.12484  Biso   1.000  Hf
  Hf8      1.0000 0.87766  0.46432  0.64432  Biso   1.000  Hf
  O1       1.0000 0.03090  0.15699  0.17176  Biso   1.000  O 
  O2       1.0000 0.01556  0.06650  0.67828  Biso   1.000  O 
  O3       1.0000 0.50855  0.44521  0.11694  Biso   1.000  O 
  O4       1.0000 0.48232  0.35212  0.57137  Biso   1.000  O 
  O5       1.0000 0.25214  0.09563  0.62877  Biso   1.000  O 
  O6       1.0000 0.26490  0.10058  0.13439  Biso   1.000  O 
  O7       1.0000 0.22582  0.35487  0.64932  Biso   1.000  O 
  O8       1.0000 0.23475  0.35298  0.16596  Biso   1.000  O 
  O9       1.0000 0.51393  0.11937  0.43504  Biso   1.000  O 
  O10      1.0000 0.48771  0.02630  0.88947  Biso   1.000  O 
  O11      1.0000 0.98069  0.40501  0.32814  Biso   1.000  O 
  O12      1.0000 0.96536  0.31452  0.83465  Biso   1.000  O 
  O13      1.0000 0.76150  0.11852  0.84045  Biso   1.000  O 
  O14      1.0000 0.77044  0.11662  0.35711  Biso   1.000  O 
  O15      1.0000 0.73134  0.37092  0.87201  Biso   1.000  O 
  O16      1.0000 0.74411  0.37587  0.37765  Biso   1.000  O 
  Hf9      1.0000 0.15046  0.50534  0.33868  Biso   1.000  Hf
  Hf10     1.0000 0.14566  0.70268  0.84325  Biso   1.000  Hf
  Hf11     1.0000 0.38580  0.75158  0.35613  Biso   1.000  Hf
  Hf12     1.0000 0.36833  0.93402  0.87924  Biso   1.000  Hf
  Hf13     1.0000 0.67990  0.53621  0.12716  Biso   1.000  Hf
  Hf14     1.0000 0.66243  0.71865  0.65027  Biso   1.000  Hf
  Hf15     1.0000 0.90256  0.76756  0.16315  Biso   1.000  Hf
  Hf16     1.0000 0.89777  0.96488  0.66772  Biso   1.000  Hf
  O17      1.0000 0.06666  0.65644  0.16006  Biso   1.000  O 
  O18      1.0000 0.04634  0.56517  0.66033  Biso   1.000  O 
  O19      1.0000 0.50075  0.89084  0.19914  Biso   1.000  O 
  O20      1.0000 0.48407  0.80928  0.67820  Biso   1.000  O 
  O21      1.0000 0.28614  0.60801  0.57239  Biso   1.000  O 
  O22      1.0000 0.30613  0.61561  0.07527  Biso   1.000  O 
  O23      1.0000 0.24121  0.84818  0.60739  Biso   1.000  O 
  O24      1.0000 0.26036  0.86076  0.11432  Biso   1.000  O 
  O25      1.0000 0.56416  0.66095  0.32822  Biso   1.000  O 
  O26      1.0000 0.54749  0.57938  0.80727  Biso   1.000  O 
  O27      1.0000 0.00189  0.90507  0.34608  Biso   1.000  O 
  O28      1.0000 0.98156  0.81379  0.84634  Biso   1.000  O 
  O29      1.0000 0.78787  0.60946  0.89209  Biso   1.000  O 
  O30      1.0000 0.80701  0.62204  0.39902  Biso   1.000  O 
  O31      1.0000 0.74209  0.85462  0.93113  Biso   1.000  O 
  O32      1.0000 0.76209  0.86221  0.43401  Biso   1.000  O 
  Sb1      1.0000 0.51566  0.24955  0.00511  Biso   1.000  Sb
