data_image0
_cell_length_a       10.2808
_cell_length_b       10.4601
_cell_length_c       5.2581
_cell_angle_alpha    90
_cell_angle_beta     80
_cell_angle_gamma    90

_symmetry_space_group_name_H-M    "P 1"
_symmetry_int_tables_number       1

loop_
  _symmetry_equiv_pos_as_xyz
  'x, y, z'

loop_
  _atom_site_label
  _atom_site_occupancy
  _atom_site_fract_x
  _atom_site_fract_y
  _atom_site_fract_z
  _atom_site_thermal_displace_type
  _atom_site_B_iso_or_equiv
  _atom_site_type_symbol
  Hf1      1.0000 0.13474  0.01924  0.28512  Biso   1.000  Hf
  Hf2      1.0000 0.15017  0.23132  0.77341  Biso   1.000  Hf
  Hf3      1.0000 0.36140  0.27102  0.17811  Biso   1.000  Hf
  Hf4      1.0000 0.37109  0.49328  0.70849  Biso   1.000  Hf
  O1       1.0000 0.04204  0.17212  0.15889  Biso   1.000  O 
  O2       1.0000 0.03657  0.08517  0.65922  Biso   1.000  O 
  O3       1.0000 0.48085  0.42467  0.36486  Biso   1.000  O 
  O4       1.0000 0.49817  0.39346  0.90251  Biso   1.000  O 
  O5       1.0000 0.26849  0.11993  0.46062  Biso   1.000  O 
  O6       1.0000 0.27858  0.11646  0.96727  Biso   1.000  O 
  O7       1.0000 0.22450  0.38022  0.00234  Biso   1.000  O 
  O8       1.0000 0.23056  0.37513  0.49787  Biso   1.000  O 
  Hf5      1.0000 0.15088  0.52217  0.28998  Biso   1.000  Hf
  Hf6      1.0000 0.15275  0.73237  0.79180  Biso   1.000  Hf
  Hf7      1.0000 0.37174  0.76950  0.20109  Biso   1.000  Hf
  Hf8      1.0000 0.37051  0.96781  0.69647  Biso   1.000  Hf
  O9       1.0000 0.04159  0.66776  0.16101  Biso   1.000  O 
  O10      1.0000 0.05275  0.58721  0.65685  Biso   1.000  O 
  O11      1.0000 0.47644  0.91588  0.31700  Biso   1.000  O 
  O12      1.0000 0.47584  0.82602  0.82927  Biso   1.000  O 
  O13      1.0000 0.28829  0.63079  0.47837  Biso   1.000  O 
  O14      1.0000 0.28963  0.62893  0.98135  Biso   1.000  O 
  O15      1.0000 0.22992  0.87257  0.01647  Biso   1.000  O 
  O16      1.0000 0.23581  0.86725  0.50986  Biso   1.000  O 
  Hf9      1.0000 0.63532  0.01311  0.29161  Biso   1.000  Hf
  Hf10     1.0000 0.68766  0.25140  0.83196  Biso   1.000  Hf
  Hf11     1.0000 0.87604  0.27543  0.23616  Biso   1.000  Hf
  Hf12     1.0000 0.88222  0.49010  0.71872  Biso   1.000  Hf
  O17      1.0000 0.53501  0.16395  0.12638  Biso   1.000  O 
  O18      1.0000 0.53265  0.04592  0.65464  Biso   1.000  O 
  O19      1.0000 0.97944  0.42315  0.34638  Biso   1.000  O 
  O20      1.0000 0.97514  0.33388  0.84197  Biso   1.000  O 
  O21      1.0000 0.78268  0.13747  0.51130  Biso   1.000  O 
  O22      1.0000 0.78491  0.11577  0.01723  Biso   1.000  O 
  O23      1.0000 0.74141  0.38504  0.05757  Biso   1.000  O 
  O24      1.0000 0.74816  0.38636  0.54543  Biso   1.000  O 
  Hf13     1.0000 0.64961  0.53247  0.30410  Biso   1.000  Hf
  Hf14     1.0000 0.65490  0.73463  0.78880  Biso   1.000  Hf
  Hf15     1.0000 0.87431  0.77433  0.20962  Biso   1.000  Hf
  Hf16     1.0000 0.88225  0.98437  0.70855  Biso   1.000  Hf
  O25      1.0000 0.54437  0.66801  0.15263  Biso   1.000  O 
  O26      1.0000 0.54591  0.60078  0.64616  Biso   1.000  O 
  O27      1.0000 0.97742  0.92028  0.34340  Biso   1.000  O 
  O28      1.0000 0.98415  0.83728  0.84042  Biso   1.000  O 
  O29      1.0000 0.79044  0.63578  0.48593  Biso   1.000  O 
  O30      1.0000 0.79401  0.63118  0.98195  Biso   1.000  O 
  O31      1.0000 0.73390  0.87770  0.01668  Biso   1.000  O 
  O32      1.0000 0.74149  0.87582  0.51480  Biso   1.000  O 
  Sb1      1.0000 0.48343  0.24097  0.60046  Biso   1.000  Sb
