data_image0
_cell_length_a       10.0244
_cell_length_b       10.2203
_cell_length_c       5.01326
_cell_angle_alpha    90
_cell_angle_beta     90
_cell_angle_gamma    90

_symmetry_space_group_name_H-M    "P 1"
_symmetry_int_tables_number       1

loop_
  _symmetry_equiv_pos_as_xyz
  'x, y, z'

loop_
  _atom_site_label
  _atom_site_occupancy
  _atom_site_fract_x
  _atom_site_fract_y
  _atom_site_fract_z
  _atom_site_thermal_displace_type
  _atom_site_B_iso_or_equiv
  _atom_site_type_symbol
  Sb1      1.0000 0.12491  0.00005  0.24982  Biso   1.000  Sb
  Hf1      1.0000 0.12491  0.25220  0.74982  Biso   1.000  Hf
  Hf2      1.0000 0.37557  0.25132  0.25146  Biso   1.000  Hf
  Hf3      1.0000 0.37521  0.00006  0.74982  Biso   1.000  Hf
  O1       1.0000 0.99691  0.14875  0.99248  Biso   1.000  O 
  O2       1.0000 0.99841  0.10552  0.50059  Biso   1.000  O 
  O3       1.0000 0.00079  0.35312  0.49498  Biso   1.000  O 
  O4       1.0000 0.99992  0.39819  0.99662  Biso   1.000  O 
  O5       1.0000 0.25291  0.14876  0.50716  Biso   1.000  O 
  O6       1.0000 0.25141  0.10552  0.99905  Biso   1.000  O 
  O7       1.0000 0.24903  0.35312  0.00466  Biso   1.000  O 
  O8       1.0000 0.24990  0.39819  0.50301  Biso   1.000  O 
  Hf4      1.0000 0.12491  0.50006  0.24982  Biso   1.000  Hf
  Hf5      1.0000 0.12491  0.74791  0.74982  Biso   1.000  Hf
  Hf6      1.0000 0.37557  0.74879  0.24818  Biso   1.000  Hf
  Hf7      1.0000 0.37567  0.50005  0.74982  Biso   1.000  Hf
  O9       1.0000 0.00079  0.64699  0.00465  Biso   1.000  O 
  O10      1.0000 0.99992  0.60192  0.50302  Biso   1.000  O 
  O11      1.0000 0.99690  0.85135  0.50716  Biso   1.000  O 
  O12      1.0000 0.99841  0.89458  0.99904  Biso   1.000  O 
  O13      1.0000 0.24903  0.64699  0.49498  Biso   1.000  O 
  O14      1.0000 0.24990  0.60191  0.99662  Biso   1.000  O 
  O15      1.0000 0.25291  0.85135  0.99247  Biso   1.000  O 
  O16      1.0000 0.25141  0.89458  0.50059  Biso   1.000  O 
  Hf8      1.0000 0.62491  0.00005  0.24982  Biso   1.000  Hf
  Hf9      1.0000 0.62491  0.24858  0.74982  Biso   1.000  Hf
  Hf10     1.0000 0.87425  0.25132  0.24818  Biso   1.000  Hf
  Hf11     1.0000 0.87461  0.00005  0.74982  Biso   1.000  Hf
  O17      1.0000 0.50015  0.14845  0.00276  Biso   1.000  O 
  O18      1.0000 0.50130  0.10182  0.50233  Biso   1.000  O 
  O19      1.0000 0.50062  0.35241  0.50200  Biso   1.000  O 
  O20      1.0000 0.49902  0.39804  0.00218  Biso   1.000  O 
  O21      1.0000 0.74967  0.14845  0.49688  Biso   1.000  O 
  O22      1.0000 0.74852  0.10182  0.99730  Biso   1.000  O 
  O23      1.0000 0.74920  0.35241  0.99764  Biso   1.000  O 
  O24      1.0000 0.75080  0.39804  0.49745  Biso   1.000  O 
  Hf12     1.0000 0.62491  0.50005  0.24982  Biso   1.000  Hf
  Hf13     1.0000 0.62491  0.75153  0.74982  Biso   1.000  Hf
  Hf14     1.0000 0.87424  0.74878  0.25145  Biso   1.000  Hf
  Hf15     1.0000 0.87415  0.50005  0.74982  Biso   1.000  Hf
  O25      1.0000 0.50062  0.64770  0.99764  Biso   1.000  O 
  O26      1.0000 0.49902  0.60206  0.49745  Biso   1.000  O 
  O27      1.0000 0.50015  0.85166  0.49688  Biso   1.000  O 
  O28      1.0000 0.50130  0.89829  0.99730  Biso   1.000  O 
  O29      1.0000 0.74920  0.64770  0.50200  Biso   1.000  O 
  O30      1.0000 0.75080  0.60206  0.00218  Biso   1.000  O 
  O31      1.0000 0.74967  0.85166  0.00275  Biso   1.000  O 
  O32      1.0000 0.74852  0.89829  0.50234  Biso   1.000  O 
