data_image0
_cell_length_a       5.10584
_cell_length_b       10.4515
_cell_length_c       10.413
_cell_angle_alpha    90
_cell_angle_beta     90
_cell_angle_gamma    90

_symmetry_space_group_name_H-M    "P 1"
_symmetry_int_tables_number       1

loop_
  _symmetry_equiv_pos_as_xyz
  'x, y, z'

loop_
  _atom_site_label
  _atom_site_occupancy
  _atom_site_fract_x
  _atom_site_fract_y
  _atom_site_fract_z
  _atom_site_thermal_displace_type
  _atom_site_B_iso_or_equiv
  _atom_site_type_symbol
  Hf1      1.0000 0.10233  0.95762  0.11052  Biso   1.000  Hf
  Hf2      1.0000 0.06109  0.24815  0.37434  Biso   1.000  Hf
  Hf3      1.0000 0.51209  0.28852  0.14091  Biso   1.000  Hf
  Hf4      1.0000 0.62866  0.02636  0.40509  Biso   1.000  Hf
  O1       1.0000 0.77403  0.19348  0.92788  Biso   1.000  O 
  O2       1.0000 0.96866  0.06748  0.32060  Biso   1.000  O 
  O3       1.0000 0.72456  0.35007  0.30641  Biso   1.000  O 
  O4       1.0000 0.76304  0.41069  0.04361  Biso   1.000  O 
  O5       1.0000 0.43903  0.12479  0.24875  Biso   1.000  O 
  O6       1.0000 0.45932  0.13102  0.00267  Biso   1.000  O 
  O7       1.0000 0.13276  0.38042  0.99222  Biso   1.000  O 
  O8       1.0000 0.24862  0.39388  0.25093  Biso   1.000  O 
  Hf5      1.0000 0.91604  0.97467  0.63529  Biso   1.000  Hf
  Hf6      1.0000 0.11405  0.23459  0.84340  Biso   1.000  Hf
  Hf7      1.0000 0.54278  0.27662  0.61320  Biso   1.000  Hf
  Hf8      1.0000 0.68164  0.01279  0.87415  Biso   1.000  Hf
  O9       1.0000 0.78944  0.19163  0.49680  Biso   1.000  O 
  O10      1.0000 0.95330  0.06932  0.75170  Biso   1.000  O 
  O11      1.0000 0.88187  0.31950  0.71176  Biso   1.000  O 
  O12      1.0000 0.70677  0.46168  0.54405  Biso   1.000  O 
  O13      1.0000 0.42173  0.13766  0.74408  Biso   1.000  O 
  O14      1.0000 0.32098  0.12330  0.50439  Biso   1.000  O 
  O15      1.0000 0.25461  0.36942  0.50261  Biso   1.000  O 
  O16      1.0000 0.33984  0.39037  0.75757  Biso   1.000  O 
  Hf9      1.0000 0.06745  0.51111  0.11058  Biso   1.000  Hf
  Hf10     1.0000 0.00298  0.72940  0.35606  Biso   1.000  Hf
  Hf11     1.0000 0.54698  0.73503  0.14084  Biso   1.000  Hf
  Hf12     1.0000 0.51223  0.50755  0.38365  Biso   1.000  Hf
  O17      1.0000 0.83388  0.65645  0.00715  Biso   1.000  O 
  O18      1.0000 0.78057  0.58969  0.24427  Biso   1.000  O 
  O19      1.0000 0.85137  0.83545  0.20780  Biso   1.000  O 
  O20      1.0000 0.73424  0.90120  0.94209  Biso   1.000  O 
  O21      1.0000 0.27866  0.63036  0.24713  Biso   1.000  O 
  O22      1.0000 0.33577  0.61577  0.00428  Biso   1.000  O 
  O23      1.0000 0.36583  0.85227  0.00050  Biso   1.000  O 
  O24      1.0000 0.32602  0.87084  0.25628  Biso   1.000  O 
  Hf13     1.0000 0.03485  0.49092  0.64970  Biso   1.000  Hf
  Hf14     1.0000 0.94658  0.74373  0.86484  Biso   1.000  Hf
  Hf15     1.0000 0.42398  0.76037  0.59878  Biso   1.000  Hf
  Hf16     1.0000 0.45585  0.52189  0.89242  Biso   1.000  Hf
  O25      1.0000 0.65551  0.69275  0.44835  Biso   1.000  O 
  O26      1.0000 0.80330  0.55854  0.80013  Biso   1.000  O 
  O27      1.0000 0.75206  0.78961  0.70443  Biso   1.000  O 
  O28      1.0000 0.57695  0.93180  0.53673  Biso   1.000  O 
  O29      1.0000 0.26389  0.63906  0.74927  Biso   1.000  O 
  O30      1.0000 0.19492  0.61223  0.49921  Biso   1.000  O 
  O31      1.0000 0.11899  0.86091  0.49093  Biso   1.000  O 
  O32      1.0000 0.20421  0.88188  0.74588  Biso   1.000  O 
  Sb1      1.0000 0.94919  0.12792  0.12570  Biso   1.000  Sb
