data_image0
_cell_length_a       10.357
_cell_length_b       5.19371
_cell_length_c       10.6638
_cell_angle_alpha    90
_cell_angle_beta     80
_cell_angle_gamma    90

_symmetry_space_group_name_H-M    "P 1"
_symmetry_int_tables_number       1

loop_
  _symmetry_equiv_pos_as_xyz
  'x, y, z'

loop_
  _atom_site_label
  _atom_site_occupancy
  _atom_site_fract_x
  _atom_site_fract_y
  _atom_site_fract_z
  _atom_site_thermal_displace_type
  _atom_site_B_iso_or_equiv
  _atom_site_type_symbol
  Hf1      1.0000 0.12848  0.06772  0.14210  Biso   1.000  Hf
  Hf2      1.0000 0.14608  0.39768  0.40189  Biso   1.000  Hf
  Hf3      1.0000 0.33128  0.61064  0.08796  Biso   1.000  Hf
  Hf4      1.0000 0.38320  0.88428  0.36058  Biso   1.000  Hf
  O1       1.0000 0.01426  0.30995  0.05865  Biso   1.000  O 
  O2       1.0000 0.04876  0.10040  0.33821  Biso   1.000  O 
  O3       1.0000 0.49217  0.80376  0.18028  Biso   1.000  O 
  O4       1.0000 0.49002  0.57765  0.42664  Biso   1.000  O 
  O5       1.0000 0.19268  0.40740  0.21030  Biso   1.000  O 
  O6       1.0000 0.29169  0.17358  0.48220  Biso   1.000  O 
  O7       1.0000 0.23870  0.70002  0.98844  Biso   1.000  O 
  O8       1.0000 0.26030  0.88896  0.22773  Biso   1.000  O 
  Hf5      1.0000 0.16100  0.96886  0.63710  Biso   1.000  Hf
  Hf6      1.0000 0.16032  0.37886  0.88074  Biso   1.000  Hf
  Hf7      1.0000 0.38426  0.46788  0.60143  Biso   1.000  Hf
  Hf8      1.0000 0.37553  0.89844  0.83992  Biso   1.000  Hf
  O9       1.0000 0.04970  0.25320  0.57757  Biso   1.000  O 
  O10      1.0000 0.05796  0.09243  0.81386  Biso   1.000  O 
  O11      1.0000 0.47941  0.77641  0.66084  Biso   1.000  O 
  O12      1.0000 0.48908  0.62772  0.90768  Biso   1.000  O 
  O13      1.0000 0.29590  0.18083  0.72632  Biso   1.000  O 
  O14      1.0000 0.29914  0.18722  0.96805  Biso   1.000  O 
  O15      1.0000 0.24400  0.68386  0.50027  Biso   1.000  O 
  O16      1.0000 0.24423  0.66619  0.74594  Biso   1.000  O 
  Hf9      1.0000 0.67392  0.99284  0.16990  Biso   1.000  Hf
  Hf10     1.0000 0.67040  0.38935  0.40836  Biso   1.000  Hf
  Hf11     1.0000 0.85620  0.52231  0.10330  Biso   1.000  Hf
  Hf12     1.0000 0.87503  0.89370  0.36283  Biso   1.000  Hf
  O17      1.0000 0.48426  0.35134  0.05278  Biso   1.000  O 
  O18      1.0000 0.57713  0.04301  0.37727  Biso   1.000  O 
  O19      1.0000 0.96314  0.80732  0.17443  Biso   1.000  O 
  O20      1.0000 0.98209  0.60744  0.42887  Biso   1.000  O 
  O21      1.0000 0.80466  0.21727  0.25350  Biso   1.000  O 
  O22      1.0000 0.80065  0.17110  0.49988  Biso   1.000  O 
  O23      1.0000 0.71742  0.74259  0.01794  Biso   1.000  O 
  O24      1.0000 0.73763  0.69469  0.26920  Biso   1.000  O 
  Hf13     1.0000 0.66216  0.97678  0.64551  Biso   1.000  Hf
  Hf14     1.0000 0.65583  0.38166  0.89332  Biso   1.000  Hf
  Hf15     1.0000 0.87885  0.46852  0.61118  Biso   1.000  Hf
  Hf16     1.0000 0.87981  0.87309  0.85411  Biso   1.000  Hf
  O25      1.0000 0.56169  0.28570  0.58985  Biso   1.000  O 
  O26      1.0000 0.55632  0.10688  0.81560  Biso   1.000  O 
  O27      1.0000 0.98351  0.74978  0.67407  Biso   1.000  O 
  O28      1.0000 0.98967  0.58800  0.91716  Biso   1.000  O 
  O29      1.0000 0.79819  0.18695  0.74677  Biso   1.000  O 
  O30      1.0000 0.75009  0.23618  0.00609  Biso   1.000  O 
  O31      1.0000 0.74632  0.68348  0.51706  Biso   1.000  O 
  O32      1.0000 0.74252  0.67462  0.76257  Biso   1.000  O 
  Sb1      1.0000 0.48020  0.36208  0.24378  Biso   1.000  Sb
