data_image0
_cell_length_a       10.0252
_cell_length_b       5.10971
_cell_length_c       10.0251
_cell_angle_alpha    90
_cell_angle_beta     90
_cell_angle_gamma    90

_symmetry_space_group_name_H-M    "P 1"
_symmetry_int_tables_number       1

loop_
  _symmetry_equiv_pos_as_xyz
  'x, y, z'

loop_
  _atom_site_label
  _atom_site_occupancy
  _atom_site_fract_x
  _atom_site_fract_y
  _atom_site_fract_z
  _atom_site_thermal_displace_type
  _atom_site_B_iso_or_equiv
  _atom_site_type_symbol
  Sb1      1.0000 0.12491  0.00011  0.12491  Biso   1.000  Sb
  Hf1      1.0000 0.12491  0.50010  0.37569  Biso   1.000  Hf
  Hf2      1.0000 0.37568  0.50011  0.12491  Biso   1.000  Hf
  Hf3      1.0000 0.37603  0.00231  0.37603  Biso   1.000  Hf
  O1       1.0000 0.99781  0.29673  0.99782  Biso   1.000  O 
  O2       1.0000 0.99821  0.21106  0.25160  Biso   1.000  O 
  O3       1.0000 0.99781  0.70349  0.25200  Biso   1.000  O 
  O4       1.0000 0.99821  0.78916  0.99821  Biso   1.000  O 
  O5       1.0000 0.25201  0.29673  0.25201  Biso   1.000  O 
  O6       1.0000 0.25160  0.21106  0.99821  Biso   1.000  O 
  O7       1.0000 0.25200  0.70348  0.99781  Biso   1.000  O 
  O8       1.0000 0.25160  0.78915  0.25160  Biso   1.000  O 
  Hf4      1.0000 0.12491  0.00011  0.62491  Biso   1.000  Hf
  Hf5      1.0000 0.12491  0.50011  0.87413  Biso   1.000  Hf
  Hf6      1.0000 0.37438  0.50011  0.62491  Biso   1.000  Hf
  Hf7      1.0000 0.37603  0.99790  0.87379  Biso   1.000  Hf
  O9       1.0000 0.00035  0.29515  0.50109  Biso   1.000  O 
  O10      1.0000 0.99963  0.20433  0.74973  Biso   1.000  O 
  O11      1.0000 0.00035  0.70506  0.74873  Biso   1.000  O 
  O12      1.0000 0.99963  0.79589  0.50009  Biso   1.000  O 
  O13      1.0000 0.24947  0.29516  0.74873  Biso   1.000  O 
  O14      1.0000 0.25019  0.20433  0.50009  Biso   1.000  O 
  O15      1.0000 0.24947  0.70506  0.50108  Biso   1.000  O 
  O16      1.0000 0.25019  0.79588  0.74973  Biso   1.000  O 
  Hf8      1.0000 0.62491  0.00011  0.12491  Biso   1.000  Hf
  Hf9      1.0000 0.62491  0.50011  0.37438  Biso   1.000  Hf
  Hf10     1.0000 0.87413  0.50011  0.12491  Biso   1.000  Hf
  Hf11     1.0000 0.87379  0.99790  0.37603  Biso   1.000  Hf
  O17      1.0000 0.50108  0.29516  0.00035  Biso   1.000  O 
  O18      1.0000 0.50009  0.20432  0.25019  Biso   1.000  O 
  O19      1.0000 0.50108  0.70506  0.24947  Biso   1.000  O 
  O20      1.0000 0.50009  0.79589  0.99963  Biso   1.000  O 
  O21      1.0000 0.74873  0.29516  0.24947  Biso   1.000  O 
  O22      1.0000 0.74973  0.20433  0.99963  Biso   1.000  O 
  O23      1.0000 0.74873  0.70506  0.00035  Biso   1.000  O 
  O24      1.0000 0.74973  0.79589  0.25019  Biso   1.000  O 
  Hf12     1.0000 0.62491  0.00011  0.62491  Biso   1.000  Hf
  Hf13     1.0000 0.62491  0.50011  0.87543  Biso   1.000  Hf
  Hf14     1.0000 0.87543  0.50011  0.62491  Biso   1.000  Hf
  Hf15     1.0000 0.87379  0.00231  0.87379  Biso   1.000  Hf
  O25      1.0000 0.49966  0.29653  0.49966  Biso   1.000  O 
  O26      1.0000 0.50020  0.20400  0.74962  Biso   1.000  O 
  O27      1.0000 0.49966  0.70368  0.75016  Biso   1.000  O 
  O28      1.0000 0.50020  0.79622  0.50020  Biso   1.000  O 
  O29      1.0000 0.75016  0.29654  0.75016  Biso   1.000  O 
  O30      1.0000 0.74962  0.20400  0.50020  Biso   1.000  O 
  O31      1.0000 0.75016  0.70368  0.49966  Biso   1.000  O 
  O32      1.0000 0.74962  0.79621  0.74962  Biso   1.000  O 
