data_image0
_cell_length_a       10.0171
_cell_length_b       10.2165
_cell_length_c       10.0171
_cell_angle_alpha    90
_cell_angle_beta     90
_cell_angle_gamma    90

_symmetry_space_group_name_H-M    "P 1"
_symmetry_int_tables_number       1

loop_
  _symmetry_equiv_pos_as_xyz
  'x, y, z'

loop_
  _atom_site_label
  _atom_site_occupancy
  _atom_site_fract_x
  _atom_site_fract_y
  _atom_site_fract_z
  _atom_site_thermal_displace_type
  _atom_site_B_iso_or_equiv
  _atom_site_type_symbol
  Sb1      1.0000 0.12491  0.00004  0.12491  Biso   1.000  Sb
  Hf1      1.0000 0.12520  0.25144  0.37549  Biso   1.000  Hf
  Hf2      1.0000 0.37549  0.25144  0.12520  Biso   1.000  Hf
  Hf3      1.0000 0.37561  0.00162  0.37561  Biso   1.000  Hf
  O1       1.0000 0.99517  0.14996  0.99517  Biso   1.000  O 
  O2       1.0000 0.99909  0.10507  0.25073  Biso   1.000  O 
  O3       1.0000 0.00081  0.35240  0.24901  Biso   1.000  O 
  O4       1.0000 0.99944  0.39872  0.99943  Biso   1.000  O 
  O5       1.0000 0.25466  0.14995  0.25466  Biso   1.000  O 
  O6       1.0000 0.25074  0.10507  0.99910  Biso   1.000  O 
  O7       1.0000 0.24901  0.35240  0.00080  Biso   1.000  O 
  O8       1.0000 0.25039  0.39873  0.25039  Biso   1.000  O 
  Hf4      1.0000 0.12491  0.00004  0.62491  Biso   1.000  Hf
  Hf5      1.0000 0.12462  0.25144  0.87433  Biso   1.000  Hf
  Hf6      1.0000 0.37467  0.24961  0.62540  Biso   1.000  Hf
  Hf7      1.0000 0.37560  0.99851  0.87421  Biso   1.000  Hf
  O9       1.0000 0.99987  0.14811  0.49893  Biso   1.000  O 
  O10      1.0000 0.99929  0.10213  0.74798  Biso   1.000  O 
  O11      1.0000 0.99960  0.35256  0.74877  Biso   1.000  O 
  O12      1.0000 0.00052  0.39803  0.49908  Biso   1.000  O 
  O13      1.0000 0.24995  0.14811  0.75089  Biso   1.000  O 
  O14      1.0000 0.25053  0.10213  0.50184  Biso   1.000  O 
  O15      1.0000 0.25022  0.35256  0.50105  Biso   1.000  O 
  O16      1.0000 0.24929  0.39803  0.75073  Biso   1.000  O 
  Hf8      1.0000 0.12491  0.50005  0.12491  Biso   1.000  Hf
  Hf9      1.0000 0.12463  0.74867  0.37549  Biso   1.000  Hf
  Hf10     1.0000 0.37549  0.74866  0.12463  Biso   1.000  Hf
  Hf11     1.0000 0.37539  0.50010  0.37539  Biso   1.000  Hf
  O17      1.0000 0.00079  0.64771  0.00079  Biso   1.000  O 
  O18      1.0000 0.99944  0.60139  0.25038  Biso   1.000  O 
  O19      1.0000 0.99518  0.85016  0.25463  Biso   1.000  O 
  O20      1.0000 0.99909  0.89503  0.99908  Biso   1.000  O 
  O21      1.0000 0.24903  0.64771  0.24903  Biso   1.000  O 
  O22      1.0000 0.25039  0.60139  0.99943  Biso   1.000  O 
  O23      1.0000 0.25464  0.85016  0.99519  Biso   1.000  O 
  O24      1.0000 0.25074  0.89504  0.25074  Biso   1.000  O 
  Hf12     1.0000 0.12491  0.50005  0.62491  Biso   1.000  Hf
  Hf13     1.0000 0.12519  0.74867  0.87432  Biso   1.000  Hf
  Hf14     1.0000 0.37466  0.75050  0.62442  Biso   1.000  Hf
  Hf15     1.0000 0.37539  0.50003  0.87443  Biso   1.000  Hf
  O25      1.0000 0.99959  0.64754  0.50103  Biso   1.000  O 
  O26      1.0000 0.00053  0.60208  0.75073  Biso   1.000  O 
  O27      1.0000 0.99988  0.85200  0.75087  Biso   1.000  O 
  O28      1.0000 0.99928  0.89797  0.50183  Biso   1.000  O 
  O29      1.0000 0.25023  0.64754  0.74879  Biso   1.000  O 
  O30      1.0000 0.24929  0.60208  0.49909  Biso   1.000  O 
  O31      1.0000 0.24994  0.85200  0.49895  Biso   1.000  O 
  O32      1.0000 0.25054  0.89798  0.74799  Biso   1.000  O 
  Hf16     1.0000 0.62491  0.00004  0.12491  Biso   1.000  Hf
  Hf17     1.0000 0.62540  0.24961  0.37467  Biso   1.000  Hf
  Hf18     1.0000 0.87433  0.25144  0.12462  Biso   1.000  Hf
  Hf19     1.0000 0.87421  0.99851  0.37561  Biso   1.000  Hf
  O33      1.0000 0.49894  0.14811  0.99987  Biso   1.000  O 
  O34      1.0000 0.50184  0.10213  0.25053  Biso   1.000  O 
  O35      1.0000 0.50105  0.35257  0.25022  Biso   1.000  O 
  O36      1.0000 0.49908  0.39803  0.00052  Biso   1.000  O 
  O37      1.0000 0.75089  0.14811  0.24995  Biso   1.000  O 
  O38      1.0000 0.74799  0.10213  0.99929  Biso   1.000  O 
  O39      1.0000 0.74878  0.35256  0.99960  Biso   1.000  O 
  O40      1.0000 0.75073  0.39803  0.24930  Biso   1.000  O 
  Hf20     1.0000 0.62491  0.00004  0.62491  Biso   1.000  Hf
  Hf21     1.0000 0.62442  0.24961  0.87515  Biso   1.000  Hf
  Hf22     1.0000 0.87515  0.24961  0.62442  Biso   1.000  Hf
  Hf23     1.0000 0.87421  0.00162  0.87421  Biso   1.000  Hf
  O41      1.0000 0.49974  0.14826  0.49974  Biso   1.000  O 
  O42      1.0000 0.50020  0.10185  0.74962  Biso   1.000  O 
  O43      1.0000 0.49929  0.35194  0.75053  Biso   1.000  O 
  O44      1.0000 0.50023  0.39800  0.50023  Biso   1.000  O 
  O45      1.0000 0.75008  0.14826  0.75008  Biso   1.000  O 
  O46      1.0000 0.74962  0.10186  0.50020  Biso   1.000  O 
  O47      1.0000 0.75053  0.35194  0.49929  Biso   1.000  O 
  O48      1.0000 0.74958  0.39800  0.74959  Biso   1.000  O 
  Hf24     1.0000 0.62491  0.50004  0.12491  Biso   1.000  Hf
  Hf25     1.0000 0.62442  0.75050  0.37467  Biso   1.000  Hf
  Hf26     1.0000 0.87432  0.74866  0.12519  Biso   1.000  Hf
  Hf27     1.0000 0.87443  0.50003  0.37539  Biso   1.000  Hf
  O49      1.0000 0.50104  0.64754  0.99959  Biso   1.000  O 
  O50      1.0000 0.49910  0.60208  0.24929  Biso   1.000  O 
  O51      1.0000 0.49894  0.85200  0.24994  Biso   1.000  O 
  O52      1.0000 0.50183  0.89797  0.99929  Biso   1.000  O 
  O53      1.0000 0.74878  0.64754  0.25023  Biso   1.000  O 
  O54      1.0000 0.75072  0.60208  0.00053  Biso   1.000  O 
  O55      1.0000 0.75088  0.85200  0.99988  Biso   1.000  O 
  O56      1.0000 0.74799  0.89797  0.25054  Biso   1.000  O 
  Hf28     1.0000 0.62491  0.50004  0.62491  Biso   1.000  Hf
  Hf29     1.0000 0.62539  0.75050  0.87515  Biso   1.000  Hf
  Hf30     1.0000 0.87515  0.75050  0.62540  Biso   1.000  Hf
  Hf31     1.0000 0.87443  0.50010  0.87443  Biso   1.000  Hf
  O57      1.0000 0.49928  0.64817  0.49928  Biso   1.000  O 
  O58      1.0000 0.50024  0.60210  0.74957  Biso   1.000  O 
  O59      1.0000 0.49975  0.85185  0.75006  Biso   1.000  O 
  O60      1.0000 0.50019  0.89825  0.50019  Biso   1.000  O 
  O61      1.0000 0.75054  0.64817  0.75054  Biso   1.000  O 
  O62      1.0000 0.74957  0.60210  0.50024  Biso   1.000  O 
  O63      1.0000 0.75007  0.85185  0.49975  Biso   1.000  O 
  O64      1.0000 0.74963  0.89825  0.74963  Biso   1.000  O 
