data_image0
_cell_length_a       10.3072
_cell_length_b       5.32242
_cell_length_c       10.4503
_cell_angle_alpha    80
_cell_angle_beta     90
_cell_angle_gamma    80

_symmetry_space_group_name_H-M    "P 1"
_symmetry_int_tables_number       1

loop_
  _symmetry_equiv_pos_as_xyz
  'x, y, z'

loop_
  _atom_site_label
  _atom_site_occupancy
  _atom_site_fract_x
  _atom_site_fract_y
  _atom_site_fract_z
  _atom_site_thermal_displace_type
  _atom_site_B_iso_or_equiv
  _atom_site_type_symbol
  Hf1      1.0000 0.15084  0.06187  0.10140  Biso   1.000  Hf
  Hf2      1.0000 0.18898  0.40666  0.41728  Biso   1.000  Hf
  Hf3      1.0000 0.38032  0.44461  0.14985  Biso   1.000  Hf
  Hf4      1.0000 0.39727  0.85792  0.36000  Biso   1.000  Hf
  O1       1.0000 0.11926  0.18660  0.98602  Biso   1.000  O 
  O2       1.0000 0.98594  0.07033  0.21813  Biso   1.000  O 
  O3       1.0000 0.01022  0.52801  0.32825  Biso   1.000  O 
  O4       1.0000 0.13419  0.72672  0.96272  Biso   1.000  O 
  O5       1.0000 0.25459  0.21310  0.26087  Biso   1.000  O 
  O6       1.0000 0.38221  0.07895  0.00734  Biso   1.000  O 
  O7       1.0000 0.38824  0.58237  0.00811  Biso   1.000  O 
  O8       1.0000 0.26199  0.71774  0.26421  Biso   1.000  O 
  Hf5      1.0000 0.17835  0.86093  0.61344  Biso   1.000  Hf
  Hf6      1.0000 0.25224  0.41263  0.89522  Biso   1.000  Hf
  Hf7      1.0000 0.46511  0.40187  0.65205  Biso   1.000  Hf
  Hf8      1.0000 0.44949  0.86147  0.86021  Biso   1.000  Hf
  O9       1.0000 0.06319  0.21414  0.52305  Biso   1.000  O 
  O10      1.0000 0.06914  0.05391  0.74806  Biso   1.000  O 
  O11      1.0000 0.09195  0.55884  0.75623  Biso   1.000  O 
  O12      1.0000 0.04710  0.71816  0.51282  Biso   1.000  O 
  O13      1.0000 0.33738  0.20312  0.76113  Biso   1.000  O 
  O14      1.0000 0.29880  0.05460  0.50170  Biso   1.000  O 
  O15      1.0000 0.30955  0.57054  0.51905  Biso   1.000  O 
  O16      1.0000 0.33618  0.69029  0.75427  Biso   1.000  O 
  Hf9      1.0000 0.63709  0.99473  0.10258  Biso   1.000  Hf
  Hf10     1.0000 0.67293  0.40806  0.40063  Biso   1.000  Hf
  Hf11     1.0000 0.84475  0.38721  0.13051  Biso   1.000  Hf
  Hf12     1.0000 0.88883  0.84466  0.36631  Biso   1.000  Hf
  O17      1.0000 0.54136  0.38712  0.03025  Biso   1.000  O 
  O18      1.0000 0.48669  0.05869  0.22222  Biso   1.000  O 
  O19      1.0000 0.50331  0.53838  0.28125  Biso   1.000  O 
  O20      1.0000 0.62972  0.71848  0.97577  Biso   1.000  O 
  O21      1.0000 0.73549  0.17273  0.25698  Biso   1.000  O 
  O22      1.0000 0.86380  0.01692  0.00702  Biso   1.000  O 
  O23      1.0000 0.86603  0.52733  0.00056  Biso   1.000  O 
  O24      1.0000 0.75365  0.67457  0.24850  Biso   1.000  O 
  Hf13     1.0000 0.67708  0.86141  0.60877  Biso   1.000  Hf
  Hf14     1.0000 0.73093  0.39610  0.89776  Biso   1.000  Hf
  Hf15     1.0000 0.96322  0.40502  0.65456  Biso   1.000  Hf
  Hf16     1.0000 0.94853  0.85047  0.85212  Biso   1.000  Hf
  O25      1.0000 0.55037  0.20605  0.51255  Biso   1.000  O 
  O26      1.0000 0.57888  0.06149  0.75024  Biso   1.000  O 
  O27      1.0000 0.58710  0.57184  0.75546  Biso   1.000  O 
  O28      1.0000 0.55364  0.69422  0.50147  Biso   1.000  O 
  O29      1.0000 0.83456  0.20610  0.76681  Biso   1.000  O 
  O30      1.0000 0.79179  0.06743  0.49794  Biso   1.000  O 
  O31      1.0000 0.80448  0.57373  0.50716  Biso   1.000  O 
  O32      1.0000 0.83289  0.69438  0.74527  Biso   1.000  O 
  Sb1      1.0000 0.04702  0.62399  0.13463  Biso   1.000  Sb
