data_image0
_cell_length_a       10.0518
_cell_length_b       10.6086
_cell_length_c       5.09711
_cell_angle_alpha    90
_cell_angle_beta     90
_cell_angle_gamma    90

_symmetry_space_group_name_H-M    "P 1"
_symmetry_int_tables_number       1

loop_
  _symmetry_equiv_pos_as_xyz
  'x, y, z'

loop_
  _atom_site_label
  _atom_site_occupancy
  _atom_site_fract_x
  _atom_site_fract_y
  _atom_site_fract_z
  _atom_site_thermal_displace_type
  _atom_site_B_iso_or_equiv
  _atom_site_type_symbol
  Hf1      1.0000 0.09415  0.97795  0.21663  Biso   1.000  Hf
  Hf2      1.0000 0.12593  0.20364  0.63120  Biso   1.000  Hf
  Hf3      1.0000 0.36413  0.26535  0.21730  Biso   1.000  Hf
  Hf4      1.0000 0.35875  0.48648  0.72491  Biso   1.000  Hf
  O1       1.0000 0.00101  0.14267  0.32367  Biso   1.000  O 
  O2       1.0000 0.02261  0.07004  0.85854  Biso   1.000  O 
  O3       1.0000 0.45772  0.42986  0.39265  Biso   1.000  O 
  O4       1.0000 0.46189  0.33248  0.90965  Biso   1.000  O 
  O5       1.0000 0.25443  0.09486  0.40494  Biso   1.000  O 
  O6       1.0000 0.28550  0.15684  0.88504  Biso   1.000  O 
  O7       1.0000 0.25914  0.42947  0.04234  Biso   1.000  O 
  O8       1.0000 0.22609  0.36226  0.52665  Biso   1.000  O 
  Hf5      1.0000 0.11365  0.53930  0.27384  Biso   1.000  Hf
  Hf6      1.0000 0.10666  0.75502  0.75883  Biso   1.000  Hf
  Hf7      1.0000 0.35824  0.77429  0.25190  Biso   1.000  Hf
  Hf8      1.0000 0.34818  0.99738  0.72431  Biso   1.000  Hf
  O9       1.0000 0.01034  0.69047  0.42701  Biso   1.000  O 
  O10      1.0000 0.00355  0.58353  0.90194  Biso   1.000  O 
  O11      1.0000 0.45615  0.93287  0.39787  Biso   1.000  O 
  O12      1.0000 0.44031  0.83051  0.90209  Biso   1.000  O 
  O13      1.0000 0.24479  0.62102  0.54933  Biso   1.000  O 
  O14      1.0000 0.23065  0.66566  0.05623  Biso   1.000  O 
  O15      1.0000 0.21232  0.91042  0.97302  Biso   1.000  O 
  O16      1.0000 0.21403  0.86204  0.48421  Biso   1.000  O 
  Hf9      1.0000 0.63201  0.02110  0.26359  Biso   1.000  Hf
  Hf10     1.0000 0.61904  0.23983  0.77335  Biso   1.000  Hf
  Hf11     1.0000 0.84057  0.27953  0.31892  Biso   1.000  Hf
  Hf12     1.0000 0.84783  0.49485  0.74805  Biso   1.000  Hf
  O17      1.0000 0.51838  0.17981  0.41264  Biso   1.000  O 
  O18      1.0000 0.52696  0.07390  0.90366  Biso   1.000  O 
  O19      1.0000 0.92051  0.47410  0.37403  Biso   1.000  O 
  O20      1.0000 0.94175  0.30843  0.68191  Biso   1.000  O 
  O21      1.0000 0.75347  0.12164  0.53326  Biso   1.000  O 
  O22      1.0000 0.77192  0.14016  0.03661  Biso   1.000  O 
  O23      1.0000 0.74096  0.38336  0.01815  Biso   1.000  O 
  O24      1.0000 0.69755  0.37734  0.52197  Biso   1.000  O 
  Hf13     1.0000 0.62334  0.51894  0.25833  Biso   1.000  Hf
  Hf14     1.0000 0.60314  0.74273  0.76552  Biso   1.000  Hf
  Hf15     1.0000 0.84098  0.76622  0.28622  Biso   1.000  Hf
  Hf16     1.0000 0.83324  0.99114  0.77205  Biso   1.000  Hf
  O25      1.0000 0.51229  0.67887  0.41308  Biso   1.000  O 
  O26      1.0000 0.50351  0.58297  0.91448  Biso   1.000  O 
  O27      1.0000 0.94675  0.91801  0.46340  Biso   1.000  O 
  O28      1.0000 0.95483  0.84433  0.98266  Biso   1.000  O 
  O29      1.0000 0.74154  0.62637  0.52999  Biso   1.000  O 
  O30      1.0000 0.75530  0.64062  0.02206  Biso   1.000  O 
  O31      1.0000 0.72497  0.88549  0.02834  Biso   1.000  O 
  O32      1.0000 0.70836  0.87240  0.52595  Biso   1.000  O 
  Sb1      1.0000 0.08571  0.29276  0.08230  Biso   1.000  Sb
