data_image0
_cell_length_a       10.0488
_cell_length_b       10.2391
_cell_length_c       5.24294
_cell_angle_alpha    90
_cell_angle_beta     90
_cell_angle_gamma    90

_symmetry_space_group_name_H-M    "P 1"
_symmetry_int_tables_number       1

loop_
  _symmetry_equiv_pos_as_xyz
  'x, y, z'

loop_
  _atom_site_label
  _atom_site_occupancy
  _atom_site_fract_x
  _atom_site_fract_y
  _atom_site_fract_z
  _atom_site_thermal_displace_type
  _atom_site_B_iso_or_equiv
  _atom_site_type_symbol
  Sb1      1.0000 0.12939  0.01838  0.35160  Biso   1.000  Sb
  Hf1      1.0000 0.14108  0.23089  0.84338  Biso   1.000  Hf
  Hf2      1.0000 0.36109  0.27133  0.34072  Biso   1.000  Hf
  Hf3      1.0000 0.36071  0.47959  0.84246  Biso   1.000  Hf
  Hf4      1.0000 0.63814  0.02165  0.15948  Biso   1.000  Hf
  Hf5      1.0000 0.63743  0.22982  0.65727  Biso   1.000  Hf
  Hf6      1.0000 0.86131  0.27161  0.15771  Biso   1.000  Hf
  Hf7      1.0000 0.86194  0.47841  0.65694  Biso   1.000  Hf
  O1       1.0000 0.03397  0.16605  0.16207  Biso   1.000  O 
  O2       1.0000 0.03018  0.08556  0.66836  Biso   1.000  O 
  O3       1.0000 0.46783  0.41516  0.16552  Biso   1.000  O 
  O4       1.0000 0.46708  0.33579  0.66573  Biso   1.000  O 
  O5       1.0000 0.27688  0.12595  0.59226  Biso   1.000  O 
  O6       1.0000 0.28359  0.13224  0.07711  Biso   1.000  O 
  O7       1.0000 0.22386  0.37503  0.58919  Biso   1.000  O 
  O8       1.0000 0.22351  0.37793  0.08986  Biso   1.000  O 
  O9       1.0000 0.53349  0.16639  0.33276  Biso   1.000  O 
  O10      1.0000 0.53483  0.08391  0.83149  Biso   1.000  O 
  O11      1.0000 0.96753  0.41497  0.33478  Biso   1.000  O 
  O12      1.0000 0.96681  0.33602  0.83678  Biso   1.000  O 
  O13      1.0000 0.77552  0.12421  0.91335  Biso   1.000  O 
  O14      1.0000 0.77603  0.12660  0.41283  Biso   1.000  O 
  O15      1.0000 0.72315  0.37402  0.91025  Biso   1.000  O 
  O16      1.0000 0.72416  0.37630  0.40975  Biso   1.000  O 
  Hf8      1.0000 0.13931  0.52164  0.34362  Biso   1.000  Hf
  Hf9      1.0000 0.13831  0.72882  0.84341  Biso   1.000  Hf
  Hf10     1.0000 0.36343  0.77135  0.34001  Biso   1.000  Hf
  Hf11     1.0000 0.36308  0.98028  0.84234  Biso   1.000  Hf
  Hf12     1.0000 0.63923  0.52033  0.15621  Biso   1.000  Hf
  Hf13     1.0000 0.63808  0.72844  0.65595  Biso   1.000  Hf
  Hf14     1.0000 0.86105  0.76869  0.15600  Biso   1.000  Hf
  Hf15     1.0000 0.85689  0.97908  0.66436  Biso   1.000  Hf
  O17      1.0000 0.03388  0.66602  0.16730  Biso   1.000  O 
  O18      1.0000 0.03247  0.58525  0.66593  Biso   1.000  O 
  O19      1.0000 0.47011  0.91574  0.16698  Biso   1.000  O 
  O20      1.0000 0.46878  0.83571  0.66280  Biso   1.000  O 
  O21      1.0000 0.27647  0.62455  0.58958  Biso   1.000  O 
  O22      1.0000 0.27691  0.62495  0.09050  Biso   1.000  O 
  O23      1.0000 0.22526  0.87261  0.58970  Biso   1.000  O 
  O24      1.0000 0.23079  0.87263  0.07965  Biso   1.000  O 
  O25      1.0000 0.53398  0.66462  0.33216  Biso   1.000  O 
  O26      1.0000 0.53228  0.58522  0.83330  Biso   1.000  O 
  O27      1.0000 0.96124  0.91541  0.33719  Biso   1.000  O 
  O28      1.0000 0.96703  0.83659  0.83637  Biso   1.000  O 
  O29      1.0000 0.77579  0.62361  0.90941  Biso   1.000  O 
  O30      1.0000 0.77649  0.62583  0.40935  Biso   1.000  O 
  O31      1.0000 0.72265  0.87321  0.91286  Biso   1.000  O 
  O32      1.0000 0.72437  0.87615  0.41324  Biso   1.000  O 
