data_image0
_cell_length_a       10.1326
_cell_length_b       10.3349
_cell_length_c       10.1134
_cell_angle_alpha    90
_cell_angle_beta     90
_cell_angle_gamma    90

_symmetry_space_group_name_H-M    "P 1"
_symmetry_int_tables_number       1

loop_
  _symmetry_equiv_pos_as_xyz
  'x, y, z'

loop_
  _atom_site_label
  _atom_site_occupancy
  _atom_site_fract_x
  _atom_site_fract_y
  _atom_site_fract_z
  _atom_site_thermal_displace_type
  _atom_site_B_iso_or_equiv
  _atom_site_type_symbol
  Hf1      1.0000 0.13018  0.98137  0.11771  Biso   1.000  Hf
  Hf2      1.0000 0.09750  0.24173  0.42107  Biso   1.000  Hf
  Hf3      1.0000 0.36661  0.23263  0.12889  Biso   1.000  Hf
  Hf4      1.0000 0.33783  0.01868  0.38982  Biso   1.000  Hf
  O1       1.0000 0.99146  0.14588  0.00779  Biso   1.000  O 
  O2       1.0000 0.96608  0.05753  0.24569  Biso   1.000  O 
  O3       1.0000 0.90362  0.27385  0.34205  Biso   1.000  O 
  O4       1.0000 0.04877  0.43688  0.99215  Biso   1.000  O 
  O5       1.0000 0.23614  0.16766  0.28342  Biso   1.000  O 
  O6       1.0000 0.24971  0.07952  0.01051  Biso   1.000  O 
  O7       1.0000 0.28721  0.32899  0.95252  Biso   1.000  O 
  O8       1.0000 0.26474  0.44395  0.19474  Biso   1.000  O 
  Hf5      1.0000 0.11173  0.99204  0.62994  Biso   1.000  Hf
  Hf6      1.0000 0.11247  0.24234  0.89628  Biso   1.000  Hf
  Hf7      1.0000 0.36818  0.27206  0.63020  Biso   1.000  Hf
  Hf8      1.0000 0.35309  0.02348  0.86057  Biso   1.000  Hf
  O9       1.0000 0.96764  0.12633  0.52801  Biso   1.000  O 
  O10      1.0000 0.99638  0.10501  0.76881  Biso   1.000  O 
  O11      1.0000 0.99831  0.35063  0.77074  Biso   1.000  O 
  O12      1.0000 0.99455  0.39522  0.52438  Biso   1.000  O 
  O13      1.0000 0.24950  0.17091  0.76195  Biso   1.000  O 
  O14      1.0000 0.21868  0.11227  0.52625  Biso   1.000  O 
  O15      1.0000 0.24073  0.36482  0.48610  Biso   1.000  O 
  O16      1.0000 0.27194  0.42887  0.72216  Biso   1.000  O 
  Hf9      1.0000 0.14460  0.60125  0.11986  Biso   1.000  Hf
  Hf10     1.0000 0.14891  0.76158  0.38582  Biso   1.000  Hf
  Hf11     1.0000 0.41321  0.73577  0.10065  Biso   1.000  Hf
  Hf12     1.0000 0.38620  0.49765  0.35101  Biso   1.000  Hf
  O17      1.0000 0.98255  0.66663  0.97675  Biso   1.000  O 
  O18      1.0000 0.00804  0.51039  0.23472  Biso   1.000  O 
  O19      1.0000 0.03883  0.75981  0.21892  Biso   1.000  O 
  O20      1.0000 0.98443  0.90192  0.00760  Biso   1.000  O 
  O21      1.0000 0.28458  0.67450  0.25219  Biso   1.000  O 
  O22      1.0000 0.25501  0.60893  0.96593  Biso   1.000  O 
  O23      1.0000 0.22620  0.81534  0.04063  Biso   1.000  O 
  O24      1.0000 0.22670  0.92044  0.28231  Biso   1.000  O 
  Hf13     1.0000 0.13796  0.51699  0.60837  Biso   1.000  Hf
  Hf14     1.0000 0.12120  0.75795  0.85349  Biso   1.000  Hf
  Hf15     1.0000 0.39035  0.74045  0.60093  Biso   1.000  Hf
  Hf16     1.0000 0.38611  0.48401  0.87969  Biso   1.000  Hf
  O25      1.0000 0.01403  0.64023  0.48127  Biso   1.000  O 
  O26      1.0000 0.99152  0.60544  0.73391  Biso   1.000  O 
  O27      1.0000 0.97719  0.85931  0.73956  Biso   1.000  O 
  O28      1.0000 0.00324  0.88582  0.48366  Biso   1.000  O 
  O29      1.0000 0.22673  0.68020  0.70919  Biso   1.000  O 
  O30      1.0000 0.26575  0.61221  0.48152  Biso   1.000  O 
  O31      1.0000 0.25407  0.86896  0.52473  Biso   1.000  O 
  O32      1.0000 0.21716  0.92159  0.79170  Biso   1.000  O 
  Hf17     1.0000 0.62540  0.98604  0.12796  Biso   1.000  Hf
  Hf18     1.0000 0.61486  0.25894  0.39400  Biso   1.000  Hf
  Hf19     1.0000 0.84712  0.21608  0.14966  Biso   1.000  Hf
  Hf20     1.0000 0.83998  0.00996  0.39326  Biso   1.000  Hf
  O33      1.0000 0.47178  0.13607  0.99884  Biso   1.000  O 
  O34      1.0000 0.44935  0.06539  0.22993  Biso   1.000  O 
  O35      1.0000 0.46743  0.32383  0.27530  Biso   1.000  O 
  O36      1.0000 0.54262  0.38476  0.00975  Biso   1.000  O 
  O37      1.0000 0.70018  0.12278  0.26357  Biso   1.000  O 
  O38      1.0000 0.74391  0.09489  0.01399  Biso   1.000  O 
  O39      1.0000 0.79276  0.35221  0.00535  Biso   1.000  O 
  O40      1.0000 0.72019  0.38438  0.25438  Biso   1.000  O 
  Hf21     1.0000 0.60994  0.99831  0.61306  Biso   1.000  Hf
  Hf22     1.0000 0.60633  0.24560  0.89403  Biso   1.000  Hf
  Hf23     1.0000 0.86428  0.26984  0.64570  Biso   1.000  Hf
  Hf24     1.0000 0.84649  0.01877  0.86928  Biso   1.000  Hf
  O41      1.0000 0.47080  0.14909  0.49524  Biso   1.000  O 
  O42      1.0000 0.49446  0.11962  0.74681  Biso   1.000  O 
  O43      1.0000 0.51283  0.36171  0.75344  Biso   1.000  O 
  O44      1.0000 0.49243  0.40436  0.50636  Biso   1.000  O 
  O45      1.0000 0.75344  0.17809  0.77777  Biso   1.000  O 
  O46      1.0000 0.71874  0.11493  0.51772  Biso   1.000  O 
  O47      1.0000 0.73438  0.36272  0.51578  Biso   1.000  O 
  O48      1.0000 0.76492  0.43006  0.74450  Biso   1.000  O 
  Hf25     1.0000 0.66432  0.50575  0.10540  Biso   1.000  Hf
  Hf26     1.0000 0.65191  0.74417  0.36442  Biso   1.000  Hf
  Hf27     1.0000 0.87130  0.75359  0.10464  Biso   1.000  Hf
  Hf28     1.0000 0.87131  0.47141  0.37143  Biso   1.000  Hf
  O49      1.0000 0.50731  0.63532  0.98167  Biso   1.000  O 
  O50      1.0000 0.51697  0.58085  0.22566  Biso   1.000  O 
  O51      1.0000 0.53731  0.82635  0.22579  Biso   1.000  O 
  O52      1.0000 0.45412  0.88777  0.98778  Biso   1.000  O 
  O53      1.0000 0.77146  0.63394  0.24006  Biso   1.000  O 
  O54      1.0000 0.75389  0.60756  0.98279  Biso   1.000  O 
  O55      1.0000 0.72693  0.84641  0.00844  Biso   1.000  O 
  O56      1.0000 0.78052  0.88345  0.25240  Biso   1.000  O 
  Hf29     1.0000 0.62871  0.51189  0.62321  Biso   1.000  Hf
  Hf30     1.0000 0.60716  0.76469  0.85002  Biso   1.000  Hf
  Hf31     1.0000 0.88541  0.73634  0.60346  Biso   1.000  Hf
  Hf32     1.0000 0.89557  0.49930  0.87985  Biso   1.000  Hf
  O57      1.0000 0.51667  0.64502  0.47886  Biso   1.000  O 
  O58      1.0000 0.48438  0.61391  0.73542  Biso   1.000  O 
  O59      1.0000 0.47490  0.87020  0.73353  Biso   1.000  O 
  O60      1.0000 0.50087  0.89320  0.48054  Biso   1.000  O 
  O61      1.0000 0.72711  0.67958  0.71928  Biso   1.000  O 
  O62      1.0000 0.76347  0.60320  0.48907  Biso   1.000  O 
  O63      1.0000 0.75098  0.86085  0.50408  Biso   1.000  O 
  O64      1.0000 0.71757  0.92866  0.76774  Biso   1.000  O 
  Sb1      1.0000 0.10547  0.31570  0.16092  Biso   1.000  Sb
