data_image0
_cell_length_a       10.048
_cell_length_b       5.12158
_cell_length_c       10.4819
_cell_angle_alpha    90
_cell_angle_beta     90
_cell_angle_gamma    90

_symmetry_space_group_name_H-M    "P 1"
_symmetry_int_tables_number       1

loop_
  _symmetry_equiv_pos_as_xyz
  'x, y, z'

loop_
  _atom_site_label
  _atom_site_occupancy
  _atom_site_fract_x
  _atom_site_fract_y
  _atom_site_fract_z
  _atom_site_thermal_displace_type
  _atom_site_B_iso_or_equiv
  _atom_site_type_symbol
  Sb1      1.0000 0.12937  0.03795  0.17509  Biso   1.000  Sb
  Hf1      1.0000 0.13791  0.46107  0.42304  Biso   1.000  Hf
  Hf2      1.0000 0.36125  0.54167  0.16942  Biso   1.000  Hf
  Hf3      1.0000 0.36180  0.96048  0.42136  Biso   1.000  Hf
  Hf4      1.0000 0.63809  0.04183  0.07829  Biso   1.000  Hf
  Hf5      1.0000 0.63641  0.45925  0.32847  Biso   1.000  Hf
  Hf6      1.0000 0.85958  0.53873  0.07752  Biso   1.000  Hf
  Hf7      1.0000 0.85549  0.95840  0.33155  Biso   1.000  Hf
  O1       1.0000 0.03409  0.33558  0.08202  Biso   1.000  O 
  O2       1.0000 0.02956  0.17101  0.33447  Biso   1.000  O 
  O3       1.0000 0.46921  0.83103  0.08310  Biso   1.000  O 
  O4       1.0000 0.46755  0.67421  0.33240  Biso   1.000  O 
  O5       1.0000 0.27668  0.25528  0.29806  Biso   1.000  O 
  O6       1.0000 0.28218  0.26113  0.03948  Biso   1.000  O 
  O7       1.0000 0.22397  0.74572  0.29543  Biso   1.000  O 
  O8       1.0000 0.22906  0.74617  0.04080  Biso   1.000  O 
  O9       1.0000 0.53340  0.33115  0.16639  Biso   1.000  O 
  O10      1.0000 0.53189  0.17145  0.41722  Biso   1.000  O 
  O11      1.0000 0.95970  0.83369  0.16781  Biso   1.000  O 
  O12      1.0000 0.96541  0.67299  0.41724  Biso   1.000  O 
  O13      1.0000 0.77436  0.24910  0.45605  Biso   1.000  O 
  O14      1.0000 0.77526  0.25278  0.20576  Biso   1.000  O 
  O15      1.0000 0.72159  0.74840  0.45627  Biso   1.000  O 
  O16      1.0000 0.72304  0.75239  0.20612  Biso   1.000  O 
  Hf8      1.0000 0.13687  0.04420  0.67133  Biso   1.000  Hf
  Hf9      1.0000 0.13893  0.46126  0.91962  Biso   1.000  Hf
  Hf10     1.0000 0.36006  0.54478  0.67119  Biso   1.000  Hf
  Hf11     1.0000 0.36035  0.96120  0.92116  Biso   1.000  Hf
  Hf12     1.0000 0.63638  0.04451  0.57984  Biso   1.000  Hf
  Hf13     1.0000 0.63675  0.46074  0.82821  Biso   1.000  Hf
  Hf14     1.0000 0.86006  0.54428  0.57929  Biso   1.000  Hf
  Hf15     1.0000 0.86127  0.96003  0.82893  Biso   1.000  Hf
  O17      1.0000 0.03094  0.33174  0.58309  Biso   1.000  O 
  O18      1.0000 0.03133  0.17140  0.83287  Biso   1.000  O 
  O19      1.0000 0.46615  0.83343  0.58345  Biso   1.000  O 
  O20      1.0000 0.46627  0.67277  0.83207  Biso   1.000  O 
  O21      1.0000 0.27444  0.24957  0.79275  Biso   1.000  O 
  O22      1.0000 0.27455  0.25425  0.54538  Biso   1.000  O 
  O23      1.0000 0.22283  0.75019  0.79329  Biso   1.000  O 
  O24      1.0000 0.22297  0.75482  0.54440  Biso   1.000  O 
  O25      1.0000 0.53167  0.33356  0.66637  Biso   1.000  O 
  O26      1.0000 0.53203  0.17141  0.91566  Biso   1.000  O 
  O27      1.0000 0.96628  0.83108  0.66735  Biso   1.000  O 
  O28      1.0000 0.96579  0.67345  0.91873  Biso   1.000  O 
  O29      1.0000 0.77431  0.25000  0.95525  Biso   1.000  O 
  O30      1.0000 0.77473  0.25484  0.70542  Biso   1.000  O 
  O31      1.0000 0.72183  0.75003  0.95532  Biso   1.000  O 
  O32      1.0000 0.72315  0.75514  0.70553  Biso   1.000  O 
