data_image0
_cell_length_a       10.0587
_cell_length_b       5.21442
_cell_length_c       10.0967
_cell_angle_alpha    90
_cell_angle_beta     90
_cell_angle_gamma    90

_symmetry_space_group_name_H-M    "P 1"
_symmetry_int_tables_number       1

loop_
  _symmetry_equiv_pos_as_xyz
  'x, y, z'

loop_
  _atom_site_label
  _atom_site_occupancy
  _atom_site_fract_x
  _atom_site_fract_y
  _atom_site_fract_z
  _atom_site_thermal_displace_type
  _atom_site_B_iso_or_equiv
  _atom_site_type_symbol
  Hf1      1.0000 0.13128  0.04363  0.12099  Biso   1.000  Hf
  Hf2      1.0000 0.13513  0.47210  0.38677  Biso   1.000  Hf
  Hf3      1.0000 0.38391  0.54921  0.11733  Biso   1.000  Hf
  Hf4      1.0000 0.36892  0.98566  0.37036  Biso   1.000  Hf
  O1       1.0000 0.00120  0.31201  0.22999  Biso   1.000  O 
  O2       1.0000 0.03638  0.13932  0.45866  Biso   1.000  O 
  O3       1.0000 0.46976  0.88208  0.19574  Biso   1.000  O 
  O4       1.0000 0.47218  0.65856  0.44636  Biso   1.000  O 
  O5       1.0000 0.25937  0.26448  0.24350  Biso   1.000  O 
  O6       1.0000 0.27591  0.27503  0.49858  Biso   1.000  O 
  O7       1.0000 0.23790  0.77851  0.49765  Biso   1.000  O 
  O8       1.0000 0.23878  0.74657  0.24938  Biso   1.000  O 
  Hf5      1.0000 0.13671  0.03567  0.62616  Biso   1.000  Hf
  Hf6      1.0000 0.13273  0.49548  0.85031  Biso   1.000  Hf
  Hf7      1.0000 0.37712  0.55013  0.62026  Biso   1.000  Hf
  Hf8      1.0000 0.37414  0.99960  0.87244  Biso   1.000  Hf
  O9       1.0000 0.03110  0.35931  0.69080  Biso   1.000  O 
  O10      1.0000 0.03050  0.16250  0.94807  Biso   1.000  O 
  O11      1.0000 0.47591  0.88432  0.69585  Biso   1.000  O 
  O12      1.0000 0.47720  0.67215  0.94195  Biso   1.000  O 
  O13      1.0000 0.27008  0.24974  0.74394  Biso   1.000  O 
  O14      1.0000 0.26243  0.32658  0.99413  Biso   1.000  O 
  O15      1.0000 0.24151  0.81457  0.99454  Biso   1.000  O 
  O16      1.0000 0.24648  0.75011  0.74482  Biso   1.000  O 
  Hf9      1.0000 0.63198  0.03332  0.12424  Biso   1.000  Hf
  Hf10     1.0000 0.63507  0.47658  0.37620  Biso   1.000  Hf
  Hf11     1.0000 0.85124  0.52113  0.12877  Biso   1.000  Hf
  Hf12     1.0000 0.88301  0.98307  0.36684  Biso   1.000  Hf
  O17      1.0000 0.53684  0.36926  0.20077  Biso   1.000  O 
  O18      1.0000 0.53252  0.15194  0.44794  Biso   1.000  O 
  O19      1.0000 0.97645  0.82545  0.19930  Biso   1.000  O 
  O20      1.0000 0.97260  0.65426  0.45462  Biso   1.000  O 
  O21      1.0000 0.75863  0.22595  0.25010  Biso   1.000  O 
  O22      1.0000 0.77186  0.28647  0.49696  Biso   1.000  O 
  O23      1.0000 0.74098  0.78923  0.49663  Biso   1.000  O 
  O24      1.0000 0.73069  0.73978  0.24989  Biso   1.000  O 
  Hf13     1.0000 0.63695  0.04532  0.62114  Biso   1.000  Hf
  Hf14     1.0000 0.63891  0.48593  0.87134  Biso   1.000  Hf
  Hf15     1.0000 0.86699  0.54592  0.62207  Biso   1.000  Hf
  Hf16     1.0000 0.87447  0.97967  0.87754  Biso   1.000  Hf
  O25      1.0000 0.54049  0.38264  0.69571  Biso   1.000  O 
  O26      1.0000 0.53018  0.17338  0.94972  Biso   1.000  O 
  O27      1.0000 0.98527  0.85080  0.71333  Biso   1.000  O 
  O28      1.0000 0.97380  0.64768  0.95955  Biso   1.000  O 
  O29      1.0000 0.77333  0.24069  0.74759  Biso   1.000  O 
  O30      1.0000 0.76910  0.28179  0.99689  Biso   1.000  O 
  O31      1.0000 0.73277  0.78681  0.99741  Biso   1.000  O 
  O32      1.0000 0.73945  0.74700  0.74748  Biso   1.000  O 
  Sc1      1.0000 0.11961  0.54343  0.11387  Biso   1.000  Sc
