data_image0
_cell_length_a       10.1524
_cell_length_b       5.12335
_cell_length_c       10.4373
_cell_angle_alpha    90
_cell_angle_beta     80
_cell_angle_gamma    90

_symmetry_space_group_name_H-M    "P 1"
_symmetry_int_tables_number       1

loop_
  _symmetry_equiv_pos_as_xyz
  'x, y, z'

loop_
  _atom_site_label
  _atom_site_occupancy
  _atom_site_fract_x
  _atom_site_fract_y
  _atom_site_fract_z
  _atom_site_thermal_displace_type
  _atom_site_B_iso_or_equiv
  _atom_site_type_symbol
  Sc1      1.0000 0.13898  0.03983  0.14679  Biso   1.000  Sc
  Hf1      1.0000 0.13992  0.45531  0.39371  Biso   1.000  Hf
  Hf2      1.0000 0.35672  0.53971  0.10462  Biso   1.000  Hf
  Hf3      1.0000 0.35773  0.95833  0.35226  Biso   1.000  Hf
  O1       1.0000 0.03438  0.33735  0.07986  Biso   1.000  O 
  O2       1.0000 0.03279  0.16711  0.33150  Biso   1.000  O 
  O3       1.0000 0.46576  0.83214  0.17028  Biso   1.000  O 
  O4       1.0000 0.46418  0.66571  0.42084  Biso   1.000  O 
  O5       1.0000 0.27788  0.25673  0.24230  Biso   1.000  O 
  O6       1.0000 0.27519  0.24280  0.49155  Biso   1.000  O 
  O7       1.0000 0.22517  0.75506  0.00763  Biso   1.000  O 
  O8       1.0000 0.22424  0.73873  0.25966  Biso   1.000  O 
  Hf4      1.0000 0.13863  0.04311  0.64627  Biso   1.000  Hf
  Hf5      1.0000 0.13895  0.45795  0.89878  Biso   1.000  Hf
  Hf6      1.0000 0.35895  0.54379  0.60430  Biso   1.000  Hf
  Hf7      1.0000 0.35749  0.95838  0.85653  Biso   1.000  Hf
  O9       1.0000 0.03388  0.33718  0.58050  Biso   1.000  O 
  O10      1.0000 0.03317  0.16446  0.83032  Biso   1.000  O 
  O11      1.0000 0.46401  0.83543  0.67105  Biso   1.000  O 
  O12      1.0000 0.46567  0.66826  0.92103  Biso   1.000  O 
  O13      1.0000 0.27481  0.25827  0.74103  Biso   1.000  O 
  O14      1.0000 0.27737  0.24546  0.98944  Biso   1.000  O 
  O15      1.0000 0.22240  0.75850  0.50949  Biso   1.000  O 
  O16      1.0000 0.22213  0.74364  0.75916  Biso   1.000  O 
  Hf8      1.0000 0.63869  0.04130  0.14607  Biso   1.000  Hf
  Hf9      1.0000 0.63796  0.45842  0.39575  Biso   1.000  Hf
  Hf10     1.0000 0.86206  0.54222  0.10420  Biso   1.000  Hf
  Hf11     1.0000 0.86168  0.95902  0.35232  Biso   1.000  Hf
  O17      1.0000 0.53416  0.33457  0.07969  Biso   1.000  O 
  O18      1.0000 0.53362  0.16454  0.32976  Biso   1.000  O 
  O19      1.0000 0.96299  0.83642  0.17015  Biso   1.000  O 
  O20      1.0000 0.96481  0.66451  0.41971  Biso   1.000  O 
  O21      1.0000 0.77502  0.25808  0.24081  Biso   1.000  O 
  O22      1.0000 0.77467  0.24377  0.49082  Biso   1.000  O 
  O23      1.0000 0.72392  0.75725  0.00899  Biso   1.000  O 
  O24      1.0000 0.72168  0.74237  0.25967  Biso   1.000  O 
  Hf12     1.0000 0.63797  0.04252  0.64606  Biso   1.000  Hf
  Hf13     1.0000 0.63743  0.45837  0.89688  Biso   1.000  Hf
  Hf14     1.0000 0.85962  0.54243  0.60356  Biso   1.000  Hf
  Hf15     1.0000 0.85902  0.95821  0.85448  Biso   1.000  Hf
  O25      1.0000 0.53311  0.33591  0.58019  Biso   1.000  O 
  O26      1.0000 0.53362  0.16500  0.82997  Biso   1.000  O 
  O27      1.0000 0.96373  0.83739  0.66955  Biso   1.000  O 
  O28      1.0000 0.96347  0.66415  0.91932  Biso   1.000  O 
  O29      1.0000 0.77507  0.25800  0.74057  Biso   1.000  O 
  O30      1.0000 0.77425  0.24185  0.99068  Biso   1.000  O 
  O31      1.0000 0.72299  0.75836  0.50928  Biso   1.000  O 
  O32      1.0000 0.72270  0.74272  0.75914  Biso   1.000  O 
