data_image0
_cell_length_a       10.1321
_cell_length_b       10.2595
_cell_length_c       10.4449
_cell_angle_alpha    90
_cell_angle_beta     80
_cell_angle_gamma    90

_symmetry_space_group_name_H-M    "P 1"
_symmetry_int_tables_number       1

loop_
  _symmetry_equiv_pos_as_xyz
  'x, y, z'

loop_
  _atom_site_label
  _atom_site_occupancy
  _atom_site_fract_x
  _atom_site_fract_y
  _atom_site_fract_z
  _atom_site_thermal_displace_type
  _atom_site_B_iso_or_equiv
  _atom_site_type_symbol
  Sc1      1.0000 0.13769  0.02024  0.14706  Biso   1.000  Sc
  Hf1      1.0000 0.13789  0.22718  0.39458  Biso   1.000  Hf
  Hf2      1.0000 0.35830  0.26832  0.10469  Biso   1.000  Hf
  Hf3      1.0000 0.35923  0.47819  0.35398  Biso   1.000  Hf
  O1       1.0000 0.03466  0.16899  0.07943  Biso   1.000  O 
  O2       1.0000 0.03274  0.08274  0.33172  Biso   1.000  O 
  O3       1.0000 0.46405  0.41681  0.17065  Biso   1.000  O 
  O4       1.0000 0.46333  0.33181  0.42089  Biso   1.000  O 
  O5       1.0000 0.27752  0.12966  0.24278  Biso   1.000  O 
  O6       1.0000 0.27423  0.12106  0.49171  Biso   1.000  O 
  O7       1.0000 0.22339  0.37903  0.00958  Biso   1.000  O 
  O8       1.0000 0.22164  0.37129  0.25939  Biso   1.000  O 
  Hf4      1.0000 0.13676  0.02150  0.64613  Biso   1.000  Hf
  Hf5      1.0000 0.13586  0.22713  0.89849  Biso   1.000  Hf
  Hf6      1.0000 0.35791  0.27115  0.60478  Biso   1.000  Hf
  Hf7      1.0000 0.35741  0.47826  0.85499  Biso   1.000  Hf
  O9       1.0000 0.03302  0.16894  0.58048  Biso   1.000  O 
  O10      1.0000 0.03156  0.08158  0.83006  Biso   1.000  O 
  O11      1.0000 0.46232  0.41826  0.67062  Biso   1.000  O 
  O12      1.0000 0.46195  0.33234  0.92091  Biso   1.000  O 
  O13      1.0000 0.27331  0.12857  0.74099  Biso   1.000  O 
  O14      1.0000 0.27545  0.12296  0.98953  Biso   1.000  O 
  O15      1.0000 0.22179  0.37913  0.50978  Biso   1.000  O 
  O16      1.0000 0.22085  0.37098  0.76024  Biso   1.000  O 
  Hf8      1.0000 0.13905  0.52110  0.14570  Biso   1.000  Hf
  Hf9      1.0000 0.13859  0.72890  0.39538  Biso   1.000  Hf
  Hf10     1.0000 0.35866  0.77283  0.10416  Biso   1.000  Hf
  Hf11     1.0000 0.35749  0.97949  0.35280  Biso   1.000  Hf
  O17      1.0000 0.03456  0.66800  0.07984  Biso   1.000  O 
  O18      1.0000 0.03350  0.58220  0.32970  Biso   1.000  O 
  O19      1.0000 0.46510  0.91791  0.17008  Biso   1.000  O 
  O20      1.0000 0.46295  0.83223  0.42059  Biso   1.000  O 
  O21      1.0000 0.27553  0.62772  0.24029  Biso   1.000  O 
  O22      1.0000 0.27466  0.62119  0.49074  Biso   1.000  O 
  O23      1.0000 0.22518  0.87743  0.00751  Biso   1.000  O 
  O24      1.0000 0.22448  0.86888  0.26017  Biso   1.000  O 
  Hf12     1.0000 0.13688  0.52139  0.64658  Biso   1.000  Hf
  Hf13     1.0000 0.13672  0.73031  0.89697  Biso   1.000  Hf
  Hf14     1.0000 0.35859  0.77204  0.60429  Biso   1.000  Hf
  Hf15     1.0000 0.35630  0.97931  0.85643  Biso   1.000  Hf
  O25      1.0000 0.03308  0.66841  0.58045  Biso   1.000  O 
  O26      1.0000 0.03222  0.58176  0.83077  Biso   1.000  O 
  O27      1.0000 0.46226  0.91824  0.67111  Biso   1.000  O 
  O28      1.0000 0.46300  0.83302  0.92116  Biso   1.000  O 
  O29      1.0000 0.27372  0.62950  0.74118  Biso   1.000  O 
  O30      1.0000 0.27280  0.62059  0.99119  Biso   1.000  O 
  O31      1.0000 0.22115  0.87911  0.50972  Biso   1.000  O 
  O32      1.0000 0.22038  0.87169  0.75916  Biso   1.000  O 
  Hf16     1.0000 0.63874  0.02117  0.14622  Biso   1.000  Hf
  Hf17     1.0000 0.63755  0.22831  0.39602  Biso   1.000  Hf
  Hf18     1.0000 0.86202  0.27016  0.10376  Biso   1.000  Hf
  Hf19     1.0000 0.85911  0.47897  0.35418  Biso   1.000  Hf
  O33      1.0000 0.53503  0.16827  0.07985  Biso   1.000  O 
  O34      1.0000 0.53368  0.08180  0.32992  Biso   1.000  O 
  O35      1.0000 0.96400  0.41887  0.17012  Biso   1.000  O 
  O36      1.0000 0.96334  0.33237  0.42016  Biso   1.000  O 
  O37      1.0000 0.77510  0.12894  0.24078  Biso   1.000  O 
  O38      1.0000 0.77409  0.12153  0.49095  Biso   1.000  O 
  O39      1.0000 0.72366  0.37873  0.00930  Biso   1.000  O 
  O40      1.0000 0.72267  0.37105  0.25985  Biso   1.000  O 
  Hf20     1.0000 0.63662  0.02119  0.64624  Biso   1.000  Hf
  Hf21     1.0000 0.63558  0.22902  0.89668  Biso   1.000  Hf
  Hf22     1.0000 0.85873  0.27126  0.60410  Biso   1.000  Hf
  Hf23     1.0000 0.85784  0.47887  0.85481  Biso   1.000  Hf
  O41      1.0000 0.53255  0.16824  0.58037  Biso   1.000  O 
  O42      1.0000 0.53255  0.08165  0.83045  Biso   1.000  O 
  O43      1.0000 0.96229  0.41881  0.67026  Biso   1.000  O 
  O44      1.0000 0.96160  0.33201  0.92028  Biso   1.000  O 
  O45      1.0000 0.77382  0.12901  0.74091  Biso   1.000  O 
  O46      1.0000 0.77271  0.12097  0.99099  Biso   1.000  O 
  O47      1.0000 0.72148  0.37919  0.50974  Biso   1.000  O 
  O48      1.0000 0.72087  0.37123  0.75965  Biso   1.000  O 
  Hf24     1.0000 0.63792  0.52077  0.14579  Biso   1.000  Hf
  Hf25     1.0000 0.63709  0.72940  0.39593  Biso   1.000  Hf
  Hf26     1.0000 0.86059  0.77222  0.10472  Biso   1.000  Hf
  Hf27     1.0000 0.86165  0.97904  0.35262  Biso   1.000  Hf
  O49      1.0000 0.53388  0.66754  0.07957  Biso   1.000  O 
  O50      1.0000 0.53342  0.58173  0.32991  Biso   1.000  O 
  O51      1.0000 0.96248  0.91747  0.17093  Biso   1.000  O 
  O52      1.0000 0.96363  0.83126  0.42047  Biso   1.000  O 
  O53      1.0000 0.77498  0.62897  0.24068  Biso   1.000  O 
  O54      1.0000 0.77426  0.62127  0.49080  Biso   1.000  O 
  O55      1.0000 0.72359  0.87887  0.00932  Biso   1.000  O 
  O56      1.0000 0.72078  0.87102  0.25969  Biso   1.000  O 
  Hf28     1.0000 0.63650  0.52140  0.64624  Biso   1.000  Hf
  Hf29     1.0000 0.63549  0.72868  0.89692  Biso   1.000  Hf
  Hf30     1.0000 0.85859  0.77122  0.60429  Biso   1.000  Hf
  Hf31     1.0000 0.85729  0.97867  0.85464  Biso   1.000  Hf
  O57      1.0000 0.53272  0.66843  0.58014  Biso   1.000  O 
  O58      1.0000 0.53169  0.58205  0.82999  Biso   1.000  O 
  O59      1.0000 0.96197  0.91858  0.67020  Biso   1.000  O 
  O60      1.0000 0.96107  0.83133  0.92024  Biso   1.000  O 
  O61      1.0000 0.77349  0.62891  0.74086  Biso   1.000  O 
  O62      1.0000 0.77223  0.62069  0.99108  Biso   1.000  O 
  O63      1.0000 0.72198  0.87889  0.50958  Biso   1.000  O 
  O64      1.0000 0.72082  0.87099  0.75975  Biso   1.000  O 
