data_image0
_cell_length_a       5.07603
_cell_length_b       10.2471
_cell_length_c       10.4382
_cell_angle_alpha    90
_cell_angle_beta     80
_cell_angle_gamma    90

_symmetry_space_group_name_H-M    "P 1"
_symmetry_int_tables_number       1

loop_
  _symmetry_equiv_pos_as_xyz
  'x, y, z'

loop_
  _atom_site_label
  _atom_site_occupancy
  _atom_site_fract_x
  _atom_site_fract_y
  _atom_site_fract_z
  _atom_site_thermal_displace_type
  _atom_site_B_iso_or_equiv
  _atom_site_type_symbol
  Sc1      1.0000 0.27699  0.01998  0.14735  Biso   1.000  Sc
  Hf1      1.0000 0.27733  0.22698  0.39442  Biso   1.000  Hf
  Hf2      1.0000 0.71927  0.26719  0.10422  Biso   1.000  Hf
  Hf3      1.0000 0.71852  0.47853  0.35369  Biso   1.000  Hf
  O1       1.0000 0.06914  0.16849  0.07959  Biso   1.000  O 
  O2       1.0000 0.06538  0.08322  0.33156  Biso   1.000  O 
  O3       1.0000 0.92896  0.41700  0.17020  Biso   1.000  O 
  O4       1.0000 0.92889  0.33276  0.42033  Biso   1.000  O 
  O5       1.0000 0.55465  0.12951  0.24284  Biso   1.000  O 
  O6       1.0000 0.54906  0.12160  0.49174  Biso   1.000  O 
  O7       1.0000 0.44723  0.37875  0.00931  Biso   1.000  O 
  O8       1.0000 0.44463  0.37137  0.25941  Biso   1.000  O 
  Hf4      1.0000 0.27627  0.02122  0.64594  Biso   1.000  Hf
  Hf5      1.0000 0.27523  0.22756  0.89839  Biso   1.000  Hf
  Hf6      1.0000 0.71784  0.27103  0.60412  Biso   1.000  Hf
  Hf7      1.0000 0.71806  0.47853  0.85484  Biso   1.000  Hf
  O9       1.0000 0.06655  0.16831  0.58046  Biso   1.000  O 
  O10      1.0000 0.06660  0.08193  0.83003  Biso   1.000  O 
  O11      1.0000 0.92788  0.41824  0.67008  Biso   1.000  O 
  O12      1.0000 0.92843  0.33298  0.92014  Biso   1.000  O 
  O13      1.0000 0.54940  0.12857  0.74073  Biso   1.000  O 
  O14      1.0000 0.55418  0.12296  0.98912  Biso   1.000  O 
  O15      1.0000 0.44536  0.37929  0.50951  Biso   1.000  O 
  O16      1.0000 0.44512  0.37126  0.75966  Biso   1.000  O 
  Hf8      1.0000 0.27767  0.52053  0.14555  Biso   1.000  Hf
  Hf9      1.0000 0.27783  0.72968  0.39506  Biso   1.000  Hf
  Hf10     1.0000 0.71749  0.77355  0.10465  Biso   1.000  Hf
  Hf11     1.0000 0.71964  0.97990  0.35099  Biso   1.000  Hf
  O17      1.0000 0.06691  0.66709  0.07976  Biso   1.000  O 
  O18      1.0000 0.06661  0.58254  0.32954  Biso   1.000  O 
  O19      1.0000 0.92865  0.91681  0.17043  Biso   1.000  O 
  O20      1.0000 0.92870  0.83222  0.42023  Biso   1.000  O 
  O21      1.0000 0.55063  0.62765  0.24031  Biso   1.000  O 
  O22      1.0000 0.55020  0.62150  0.49063  Biso   1.000  O 
  O23      1.0000 0.45066  0.87733  0.00732  Biso   1.000  O 
  O24      1.0000 0.44692  0.86903  0.25996  Biso   1.000  O 
  Hf12     1.0000 0.27619  0.52142  0.64638  Biso   1.000  Hf
  Hf13     1.0000 0.27677  0.73038  0.89721  Biso   1.000  Hf
  Hf14     1.0000 0.71888  0.77182  0.60382  Biso   1.000  Hf
  Hf15     1.0000 0.71458  0.97939  0.85609  Biso   1.000  Hf
  O25      1.0000 0.06703  0.66811  0.58023  Biso   1.000  O 
  O26      1.0000 0.06622  0.58255  0.83029  Biso   1.000  O 
  O27      1.0000 0.92695  0.91807  0.67045  Biso   1.000  O 
  O28      1.0000 0.92945  0.83311  0.92035  Biso   1.000  O 
  O29      1.0000 0.54965  0.62937  0.74089  Biso   1.000  O 
  O30      1.0000 0.54816  0.62033  0.99094  Biso   1.000  O 
  O31      1.0000 0.44505  0.87898  0.50928  Biso   1.000  O 
  O32      1.0000 0.44403  0.87169  0.75867  Biso   1.000  O 
