data_image0
_cell_length_a       10.0088
_cell_length_b       10.3913
_cell_length_c       10.0601
_cell_angle_alpha    90
_cell_angle_beta     90
_cell_angle_gamma    90

_symmetry_space_group_name_H-M    "P 1"
_symmetry_int_tables_number       1

loop_
  _symmetry_equiv_pos_as_xyz
  'x, y, z'

loop_
  _atom_site_label
  _atom_site_occupancy
  _atom_site_fract_x
  _atom_site_fract_y
  _atom_site_fract_z
  _atom_site_thermal_displace_type
  _atom_site_B_iso_or_equiv
  _atom_site_type_symbol
  Hf1      1.0000 0.12831  0.00558  0.12241  Biso   1.000  Hf
  Hf2      1.0000 0.13242  0.23080  0.38796  Biso   1.000  Hf
  Hf3      1.0000 0.38010  0.27248  0.11833  Biso   1.000  Hf
  Hf4      1.0000 0.36880  0.48557  0.37417  Biso   1.000  Hf
  O1       1.0000 0.99914  0.15811  0.23272  Biso   1.000  O 
  O2       1.0000 0.03613  0.06419  0.45788  Biso   1.000  O 
  O3       1.0000 0.47015  0.43803  0.19614  Biso   1.000  O 
  O4       1.0000 0.46823  0.32074  0.44649  Biso   1.000  O 
  O5       1.0000 0.25223  0.12388  0.24325  Biso   1.000  O 
  O6       1.0000 0.27492  0.13285  0.49894  Biso   1.000  O 
  O7       1.0000 0.23354  0.38471  0.49896  Biso   1.000  O 
  O8       1.0000 0.23459  0.37074  0.24885  Biso   1.000  O 
  Hf5      1.0000 0.13532  0.01252  0.62708  Biso   1.000  Hf
  Hf6      1.0000 0.13542  0.23828  0.85350  Biso   1.000  Hf
  Hf7      1.0000 0.37335  0.26956  0.62230  Biso   1.000  Hf
  Hf8      1.0000 0.37114  0.49029  0.87248  Biso   1.000  Hf
  O9       1.0000 0.03349  0.17953  0.68948  Biso   1.000  O 
  O10      1.0000 0.03168  0.07149  0.94781  Biso   1.000  O 
  O11      1.0000 0.47111  0.43661  0.69365  Biso   1.000  O 
  O12      1.0000 0.47110  0.32413  0.94035  Biso   1.000  O 
  O13      1.0000 0.27181  0.11845  0.74554  Biso   1.000  O 
  O14      1.0000 0.26151  0.14683  0.99730  Biso   1.000  O 
  O15      1.0000 0.23637  0.39585  0.99586  Biso   1.000  O 
  O16      1.0000 0.23938  0.37148  0.74459  Biso   1.000  O 
  Hf9      1.0000 0.14122  0.53008  0.12509  Biso   1.000  Hf
  Hf10     1.0000 0.13831  0.73595  0.37735  Biso   1.000  Hf
  Hf11     1.0000 0.37262  0.76806  0.12417  Biso   1.000  Hf
  Hf12     1.0000 0.36882  0.98883  0.37151  Biso   1.000  Hf
  O17      1.0000 0.03486  0.68257  0.20236  Biso   1.000  O 
  O18      1.0000 0.03854  0.56895  0.44714  Biso   1.000  O 
  O19      1.0000 0.46444  0.93680  0.19336  Biso   1.000  O 
  O20      1.0000 0.47051  0.82236  0.44419  Biso   1.000  O 
  O21      1.0000 0.27834  0.62358  0.24937  Biso   1.000  O 
  O22      1.0000 0.27408  0.63496  0.49913  Biso   1.000  O 
  O23      1.0000 0.23722  0.88496  0.49775  Biso   1.000  O 
  O24      1.0000 0.23420  0.86704  0.24877  Biso   1.000  O 
  Hf13     1.0000 0.13745  0.51867  0.62444  Biso   1.000  Hf
  Hf14     1.0000 0.13637  0.73820  0.87209  Biso   1.000  Hf
  Hf15     1.0000 0.37332  0.76917  0.62333  Biso   1.000  Hf
  Hf16     1.0000 0.37137  0.98892  0.87545  Biso   1.000  Hf
  O25      1.0000 0.03915  0.68425  0.69423  Biso   1.000  O 
  O26      1.0000 0.03760  0.57328  0.94727  Biso   1.000  O 
  O27      1.0000 0.47177  0.93612  0.69718  Biso   1.000  O 
  O28      1.0000 0.47234  0.82349  0.94550  Biso   1.000  O 
  O29      1.0000 0.27355  0.61992  0.74701  Biso   1.000  O 
  O30      1.0000 0.27420  0.64300  0.99636  Biso   1.000  O 
  O31      1.0000 0.23683  0.88790  0.99673  Biso   1.000  O 
  O32      1.0000 0.23864  0.86780  0.74849  Biso   1.000  O 
  Hf17     1.0000 0.63030  0.01291  0.12421  Biso   1.000  Hf
  Hf18     1.0000 0.63304  0.23293  0.37678  Biso   1.000  Hf
  Hf19     1.0000 0.85095  0.26181  0.12850  Biso   1.000  Hf
  Hf20     1.0000 0.87223  0.48282  0.37374  Biso   1.000  Hf
  O33      1.0000 0.53201  0.17956  0.20236  Biso   1.000  O 
  O34      1.0000 0.53268  0.06873  0.44820  Biso   1.000  O 
  O35      1.0000 0.97581  0.42112  0.19630  Biso   1.000  O 
  O36      1.0000 0.96813  0.32196  0.45434  Biso   1.000  O 
  O37      1.0000 0.75564  0.11184  0.25031  Biso   1.000  O 
  O38      1.0000 0.77129  0.13686  0.49789  Biso   1.000  O 
  O39      1.0000 0.73429  0.38629  0.50010  Biso   1.000  O 
  O40      1.0000 0.72896  0.36997  0.25276  Biso   1.000  O 
  Hf21     1.0000 0.63519  0.01652  0.62325  Biso   1.000  Hf
  Hf22     1.0000 0.63668  0.23563  0.87284  Biso   1.000  Hf
  Hf23     1.0000 0.86483  0.26862  0.62549  Biso   1.000  Hf
  Hf24     1.0000 0.87144  0.48417  0.87837  Biso   1.000  Hf
  O41      1.0000 0.53928  0.18571  0.69470  Biso   1.000  O 
  O42      1.0000 0.53041  0.07513  0.94800  Biso   1.000  O 
  O43      1.0000 0.97498  0.42956  0.70517  Biso   1.000  O 
  O44      1.0000 0.97090  0.31598  0.95463  Biso   1.000  O 
  O45      1.0000 0.77168  0.11763  0.74796  Biso   1.000  O 
  O46      1.0000 0.76775  0.13251  0.99800  Biso   1.000  O 
  O47      1.0000 0.72966  0.38581  0.99902  Biso   1.000  O 
  O48      1.0000 0.73482  0.36985  0.75032  Biso   1.000  O 
  Hf25     1.0000 0.63737  0.51890  0.12517  Biso   1.000  Hf
  Hf26     1.0000 0.63850  0.73640  0.37559  Biso   1.000  Hf
  Hf27     1.0000 0.86676  0.76333  0.12585  Biso   1.000  Hf
  Hf28     1.0000 0.87776  0.99061  0.36923  Biso   1.000  Hf
  O49      1.0000 0.54183  0.68715  0.19414  Biso   1.000  O 
  O50      1.0000 0.53787  0.57045  0.44507  Biso   1.000  O 
  O51      1.0000 0.96602  0.92514  0.19425  Biso   1.000  O 
  O52      1.0000 0.97142  0.82068  0.44657  Biso   1.000  O 
  O53      1.0000 0.77456  0.61571  0.24836  Biso   1.000  O 
  O54      1.0000 0.77443  0.63571  0.49779  Biso   1.000  O 
  O55      1.0000 0.73865  0.88789  0.49615  Biso   1.000  O 
  O56      1.0000 0.73256  0.86579  0.24734  Biso   1.000  O 
  Hf29     1.0000 0.63903  0.51966  0.62411  Biso   1.000  Hf
  Hf30     1.0000 0.63894  0.73674  0.87395  Biso   1.000  Hf
  Hf31     1.0000 0.87102  0.76887  0.62305  Biso   1.000  Hf
  Hf32     1.0000 0.87197  0.98497  0.87608  Biso   1.000  Hf
  O57      1.0000 0.54085  0.68654  0.69469  Biso   1.000  O 
  O58      1.0000 0.53796  0.57319  0.94606  Biso   1.000  O 
  O59      1.0000 0.97410  0.93042  0.70183  Biso   1.000  O 
  O60      1.0000 0.97125  0.82002  0.94972  Biso   1.000  O 
  O61      1.0000 0.77615  0.61757  0.74885  Biso   1.000  O 
  O62      1.0000 0.77377  0.63478  0.99761  Biso   1.000  O 
  O63      1.0000 0.73412  0.88455  0.99760  Biso   1.000  O 
  O64      1.0000 0.73603  0.86828  0.74700  Biso   1.000  O 
  Sc1      1.0000 0.11542  0.26895  0.11351  Biso   1.000  Sc
