data_image0
_cell_length_a       10.1371
_cell_length_b       10.3344
_cell_length_c       5.28851
_cell_angle_alpha    90
_cell_angle_beta     80
_cell_angle_gamma    90

_symmetry_space_group_name_H-M    "P 1"
_symmetry_int_tables_number       1

loop_
  _symmetry_equiv_pos_as_xyz
  'x, y, z'

loop_
  _atom_site_label
  _atom_site_occupancy
  _atom_site_fract_x
  _atom_site_fract_y
  _atom_site_fract_z
  _atom_site_thermal_displace_type
  _atom_site_B_iso_or_equiv
  _atom_site_type_symbol
  Hf1      1.0000 0.14157  0.02325  0.29495  Biso   1.000  Hf
  Hf2      1.0000 0.13478  0.23150  0.78672  Biso   1.000  Hf
  Hf3      1.0000 0.33607  0.27804  0.18096  Biso   1.000  Hf
  Hf4      1.0000 0.34497  0.48738  0.70334  Biso   1.000  Hf
  O1       1.0000 0.03526  0.17197  0.16487  Biso   1.000  O 
  O2       1.0000 0.04193  0.07988  0.65786  Biso   1.000  O 
  O3       1.0000 0.44878  0.42560  0.33607  Biso   1.000  O 
  O4       1.0000 0.46340  0.34086  0.84890  Biso   1.000  O 
  O5       1.0000 0.28946  0.13421  0.48229  Biso   1.000  O 
  O6       1.0000 0.27802  0.12297  0.97236  Biso   1.000  O 
  O7       1.0000 0.20004  0.38738  0.00500  Biso   1.000  O 
  O8       1.0000 0.20569  0.37502  0.50626  Biso   1.000  O 
  Hf5      1.0000 0.12484  0.52509  0.29446  Biso   1.000  Hf
  Hf6      1.0000 0.12629  0.73019  0.79458  Biso   1.000  Hf
  Hf7      1.0000 0.34608  0.77363  0.20878  Biso   1.000  Hf
  Hf8      1.0000 0.34422  0.97677  0.70850  Biso   1.000  Hf
  O9       1.0000 0.01802  0.66834  0.16144  Biso   1.000  O 
  O10      1.0000 0.02209  0.58334  0.66271  Biso   1.000  O 
  O11      1.0000 0.45052  0.91583  0.35034  Biso   1.000  O 
  O12      1.0000 0.45359  0.83299  0.84587  Biso   1.000  O 
  O13      1.0000 0.26212  0.63159  0.48374  Biso   1.000  O 
  O14      1.0000 0.26633  0.62671  0.98195  Biso   1.000  O 
  O15      1.0000 0.20485  0.88004  0.02304  Biso   1.000  O 
  O16      1.0000 0.20707  0.87144  0.51845  Biso   1.000  O 
  Hf9      1.0000 0.64702  0.01364  0.30401  Biso   1.000  Hf
  Hf10     1.0000 0.65590  0.22298  0.82638  Biso   1.000  Hf
  Hf11     1.0000 0.85720  0.26952  0.22063  Biso   1.000  Hf
  Hf12     1.0000 0.85041  0.47778  0.71241  Biso   1.000  Hf
  O17      1.0000 0.52858  0.16015  0.15845  Biso   1.000  O 
  O18      1.0000 0.54320  0.07544  0.67128  Biso   1.000  O 
  O19      1.0000 0.95006  0.42114  0.34948  Biso   1.000  O 
  O20      1.0000 0.95673  0.32905  0.84249  Biso   1.000  O 
  O21      1.0000 0.78629  0.12600  0.50108  Biso   1.000  O 
  O22      1.0000 0.78464  0.11261  0.00488  Biso   1.000  O 
  O23      1.0000 0.71396  0.37805  0.03498  Biso   1.000  O 
  O24      1.0000 0.70252  0.36680  0.52505  Biso   1.000  O 
  Hf13     1.0000 0.62786  0.52406  0.29886  Biso   1.000  Hf
  Hf14     1.0000 0.62600  0.72721  0.79858  Biso   1.000  Hf
  Hf15     1.0000 0.84579  0.77063  0.21279  Biso   1.000  Hf
  Hf16     1.0000 0.84725  0.97573  0.71289  Biso   1.000  Hf
  O25      1.0000 0.51849  0.66785  0.16149  Biso   1.000  O 
  O26      1.0000 0.52157  0.58500  0.65702  Biso   1.000  O 
  O27      1.0000 0.94998  0.91749  0.34466  Biso   1.000  O 
  O28      1.0000 0.95406  0.83250  0.84593  Biso   1.000  O 
  O29      1.0000 0.76501  0.62939  0.48892  Biso   1.000  O 
  O30      1.0000 0.76723  0.62079  0.98433  Biso   1.000  O 
  O31      1.0000 0.70575  0.87413  0.02541  Biso   1.000  O 
  O32      1.0000 0.70996  0.86925  0.52362  Biso   1.000  O 
  Sc1      1.0000 0.49599  0.25051  0.50366  Biso   1.000  Sc
