data_image0
_cell_length_a       10.0886
_cell_length_b       10.3112
_cell_length_c       5.07315
_cell_angle_alpha    90
_cell_angle_beta     90
_cell_angle_gamma    90

_symmetry_space_group_name_H-M    "P 1"
_symmetry_int_tables_number       1

loop_
  _symmetry_equiv_pos_as_xyz
  'x, y, z'

loop_
  _atom_site_label
  _atom_site_occupancy
  _atom_site_fract_x
  _atom_site_fract_y
  _atom_site_fract_z
  _atom_site_thermal_displace_type
  _atom_site_B_iso_or_equiv
  _atom_site_type_symbol
  Hf1      1.0000 0.11618  0.97832  0.25179  Biso   1.000  Hf
  Hf2      1.0000 0.11752  0.23947  0.69529  Biso   1.000  Hf
  Hf3      1.0000 0.38571  0.26631  0.20908  Biso   1.000  Hf
  Hf4      1.0000 0.36081  0.48487  0.72884  Biso   1.000  Hf
  O1       1.0000 0.99203  0.13552  0.42954  Biso   1.000  O 
  O2       1.0000 0.01966  0.07981  0.92984  Biso   1.000  O 
  O3       1.0000 0.47142  0.43533  0.38253  Biso   1.000  O 
  O4       1.0000 0.46839  0.32865  0.88079  Biso   1.000  O 
  O5       1.0000 0.24326  0.11114  0.43738  Biso   1.000  O 
  O6       1.0000 0.26467  0.15045  0.93402  Biso   1.000  O 
  O7       1.0000 0.22090  0.38939  0.96425  Biso   1.000  O 
  O8       1.0000 0.24292  0.36273  0.45790  Biso   1.000  O 
  Hf5      1.0000 0.14405  0.52320  0.23822  Biso   1.000  Hf
  Hf6      1.0000 0.12128  0.74072  0.74171  Biso   1.000  Hf
  Hf7      1.0000 0.37614  0.76948  0.23351  Biso   1.000  Hf
  Hf8      1.0000 0.35983  0.99462  0.73070  Biso   1.000  Hf
  O9       1.0000 0.02369  0.65704  0.42150  Biso   1.000  O 
  O10      1.0000 0.02041  0.57789  0.90976  Biso   1.000  O 
  O11      1.0000 0.47054  0.93408  0.39742  Biso   1.000  O 
  O12      1.0000 0.47147  0.82875  0.89809  Biso   1.000  O 
  O13      1.0000 0.27326  0.61975  0.48330  Biso   1.000  O 
  O14      1.0000 0.25948  0.63886  0.98256  Biso   1.000  O 
  O15      1.0000 0.23544  0.89128  0.98379  Biso   1.000  O 
  O16      1.0000 0.24056  0.85651  0.49013  Biso   1.000  O 
  Hf9      1.0000 0.62519  0.00992  0.24514  Biso   1.000  Hf
  Hf10     1.0000 0.62636  0.23155  0.74759  Biso   1.000  Hf
  Hf11     1.0000 0.85113  0.26009  0.25865  Biso   1.000  Hf
  Hf12     1.0000 0.86658  0.47749  0.75402  Biso   1.000  Hf
  O17      1.0000 0.52860  0.17683  0.40794  Biso   1.000  O 
  O18      1.0000 0.51457  0.07630  0.90907  Biso   1.000  O 
  O19      1.0000 0.99342  0.39290  0.43203  Biso   1.000  O 
  O20      1.0000 0.95712  0.31853  0.92585  Biso   1.000  O 
  O21      1.0000 0.75221  0.10727  0.50675  Biso   1.000  O 
  O22      1.0000 0.76474  0.13289  0.00245  Biso   1.000  O 
  O23      1.0000 0.72340  0.38326  0.99785  Biso   1.000  O 
  O24      1.0000 0.72982  0.36608  0.50221  Biso   1.000  O 
  Hf13     1.0000 0.63377  0.51802  0.23976  Biso   1.000  Hf
  Hf14     1.0000 0.62927  0.73577  0.74798  Biso   1.000  Hf
  Hf15     1.0000 0.86581  0.75680  0.26773  Biso   1.000  Hf
  Hf16     1.0000 0.87134  0.98973  0.76397  Biso   1.000  Hf
  O25      1.0000 0.54000  0.68630  0.38825  Biso   1.000  O 
  O26      1.0000 0.52410  0.57469  0.88934  Biso   1.000  O 
  O27      1.0000 0.98826  0.88695  0.50767  Biso   1.000  O 
  O28      1.0000 0.00014  0.83813  0.00070  Biso   1.000  O 
  O29      1.0000 0.76896  0.60876  0.49530  Biso   1.000  O 
  O30      1.0000 0.76297  0.63237  0.99227  Biso   1.000  O 
  O31      1.0000 0.73757  0.88176  0.99813  Biso   1.000  O 
  O32      1.0000 0.73646  0.86342  0.49771  Biso   1.000  O 
  Sc1      1.0000 0.12075  0.24765  0.19261  Biso   1.000  Sc
