data_image0
_cell_length_a       10.1162
_cell_length_b       5.12561
_cell_length_c       10.5705
_cell_angle_alpha    90
_cell_angle_beta     90
_cell_angle_gamma    90

_symmetry_space_group_name_H-M    "P 1"
_symmetry_int_tables_number       1

loop_
  _symmetry_equiv_pos_as_xyz
  'x, y, z'

loop_
  _atom_site_label
  _atom_site_occupancy
  _atom_site_fract_x
  _atom_site_fract_y
  _atom_site_fract_z
  _atom_site_thermal_displace_type
  _atom_site_B_iso_or_equiv
  _atom_site_type_symbol
  Hf1      1.0000 0.13761  0.04004  0.17601  Biso   1.000  Hf
  Hf2      1.0000 0.12956  0.45472  0.42543  Biso   1.000  Hf
  Hf3      1.0000 0.35115  0.53150  0.18159  Biso   1.000  Hf
  Hf4      1.0000 0.35682  0.95188  0.42745  Biso   1.000  Hf
  Hf5      1.0000 0.63876  0.02459  0.07745  Biso   1.000  Hf
  Hf6      1.0000 0.63101  0.44979  0.33413  Biso   1.000  Hf
  Hf7      1.0000 0.88174  0.55168  0.07304  Biso   1.000  Hf
  Hf8      1.0000 0.85596  0.96027  0.32444  Biso   1.000  Hf
  O1       1.0000 0.03694  0.31403  0.07741  Biso   1.000  O 
  O2       1.0000 0.02125  0.18492  0.32867  Biso   1.000  O 
  O3       1.0000 0.46901  0.80144  0.08228  Biso   1.000  O 
  O4       1.0000 0.46482  0.67904  0.33021  Biso   1.000  O 
  O5       1.0000 0.26568  0.24556  0.30248  Biso   1.000  O 
  O6       1.0000 0.27616  0.24436  0.04932  Biso   1.000  O 
  O7       1.0000 0.21905  0.74584  0.30201  Biso   1.000  O 
  O8       1.0000 0.22586  0.74929  0.04893  Biso   1.000  O 
  O9       1.0000 0.51125  0.28194  0.18761  Biso   1.000  O 
  O10      1.0000 0.51985  0.17801  0.42835  Biso   1.000  O 
  O11      1.0000 0.97295  0.82740  0.17445  Biso   1.000  O 
  O12      1.0000 0.96312  0.68347  0.42127  Biso   1.000  O 
  O13      1.0000 0.76847  0.24409  0.45301  Biso   1.000  O 
  O14      1.0000 0.76166  0.26220  0.19859  Biso   1.000  O 
  O15      1.0000 0.71916  0.74779  0.45377  Biso   1.000  O 
  O16      1.0000 0.72510  0.74131  0.20344  Biso   1.000  O 
  Hf9      1.0000 0.12706  0.03943  0.67429  Biso   1.000  Hf
  Hf10     1.0000 0.13075  0.45376  0.92202  Biso   1.000  Hf
  Hf11     1.0000 0.35240  0.53925  0.67492  Biso   1.000  Hf
  Hf12     1.0000 0.35120  0.95674  0.92522  Biso   1.000  Hf
  Hf13     1.0000 0.62990  0.03631  0.57589  Biso   1.000  Hf
  Hf14     1.0000 0.63273  0.45830  0.81148  Biso   1.000  Hf
  Hf15     1.0000 0.85625  0.54546  0.57579  Biso   1.000  Hf
  Hf16     1.0000 0.85223  0.96448  0.82863  Biso   1.000  Hf
  O17      1.0000 0.02252  0.32117  0.58042  Biso   1.000  O 
  O18      1.0000 0.01981  0.17816  0.83020  Biso   1.000  O 
  O19      1.0000 0.46533  0.80536  0.57881  Biso   1.000  O 
  O20      1.0000 0.46365  0.68773  0.82753  Biso   1.000  O 
  O21      1.0000 0.26446  0.24533  0.79831  Biso   1.000  O 
  O22      1.0000 0.26555  0.24726  0.54946  Biso   1.000  O 
  O23      1.0000 0.21738  0.74563  0.79848  Biso   1.000  O 
  O24      1.0000 0.21834  0.74867  0.54997  Biso   1.000  O 
  O25      1.0000 0.51614  0.30166  0.67344  Biso   1.000  O 
  O26      1.0000 0.50988  0.20012  0.93268  Biso   1.000  O 
  O27      1.0000 0.96188  0.82163  0.67161  Biso   1.000  O 
  O28      1.0000 0.96385  0.67818  0.91724  Biso   1.000  O 
  O29      1.0000 0.75281  0.26519  0.95242  Biso   1.000  O 
  O30      1.0000 0.76866  0.24650  0.69757  Biso   1.000  O 
  O31      1.0000 0.71784  0.75604  0.94956  Biso   1.000  O 
  O32      1.0000 0.71999  0.75105  0.70098  Biso   1.000  O 
  Sc1      1.0000 0.61712  0.51292  0.06371  Biso   1.000  Sc
