data_image0
_cell_length_a       5.07528
_cell_length_b       10.3393
_cell_length_c       10.1023
_cell_angle_alpha    90
_cell_angle_beta     90
_cell_angle_gamma    90

_symmetry_space_group_name_H-M    "P 1"
_symmetry_int_tables_number       1

loop_
  _symmetry_equiv_pos_as_xyz
  'x, y, z'

loop_
  _atom_site_label
  _atom_site_occupancy
  _atom_site_fract_x
  _atom_site_fract_y
  _atom_site_fract_z
  _atom_site_thermal_displace_type
  _atom_site_B_iso_or_equiv
  _atom_site_type_symbol
  Hf1      1.0000 0.16041  0.97297  0.08858  Biso   1.000  Hf
  Hf2      1.0000 0.21122  0.23236  0.38299  Biso   1.000  Hf
  Hf3      1.0000 0.66867  0.24998  0.10690  Biso   1.000  Hf
  Hf4      1.0000 0.70007  0.47632  0.36361  Biso   1.000  Hf
  O1       1.0000 0.90008  0.17384  0.25761  Biso   1.000  O 
  O2       1.0000 0.00389  0.07610  0.47771  Biso   1.000  O 
  O3       1.0000 0.90542  0.41560  0.19541  Biso   1.000  O 
  O4       1.0000 0.90979  0.33042  0.46723  Biso   1.000  O 
  O5       1.0000 0.40964  0.11213  0.22709  Biso   1.000  O 
  O6       1.0000 0.49606  0.12841  0.48260  Biso   1.000  O 
  O7       1.0000 0.42775  0.38020  0.49086  Biso   1.000  O 
  O8       1.0000 0.41049  0.36171  0.24102  Biso   1.000  O 
  Hf5      1.0000 0.16250  0.97225  0.59320  Biso   1.000  Hf
  Hf6      1.0000 0.19266  0.24808  0.83469  Biso   1.000  Hf
  Hf7      1.0000 0.69040  0.25199  0.61291  Biso   1.000  Hf
  Hf8      1.0000 0.68992  0.47210  0.87741  Biso   1.000  Hf
  O9       1.0000 0.90366  0.15089  0.74331  Biso   1.000  O 
  O10      1.0000 0.93236  0.08529  0.00818  Biso   1.000  O 
  O11      1.0000 0.95430  0.39848  0.71982  Biso   1.000  O 
  O12      1.0000 0.87947  0.31217  0.95378  Biso   1.000  O 
  O13      1.0000 0.42099  0.10674  0.72589  Biso   1.000  O 
  O14      1.0000 0.40305  0.12259  0.97391  Biso   1.000  O 
  O15      1.0000 0.39154  0.37184  0.98919  Biso   1.000  O 
  O16      1.0000 0.45855  0.36133  0.73589  Biso   1.000  O 
  Hf9      1.0000 0.23006  0.52212  0.12349  Biso   1.000  Hf
  Hf10     1.0000 0.23224  0.73083  0.37379  Biso   1.000  Hf
  Hf11     1.0000 0.69540  0.76401  0.12661  Biso   1.000  Hf
  Hf12     1.0000 0.71080  0.01563  0.33900  Biso   1.000  Hf
  O17      1.0000 0.01260  0.67134  0.20970  Biso   1.000  O 
  O18      1.0000 0.01984  0.56819  0.44795  Biso   1.000  O 
  O19      1.0000 0.88502  0.91596  0.22650  Biso   1.000  O 
  O20      1.0000 0.97119  0.81889  0.49383  Biso   1.000  O 
  O21      1.0000 0.50335  0.61565  0.24729  Biso   1.000  O 
  O22      1.0000 0.49556  0.63018  0.49562  Biso   1.000  O 
  O23      1.0000 0.45922  0.88101  0.48296  Biso   1.000  O 
  O24      1.0000 0.40020  0.86199  0.23299  Biso   1.000  O 
  Hf13     1.0000 0.22326  0.50960  0.61679  Biso   1.000  Hf
  Hf14     1.0000 0.22079  0.71989  0.87068  Biso   1.000  Hf
  Hf15     1.0000 0.68855  0.75711  0.62715  Biso   1.000  Hf
  Hf16     1.0000 0.69553  0.00756  0.84759  Biso   1.000  Hf
  O25      1.0000 0.00232  0.65820  0.70683  Biso   1.000  O 
  O26      1.0000 0.01153  0.56230  0.95219  Biso   1.000  O 
  O27      1.0000 0.87185  0.91105  0.72647  Biso   1.000  O 
  O28      1.0000 0.94801  0.81317  0.98505  Biso   1.000  O 
  O29      1.0000 0.48996  0.60386  0.74534  Biso   1.000  O 
  O30      1.0000 0.49060  0.62105  0.99456  Biso   1.000  O 
  O31      1.0000 0.44010  0.86894  0.98174  Biso   1.000  O 
  O32      1.0000 0.38979  0.85263  0.73409  Biso   1.000  O 
  Sc1      1.0000 0.16567  0.24814  0.10705  Biso   1.000  Sc
