data_image0
_cell_length_a       10.0779
_cell_length_b       10.0779
_cell_length_c       5.09693
_cell_angle_alpha    90
_cell_angle_beta     90
_cell_angle_gamma    90

_symmetry_space_group_name_H-M    "P 1"
_symmetry_int_tables_number       1

loop_
  _symmetry_equiv_pos_as_xyz
  'x, y, z'

loop_
  _atom_site_label
  _atom_site_occupancy
  _atom_site_fract_x
  _atom_site_fract_y
  _atom_site_fract_z
  _atom_site_thermal_displace_type
  _atom_site_B_iso_or_equiv
  _atom_site_type_symbol
  Hf1      1.0000 0.12491  0.98275  0.24981  Biso   1.000  Hf
  Hf2      1.0000 0.12491  0.25005  0.74981  Biso   1.000  Hf
  Hf3      1.0000 0.39222  0.25005  0.24982  Biso   1.000  Hf
  Hf4      1.0000 0.36990  0.00506  0.74810  Biso   1.000  Hf
  O1       1.0000 0.00239  0.12753  0.98025  Biso   1.000  O 
  O2       1.0000 0.99507  0.12022  0.46949  Biso   1.000  O 
  O3       1.0000 0.00239  0.37258  0.51938  Biso   1.000  O 
  O4       1.0000 0.99506  0.37990  0.03015  Biso   1.000  O 
  O5       1.0000 0.24743  0.12754  0.51938  Biso   1.000  O 
  O6       1.0000 0.25475  0.12022  0.03014  Biso   1.000  O 
  O7       1.0000 0.24742  0.37258  0.98025  Biso   1.000  O 
  O8       1.0000 0.25475  0.37990  0.46948  Biso   1.000  O 
  Hf5      1.0000 0.12491  0.51736  0.24982  Biso   1.000  Hf
  Hf6      1.0000 0.12491  0.75005  0.74982  Biso   1.000  Hf
  Hf7      1.0000 0.37968  0.75005  0.24982  Biso   1.000  Hf
  Hf8      1.0000 0.36990  0.49504  0.75154  Biso   1.000  Hf
  O9       1.0000 0.00542  0.62734  0.96361  Biso   1.000  O 
  O10      1.0000 0.99110  0.62443  0.46752  Biso   1.000  O 
  O11      1.0000 0.00543  0.87277  0.53604  Biso   1.000  O 
  O12      1.0000 0.99110  0.87569  0.03212  Biso   1.000  O 
  O13      1.0000 0.24440  0.62734  0.53603  Biso   1.000  O 
  O14      1.0000 0.25872  0.62443  0.03212  Biso   1.000  O 
  O15      1.0000 0.24438  0.87278  0.96359  Biso   1.000  O 
  O16      1.0000 0.25872  0.87569  0.46751  Biso   1.000  O 
  Hf9      1.0000 0.62491  0.99528  0.24982  Biso   1.000  Hf
  Hf10     1.0000 0.62491  0.25005  0.74982  Biso   1.000  Hf
  Hf11     1.0000 0.85760  0.25005  0.24982  Biso   1.000  Hf
  Hf12     1.0000 0.87992  0.00506  0.75154  Biso   1.000  Hf
  O17      1.0000 0.50219  0.13058  0.96361  Biso   1.000  O 
  O18      1.0000 0.49928  0.11624  0.46752  Biso   1.000  O 
  O19      1.0000 0.50219  0.36953  0.53604  Biso   1.000  O 
  O20      1.0000 0.49927  0.38387  0.03212  Biso   1.000  O 
  O21      1.0000 0.74763  0.13057  0.53603  Biso   1.000  O 
  O22      1.0000 0.75054  0.11624  0.03211  Biso   1.000  O 
  O23      1.0000 0.74762  0.36953  0.96361  Biso   1.000  O 
  O24      1.0000 0.75054  0.38386  0.46752  Biso   1.000  O 
  Hf13     1.0000 0.62491  0.50482  0.24982  Biso   1.000  Hf
  Hf14     1.0000 0.62491  0.75005  0.74982  Biso   1.000  Hf
  Hf15     1.0000 0.87014  0.75005  0.24982  Biso   1.000  Hf
  Hf16     1.0000 0.87992  0.49504  0.74810  Biso   1.000  Hf
  O25      1.0000 0.50412  0.62927  0.95965  Biso   1.000  O 
  O26      1.0000 0.49283  0.61797  0.45891  Biso   1.000  O 
  O27      1.0000 0.50412  0.87084  0.53998  Biso   1.000  O 
  O28      1.0000 0.49282  0.88214  0.04072  Biso   1.000  O 
  O29      1.0000 0.74570  0.62926  0.53999  Biso   1.000  O 
  O30      1.0000 0.75699  0.61797  0.04073  Biso   1.000  O 
  O31      1.0000 0.74569  0.87084  0.95964  Biso   1.000  O 
  O32      1.0000 0.75700  0.88214  0.45891  Biso   1.000  O 
  Sc1      1.0000 0.12491  0.25006  0.24981  Biso   1.000  Sc
