data_image0
_cell_length_a       4.99472
_cell_length_b       10.1863
_cell_length_c       9.99934
_cell_angle_alpha    90
_cell_angle_beta     90
_cell_angle_gamma    90

_symmetry_space_group_name_H-M    "P 1"
_symmetry_int_tables_number       1

loop_
  _symmetry_equiv_pos_as_xyz
  'x, y, z'

loop_
  _atom_site_label
  _atom_site_occupancy
  _atom_site_fract_x
  _atom_site_fract_y
  _atom_site_fract_z
  _atom_site_thermal_displace_type
  _atom_site_B_iso_or_equiv
  _atom_site_type_symbol
  Sc1      1.0000 0.25154  0.00013  0.12485  Biso   1.000  Sc
  Hf1      1.0000 0.25176  0.24921  0.37307  Biso   1.000  Hf
  Hf2      1.0000 0.75157  0.24882  0.12486  Biso   1.000  Hf
  Hf3      1.0000 0.75152  0.00013  0.37002  Biso   1.000  Hf
  O1       1.0000 0.99508  0.14520  0.99722  Biso   1.000  O 
  O2       1.0000 0.00344  0.10783  0.25033  Biso   1.000  O 
  O3       1.0000 0.00304  0.35592  0.24940  Biso   1.000  O 
  O4       1.0000 0.00066  0.39528  0.99996  Biso   1.000  O 
  O5       1.0000 0.50801  0.14519  0.25250  Biso   1.000  O 
  O6       1.0000 0.49963  0.10785  0.99939  Biso   1.000  O 
  O7       1.0000 0.50010  0.35591  0.00031  Biso   1.000  O 
  O8       1.0000 0.50244  0.39526  0.24976  Biso   1.000  O 
  Hf4      1.0000 0.25152  0.00012  0.62485  Biso   1.000  Hf
  Hf5      1.0000 0.25132  0.24923  0.87665  Biso   1.000  Hf
  Hf6      1.0000 0.75154  0.24916  0.62486  Biso   1.000  Hf
  Hf7      1.0000 0.75151  0.00014  0.87968  Biso   1.000  Hf
  O9       1.0000 0.00663  0.14674  0.50091  Biso   1.000  O 
  O10      1.0000 0.99698  0.10322  0.74917  Biso   1.000  O 
  O11      1.0000 0.00180  0.35356  0.74984  Biso   1.000  O 
  O12      1.0000 0.00102  0.39664  0.49982  Biso   1.000  O 
  O13      1.0000 0.49643  0.14675  0.74880  Biso   1.000  O 
  O14      1.0000 0.50607  0.10321  0.50054  Biso   1.000  O 
  O15      1.0000 0.50125  0.35356  0.49987  Biso   1.000  O 
  O16      1.0000 0.50206  0.39664  0.74990  Biso   1.000  O 
  Hf8      1.0000 0.25158  0.50012  0.12486  Biso   1.000  Hf
  Hf9      1.0000 0.25140  0.75103  0.37307  Biso   1.000  Hf
  Hf10     1.0000 0.75162  0.75141  0.12486  Biso   1.000  Hf
  Hf11     1.0000 0.75157  0.50012  0.37488  Biso   1.000  Hf
  O17      1.0000 0.00308  0.64432  0.00032  Biso   1.000  O 
  O18      1.0000 0.00074  0.60497  0.24977  Biso   1.000  O 
  O19      1.0000 0.99516  0.85505  0.25250  Biso   1.000  O 
  O20      1.0000 0.00350  0.89242  0.99939  Biso   1.000  O 
  O21      1.0000 0.50015  0.64431  0.24941  Biso   1.000  O 
  O22      1.0000 0.50242  0.60498  0.99997  Biso   1.000  O 
  O23      1.0000 0.50806  0.85506  0.99721  Biso   1.000  O 
  O24      1.0000 0.49973  0.89240  0.25032  Biso   1.000  O 
  Hf12     1.0000 0.25155  0.50013  0.62485  Biso   1.000  Hf
  Hf13     1.0000 0.25179  0.75104  0.87666  Biso   1.000  Hf
  Hf14     1.0000 0.75160  0.75108  0.62486  Biso   1.000  Hf
  Hf15     1.0000 0.75153  0.50014  0.87481  Biso   1.000  Hf
  O25      1.0000 0.00191  0.64670  0.49988  Biso   1.000  O 
  O26      1.0000 0.00104  0.60361  0.74991  Biso   1.000  O 
  O27      1.0000 0.00674  0.85351  0.74880  Biso   1.000  O 
  O28      1.0000 0.99706  0.89703  0.50055  Biso   1.000  O 
  O29      1.0000 0.50130  0.64670  0.74986  Biso   1.000  O 
  O30      1.0000 0.50216  0.60361  0.49983  Biso   1.000  O 
  O31      1.0000 0.49650  0.85351  0.50091  Biso   1.000  O 
  O32      1.0000 0.50619  0.89704  0.74916  Biso   1.000  O 
