data_image0
_cell_length_a       10.0202
_cell_length_b       10.2484
_cell_length_c       10.5365
_cell_angle_alpha    90
_cell_angle_beta     90
_cell_angle_gamma    90

_symmetry_space_group_name_H-M    "P 1"
_symmetry_int_tables_number       1

loop_
  _symmetry_equiv_pos_as_xyz
  'x, y, z'

loop_
  _atom_site_label
  _atom_site_occupancy
  _atom_site_fract_x
  _atom_site_fract_y
  _atom_site_fract_z
  _atom_site_thermal_displace_type
  _atom_site_B_iso_or_equiv
  _atom_site_type_symbol
  Hf1      1.0000 0.13720  0.02136  0.17199  Biso   1.000  Hf
  Hf2      1.0000 0.13132  0.22807  0.42624  Biso   1.000  Hf
  Hf3      1.0000 0.34476  0.27541  0.19262  Biso   1.000  Hf
  Hf4      1.0000 0.35282  0.48226  0.42634  Biso   1.000  Hf
  Hf5      1.0000 0.64528  0.01541  0.07738  Biso   1.000  Hf
  Hf6      1.0000 0.63351  0.22763  0.33015  Biso   1.000  Hf
  Hf7      1.0000 0.85815  0.26898  0.07932  Biso   1.000  Hf
  Hf8      1.0000 0.85408  0.47888  0.32849  Biso   1.000  Hf
  O1       1.0000 0.03598  0.16544  0.08364  Biso   1.000  O 
  O2       1.0000 0.02812  0.08683  0.33228  Biso   1.000  O 
  O3       1.0000 0.45700  0.42501  0.09412  Biso   1.000  O 
  O4       1.0000 0.46070  0.33545  0.34195  Biso   1.000  O 
  O5       1.0000 0.26845  0.12282  0.30032  Biso   1.000  O 
  O6       1.0000 0.28998  0.13466  0.04262  Biso   1.000  O 
  O7       1.0000 0.20959  0.38015  0.30542  Biso   1.000  O 
  O8       1.0000 0.21401  0.38079  0.05073  Biso   1.000  O 
  O9       1.0000 0.52513  0.16125  0.17412  Biso   1.000  O 
  O10      1.0000 0.52733  0.08369  0.41800  Biso   1.000  O 
  O11      1.0000 0.96061  0.41476  0.16914  Biso   1.000  O 
  O12      1.0000 0.96143  0.33709  0.41924  Biso   1.000  O 
  O13      1.0000 0.77111  0.12444  0.45239  Biso   1.000  O 
  O14      1.0000 0.77543  0.12619  0.20422  Biso   1.000  O 
  O15      1.0000 0.71646  0.37449  0.45527  Biso   1.000  O 
  O16      1.0000 0.71643  0.37491  0.20620  Biso   1.000  O 
  Hf9      1.0000 0.13316  0.02214  0.67402  Biso   1.000  Hf
  Hf10     1.0000 0.12909  0.23204  0.92319  Biso   1.000  Hf
  Hf11     1.0000 0.35374  0.27338  0.67237  Biso   1.000  Hf
  Hf12     1.0000 0.34196  0.48562  0.92514  Biso   1.000  Hf
  Hf13     1.0000 0.63441  0.01877  0.57618  Biso   1.000  Hf
  Hf14     1.0000 0.64250  0.22560  0.80990  Biso   1.000  Hf
  Hf15     1.0000 0.85592  0.27294  0.57627  Biso   1.000  Hf
  Hf16     1.0000 0.85004  0.47966  0.83053  Biso   1.000  Hf
  O17      1.0000 0.02581  0.16392  0.58327  Biso   1.000  O 
  O18      1.0000 0.02665  0.08625  0.83338  Biso   1.000  O 
  O19      1.0000 0.45992  0.41734  0.58452  Biso   1.000  O 
  O20      1.0000 0.46211  0.33977  0.82840  Biso   1.000  O 
  O21      1.0000 0.27081  0.12611  0.79630  Biso   1.000  O 
  O22      1.0000 0.27078  0.12654  0.54723  Biso   1.000  O 
  O23      1.0000 0.21181  0.37483  0.79829  Biso   1.000  O 
  O24      1.0000 0.21614  0.37657  0.55012  Biso   1.000  O 
  O25      1.0000 0.52656  0.16557  0.66057  Biso   1.000  O 
  O26      1.0000 0.53026  0.07601  0.90839  Biso   1.000  O 
  O27      1.0000 0.95912  0.41419  0.67024  Biso   1.000  O 
  O28      1.0000 0.95127  0.33558  0.91888  Biso   1.000  O 
  O29      1.0000 0.77325  0.12023  0.95178  Biso   1.000  O 
  O30      1.0000 0.77765  0.12087  0.69709  Biso   1.000  O 
  O31      1.0000 0.69729  0.36637  0.95988  Biso   1.000  O 
  O32      1.0000 0.71880  0.37819  0.70219  Biso   1.000  O 
  Hf17     1.0000 0.13262  0.52318  0.17367  Biso   1.000  Hf
  Hf18     1.0000 0.12901  0.72964  0.42270  Biso   1.000  Hf
  Hf19     1.0000 0.35590  0.77317  0.17403  Biso   1.000  Hf
  Hf20     1.0000 0.35017  0.97767  0.42472  Biso   1.000  Hf
  Hf21     1.0000 0.63564  0.52285  0.08006  Biso   1.000  Hf
  Hf22     1.0000 0.63110  0.72941  0.32884  Biso   1.000  Hf
  Hf23     1.0000 0.85756  0.76955  0.07989  Biso   1.000  Hf
  Hf24     1.0000 0.85253  0.97920  0.32939  Biso   1.000  Hf
  O33      1.0000 0.02847  0.66476  0.08289  Biso   1.000  O 
  O34      1.0000 0.02296  0.58851  0.33301  Biso   1.000  O 
  O35      1.0000 0.46298  0.91575  0.08330  Biso   1.000  O 
  O36      1.0000 0.45971  0.83664  0.33445  Biso   1.000  O 
  O37      1.0000 0.26903  0.62632  0.29681  Biso   1.000  O 
  O38      1.0000 0.27173  0.62993  0.04578  Biso   1.000  O 
  O39      1.0000 0.21512  0.87449  0.29719  Biso   1.000  O 
  O40      1.0000 0.21790  0.87847  0.04770  Biso   1.000  O 
  O41      1.0000 0.52779  0.66789  0.16828  Biso   1.000  O 
  O42      1.0000 0.52414  0.58777  0.41874  Biso   1.000  O 
  O43      1.0000 0.96136  0.91445  0.16893  Biso   1.000  O 
  O44      1.0000 0.95840  0.83721  0.41952  Biso   1.000  O 
  O45      1.0000 0.76828  0.62454  0.45478  Biso   1.000  O 
  O46      1.0000 0.77071  0.62594  0.20547  Biso   1.000  O 
  O47      1.0000 0.71459  0.87414  0.45591  Biso   1.000  O 
  O48      1.0000 0.71941  0.87442  0.20661  Biso   1.000  O 
  Hf25     1.0000 0.12828  0.52180  0.67312  Biso   1.000  Hf
  Hf26     1.0000 0.12326  0.73145  0.92262  Biso   1.000  Hf
  Hf27     1.0000 0.34973  0.77158  0.67368  Biso   1.000  Hf
  Hf28     1.0000 0.34519  0.97815  0.92246  Biso   1.000  Hf
  Hf29     1.0000 0.63065  0.52332  0.57779  Biso   1.000  Hf
  Hf30     1.0000 0.62492  0.72783  0.82848  Biso   1.000  Hf
  Hf31     1.0000 0.85182  0.77137  0.57981  Biso   1.000  Hf
  Hf32     1.0000 0.84821  0.97783  0.82885  Biso   1.000  Hf
  O49      1.0000 0.02243  0.66379  0.58300  Biso   1.000  O 
  O50      1.0000 0.01946  0.58655  0.83359  Biso   1.000  O 
  O51      1.0000 0.45669  0.91324  0.58378  Biso   1.000  O 
  O52      1.0000 0.45303  0.83312  0.83423  Biso   1.000  O 
  O53      1.0000 0.26141  0.62657  0.79591  Biso   1.000  O 
  O54      1.0000 0.26623  0.62686  0.54660  Biso   1.000  O 
  O55      1.0000 0.21011  0.87507  0.79705  Biso   1.000  O 
  O56      1.0000 0.21255  0.87645  0.54774  Biso   1.000  O 
  O57      1.0000 0.52111  0.66436  0.66806  Biso   1.000  O 
  O58      1.0000 0.51784  0.58526  0.91921  Biso   1.000  O 
  O59      1.0000 0.95786  0.91249  0.66951  Biso   1.000  O 
  O60      1.0000 0.95237  0.83623  0.91963  Biso   1.000  O 
  O61      1.0000 0.76292  0.62254  0.95481  Biso   1.000  O 
  O62      1.0000 0.76571  0.62651  0.70532  Biso   1.000  O 
  O63      1.0000 0.70909  0.87107  0.95673  Biso   1.000  O 
  O64      1.0000 0.71181  0.87468  0.70570  Biso   1.000  O 
  Sc1      1.0000 0.49981  0.25000  0.00129  Biso   1.000  Sc
