data_image0
_cell_length_a       9.97601
_cell_length_b       5.16238
_cell_length_c       10.0183
_cell_angle_alpha    90
_cell_angle_beta     90
_cell_angle_gamma    90

_symmetry_space_group_name_H-M    "P 1"
_symmetry_int_tables_number       1

loop_
  _symmetry_equiv_pos_as_xyz
  'x, y, z'

loop_
  _atom_site_label
  _atom_site_occupancy
  _atom_site_fract_x
  _atom_site_fract_y
  _atom_site_fract_z
  _atom_site_thermal_displace_type
  _atom_site_B_iso_or_equiv
  _atom_site_type_symbol
  Sc1      1.0000 0.13598  0.03264  0.12415  Biso   1.000  Sc
  Hf1      1.0000 0.13506  0.46574  0.37471  Biso   1.000  Hf
  Hf2      1.0000 0.36232  0.53066  0.12666  Biso   1.000  Hf
  Hf3      1.0000 0.36267  0.96738  0.37428  Biso   1.000  Hf
  O1       1.0000 0.03261  0.36682  0.19764  Biso   1.000  O 
  O2       1.0000 0.03515  0.13186  0.44684  Biso   1.000  O 
  O3       1.0000 0.46456  0.86669  0.19490  Biso   1.000  O 
  O4       1.0000 0.46431  0.63215  0.44579  Biso   1.000  O 
  O5       1.0000 0.27194  0.23763  0.25062  Biso   1.000  O 
  O6       1.0000 0.27016  0.26398  0.50034  Biso   1.000  O 
  O7       1.0000 0.22890  0.76455  0.50054  Biso   1.000  O 
  O8       1.0000 0.23120  0.73156  0.25158  Biso   1.000  O 
  Hf4      1.0000 0.13421  0.03311  0.62682  Biso   1.000  Hf
  Hf5      1.0000 0.13543  0.46442  0.87799  Biso   1.000  Hf
  Hf6      1.0000 0.36516  0.53324  0.62623  Biso   1.000  Hf
  Hf7      1.0000 0.36318  0.96476  0.87816  Biso   1.000  Hf
  O9       1.0000 0.03643  0.36993  0.69408  Biso   1.000  O 
  O10      1.0000 0.03480  0.13356  0.94113  Biso   1.000  O 
  O11      1.0000 0.46365  0.86748  0.69542  Biso   1.000  O 
  O12      1.0000 0.46506  0.63157  0.94492  Biso   1.000  O 
  O13      1.0000 0.27102  0.23560  0.74991  Biso   1.000  O 
  O14      1.0000 0.27231  0.26100  0.99896  Biso   1.000  O 
  O15      1.0000 0.22962  0.75951  0.00002  Biso   1.000  O 
  O16      1.0000 0.22876  0.73581  0.75007  Biso   1.000  O 
  Hf8      1.0000 0.63366  0.03229  0.12513  Biso   1.000  Hf
  Hf9      1.0000 0.63328  0.46686  0.37525  Biso   1.000  Hf
  Hf10     1.0000 0.86586  0.53366  0.12571  Biso   1.000  Hf
  Hf11     1.0000 0.86685  0.96682  0.37472  Biso   1.000  Hf
  O17      1.0000 0.53565  0.36783  0.19400  Biso   1.000  O 
  O18      1.0000 0.53485  0.13109  0.44406  Biso   1.000  O 
  O19      1.0000 0.96494  0.86514  0.19622  Biso   1.000  O 
  O20      1.0000 0.96421  0.63151  0.44481  Biso   1.000  O 
  O21      1.0000 0.76975  0.23320  0.24868  Biso   1.000  O 
  O22      1.0000 0.76957  0.26530  0.49856  Biso   1.000  O 
  O23      1.0000 0.72960  0.76516  0.49839  Biso   1.000  O 
  O24      1.0000 0.72861  0.73380  0.24874  Biso   1.000  O 
  Hf12     1.0000 0.63356  0.03114  0.62485  Biso   1.000  Hf
  Hf13     1.0000 0.63391  0.46672  0.87518  Biso   1.000  Hf
  Hf14     1.0000 0.86600  0.53153  0.62496  Biso   1.000  Hf
  Hf15     1.0000 0.86575  0.96742  0.87526  Biso   1.000  Hf
  O25      1.0000 0.53580  0.36744  0.69388  Biso   1.000  O 
  O26      1.0000 0.53591  0.13061  0.94387  Biso   1.000  O 
  O27      1.0000 0.96302  0.86832  0.69385  Biso   1.000  O 
  O28      1.0000 0.96383  0.63142  0.94429  Biso   1.000  O 
  O29      1.0000 0.77027  0.23391  0.74841  Biso   1.000  O 
  O30      1.0000 0.77024  0.26462  0.99863  Biso   1.000  O 
  O31      1.0000 0.72919  0.76462  0.99869  Biso   1.000  O 
  O32      1.0000 0.72894  0.73373  0.74834  Biso   1.000  O 
