data_image0
_cell_length_a       4.9874
_cell_length_b       10.3261
_cell_length_c       10.0186
_cell_angle_alpha    90
_cell_angle_beta     90
_cell_angle_gamma    90

_symmetry_space_group_name_H-M    "P 1"
_symmetry_int_tables_number       1

loop_
  _symmetry_equiv_pos_as_xyz
  'x, y, z'

loop_
  _atom_site_label
  _atom_site_occupancy
  _atom_site_fract_x
  _atom_site_fract_y
  _atom_site_fract_z
  _atom_site_thermal_displace_type
  _atom_site_B_iso_or_equiv
  _atom_site_type_symbol
  Sc1      1.0000 0.26925  0.01665  0.12360  Biso   1.000  Sc
  Hf1      1.0000 0.26747  0.23146  0.37441  Biso   1.000  Hf
  Hf2      1.0000 0.72798  0.26353  0.12656  Biso   1.000  Hf
  Hf3      1.0000 0.73011  0.48339  0.37626  Biso   1.000  Hf
  O1       1.0000 0.06770  0.18433  0.19639  Biso   1.000  O 
  O2       1.0000 0.06877  0.06581  0.44598  Biso   1.000  O 
  O3       1.0000 0.92797  0.43362  0.19515  Biso   1.000  O 
  O4       1.0000 0.92767  0.31611  0.44483  Biso   1.000  O 
  O5       1.0000 0.54310  0.11921  0.25031  Biso   1.000  O 
  O6       1.0000 0.53901  0.13222  0.49970  Biso   1.000  O 
  O7       1.0000 0.45799  0.38237  0.49945  Biso   1.000  O 
  O8       1.0000 0.45724  0.36776  0.24947  Biso   1.000  O 
  Hf4      1.0000 0.26716  0.01616  0.62589  Biso   1.000  Hf
  Hf5      1.0000 0.26806  0.23142  0.87662  Biso   1.000  Hf
  Hf6      1.0000 0.73028  0.26575  0.62543  Biso   1.000  Hf
  Hf7      1.0000 0.72991  0.48279  0.87620  Biso   1.000  Hf
  O9       1.0000 0.07247  0.18494  0.69333  Biso   1.000  O 
  O10      1.0000 0.06974  0.06646  0.94030  Biso   1.000  O 
  O11      1.0000 0.92676  0.43414  0.69470  Biso   1.000  O 
  O12      1.0000 0.92891  0.31622  0.94509  Biso   1.000  O 
  O13      1.0000 0.54113  0.11733  0.74891  Biso   1.000  O 
  O14      1.0000 0.54352  0.13219  0.99808  Biso   1.000  O 
  O15      1.0000 0.45757  0.38152  0.99965  Biso   1.000  O 
  O16      1.0000 0.45825  0.36747  0.74965  Biso   1.000  O 
  Hf8      1.0000 0.26868  0.51597  0.12599  Biso   1.000  Hf
  Hf9      1.0000 0.26815  0.73477  0.37582  Biso   1.000  Hf
  Hf10     1.0000 0.72804  0.76888  0.12632  Biso   1.000  Hf
  Hf11     1.0000 0.72776  0.98371  0.37280  Biso   1.000  Hf
  O17      1.0000 0.06849  0.68299  0.19534  Biso   1.000  O 
  O18      1.0000 0.07018  0.56566  0.44518  Biso   1.000  O 
  O19      1.0000 0.92932  0.93257  0.19613  Biso   1.000  O 
  O20      1.0000 0.92823  0.81575  0.44600  Biso   1.000  O 
  O21      1.0000 0.53945  0.61658  0.24949  Biso   1.000  O 
  O22      1.0000 0.53965  0.63252  0.49960  Biso   1.000  O 
  O23      1.0000 0.45786  0.88262  0.49985  Biso   1.000  O 
  O24      1.0000 0.46111  0.86505  0.25137  Biso   1.000  O 
  Hf12     1.0000 0.26748  0.51613  0.62617  Biso   1.000  Hf
  Hf13     1.0000 0.26972  0.73426  0.87698  Biso   1.000  Hf
  Hf14     1.0000 0.73107  0.76677  0.62614  Biso   1.000  Hf
  Hf15     1.0000 0.72682  0.98342  0.87750  Biso   1.000  Hf
  O25      1.0000 0.07120  0.68394  0.69484  Biso   1.000  O 
  O26      1.0000 0.07076  0.56568  0.94480  Biso   1.000  O 
  O27      1.0000 0.92538  0.93399  0.69479  Biso   1.000  O 
  O28      1.0000 0.92769  0.81541  0.94427  Biso   1.000  O 
  O29      1.0000 0.54054  0.61765  0.74982  Biso   1.000  O 
  O30      1.0000 0.54079  0.63077  0.99987  Biso   1.000  O 
  O31      1.0000 0.45857  0.88001  0.99949  Biso   1.000  O 
  O32      1.0000 0.45612  0.86752  0.74916  Biso   1.000  O 
