data_image0
_cell_length_a       4.99291
_cell_length_b       10.1027
_cell_length_c       10.0046
_cell_angle_alpha    90
_cell_angle_beta     90
_cell_angle_gamma    90

_symmetry_space_group_name_H-M    "P 1"
_symmetry_int_tables_number       1

loop_
  _symmetry_equiv_pos_as_xyz
  'x, y, z'

loop_
  _atom_site_label
  _atom_site_occupancy
  _atom_site_fract_x
  _atom_site_fract_y
  _atom_site_fract_z
  _atom_site_thermal_displace_type
  _atom_site_B_iso_or_equiv
  _atom_site_type_symbol
  Si1      1.0000 0.24982  0.00005  0.12523  Biso   1.000  Si
  Hf1      1.0000 0.26252  0.24764  0.37269  Biso   1.000  Hf
  Hf2      1.0000 0.74981  0.25245  0.12522  Biso   1.000  Hf
  Hf3      1.0000 0.74982  0.00005  0.37419  Biso   1.000  Hf
  O1       1.0000 0.93261  0.15447  0.97436  Biso   1.000  O 
  O2       1.0000 0.05754  0.09305  0.22382  Biso   1.000  O 
  O3       1.0000 0.00067  0.35054  0.25598  Biso   1.000  O 
  O4       1.0000 0.99612  0.39775  0.00648  Biso   1.000  O 
  O5       1.0000 0.56703  0.15448  0.27610  Biso   1.000  O 
  O6       1.0000 0.44210  0.09305  0.02664  Biso   1.000  O 
  O7       1.0000 0.49897  0.35054  0.99447  Biso   1.000  O 
  O8       1.0000 0.50351  0.39775  0.24397  Biso   1.000  O 
  Hf4      1.0000 0.24982  0.00005  0.62524  Biso   1.000  Hf
  Hf5      1.0000 0.23707  0.24766  0.87775  Biso   1.000  Hf
  Hf6      1.0000 0.74978  0.24949  0.62523  Biso   1.000  Hf
  Hf7      1.0000 0.74981  0.00005  0.87627  Biso   1.000  Hf
  O9       1.0000 0.98810  0.14088  0.47956  Biso   1.000  O 
  O10      1.0000 0.00059  0.10974  0.73436  Biso   1.000  O 
  O11      1.0000 0.99753  0.35863  0.75699  Biso   1.000  O 
  O12      1.0000 0.99635  0.39100  0.50771  Biso   1.000  O 
  O13      1.0000 0.51148  0.14086  0.77090  Biso   1.000  O 
  O14      1.0000 0.49900  0.10973  0.51610  Biso   1.000  O 
  O15      1.0000 0.50199  0.35862  0.49347  Biso   1.000  O 
  O16      1.0000 0.50317  0.39099  0.74275  Biso   1.000  O 
  Hf8      1.0000 0.24977  0.50005  0.12525  Biso   1.000  Hf
  Hf9      1.0000 0.23702  0.75247  0.37269  Biso   1.000  Hf
  Hf10     1.0000 0.74973  0.74765  0.12522  Biso   1.000  Hf
  Hf11     1.0000 0.74977  0.50005  0.37824  Biso   1.000  Hf
  O17      1.0000 0.00056  0.64956  0.99447  Biso   1.000  O 
  O18      1.0000 0.99603  0.60235  0.24397  Biso   1.000  O 
  O19      1.0000 0.93250  0.84562  0.27610  Biso   1.000  O 
  O20      1.0000 0.05744  0.90705  0.02664  Biso   1.000  O 
  O21      1.0000 0.49886  0.64956  0.25597  Biso   1.000  O 
  O22      1.0000 0.50341  0.60235  0.00648  Biso   1.000  O 
  O23      1.0000 0.56692  0.84563  0.97436  Biso   1.000  O 
  O24      1.0000 0.44200  0.90705  0.22382  Biso   1.000  O 
  Hf12     1.0000 0.24977  0.50005  0.62523  Biso   1.000  Hf
  Hf13     1.0000 0.26245  0.75245  0.87776  Biso   1.000  Hf
  Hf14     1.0000 0.74974  0.75061  0.62523  Biso   1.000  Hf
  Hf15     1.0000 0.74977  0.50005  0.87224  Biso   1.000  Hf
  O25      1.0000 0.99755  0.64149  0.49347  Biso   1.000  O 
  O26      1.0000 0.99637  0.60911  0.74275  Biso   1.000  O 
  O27      1.0000 0.98804  0.85924  0.77090  Biso   1.000  O 
  O28      1.0000 0.00053  0.89037  0.51610  Biso   1.000  O 
  O29      1.0000 0.50198  0.64148  0.75699  Biso   1.000  O 
  O30      1.0000 0.50318  0.60910  0.50771  Biso   1.000  O 
  O31      1.0000 0.51143  0.85923  0.47956  Biso   1.000  O 
  O32      1.0000 0.49893  0.89036  0.73436  Biso   1.000  O 
