data_image0
_cell_length_a       5.13938
_cell_length_b       10.3279
_cell_length_c       10.4831
_cell_angle_alpha    90
_cell_angle_beta     80
_cell_angle_gamma    90

_symmetry_space_group_name_H-M    "P 1"
_symmetry_int_tables_number       1

loop_
  _symmetry_equiv_pos_as_xyz
  'x, y, z'

loop_
  _atom_site_label
  _atom_site_occupancy
  _atom_site_fract_x
  _atom_site_fract_y
  _atom_site_fract_z
  _atom_site_thermal_displace_type
  _atom_site_B_iso_or_equiv
  _atom_site_type_symbol
  Hf1      1.0000 0.27154  0.01674  0.14585  Biso   1.000  Hf
  Hf2      1.0000 0.35714  0.23481  0.39500  Biso   1.000  Hf
  Hf3      1.0000 0.69239  0.26789  0.10758  Biso   1.000  Hf
  Hf4      1.0000 0.74527  0.48674  0.35114  Biso   1.000  Hf
  O1       1.0000 0.03508  0.15283  0.07334  Biso   1.000  O 
  O2       1.0000 0.04878  0.08281  0.33189  Biso   1.000  O 
  O3       1.0000 0.94773  0.42661  0.16675  Biso   1.000  O 
  O4       1.0000 0.98324  0.33449  0.42003  Biso   1.000  O 
  O5       1.0000 0.54628  0.10757  0.24049  Biso   1.000  O 
  O6       1.0000 0.59864  0.11527  0.49391  Biso   1.000  O 
  O7       1.0000 0.43087  0.38078  0.00974  Biso   1.000  O 
  O8       1.0000 0.46968  0.39103  0.26065  Biso   1.000  O 
  Hf5      1.0000 0.30601  0.02228  0.64530  Biso   1.000  Hf
  Hf6      1.0000 0.30706  0.22911  0.89435  Biso   1.000  Hf
  Hf7      1.0000 0.76827  0.26800  0.60632  Biso   1.000  Hf
  Hf8      1.0000 0.76566  0.47681  0.85287  Biso   1.000  Hf
  O9       1.0000 0.11749  0.16862  0.57185  Biso   1.000  O 
  O10      1.0000 0.09685  0.08720  0.82199  Biso   1.000  O 
  O11      1.0000 0.97693  0.41276  0.67191  Biso   1.000  O 
  O12      1.0000 0.96358  0.33248  0.92353  Biso   1.000  O 
  O13      1.0000 0.58289  0.12889  0.74013  Biso   1.000  O 
  O14      1.0000 0.57509  0.12216  0.98822  Biso   1.000  O 
  O15      1.0000 0.50644  0.37833  0.50936  Biso   1.000  O 
  O16      1.0000 0.49167  0.37060  0.75789  Biso   1.000  O 
  Hf9      1.0000 0.29087  0.52537  0.14565  Biso   1.000  Hf
  Hf10     1.0000 0.29841  0.72690  0.39813  Biso   1.000  Hf
  Hf11     1.0000 0.73336  0.77196  0.10433  Biso   1.000  Hf
  Hf12     1.0000 0.73040  0.96835  0.35594  Biso   1.000  Hf
  O17      1.0000 0.07931  0.67096  0.07831  Biso   1.000  O 
  O18      1.0000 0.08921  0.58712  0.32797  Biso   1.000  O 
  O19      1.0000 0.94509  0.90926  0.17710  Biso   1.000  O 
  O20      1.0000 0.95555  0.83092  0.42450  Biso   1.000  O 
  O21      1.0000 0.57380  0.63290  0.24313  Biso   1.000  O 
  O22      1.0000 0.57565  0.62252  0.49182  Biso   1.000  O 
  O23      1.0000 0.45863  0.87862  0.01025  Biso   1.000  O 
  O24      1.0000 0.45424  0.86733  0.25988  Biso   1.000  O 
  Hf13     1.0000 0.31630  0.52121  0.64701  Biso   1.000  Hf
  Hf14     1.0000 0.32512  0.72775  0.89376  Biso   1.000  Hf
  Hf15     1.0000 0.76005  0.77175  0.60488  Biso   1.000  Hf
  Hf16     1.0000 0.77283  0.97880  0.85121  Biso   1.000  Hf
  O25      1.0000 0.09634  0.66305  0.58041  Biso   1.000  O 
  O26      1.0000 0.11178  0.58256  0.82726  Biso   1.000  O 
  O27      1.0000 0.97458  0.91702  0.67002  Biso   1.000  O 
  O28      1.0000 0.98780  0.83610  0.91799  Biso   1.000  O 
  O29      1.0000 0.59069  0.62735  0.73920  Biso   1.000  O 
  O30      1.0000 0.60790  0.62194  0.98706  Biso   1.000  O 
  O31      1.0000 0.47221  0.87511  0.51106  Biso   1.000  O 
  O32      1.0000 0.49649  0.87232  0.75891  Biso   1.000  O 
  Si1      1.0000 0.99539  0.24086  0.27069  Biso   1.000  Si
