data_image0
_cell_length_a       9.97194
_cell_length_b       5.06865
_cell_length_c       10.4096
_cell_angle_alpha    90
_cell_angle_beta     90
_cell_angle_gamma    90

_symmetry_space_group_name_H-M    "P 1"
_symmetry_int_tables_number       1

loop_
  _symmetry_equiv_pos_as_xyz
  'x, y, z'

loop_
  _atom_site_label
  _atom_site_occupancy
  _atom_site_fract_x
  _atom_site_fract_y
  _atom_site_fract_z
  _atom_site_thermal_displace_type
  _atom_site_B_iso_or_equiv
  _atom_site_type_symbol
  Si1      1.0000 0.11747  0.02042  0.18875  Biso   1.000  Si
  Hf1      1.0000 0.13320  0.45377  0.41380  Biso   1.000  Hf
  Hf2      1.0000 0.35462  0.55752  0.16872  Biso   1.000  Hf
  Hf3      1.0000 0.35646  0.96107  0.41711  Biso   1.000  Hf
  Hf4      1.0000 0.64004  0.04359  0.07852  Biso   1.000  Hf
  Hf5      1.0000 0.63321  0.45439  0.32771  Biso   1.000  Hf
  Hf6      1.0000 0.87593  0.52993  0.08594  Biso   1.000  Hf
  Hf7      1.0000 0.85982  0.95312  0.33199  Biso   1.000  Hf
  O1       1.0000 0.05693  0.29272  0.09381  Biso   1.000  O 
  O2       1.0000 0.03273  0.14936  0.32678  Biso   1.000  O 
  O3       1.0000 0.47401  0.83613  0.08477  Biso   1.000  O 
  O4       1.0000 0.45743  0.65677  0.33754  Biso   1.000  O 
  O5       1.0000 0.25965  0.23062  0.27105  Biso   1.000  O 
  O6       1.0000 0.30965  0.33484  0.01661  Biso   1.000  O 
  O7       1.0000 0.20978  0.75912  0.29256  Biso   1.000  O 
  O8       1.0000 0.21832  0.84782  0.06475  Biso   1.000  O 
  O9       1.0000 0.53389  0.34030  0.16376  Biso   1.000  O 
  O10      1.0000 0.52589  0.15962  0.41109  Biso   1.000  O 
  O11      1.0000 0.98122  0.82837  0.17133  Biso   1.000  O 
  O12      1.0000 0.96034  0.65726  0.41685  Biso   1.000  O 
  O13      1.0000 0.76881  0.24049  0.45612  Biso   1.000  O 
  O14      1.0000 0.77770  0.24762  0.20683  Biso   1.000  O 
  O15      1.0000 0.71802  0.74171  0.45730  Biso   1.000  O 
  O16      1.0000 0.73293  0.74587  0.20682  Biso   1.000  O 
  Hf8      1.0000 0.12805  0.03514  0.66786  Biso   1.000  Hf
  Hf9      1.0000 0.13008  0.44695  0.91950  Biso   1.000  Hf
  Hf10     1.0000 0.35438  0.54482  0.67211  Biso   1.000  Hf
  Hf11     1.0000 0.35364  0.96905  0.92659  Biso   1.000  Hf
  Hf12     1.0000 0.62658  0.03850  0.57994  Biso   1.000  Hf
  Hf13     1.0000 0.63056  0.46000  0.83137  Biso   1.000  Hf
  Hf14     1.0000 0.85387  0.53384  0.58099  Biso   1.000  Hf
  Hf15     1.0000 0.85758  0.95131  0.83258  Biso   1.000  Hf
  O17      1.0000 0.02397  0.31404  0.57569  Biso   1.000  O 
  O18      1.0000 0.02233  0.16951  0.83129  Biso   1.000  O 
  O19      1.0000 0.45891  0.83907  0.58367  Biso   1.000  O 
  O20      1.0000 0.46081  0.67577  0.83273  Biso   1.000  O 
  O21      1.0000 0.26531  0.23844  0.78406  Biso   1.000  O 
  O22      1.0000 0.26953  0.25610  0.53543  Biso   1.000  O 
  O23      1.0000 0.21672  0.74337  0.80168  Biso   1.000  O 
  O24      1.0000 0.21718  0.74916  0.54284  Biso   1.000  O 
  O25      1.0000 0.52677  0.33915  0.66349  Biso   1.000  O 
  O26      1.0000 0.52770  0.15936  0.91178  Biso   1.000  O 
  O27      1.0000 0.96463  0.81274  0.67199  Biso   1.000  O 
  O28      1.0000 0.96279  0.66475  0.92725  Biso   1.000  O 
  O29      1.0000 0.77126  0.24380  0.95930  Biso   1.000  O 
  O30      1.0000 0.76843  0.24778  0.70735  Biso   1.000  O 
  O31      1.0000 0.72068  0.73990  0.95975  Biso   1.000  O 
  O32      1.0000 0.71855  0.75174  0.70784  Biso   1.000  O 
