data_image0
_cell_length_a       10.2153
_cell_length_b       10.122
_cell_length_c       10.2153
_cell_angle_alpha    90
_cell_angle_beta     80
_cell_angle_gamma    90

_symmetry_space_group_name_H-M    "P 1"
_symmetry_int_tables_number       1

loop_
  _symmetry_equiv_pos_as_xyz
  'x, y, z'

loop_
  _atom_site_label
  _atom_site_occupancy
  _atom_site_fract_x
  _atom_site_fract_y
  _atom_site_fract_z
  _atom_site_thermal_displace_type
  _atom_site_B_iso_or_equiv
  _atom_site_type_symbol
  Hf1      1.0000 0.12137  0.99478  0.13268  Biso   1.000  Hf
  Hf2      1.0000 0.11511  0.24984  0.37985  Biso   1.000  Hf
  Hf3      1.0000 0.36936  0.25064  0.13593  Biso   1.000  Hf
  Hf4      1.0000 0.35662  0.98870  0.38215  Biso   1.000  Hf
  O1       1.0000 0.04741  0.18047  0.05099  Biso   1.000  O 
  O2       1.0000 0.03064  0.08104  0.30378  Biso   1.000  O 
  O3       1.0000 0.97587  0.33211  0.26279  Biso   1.000  O 
  O4       1.0000 0.93505  0.39357  0.99318  Biso   1.000  O 
  O5       1.0000 0.29445  0.15716  0.31290  Biso   1.000  O 
  O6       1.0000 0.29895  0.08187  0.04637  Biso   1.000  O 
  O7       1.0000 0.21010  0.32964  0.99756  Biso   1.000  O 
  O8       1.0000 0.23922  0.40435  0.25530  Biso   1.000  O 
  Hf5      1.0000 0.08987  0.98864  0.62934  Biso   1.000  Hf
  Hf6      1.0000 0.07985  0.25592  0.86489  Biso   1.000  Hf
  Hf7      1.0000 0.34359  0.25240  0.62883  Biso   1.000  Hf
  Hf8      1.0000 0.32788  0.98902  0.88158  Biso   1.000  Hf
  O9       1.0000 0.01569  0.15327  0.55187  Biso   1.000  O 
  O10      1.0000 0.00343  0.08674  0.80348  Biso   1.000  O 
  O11      1.0000 0.96329  0.34813  0.74934  Biso   1.000  O 
  O12      1.0000 0.97344  0.39576  0.50035  Biso   1.000  O 
  O13      1.0000 0.25274  0.15453  0.79796  Biso   1.000  O 
  O14      1.0000 0.26568  0.08489  0.55333  Biso   1.000  O 
  O15      1.0000 0.22723  0.34778  0.51048  Biso   1.000  O 
  O16      1.0000 0.20688  0.39815  0.75154  Biso   1.000  O 
  Hf9      1.0000 0.08882  0.54612  0.09638  Biso   1.000  Hf
  Hf10     1.0000 0.10369  0.75545  0.37952  Biso   1.000  Hf
  Hf11     1.0000 0.36760  0.75629  0.12631  Biso   1.000  Hf
  Hf12     1.0000 0.35490  0.48907  0.37831  Biso   1.000  Hf
  O17      1.0000 0.91249  0.64880  0.97030  Biso   1.000  O 
  O18      1.0000 0.92235  0.59595  0.21776  Biso   1.000  O 
  O19      1.0000 0.98227  0.84741  0.25097  Biso   1.000  O 
  O20      1.0000 0.00076  0.90774  0.00442  Biso   1.000  O 
  O21      1.0000 0.19113  0.66606  0.20536  Biso   1.000  O 
  O22      1.0000 0.16713  0.59351  0.94240  Biso   1.000  O 
  O23      1.0000 0.19603  0.84488  0.00536  Biso   1.000  O 
  O24      1.0000 0.23868  0.90145  0.25672  Biso   1.000  O 
  Hf13     1.0000 0.09181  0.49335  0.62643  Biso   1.000  Hf
  Hf14     1.0000 0.07999  0.76142  0.87932  Biso   1.000  Hf
  Hf15     1.0000 0.34030  0.75226  0.62979  Biso   1.000  Hf
  Hf16     1.0000 0.33402  0.48441  0.88147  Biso   1.000  Hf
  O25      1.0000 0.93380  0.65336  0.46276  Biso   1.000  O 
  O26      1.0000 0.91695  0.58904  0.71213  Biso   1.000  O 
  O27      1.0000 0.95337  0.84694  0.75554  Biso   1.000  O 
  O28      1.0000 0.97345  0.89545  0.50853  Biso   1.000  O 
  O29      1.0000 0.16385  0.66198  0.70462  Biso   1.000  O 
  O30      1.0000 0.18389  0.58949  0.45692  Biso   1.000  O 
  O31      1.0000 0.21982  0.84729  0.50188  Biso   1.000  O 
  O32      1.0000 0.21053  0.89809  0.75958  Biso   1.000  O 
  Hf17     1.0000 0.61471  0.99032  0.12576  Biso   1.000  Hf
  Hf18     1.0000 0.60443  0.25324  0.37855  Biso   1.000  Hf
  Hf19     1.0000 0.85133  0.25840  0.12466  Biso   1.000  Hf
  Hf20     1.0000 0.85254  0.99070  0.37817  Biso   1.000  Hf
  O33      1.0000 0.54503  0.15497  0.04398  Biso   1.000  O 
  O34      1.0000 0.53422  0.08576  0.29564  Biso   1.000  O 
  O35      1.0000 0.49269  0.34864  0.25577  Biso   1.000  O 
  O36      1.0000 0.44516  0.39406  0.00723  Biso   1.000  O 
  O37      1.0000 0.77680  0.15620  0.29512  Biso   1.000  O 
  O38      1.0000 0.79503  0.08926  0.04397  Biso   1.000  O 
  O39      1.0000 0.74238  0.35062  0.00180  Biso   1.000  O 
  O40      1.0000 0.73217  0.39984  0.24750  Biso   1.000  O 
  Hf21     1.0000 0.59004  0.98824  0.62968  Biso   1.000  Hf
  Hf22     1.0000 0.57742  0.25230  0.88167  Biso   1.000  Hf
  Hf23     1.0000 0.84308  0.25315  0.62676  Biso   1.000  Hf
  Hf24     1.0000 0.82558  0.98897  0.87947  Biso   1.000  Hf
  O41      1.0000 0.51540  0.15424  0.54718  Biso   1.000  O 
  O42      1.0000 0.50350  0.08606  0.79867  Biso   1.000  O 
  O43      1.0000 0.46279  0.34492  0.75827  Biso   1.000  O 
  O44      1.0000 0.47191  0.39560  0.50204  Biso   1.000  O 
  O45      1.0000 0.75394  0.15681  0.80018  Biso   1.000  O 
  O46      1.0000 0.76526  0.08689  0.54753  Biso   1.000  O 
  O47      1.0000 0.72626  0.34576  0.50546  Biso   1.000  O 
  O48      1.0000 0.70599  0.39589  0.75026  Biso   1.000  O 
  Hf25     1.0000 0.61368  0.49503  0.12569  Biso   1.000  Hf
  Hf26     1.0000 0.60357  0.75311  0.37718  Biso   1.000  Hf
  Hf27     1.0000 0.86361  0.76395  0.12744  Biso   1.000  Hf
  Hf28     1.0000 0.85412  0.48607  0.38243  Biso   1.000  Hf
  O49      1.0000 0.40890  0.65169  0.96639  Biso   1.000  O 
  O50      1.0000 0.44088  0.59031  0.21035  Biso   1.000  O 
  O51      1.0000 0.48256  0.84814  0.24978  Biso   1.000  O 
  O52      1.0000 0.50128  0.89714  0.00208  Biso   1.000  O 
  O53      1.0000 0.68684  0.66367  0.20280  Biso   1.000  O 
  O54      1.0000 0.65689  0.58820  0.96162  Biso   1.000  O 
  O55      1.0000 0.69705  0.84612  0.00148  Biso   1.000  O 
  O56      1.0000 0.73797  0.89979  0.25349  Biso   1.000  O 
  Hf29     1.0000 0.59016  0.49003  0.62782  Biso   1.000  Hf
  Hf30     1.0000 0.57747  0.75273  0.88104  Biso   1.000  Hf
  Hf31     1.0000 0.84047  0.75359  0.62869  Biso   1.000  Hf
  Hf32     1.0000 0.82387  0.48992  0.87566  Biso   1.000  Hf
  O57      1.0000 0.43353  0.65637  0.46239  Biso   1.000  O 
  O58      1.0000 0.41663  0.58550  0.71273  Biso   1.000  O 
  O59      1.0000 0.45512  0.84418  0.75391  Biso   1.000  O 
  O60      1.0000 0.47574  0.89612  0.50809  Biso   1.000  O 
  O61      1.0000 0.66679  0.65566  0.70973  Biso   1.000  O 
  O62      1.0000 0.68251  0.58635  0.45760  Biso   1.000  O 
  O63      1.0000 0.72035  0.84503  0.49941  Biso   1.000  O 
  O64      1.0000 0.71021  0.89688  0.75676  Biso   1.000  O 
  Si1      1.0000 0.12489  0.30775  0.13364  Biso   1.000  Si
