data_image0
_cell_length_a       5.02797
_cell_length_b       10.165
_cell_length_c       10.4922
_cell_angle_alpha    90
_cell_angle_beta     80
_cell_angle_gamma    90

_symmetry_space_group_name_H-M    "P 1"
_symmetry_int_tables_number       1

loop_
  _symmetry_equiv_pos_as_xyz
  'x, y, z'

loop_
  _atom_site_label
  _atom_site_occupancy
  _atom_site_fract_x
  _atom_site_fract_y
  _atom_site_fract_z
  _atom_site_thermal_displace_type
  _atom_site_B_iso_or_equiv
  _atom_site_type_symbol
  Si1      1.0000 0.22577  0.01869  0.15834  Biso   1.000  Si
  Hf1      1.0000 0.27041  0.22017  0.38708  Biso   1.000  Hf
  Hf2      1.0000 0.73553  0.26119  0.10278  Biso   1.000  Hf
  Hf3      1.0000 0.72508  0.47225  0.35391  Biso   1.000  Hf
  O1       1.0000 0.10181  0.14440  0.07583  Biso   1.000  O 
  O2       1.0000 0.05551  0.07849  0.31131  Biso   1.000  O 
  O3       1.0000 0.94956  0.40558  0.17700  Biso   1.000  O 
  O4       1.0000 0.93229  0.32949  0.42497  Biso   1.000  O 
  O5       1.0000 0.50938  0.10731  0.21616  Biso   1.000  O 
  O6       1.0000 0.54463  0.11669  0.47816  Biso   1.000  O 
  O7       1.0000 0.47030  0.38448  0.01224  Biso   1.000  O 
  O8       1.0000 0.46261  0.35978  0.25875  Biso   1.000  O 
  Hf4      1.0000 0.25425  0.01365  0.64468  Biso   1.000  Hf
  Hf5      1.0000 0.26855  0.21866  0.89562  Biso   1.000  Hf
  Hf6      1.0000 0.71448  0.26472  0.60329  Biso   1.000  Hf
  Hf7      1.0000 0.71418  0.47030  0.86073  Biso   1.000  Hf
  O9       1.0000 0.05167  0.15098  0.56613  Biso   1.000  O 
  O10      1.0000 0.05162  0.07996  0.82297  Biso   1.000  O 
  O11      1.0000 0.93008  0.40234  0.68037  Biso   1.000  O 
  O12      1.0000 0.93659  0.33349  0.93559  Biso   1.000  O 
  O13      1.0000 0.53464  0.11921  0.72974  Biso   1.000  O 
  O14      1.0000 0.57979  0.13693  0.96605  Biso   1.000  O 
  O15      1.0000 0.44044  0.37061  0.51005  Biso   1.000  O 
  O16      1.0000 0.44304  0.36383  0.76335  Biso   1.000  O 
  Hf8      1.0000 0.28329  0.52119  0.14592  Biso   1.000  Hf
  Hf9      1.0000 0.28409  0.72107  0.39925  Biso   1.000  Hf
  Hf10     1.0000 0.72738  0.77853  0.10898  Biso   1.000  Hf
  Hf11     1.0000 0.73094  0.96933  0.35403  Biso   1.000  Hf
  O17      1.0000 0.07394  0.66643  0.07927  Biso   1.000  O 
  O18      1.0000 0.07472  0.57806  0.32920  Biso   1.000  O 
  O19      1.0000 0.97295  0.91353  0.17490  Biso   1.000  O 
  O20      1.0000 0.93943  0.83007  0.42802  Biso   1.000  O 
  O21      1.0000 0.56285  0.62317  0.24037  Biso   1.000  O 
  O22      1.0000 0.55696  0.61342  0.49313  Biso   1.000  O 
  O23      1.0000 0.44973  0.91694  0.03501  Biso   1.000  O 
  O24      1.0000 0.46136  0.86375  0.26745  Biso   1.000  O 
  Hf12     1.0000 0.27587  0.51250  0.64824  Biso   1.000  Hf
  Hf13     1.0000 0.25681  0.72266  0.90071  Biso   1.000  Hf
  Hf14     1.0000 0.72241  0.76340  0.61117  Biso   1.000  Hf
  Hf15     1.0000 0.72202  0.97766  0.85853  Biso   1.000  Hf
  O25      1.0000 0.06699  0.65603  0.57966  Biso   1.000  O 
  O26      1.0000 0.05775  0.58102  0.82908  Biso   1.000  O 
  O27      1.0000 0.93553  0.90531  0.67910  Biso   1.000  O 
  O28      1.0000 0.90681  0.82862  0.93170  Biso   1.000  O 
  O29      1.0000 0.54578  0.62001  0.74412  Biso   1.000  O 
  O30      1.0000 0.53532  0.62257  0.99340  Biso   1.000  O 
  O31      1.0000 0.45332  0.87022  0.51571  Biso   1.000  O 
  O32      1.0000 0.44410  0.86426  0.77079  Biso   1.000  O 
