data_image0
_cell_length_a       9.90806
_cell_length_b       10.3911
_cell_length_c       4.98206
_cell_angle_alpha    90
_cell_angle_beta     90
_cell_angle_gamma    90

_symmetry_space_group_name_H-M    "P 1"
_symmetry_int_tables_number       1

loop_
  _symmetry_equiv_pos_as_xyz
  'x, y, z'

loop_
  _atom_site_label
  _atom_site_occupancy
  _atom_site_fract_x
  _atom_site_fract_y
  _atom_site_fract_z
  _atom_site_thermal_displace_type
  _atom_site_B_iso_or_equiv
  _atom_site_type_symbol
  Si1      1.0000 0.11487  0.02450  0.23505  Biso   1.000  Si
  Hf1      1.0000 0.13547  0.22490  0.72791  Biso   1.000  Hf
  Hf2      1.0000 0.37038  0.26150  0.22714  Biso   1.000  Hf
  Hf3      1.0000 0.37310  0.47919  0.74462  Biso   1.000  Hf
  O1       1.0000 0.03106  0.16787  0.38015  Biso   1.000  O 
  O2       1.0000 0.04415  0.05750  0.92914  Biso   1.000  O 
  O3       1.0000 0.46704  0.42984  0.38246  Biso   1.000  O 
  O4       1.0000 0.47576  0.31691  0.88972  Biso   1.000  O 
  O5       1.0000 0.24389  0.08440  0.45213  Biso   1.000  O 
  O6       1.0000 0.28149  0.13934  0.94912  Biso   1.000  O 
  O7       1.0000 0.23522  0.37858  0.98213  Biso   1.000  O 
  O8       1.0000 0.23625  0.35149  0.48337  Biso   1.000  O 
  Hf4      1.0000 0.13649  0.50929  0.24553  Biso   1.000  Hf
  Hf5      1.0000 0.13359  0.72137  0.75493  Biso   1.000  Hf
  Hf6      1.0000 0.36555  0.76754  0.26432  Biso   1.000  Hf
  Hf7      1.0000 0.36221  0.97904  0.75915  Biso   1.000  Hf
  O9       1.0000 0.03741  0.67684  0.39408  Biso   1.000  O 
  O10      1.0000 0.03486  0.55590  0.89867  Biso   1.000  O 
  O11      1.0000 0.47586  0.92761  0.41871  Biso   1.000  O 
  O12      1.0000 0.47089  0.81882  0.91801  Biso   1.000  O 
  O13      1.0000 0.26886  0.60168  0.49671  Biso   1.000  O 
  O14      1.0000 0.26900  0.63918  0.00113  Biso   1.000  O 
  O15      1.0000 0.22177  0.90913  0.07265  Biso   1.000  O 
  O16      1.0000 0.25391  0.84066  0.56481  Biso   1.000  O 
  Hf8      1.0000 0.63147  0.01233  0.24622  Biso   1.000  Hf
  Hf9      1.0000 0.63844  0.22582  0.74790  Biso   1.000  Hf
  Hf10     1.0000 0.86613  0.26342  0.24262  Biso   1.000  Hf
  Hf11     1.0000 0.86699  0.47726  0.74604  Biso   1.000  Hf
  O17      1.0000 0.52924  0.17746  0.40236  Biso   1.000  O 
  O18      1.0000 0.53613  0.06478  0.90301  Biso   1.000  O 
  O19      1.0000 0.97052  0.42370  0.39373  Biso   1.000  O 
  O20      1.0000 0.96803  0.30572  0.88132  Biso   1.000  O 
  O21      1.0000 0.77111  0.11048  0.48931  Biso   1.000  O 
  O22      1.0000 0.77641  0.12480  0.98877  Biso   1.000  O 
  O23      1.0000 0.73597  0.37630  0.99654  Biso   1.000  O 
  O24      1.0000 0.73063  0.36177  0.49352  Biso   1.000  O 
  Hf12     1.0000 0.63418  0.51725  0.24938  Biso   1.000  Hf
  Hf13     1.0000 0.63653  0.73386  0.75213  Biso   1.000  Hf
  Hf14     1.0000 0.87457  0.76477  0.24330  Biso   1.000  Hf
  Hf15     1.0000 0.87757  0.98138  0.74439  Biso   1.000  Hf
  O25      1.0000 0.53475  0.68101  0.40238  Biso   1.000  O 
  O26      1.0000 0.53974  0.56549  0.89168  Biso   1.000  O 
  O27      1.0000 0.99513  0.93294  0.38602  Biso   1.000  O 
  O28      1.0000 0.96876  0.81177  0.88361  Biso   1.000  O 
  O29      1.0000 0.77318  0.61235  0.49679  Biso   1.000  O 
  O30      1.0000 0.77361  0.62963  0.99773  Biso   1.000  O 
  O31      1.0000 0.73992  0.87980  0.99169  Biso   1.000  O 
  O32      1.0000 0.74609  0.86296  0.49375  Biso   1.000  O 
