data_image0
_cell_length_a       10.0114
_cell_length_b       10.4146
_cell_length_c       5.06846
_cell_angle_alpha    90
_cell_angle_beta     90
_cell_angle_gamma    90

_symmetry_space_group_name_H-M    "P 1"
_symmetry_int_tables_number       1

loop_
  _symmetry_equiv_pos_as_xyz
  'x, y, z'

loop_
  _atom_site_label
  _atom_site_occupancy
  _atom_site_fract_x
  _atom_site_fract_y
  _atom_site_fract_z
  _atom_site_thermal_displace_type
  _atom_site_B_iso_or_equiv
  _atom_site_type_symbol
  Hf1      1.0000 0.15079  0.01111  0.25813  Biso   1.000  Hf
  Hf2      1.0000 0.13789  0.22207  0.81426  Biso   1.000  Hf
  Hf3      1.0000 0.36788  0.25944  0.23921  Biso   1.000  Hf
  Hf4      1.0000 0.36391  0.48692  0.74374  Biso   1.000  Hf
  O1       1.0000 0.01689  0.16700  0.48111  Biso   1.000  O 
  O2       1.0000 0.03964  0.06256  0.93671  Biso   1.000  O 
  O3       1.0000 0.44880  0.43078  0.38665  Biso   1.000  O 
  O4       1.0000 0.46204  0.31369  0.87595  Biso   1.000  O 
  O5       1.0000 0.27182  0.11584  0.52233  Biso   1.000  O 
  O6       1.0000 0.30126  0.11158  0.99808  Biso   1.000  O 
  O7       1.0000 0.23541  0.38759  0.99663  Biso   1.000  O 
  O8       1.0000 0.19994  0.35699  0.49370  Biso   1.000  O 
  Hf5      1.0000 0.11224  0.52526  0.23295  Biso   1.000  Hf
  Hf6      1.0000 0.11821  0.73458  0.74589  Biso   1.000  Hf
  Hf7      1.0000 0.35080  0.76094  0.24628  Biso   1.000  Hf
  Hf8      1.0000 0.35433  0.97538  0.74753  Biso   1.000  Hf
  O9       1.0000 0.02137  0.68877  0.38142  Biso   1.000  O 
  O10      1.0000 0.02198  0.57008  0.88365  Biso   1.000  O 
  O11      1.0000 0.44782  0.92950  0.38074  Biso   1.000  O 
  O12      1.0000 0.45438  0.81317  0.89416  Biso   1.000  O 
  O13      1.0000 0.25297  0.61024  0.49115  Biso   1.000  O 
  O14      1.0000 0.25770  0.63419  0.98757  Biso   1.000  O 
  O15      1.0000 0.21502  0.87660  0.99905  Biso   1.000  O 
  O16      1.0000 0.21958  0.86169  0.49830  Biso   1.000  O 
  Hf9      1.0000 0.63902  0.01624  0.24071  Biso   1.000  Hf
  Hf10     1.0000 0.63337  0.23073  0.74207  Biso   1.000  Hf
  Hf11     1.0000 0.85061  0.27752  0.23299  Biso   1.000  Hf
  Hf12     1.0000 0.85269  0.48542  0.74405  Biso   1.000  Hf
  O17      1.0000 0.53463  0.17978  0.38021  Biso   1.000  O 
  O18      1.0000 0.54947  0.06091  0.87580  Biso   1.000  O 
  O19      1.0000 0.93480  0.45402  0.37903  Biso   1.000  O 
  O20      1.0000 0.94911  0.32105  0.85081  Biso   1.000  O 
  O21      1.0000 0.76786  0.11914  0.48724  Biso   1.000  O 
  O22      1.0000 0.77569  0.13618  0.98730  Biso   1.000  O 
  O23      1.0000 0.71856  0.38340  0.99730  Biso   1.000  O 
  O24      1.0000 0.71266  0.37303  0.49377  Biso   1.000  O 
  Hf13     1.0000 0.62080  0.51899  0.25421  Biso   1.000  Hf
  Hf14     1.0000 0.62484  0.73642  0.74956  Biso   1.000  Hf
  Hf15     1.0000 0.85063  0.77067  0.24535  Biso   1.000  Hf
  Hf16     1.0000 0.85133  0.99001  0.73750  Biso   1.000  Hf
  O25      1.0000 0.51612  0.67917  0.40295  Biso   1.000  O 
  O26      1.0000 0.52357  0.56768  0.89805  Biso   1.000  O 
  O27      1.0000 0.95262  0.93019  0.39905  Biso   1.000  O 
  O28      1.0000 0.94989  0.81854  0.88398  Biso   1.000  O 
  O29      1.0000 0.75310  0.62391  0.49941  Biso   1.000  O 
  O30      1.0000 0.75068  0.63495  0.00079  Biso   1.000  O 
  O31      1.0000 0.72029  0.88584  0.99168  Biso   1.000  O 
  O32      1.0000 0.71379  0.87024  0.49222  Biso   1.000  O 
  Si1      1.0000 0.10217  0.26789  0.29066  Biso   1.000  Si
