data_image0
_cell_length_a       9.99534
_cell_length_b       10.2141
_cell_length_c       10.4275
_cell_angle_alpha    90
_cell_angle_beta     90
_cell_angle_gamma    90

_symmetry_space_group_name_H-M    "P 1"
_symmetry_int_tables_number       1

loop_
  _symmetry_equiv_pos_as_xyz
  'x, y, z'

loop_
  _atom_site_label
  _atom_site_occupancy
  _atom_site_fract_x
  _atom_site_fract_y
  _atom_site_fract_z
  _atom_site_thermal_displace_type
  _atom_site_B_iso_or_equiv
  _atom_site_type_symbol
  Si1      1.0000 0.10295  0.02620  0.21264  Biso   1.000  Si
  Hf1      1.0000 0.13227  0.23790  0.42023  Biso   1.000  Hf
  Hf2      1.0000 0.35700  0.26959  0.16740  Biso   1.000  Hf
  Hf3      1.0000 0.35613  0.48376  0.42063  Biso   1.000  Hf
  Hf4      1.0000 0.63927  0.02267  0.07730  Biso   1.000  Hf
  Hf5      1.0000 0.63293  0.23285  0.32868  Biso   1.000  Hf
  Hf6      1.0000 0.86973  0.26590  0.08470  Biso   1.000  Hf
  Hf7      1.0000 0.85665  0.48260  0.32960  Biso   1.000  Hf
  O1       1.0000 0.05624  0.14682  0.10286  Biso   1.000  O 
  O2       1.0000 0.02303  0.08165  0.34403  Biso   1.000  O 
  O3       1.0000 0.46828  0.41635  0.08531  Biso   1.000  O 
  O4       1.0000 0.45951  0.33272  0.33678  Biso   1.000  O 
  O5       1.0000 0.24891  0.12189  0.27852  Biso   1.000  O 
  O6       1.0000 0.30474  0.14122  0.02579  Biso   1.000  O 
  O7       1.0000 0.22098  0.37849  0.29595  Biso   1.000  O 
  O8       1.0000 0.22203  0.37857  0.04579  Biso   1.000  O 
  O9       1.0000 0.53371  0.16849  0.16480  Biso   1.000  O 
  O10      1.0000 0.52473  0.08514  0.41181  Biso   1.000  O 
  O11      1.0000 0.96768  0.41586  0.16775  Biso   1.000  O 
  O12      1.0000 0.95814  0.33526  0.41611  Biso   1.000  O 
  O13      1.0000 0.76687  0.12577  0.45792  Biso   1.000  O 
  O14      1.0000 0.77603  0.12692  0.20789  Biso   1.000  O 
  O15      1.0000 0.71696  0.37736  0.45706  Biso   1.000  O 
  O16      1.0000 0.72476  0.37572  0.20629  Biso   1.000  O 
  Hf8      1.0000 0.12825  0.02464  0.66645  Biso   1.000  Hf
  Hf9      1.0000 0.13509  0.22650  0.92392  Biso   1.000  Hf
  Hf10     1.0000 0.35263  0.27571  0.67067  Biso   1.000  Hf
  Hf11     1.0000 0.35036  0.48292  0.92156  Biso   1.000  Hf
  Hf12     1.0000 0.62593  0.02473  0.58013  Biso   1.000  Hf
  Hf13     1.0000 0.63051  0.23479  0.83034  Biso   1.000  Hf
  Hf14     1.0000 0.85272  0.27474  0.58139  Biso   1.000  Hf
  Hf15     1.0000 0.85606  0.48125  0.83443  Biso   1.000  Hf
  O17      1.0000 0.02643  0.17317  0.58436  Biso   1.000  O 
  O18      1.0000 0.02529  0.08629  0.83419  Biso   1.000  O 
  O19      1.0000 0.45832  0.42301  0.58497  Biso   1.000  O 
  O20      1.0000 0.45813  0.33839  0.83367  Biso   1.000  O 
  O21      1.0000 0.26597  0.12552  0.78561  Biso   1.000  O 
  O22      1.0000 0.26950  0.13269  0.53631  Biso   1.000  O 
  O23      1.0000 0.21458  0.37523  0.79619  Biso   1.000  O 
  O24      1.0000 0.21512  0.38125  0.54464  Biso   1.000  O 
  O25      1.0000 0.52560  0.17344  0.66332  Biso   1.000  O 
  O26      1.0000 0.52901  0.08492  0.90992  Biso   1.000  O 
  O27      1.0000 0.95896  0.41893  0.66941  Biso   1.000  O 
  O28      1.0000 0.96018  0.33194  0.92468  Biso   1.000  O 
  O29      1.0000 0.77045  0.12888  0.95800  Biso   1.000  O 
  O30      1.0000 0.76719  0.13118  0.70631  Biso   1.000  O 
  O31      1.0000 0.71681  0.37719  0.95998  Biso   1.000  O 
  O32      1.0000 0.71626  0.38134  0.70816  Biso   1.000  O 
  Hf16     1.0000 0.13964  0.52294  0.17042  Biso   1.000  Hf
  Hf17     1.0000 0.13141  0.73307  0.41883  Biso   1.000  Hf
  Hf18     1.0000 0.35702  0.77755  0.16432  Biso   1.000  Hf
  Hf19     1.0000 0.35521  0.98515  0.41431  Biso   1.000  Hf
  Hf20     1.0000 0.64100  0.52170  0.07879  Biso   1.000  Hf
  Hf21     1.0000 0.63197  0.73053  0.32650  Biso   1.000  Hf
  Hf22     1.0000 0.86958  0.77452  0.08069  Biso   1.000  Hf
  Hf23     1.0000 0.84982  0.97939  0.33478  Biso   1.000  Hf
  O33      1.0000 0.03948  0.67092  0.08649  Biso   1.000  O 
  O34      1.0000 0.03032  0.58421  0.33535  Biso   1.000  O 
  O35      1.0000 0.47493  0.91729  0.08326  Biso   1.000  O 
  O36      1.0000 0.45596  0.83573  0.33225  Biso   1.000  O 
  O37      1.0000 0.27158  0.63349  0.29327  Biso   1.000  O 
  O38      1.0000 0.28034  0.62444  0.04342  Biso   1.000  O 
  O39      1.0000 0.20546  0.89199  0.27930  Biso   1.000  O 
  O40      1.0000 0.23631  0.87411  0.03244  Biso   1.000  O 
  O41      1.0000 0.53186  0.66923  0.16253  Biso   1.000  O 
  O42      1.0000 0.52909  0.58547  0.41339  Biso   1.000  O 
  O43      1.0000 0.97609  0.92527  0.17299  Biso   1.000  O 
  O44      1.0000 0.95720  0.83353  0.41535  Biso   1.000  O 
  O45      1.0000 0.77064  0.62678  0.45604  Biso   1.000  O 
  O46      1.0000 0.77546  0.62880  0.20600  Biso   1.000  O 
  O47      1.0000 0.71364  0.87533  0.45646  Biso   1.000  O 
  O48      1.0000 0.72781  0.87727  0.20606  Biso   1.000  O 
  Hf24     1.0000 0.13137  0.52496  0.67262  Biso   1.000  Hf
  Hf25     1.0000 0.13338  0.73767  0.91914  Biso   1.000  Hf
  Hf26     1.0000 0.35550  0.77524  0.66772  Biso   1.000  Hf
  Hf27     1.0000 0.35405  0.98489  0.91878  Biso   1.000  Hf
  Hf28     1.0000 0.63306  0.52455  0.58047  Biso   1.000  Hf
  Hf29     1.0000 0.63214  0.73403  0.82979  Biso   1.000  Hf
  Hf30     1.0000 0.85376  0.77325  0.58093  Biso   1.000  Hf
  Hf31     1.0000 0.85592  0.98494  0.82935  Biso   1.000  Hf
  O49      1.0000 0.02796  0.67046  0.58423  Biso   1.000  O 
  O50      1.0000 0.02739  0.58551  0.83764  Biso   1.000  O 
  O51      1.0000 0.45747  0.92292  0.58134  Biso   1.000  O 
  O52      1.0000 0.46005  0.83780  0.83135  Biso   1.000  O 
  O53      1.0000 0.27011  0.62751  0.79266  Biso   1.000  O 
  O54      1.0000 0.26969  0.63044  0.54281  Biso   1.000  O 
  O55      1.0000 0.21607  0.87651  0.78660  Biso   1.000  O 
  O56      1.0000 0.21733  0.88171  0.53580  Biso   1.000  O 
  O57      1.0000 0.52941  0.67266  0.66298  Biso   1.000  O 
  O58      1.0000 0.52530  0.58691  0.91343  Biso   1.000  O 
  O59      1.0000 0.95936  0.92140  0.66350  Biso   1.000  O 
  O60      1.0000 0.95834  0.83852  0.91609  Biso   1.000  O 
  O61      1.0000 0.76954  0.62966  0.95866  Biso   1.000  O 
  O62      1.0000 0.77154  0.62922  0.70830  Biso   1.000  O 
  O63      1.0000 0.71687  0.87959  0.95632  Biso   1.000  O 
  O64      1.0000 0.71696  0.88080  0.70592  Biso   1.000  O 
