data_image0
_cell_length_a       10.2308
_cell_length_b       5.29557
_cell_length_c       10.3568
_cell_angle_alpha    90
_cell_angle_beta     90
_cell_angle_gamma    90

_symmetry_space_group_name_H-M    "P 1"
_symmetry_int_tables_number       1

loop_
  _symmetry_equiv_pos_as_xyz
  'x, y, z'

loop_
  _atom_site_label
  _atom_site_occupancy
  _atom_site_fract_x
  _atom_site_fract_y
  _atom_site_fract_z
  _atom_site_thermal_displace_type
  _atom_site_B_iso_or_equiv
  _atom_site_type_symbol
  Hf1      1.0000 0.02572  0.96987  0.16122  Biso   1.000  Hf
  Hf2      1.0000 0.07246  0.49752  0.35113  Biso   1.000  Hf
  Hf3      1.0000 0.34894  0.40392  0.12117  Biso   1.000  Hf
  Hf4      1.0000 0.29728  0.92715  0.40471  Biso   1.000  Hf
  O1       1.0000 0.00215  0.29771  0.97924  Biso   1.000  O 
  O2       1.0000 0.96669  0.20813  0.24205  Biso   1.000  O 
  O3       1.0000 0.89744  0.70073  0.25848  Biso   1.000  O 
  O4       1.0000 0.94742  0.77696  0.99576  Biso   1.000  O 
  O5       1.0000 0.22373  0.29935  0.27958  Biso   1.000  O 
  O6       1.0000 0.28999  0.04995  0.05054  Biso   1.000  O 
  O7       1.0000 0.21927  0.54606  0.95362  Biso   1.000  O 
  O8       1.0000 0.14616  0.82969  0.29371  Biso   1.000  O 
  Hf5      1.0000 0.11167  0.03551  0.64025  Biso   1.000  Hf
  Hf6      1.0000 0.05470  0.53830  0.82630  Biso   1.000  Hf
  Hf7      1.0000 0.35076  0.43856  0.60309  Biso   1.000  Hf
  Hf8      1.0000 0.30709  0.91042  0.89392  Biso   1.000  Hf
  O9       1.0000 0.00170  0.25031  0.49436  Biso   1.000  O 
  O10      1.0000 0.95375  0.21984  0.74440  Biso   1.000  O 
  O11      1.0000 0.90052  0.71546  0.73814  Biso   1.000  O 
  O12      1.0000 0.95297  0.74449  0.50145  Biso   1.000  O 
  O13      1.0000 0.18143  0.38473  0.70663  Biso   1.000  O 
  O14      1.0000 0.27868  0.09133  0.53988  Biso   1.000  O 
  O15      1.0000 0.22541  0.58999  0.47964  Biso   1.000  O 
  O16      1.0000 0.13383  0.88233  0.78471  Biso   1.000  O 
  Hf9      1.0000 0.61190  0.02374  0.14590  Biso   1.000  Hf
  Hf10     1.0000 0.56134  0.52113  0.35391  Biso   1.000  Hf
  Hf11     1.0000 0.83358  0.47635  0.10369  Biso   1.000  Hf
  Hf12     1.0000 0.79794  0.92964  0.39239  Biso   1.000  Hf
  O17      1.0000 0.51759  0.22689  0.99704  Biso   1.000  O 
  O18      1.0000 0.46567  0.19937  0.25416  Biso   1.000  O 
  O19      1.0000 0.40815  0.69287  0.25066  Biso   1.000  O 
  O20      1.0000 0.43714  0.73936  0.00495  Biso   1.000  O 
  O21      1.0000 0.67968  0.38482  0.21385  Biso   1.000  O 
  O22      1.0000 0.77221  0.11813  0.03659  Biso   1.000  O 
  O23      1.0000 0.72824  0.58157  0.96302  Biso   1.000  O 
  O24      1.0000 0.63285  0.87344  0.28345  Biso   1.000  O 
  Hf13     1.0000 0.61690  0.02920  0.64766  Biso   1.000  Hf
  Hf14     1.0000 0.56478  0.50873  0.85586  Biso   1.000  Hf
  Hf15     1.0000 0.84408  0.44030  0.59477  Biso   1.000  Hf
  Hf16     1.0000 0.79567  0.93708  0.89271  Biso   1.000  Hf
  O25      1.0000 0.50468  0.25784  0.49834  Biso   1.000  O 
  O26      1.0000 0.46126  0.20439  0.75599  Biso   1.000  O 
  O27      1.0000 0.40852  0.69202  0.74970  Biso   1.000  O 
  O28      1.0000 0.45515  0.74708  0.50550  Biso   1.000  O 
  O29      1.0000 0.68513  0.38169  0.71170  Biso   1.000  O 
  O30      1.0000 0.77497  0.09096  0.53341  Biso   1.000  O 
  O31      1.0000 0.72291  0.58580  0.46235  Biso   1.000  O 
  O32      1.0000 0.63044  0.86692  0.78859  Biso   1.000  O 
  Si1      1.0000 0.10369  0.46847  0.07685  Biso   1.000  Si
