data_image0
_cell_length_a       9.92422
_cell_length_b       10.3805
_cell_length_c       9.97296
_cell_angle_alpha    90
_cell_angle_beta     90
_cell_angle_gamma    90

_symmetry_space_group_name_H-M    "P 1"
_symmetry_int_tables_number       1

loop_
  _symmetry_equiv_pos_as_xyz
  'x, y, z'

loop_
  _atom_site_label
  _atom_site_occupancy
  _atom_site_fract_x
  _atom_site_fract_y
  _atom_site_fract_z
  _atom_site_thermal_displace_type
  _atom_site_B_iso_or_equiv
  _atom_site_type_symbol
  Si1      1.0000 0.11978  0.03419  0.10887  Biso   1.000  Si
  Hf1      1.0000 0.13574  0.22165  0.36814  Biso   1.000  Hf
  Hf2      1.0000 0.37189  0.26469  0.11800  Biso   1.000  Hf
  Hf3      1.0000 0.36940  0.47622  0.37521  Biso   1.000  Hf
  O1       1.0000 0.03877  0.17659  0.17898  Biso   1.000  O 
  O2       1.0000 0.03843  0.06165  0.45177  Biso   1.000  O 
  O3       1.0000 0.46698  0.43064  0.19166  Biso   1.000  O 
  O4       1.0000 0.46911  0.31169  0.44614  Biso   1.000  O 
  O5       1.0000 0.24090  0.07948  0.24010  Biso   1.000  O 
  O6       1.0000 0.27605  0.12704  0.49367  Biso   1.000  O 
  O7       1.0000 0.23087  0.37443  0.49685  Biso   1.000  O 
  O8       1.0000 0.23667  0.35103  0.24596  Biso   1.000  O 
  Hf4      1.0000 0.14022  0.01127  0.62828  Biso   1.000  Hf
  Hf5      1.0000 0.13842  0.22895  0.87596  Biso   1.000  Hf
  Hf6      1.0000 0.36950  0.26001  0.62387  Biso   1.000  Hf
  Hf7      1.0000 0.37137  0.47934  0.87366  Biso   1.000  Hf
  O9       1.0000 0.03813  0.17608  0.69998  Biso   1.000  O 
  O10      1.0000 0.04194  0.05478  0.95447  Biso   1.000  O 
  O11      1.0000 0.46667  0.42813  0.69291  Biso   1.000  O 
  O12      1.0000 0.46863  0.30846  0.93972  Biso   1.000  O 
  O13      1.0000 0.27658  0.11217  0.75190  Biso   1.000  O 
  O14      1.0000 0.25609  0.13646  0.00569  Biso   1.000  O 
  O15      1.0000 0.23741  0.37608  0.99628  Biso   1.000  O 
  O16      1.0000 0.23283  0.36110  0.74829  Biso   1.000  O 
  Hf8      1.0000 0.13262  0.51234  0.12443  Biso   1.000  Hf
  Hf9      1.0000 0.13704  0.72458  0.37909  Biso   1.000  Hf
  Hf10     1.0000 0.36670  0.76150  0.12779  Biso   1.000  Hf
  Hf11     1.0000 0.36190  0.97446  0.37196  Biso   1.000  Hf
  O17      1.0000 0.03767  0.68060  0.19521  Biso   1.000  O 
  O18      1.0000 0.03781  0.55696  0.44629  Biso   1.000  O 
  O19      1.0000 0.47024  0.92815  0.19728  Biso   1.000  O 
  O20      1.0000 0.47197  0.81400  0.45526  Biso   1.000  O 
  O21      1.0000 0.26903  0.59959  0.24829  Biso   1.000  O 
  O22      1.0000 0.27639  0.62545  0.50108  Biso   1.000  O 
  O23      1.0000 0.23040  0.87606  0.50824  Biso   1.000  O 
  O24      1.0000 0.25345  0.83697  0.26891  Biso   1.000  O 
  Hf12     1.0000 0.13869  0.50911  0.62514  Biso   1.000  Hf
  Hf13     1.0000 0.13585  0.72675  0.87870  Biso   1.000  Hf
  Hf14     1.0000 0.36874  0.76307  0.63044  Biso   1.000  Hf
  Hf15     1.0000 0.36178  0.97768  0.88655  Biso   1.000  Hf
  O25      1.0000 0.03993  0.67750  0.69537  Biso   1.000  O 
  O26      1.0000 0.03892  0.55739  0.94545  Biso   1.000  O 
  O27      1.0000 0.46479  0.92889  0.70282  Biso   1.000  O 
  O28      1.0000 0.46144  0.80975  0.94415  Biso   1.000  O 
  O29      1.0000 0.27297  0.61200  0.75103  Biso   1.000  O 
  O30      1.0000 0.27248  0.62694  0.99960  Biso   1.000  O 
  O31      1.0000 0.21419  0.90240  0.02567  Biso   1.000  O 
  O32      1.0000 0.23067  0.86290  0.76080  Biso   1.000  O 
  Hf16     1.0000 0.63534  0.01583  0.12588  Biso   1.000  Hf
  Hf17     1.0000 0.63718  0.22741  0.37757  Biso   1.000  Hf
  Hf18     1.0000 0.86492  0.26536  0.12290  Biso   1.000  Hf
  Hf19     1.0000 0.86757  0.47817  0.37569  Biso   1.000  Hf
  O33      1.0000 0.53085  0.17881  0.20122  Biso   1.000  O 
  O34      1.0000 0.53911  0.06000  0.44288  Biso   1.000  O 
  O35      1.0000 0.96667  0.42745  0.19608  Biso   1.000  O 
  O36      1.0000 0.96609  0.30599  0.43862  Biso   1.000  O 
  O37      1.0000 0.77423  0.11474  0.24670  Biso   1.000  O 
  O38      1.0000 0.77507  0.12570  0.49714  Biso   1.000  O 
  O39      1.0000 0.73376  0.37659  0.49960  Biso   1.000  O 
  O40      1.0000 0.72927  0.36378  0.24879  Biso   1.000  O 
  Hf20     1.0000 0.63422  0.00707  0.62183  Biso   1.000  Hf
  Hf21     1.0000 0.63959  0.22471  0.87186  Biso   1.000  Hf
  Hf22     1.0000 0.87064  0.25825  0.62303  Biso   1.000  Hf
  Hf23     1.0000 0.86916  0.47670  0.87341  Biso   1.000  Hf
  O41      1.0000 0.54073  0.17775  0.69172  Biso   1.000  O 
  O42      1.0000 0.53524  0.06305  0.95196  Biso   1.000  O 
  O43      1.0000 0.96746  0.42669  0.69195  Biso   1.000  O 
  O44      1.0000 0.96793  0.30834  0.94211  Biso   1.000  O 
  O45      1.0000 0.77305  0.10803  0.74674  Biso   1.000  O 
  O46      1.0000 0.77494  0.12400  0.99614  Biso   1.000  O 
  O47      1.0000 0.73483  0.37344  0.99818  Biso   1.000  O 
  O48      1.0000 0.73363  0.35976  0.74775  Biso   1.000  O 
  Hf24     1.0000 0.63618  0.51720  0.12761  Biso   1.000  Hf
  Hf25     1.0000 0.63791  0.73173  0.37608  Biso   1.000  Hf
  Hf26     1.0000 0.87453  0.76773  0.12279  Biso   1.000  Hf
  Hf27     1.0000 0.87269  0.98106  0.37193  Biso   1.000  Hf
  O49      1.0000 0.53723  0.68251  0.19832  Biso   1.000  O 
  O50      1.0000 0.54053  0.56144  0.44218  Biso   1.000  O 
  O51      1.0000 0.99091  0.93977  0.18537  Biso   1.000  O 
  O52      1.0000 0.96679  0.81154  0.44171  Biso   1.000  O 
  O53      1.0000 0.77497  0.61425  0.24973  Biso   1.000  O 
  O54      1.0000 0.77272  0.62808  0.49994  Biso   1.000  O 
  O55      1.0000 0.73615  0.87909  0.49675  Biso   1.000  O 
  O56      1.0000 0.74167  0.86523  0.24607  Biso   1.000  O 
  Hf28     1.0000 0.63679  0.51096  0.62416  Biso   1.000  Hf
  Hf29     1.0000 0.63654  0.72710  0.87661  Biso   1.000  Hf
  Hf30     1.0000 0.87029  0.76086  0.62440  Biso   1.000  Hf
  Hf31     1.0000 0.86827  0.97663  0.87346  Biso   1.000  Hf
  O57      1.0000 0.53772  0.67610  0.69733  Biso   1.000  O 
  O58      1.0000 0.53996  0.55970  0.94783  Biso   1.000  O 
  O59      1.0000 0.96806  0.92732  0.69519  Biso   1.000  O 
  O60      1.0000 0.96404  0.80716  0.93900  Biso   1.000  O 
  O61      1.0000 0.77291  0.61074  0.74981  Biso   1.000  O 
  O62      1.0000 0.76833  0.63679  0.00044  Biso   1.000  O 
  O63      1.0000 0.73232  0.87532  0.99692  Biso   1.000  O 
  O64      1.0000 0.73190  0.85905  0.74735  Biso   1.000  O 
