data_image0
_cell_length_a       9.99899
_cell_length_b       5.21647
_cell_length_c       10.0958
_cell_angle_alpha    90
_cell_angle_beta     90
_cell_angle_gamma    90

_symmetry_space_group_name_H-M    "P 1"
_symmetry_int_tables_number       1

loop_
  _symmetry_equiv_pos_as_xyz
  'x, y, z'

loop_
  _atom_site_label
  _atom_site_occupancy
  _atom_site_fract_x
  _atom_site_fract_y
  _atom_site_fract_z
  _atom_site_thermal_displace_type
  _atom_site_B_iso_or_equiv
  _atom_site_type_symbol
  Hf1      1.0000 0.13697  0.08108  0.11891  Biso   1.000  Hf
  Hf2      1.0000 0.13645  0.45203  0.40180  Biso   1.000  Hf
  Hf3      1.0000 0.36780  0.51318  0.11949  Biso   1.000  Hf
  Hf4      1.0000 0.36861  0.96239  0.37706  Biso   1.000  Hf
  O1       1.0000 0.01823  0.36800  0.23234  Biso   1.000  O 
  O2       1.0000 0.04339  0.12282  0.45545  Biso   1.000  O 
  O3       1.0000 0.45229  0.85751  0.19536  Biso   1.000  O 
  O4       1.0000 0.46592  0.62531  0.44439  Biso   1.000  O 
  O5       1.0000 0.27173  0.22848  0.25984  Biso   1.000  O 
  O6       1.0000 0.28188  0.25245  0.50743  Biso   1.000  O 
  O7       1.0000 0.23446  0.75885  0.50175  Biso   1.000  O 
  O8       1.0000 0.20456  0.71465  0.24536  Biso   1.000  O 
  Hf5      1.0000 0.14692  0.02261  0.63058  Biso   1.000  Hf
  Hf6      1.0000 0.13648  0.45866  0.87285  Biso   1.000  Hf
  Hf7      1.0000 0.37448  0.52665  0.62920  Biso   1.000  Hf
  Hf8      1.0000 0.37534  0.95747  0.87288  Biso   1.000  Hf
  O9       1.0000 0.04714  0.36920  0.68639  Biso   1.000  O 
  O10      1.0000 0.04801  0.12016  0.94047  Biso   1.000  O 
  O11      1.0000 0.46614  0.86627  0.68953  Biso   1.000  O 
  O12      1.0000 0.47489  0.62438  0.94140  Biso   1.000  O 
  O13      1.0000 0.27692  0.22977  0.75278  Biso   1.000  O 
  O14      1.0000 0.30302  0.23683  0.99066  Biso   1.000  O 
  O15      1.0000 0.22630  0.76454  0.00432  Biso   1.000  O 
  O16      1.0000 0.23499  0.72829  0.75244  Biso   1.000  O 
  Hf9      1.0000 0.63452  0.03181  0.12747  Biso   1.000  Hf
  Hf10     1.0000 0.63839  0.46764  0.37523  Biso   1.000  Hf
  Hf11     1.0000 0.85373  0.54361  0.11503  Biso   1.000  Hf
  Hf12     1.0000 0.86490  0.97451  0.37387  Biso   1.000  Hf
  O17      1.0000 0.53406  0.35722  0.19620  Biso   1.000  O 
  O18      1.0000 0.54237  0.12846  0.44419  Biso   1.000  O 
  O19      1.0000 0.95159  0.89336  0.19438  Biso   1.000  O 
  O20      1.0000 0.96829  0.64001  0.45202  Biso   1.000  O 
  O21      1.0000 0.76699  0.23873  0.24951  Biso   1.000  O 
  O22      1.0000 0.77602  0.27113  0.49861  Biso   1.000  O 
  O23      1.0000 0.73156  0.76657  0.49728  Biso   1.000  O 
  O24      1.0000 0.72315  0.74040  0.24817  Biso   1.000  O 
  Hf13     1.0000 0.64602  0.03141  0.62283  Biso   1.000  Hf
  Hf14     1.0000 0.64487  0.45909  0.87395  Biso   1.000  Hf
  Hf15     1.0000 0.87230  0.53849  0.62828  Biso   1.000  Hf
  Hf16     1.0000 0.86416  0.96404  0.86994  Biso   1.000  Hf
  O25      1.0000 0.54290  0.36140  0.69535  Biso   1.000  O 
  O26      1.0000 0.55463  0.12208  0.94252  Biso   1.000  O 
  O27      1.0000 0.96281  0.87677  0.69159  Biso   1.000  O 
  O28      1.0000 0.94738  0.61286  0.90700  Biso   1.000  O 
  O29      1.0000 0.77883  0.23555  0.74711  Biso   1.000  O 
  O30      1.0000 0.78130  0.25615  0.99960  Biso   1.000  O 
  O31      1.0000 0.73222  0.76024  0.99936  Biso   1.000  O 
  O32      1.0000 0.72678  0.73932  0.74582  Biso   1.000  O 
  Si1      1.0000 0.10576  0.57217  0.12646  Biso   1.000  Si
