data_image0
_cell_length_a       10.0251
_cell_length_b       10.2744
_cell_length_c       10.5028
_cell_angle_alpha    90
_cell_angle_beta     90
_cell_angle_gamma    90

_symmetry_space_group_name_H-M    "P 1"
_symmetry_int_tables_number       1

loop_
  _symmetry_equiv_pos_as_xyz
  'x, y, z'

loop_
  _atom_site_label
  _atom_site_occupancy
  _atom_site_fract_x
  _atom_site_fract_y
  _atom_site_fract_z
  _atom_site_thermal_displace_type
  _atom_site_B_iso_or_equiv
  _atom_site_type_symbol
  Hf1      1.0000 0.13703  0.02107  0.17172  Biso   1.000  Hf
  Hf2      1.0000 0.13304  0.22966  0.42546  Biso   1.000  Hf
  Hf3      1.0000 0.34297  0.26928  0.18112  Biso   1.000  Hf
  Hf4      1.0000 0.36008  0.48235  0.42255  Biso   1.000  Hf
  Hf5      1.0000 0.64792  0.02264  0.06954  Biso   1.000  Hf
  Hf6      1.0000 0.63894  0.23234  0.33270  Biso   1.000  Hf
  Hf7      1.0000 0.85440  0.27004  0.08040  Biso   1.000  Hf
  Hf8      1.0000 0.86190  0.48181  0.33250  Biso   1.000  Hf
  O1       1.0000 0.03389  0.16560  0.08586  Biso   1.000  O 
  O2       1.0000 0.03180  0.08501  0.33592  Biso   1.000  O 
  O3       1.0000 0.48706  0.40078  0.08255  Biso   1.000  O 
  O4       1.0000 0.46232  0.33770  0.33150  Biso   1.000  O 
  O5       1.0000 0.27114  0.12554  0.29766  Biso   1.000  O 
  O6       1.0000 0.27631  0.12522  0.04488  Biso   1.000  O 
  O7       1.0000 0.21620  0.37640  0.29903  Biso   1.000  O 
  O8       1.0000 0.23038  0.37906  0.04782  Biso   1.000  O 
  O9       1.0000 0.51805  0.16542  0.17089  Biso   1.000  O 
  O10      1.0000 0.53083  0.08844  0.41682  Biso   1.000  O 
  O11      1.0000 0.96372  0.41766  0.16956  Biso   1.000  O 
  O12      1.0000 0.96423  0.33750  0.42074  Biso   1.000  O 
  O13      1.0000 0.77416  0.12696  0.45720  Biso   1.000  O 
  O14      1.0000 0.77716  0.12676  0.21390  Biso   1.000  O 
  O15      1.0000 0.72090  0.37485  0.45844  Biso   1.000  O 
  O16      1.0000 0.71898  0.39237  0.21478  Biso   1.000  O 
  Hf9      1.0000 0.13934  0.02403  0.67242  Biso   1.000  Hf
  Hf10     1.0000 0.13385  0.23233  0.92285  Biso   1.000  Hf
  Hf11     1.0000 0.35675  0.27610  0.67109  Biso   1.000  Hf
  Hf12     1.0000 0.35871  0.48666  0.91882  Biso   1.000  Hf
  Hf13     1.0000 0.63711  0.02423  0.57981  Biso   1.000  Hf
  Hf14     1.0000 0.63140  0.22975  0.82167  Biso   1.000  Hf
  Hf15     1.0000 0.85830  0.27346  0.58204  Biso   1.000  Hf
  Hf16     1.0000 0.86042  0.48335  0.82963  Biso   1.000  Hf
  O17      1.0000 0.03077  0.16823  0.58626  Biso   1.000  O 
  O18      1.0000 0.03465  0.08847  0.83234  Biso   1.000  O 
  O19      1.0000 0.46553  0.41782  0.58055  Biso   1.000  O 
  O20      1.0000 0.46428  0.34755  0.82553  Biso   1.000  O 
  O21      1.0000 0.27683  0.12860  0.79559  Biso   1.000  O 
  O22      1.0000 0.27353  0.12807  0.54504  Biso   1.000  O 
  O23      1.0000 0.21897  0.37765  0.79747  Biso   1.000  O 
  O24      1.0000 0.22123  0.37911  0.54666  Biso   1.000  O 
  O25      1.0000 0.52730  0.16924  0.66138  Biso   1.000  O 
  O26      1.0000 0.54142  0.06209  0.89345  Biso   1.000  O 
  O27      1.0000 0.96538  0.41814  0.66890  Biso   1.000  O 
  O28      1.0000 0.96307  0.33933  0.91874  Biso   1.000  O 
  O29      1.0000 0.79147  0.12215  0.94949  Biso   1.000  O 
  O30      1.0000 0.77552  0.12611  0.70171  Biso   1.000  O 
  O31      1.0000 0.71791  0.38932  0.95685  Biso   1.000  O 
  O32      1.0000 0.72303  0.37945  0.70635  Biso   1.000  O 
  Hf17     1.0000 0.13519  0.52378  0.17266  Biso   1.000  Hf
  Hf18     1.0000 0.13751  0.73175  0.42231  Biso   1.000  Hf
  Hf19     1.0000 0.36098  0.77552  0.17203  Biso   1.000  Hf
  Hf20     1.0000 0.35937  0.98040  0.42355  Biso   1.000  Hf
  Hf21     1.0000 0.64925  0.53778  0.08249  Biso   1.000  Hf
  Hf22     1.0000 0.63827  0.73360  0.33057  Biso   1.000  Hf
  Hf23     1.0000 0.86436  0.77610  0.07930  Biso   1.000  Hf
  Hf24     1.0000 0.85754  0.98129  0.33098  Biso   1.000  Hf
  O33      1.0000 0.03415  0.66705  0.08356  Biso   1.000  O 
  O34      1.0000 0.03271  0.58818  0.33388  Biso   1.000  O 
  O35      1.0000 0.46829  0.91990  0.08433  Biso   1.000  O 
  O36      1.0000 0.46629  0.83817  0.33401  Biso   1.000  O 
  O37      1.0000 0.27537  0.62620  0.29468  Biso   1.000  O 
  O38      1.0000 0.27899  0.62548  0.04578  Biso   1.000  O 
  O39      1.0000 0.22347  0.87607  0.29621  Biso   1.000  O 
  O40      1.0000 0.22335  0.87494  0.04669  Biso   1.000  O 
  O41      1.0000 0.53234  0.66751  0.16944  Biso   1.000  O 
  O42      1.0000 0.53137  0.58913  0.41768  Biso   1.000  O 
  O43      1.0000 0.96618  0.91723  0.16924  Biso   1.000  O 
  O44      1.0000 0.96491  0.83524  0.41721  Biso   1.000  O 
  O45      1.0000 0.77422  0.62636  0.45657  Biso   1.000  O 
  O46      1.0000 0.78104  0.63584  0.20742  Biso   1.000  O 
  O47      1.0000 0.72124  0.87700  0.45630  Biso   1.000  O 
  O48      1.0000 0.72311  0.87993  0.20412  Biso   1.000  O 
  Hf25     1.0000 0.13578  0.52387  0.67234  Biso   1.000  Hf
  Hf26     1.0000 0.13811  0.73421  0.92224  Biso   1.000  Hf
  Hf27     1.0000 0.35923  0.77288  0.67185  Biso   1.000  Hf
  Hf28     1.0000 0.36133  0.98255  0.91994  Biso   1.000  Hf
  Hf29     1.0000 0.63695  0.52369  0.57947  Biso   1.000  Hf
  Hf30     1.0000 0.63599  0.73337  0.82802  Biso   1.000  Hf
  Hf31     1.0000 0.86023  0.77379  0.57938  Biso   1.000  Hf
  Hf32     1.0000 0.86032  0.98204  0.82649  Biso   1.000  Hf
  O49      1.0000 0.03102  0.66716  0.58365  Biso   1.000  O 
  O50      1.0000 0.03153  0.59029  0.83416  Biso   1.000  O 
  O51      1.0000 0.46480  0.91661  0.58412  Biso   1.000  O 
  O52      1.0000 0.45952  0.82885  0.83608  Biso   1.000  O 
  O53      1.0000 0.27478  0.62548  0.79523  Biso   1.000  O 
  O54      1.0000 0.27418  0.62836  0.54575  Biso   1.000  O 
  O55      1.0000 0.22190  0.87719  0.79481  Biso   1.000  O 
  O56      1.0000 0.22193  0.87811  0.54553  Biso   1.000  O 
  O57      1.0000 0.53044  0.66625  0.66824  Biso   1.000  O 
  O58      1.0000 0.53114  0.59159  0.92318  Biso   1.000  O 
  O59      1.0000 0.96707  0.91754  0.66510  Biso   1.000  O 
  O60      1.0000 0.96851  0.84174  0.91779  Biso   1.000  O 
  O61      1.0000 0.77716  0.63434  0.95520  Biso   1.000  O 
  O62      1.0000 0.77421  0.62909  0.70590  Biso   1.000  O 
  O63      1.0000 0.72346  0.87735  0.95541  Biso   1.000  O 
  O64      1.0000 0.72115  0.87796  0.70484  Biso   1.000  O 
  Si1      1.0000 0.58858  0.26939  0.05046  Biso   1.000  Si
