data_image0
_cell_length_a       9.98845
_cell_length_b       10.1701
_cell_length_c       5.21562
_cell_angle_alpha    90
_cell_angle_beta     90
_cell_angle_gamma    90

_symmetry_space_group_name_H-M    "P 1"
_symmetry_int_tables_number       1

loop_
  _symmetry_equiv_pos_as_xyz
  'x, y, z'

loop_
  _atom_site_label
  _atom_site_occupancy
  _atom_site_fract_x
  _atom_site_fract_y
  _atom_site_fract_z
  _atom_site_thermal_displace_type
  _atom_site_B_iso_or_equiv
  _atom_site_type_symbol
  Si1      1.0000 0.09882  0.02741  0.42109  Biso   1.000  Si
  Hf1      1.0000 0.13538  0.23269  0.84704  Biso   1.000  Hf
  Hf2      1.0000 0.35642  0.27130  0.33567  Biso   1.000  Hf
  Hf3      1.0000 0.35316  0.48524  0.84268  Biso   1.000  Hf
  Hf4      1.0000 0.63420  0.02358  0.15703  Biso   1.000  Hf
  Hf5      1.0000 0.63248  0.23621  0.65987  Biso   1.000  Hf
  Hf6      1.0000 0.86935  0.26629  0.17408  Biso   1.000  Hf
  Hf7      1.0000 0.85919  0.48204  0.66972  Biso   1.000  Hf
  O1       1.0000 0.05486  0.14659  0.19915  Biso   1.000  O 
  O2       1.0000 0.01995  0.08453  0.68381  Biso   1.000  O 
  O3       1.0000 0.46892  0.41741  0.16837  Biso   1.000  O 
  O4       1.0000 0.46114  0.33837  0.66649  Biso   1.000  O 
  O5       1.0000 0.24515  0.12134  0.54339  Biso   1.000  O 
  O6       1.0000 0.30742  0.14627  0.03478  Biso   1.000  O 
  O7       1.0000 0.22038  0.37689  0.59632  Biso   1.000  O 
  O8       1.0000 0.22167  0.37999  0.09345  Biso   1.000  O 
  O9       1.0000 0.53183  0.17025  0.32917  Biso   1.000  O 
  O10      1.0000 0.52865  0.08519  0.81483  Biso   1.000  O 
  O11      1.0000 0.96951  0.41281  0.34731  Biso   1.000  O 
  O12      1.0000 0.96061  0.33385  0.85487  Biso   1.000  O 
  O13      1.0000 0.76846  0.12853  0.92100  Biso   1.000  O 
  O14      1.0000 0.77330  0.12920  0.41717  Biso   1.000  O 
  O15      1.0000 0.71827  0.37822  0.92255  Biso   1.000  O 
  O16      1.0000 0.72612  0.37802  0.41699  Biso   1.000  O 
  Hf8      1.0000 0.14014  0.52367  0.34463  Biso   1.000  Hf
  Hf9      1.0000 0.13354  0.73879  0.83350  Biso   1.000  Hf
  Hf10     1.0000 0.35908  0.77944  0.32132  Biso   1.000  Hf
  Hf11     1.0000 0.35739  0.98880  0.82346  Biso   1.000  Hf
  Hf12     1.0000 0.64309  0.52221  0.16035  Biso   1.000  Hf
  Hf13     1.0000 0.63292  0.73279  0.65386  Biso   1.000  Hf
  Hf14     1.0000 0.86997  0.77358  0.16558  Biso   1.000  Hf
  Hf15     1.0000 0.85151  0.98239  0.67066  Biso   1.000  Hf
  O17      1.0000 0.04100  0.67031  0.16980  Biso   1.000  O 
  O18      1.0000 0.03105  0.58511  0.67343  Biso   1.000  O 
  O19      1.0000 0.47551  0.91922  0.15687  Biso   1.000  O 
  O20      1.0000 0.45960  0.83987  0.65282  Biso   1.000  O 
  O21      1.0000 0.27270  0.63499  0.58333  Biso   1.000  O 
  O22      1.0000 0.28096  0.62521  0.08438  Biso   1.000  O 
  O23      1.0000 0.20616  0.89200  0.54179  Biso   1.000  O 
  O24      1.0000 0.24103  0.87516  0.04470  Biso   1.000  O 
  O25      1.0000 0.53423  0.67050  0.32271  Biso   1.000  O 
  O26      1.0000 0.52747  0.58826  0.82594  Biso   1.000  O 
  O27      1.0000 0.97623  0.92633  0.34438  Biso   1.000  O 
  O28      1.0000 0.95829  0.83810  0.83484  Biso   1.000  O 
  O29      1.0000 0.77118  0.62995  0.91769  Biso   1.000  O 
  O30      1.0000 0.77790  0.62885  0.41676  Biso   1.000  O 
  O31      1.0000 0.71553  0.87819  0.91484  Biso   1.000  O 
  O32      1.0000 0.72900  0.87883  0.41320  Biso   1.000  O 
