data_image0
_cell_length_a       5.04739
_cell_length_b       10.478
_cell_length_c       10.223
_cell_angle_alpha    90
_cell_angle_beta     90
_cell_angle_gamma    90

_symmetry_space_group_name_H-M    "P 1"
_symmetry_int_tables_number       1

loop_
  _symmetry_equiv_pos_as_xyz
  'x, y, z'

loop_
  _atom_site_label
  _atom_site_occupancy
  _atom_site_fract_x
  _atom_site_fract_y
  _atom_site_fract_z
  _atom_site_thermal_displace_type
  _atom_site_B_iso_or_equiv
  _atom_site_type_symbol
  Hf1      1.0000 0.27975  0.00588  0.10463  Biso   1.000  Hf
  Hf2      1.0000 0.16486  0.25485  0.40414  Biso   1.000  Hf
  Hf3      1.0000 0.56098  0.28220  0.15835  Biso   1.000  Hf
  Hf4      1.0000 0.63923  0.51793  0.38926  Biso   1.000  Hf
  O1       1.0000 0.85975  0.19822  0.26644  Biso   1.000  O 
  O2       1.0000 0.01969  0.08149  0.45934  Biso   1.000  O 
  O3       1.0000 0.77220  0.45978  0.21332  Biso   1.000  O 
  O4       1.0000 0.85491  0.35881  0.46075  Biso   1.000  O 
  O5       1.0000 0.38974  0.12596  0.25798  Biso   1.000  O 
  O6       1.0000 0.49395  0.16844  0.50054  Biso   1.000  O 
  O7       1.0000 0.37152  0.41590  0.49843  Biso   1.000  O 
  O8       1.0000 0.28034  0.38422  0.25324  Biso   1.000  O 
  Hf5      1.0000 0.24077  0.04065  0.62027  Biso   1.000  Hf
  Hf6      1.0000 0.22187  0.26047  0.84837  Biso   1.000  Hf
  Hf7      1.0000 0.68197  0.30163  0.63008  Biso   1.000  Hf
  Hf8      1.0000 0.61366  0.51246  0.85948  Biso   1.000  Hf
  O9       1.0000 0.04377  0.21513  0.66116  Biso   1.000  O 
  O10      1.0000 0.02490  0.09581  0.91226  Biso   1.000  O 
  O11      1.0000 0.80750  0.48723  0.67552  Biso   1.000  O 
  O12      1.0000 0.83694  0.33781  0.85065  Biso   1.000  O 
  O13      1.0000 0.49479  0.14718  0.74752  Biso   1.000  O 
  O14      1.0000 0.60340  0.12450  0.00926  Biso   1.000  O 
  O15      1.0000 0.33439  0.42527  0.97952  Biso   1.000  O 
  O16      1.0000 0.36241  0.40175  0.73381  Biso   1.000  O 
  Hf9      1.0000 0.14100  0.54037  0.14360  Biso   1.000  Hf
  Hf10     1.0000 0.15708  0.76671  0.38195  Biso   1.000  Hf
  Hf11     1.0000 0.62669  0.77078  0.13198  Biso   1.000  Hf
  Hf12     1.0000 0.71070  0.02370  0.35546  Biso   1.000  Hf
  O17      1.0000 0.95978  0.69918  0.20845  Biso   1.000  O 
  O18      1.0000 0.96800  0.60369  0.44997  Biso   1.000  O 
  O19      1.0000 0.82474  0.95461  0.18339  Biso   1.000  O 
  O20      1.0000 0.80856  0.84611  0.44207  Biso   1.000  O 
  O21      1.0000 0.41979  0.63901  0.26538  Biso   1.000  O 
  O22      1.0000 0.42253  0.66875  0.50814  Biso   1.000  O 
  O23      1.0000 0.34291  0.91791  0.49249  Biso   1.000  O 
  O24      1.0000 0.36302  0.88112  0.24302  Biso   1.000  O 
  Hf13     1.0000 0.16678  0.54969  0.62284  Biso   1.000  Hf
  Hf14     1.0000 0.10268  0.77589  0.87269  Biso   1.000  Hf
  Hf15     1.0000 0.61767  0.80306  0.62123  Biso   1.000  Hf
  Hf16     1.0000 0.57770  0.01344  0.86978  Biso   1.000  Hf
  O25      1.0000 0.94253  0.71821  0.69551  Biso   1.000  O 
  O26      1.0000 0.88671  0.61373  0.95283  Biso   1.000  O 
  O27      1.0000 0.80171  0.96213  0.70116  Biso   1.000  O 
  O28      1.0000 0.76707  0.85702  0.95588  Biso   1.000  O 
  O29      1.0000 0.40189  0.64997  0.76179  Biso   1.000  O 
  O30      1.0000 0.43331  0.63764  0.02170  Biso   1.000  O 
  O31      1.0000 0.28599  0.93077  0.98932  Biso   1.000  O 
  O32      1.0000 0.33165  0.89592  0.74497  Biso   1.000  O 
  Sn1      1.0000 0.02290  0.25745  0.05876  Biso   1.000  Sn
