data_image0
_cell_length_a       9.95588
_cell_length_b       10.3678
_cell_length_c       9.99994
_cell_angle_alpha    90
_cell_angle_beta     90
_cell_angle_gamma    90

_symmetry_space_group_name_H-M    "P 1"
_symmetry_int_tables_number       1

loop_
  _symmetry_equiv_pos_as_xyz
  'x, y, z'

loop_
  _atom_site_label
  _atom_site_occupancy
  _atom_site_fract_x
  _atom_site_fract_y
  _atom_site_fract_z
  _atom_site_thermal_displace_type
  _atom_site_B_iso_or_equiv
  _atom_site_type_symbol
  Sn1      1.0000 0.13156  0.01805  0.12124  Biso   1.000  Sn
  Hf1      1.0000 0.13517  0.23243  0.37635  Biso   1.000  Hf
  Hf2      1.0000 0.36658  0.26646  0.12614  Biso   1.000  Hf
  Hf3      1.0000 0.36693  0.48324  0.37627  Biso   1.000  Hf
  O1       1.0000 0.03622  0.18407  0.19446  Biso   1.000  O 
  O2       1.0000 0.03747  0.06525  0.44547  Biso   1.000  O 
  O3       1.0000 0.46423  0.43417  0.19413  Biso   1.000  O 
  O4       1.0000 0.46459  0.31539  0.44417  Biso   1.000  O 
  O5       1.0000 0.27018  0.11592  0.24931  Biso   1.000  O 
  O6       1.0000 0.27218  0.13192  0.49970  Biso   1.000  O 
  O7       1.0000 0.23033  0.38184  0.49993  Biso   1.000  O 
  O8       1.0000 0.23042  0.36692  0.25013  Biso   1.000  O 
  Hf4      1.0000 0.13505  0.01622  0.62700  Biso   1.000  Hf
  Hf5      1.0000 0.13538  0.23467  0.87500  Biso   1.000  Hf
  Hf6      1.0000 0.36739  0.26619  0.62588  Biso   1.000  Hf
  Hf7      1.0000 0.36752  0.48346  0.87599  Biso   1.000  Hf
  O9       1.0000 0.03801  0.18483  0.69364  Biso   1.000  O 
  O10      1.0000 0.03681  0.06558  0.93999  Biso   1.000  O 
  O11      1.0000 0.46492  0.43404  0.69423  Biso   1.000  O 
  O12      1.0000 0.46456  0.31457  0.94371  Biso   1.000  O 
  O13      1.0000 0.27249  0.11788  0.74972  Biso   1.000  O 
  O14      1.0000 0.27158  0.13186  0.99934  Biso   1.000  O 
  O15      1.0000 0.23119  0.38201  0.99968  Biso   1.000  O 
  O16      1.0000 0.23081  0.36789  0.74953  Biso   1.000  O 
  Hf8      1.0000 0.13456  0.51612  0.12642  Biso   1.000  Hf
  Hf9      1.0000 0.13509  0.73364  0.37620  Biso   1.000  Hf
  Hf10     1.0000 0.36675  0.76580  0.12718  Biso   1.000  Hf
  Hf11     1.0000 0.36635  0.98273  0.37627  Biso   1.000  Hf
  O17      1.0000 0.03715  0.68366  0.19429  Biso   1.000  O 
  O18      1.0000 0.03733  0.56497  0.44434  Biso   1.000  O 
  O19      1.0000 0.46567  0.93341  0.19489  Biso   1.000  O 
  O20      1.0000 0.46499  0.81526  0.44508  Biso   1.000  O 
  O21      1.0000 0.27144  0.61631  0.25003  Biso   1.000  O 
  O22      1.0000 0.27173  0.63214  0.50011  Biso   1.000  O 
  O23      1.0000 0.23035  0.88204  0.50143  Biso   1.000  O 
  O24      1.0000 0.23277  0.86479  0.25207  Biso   1.000  O 
  Hf12     1.0000 0.13511  0.51630  0.62584  Biso   1.000  Hf
  Hf13     1.0000 0.13496  0.73293  0.87660  Biso   1.000  Hf
  Hf14     1.0000 0.36692  0.76617  0.62666  Biso   1.000  Hf
  Hf15     1.0000 0.36805  0.98368  0.87611  Biso   1.000  Hf
  O25      1.0000 0.03750  0.68401  0.69470  Biso   1.000  O 
  O26      1.0000 0.03762  0.56503  0.94467  Biso   1.000  O 
  O27      1.0000 0.46465  0.93418  0.69421  Biso   1.000  O 
  O28      1.0000 0.46317  0.81487  0.94357  Biso   1.000  O 
  O29      1.0000 0.27163  0.61736  0.75016  Biso   1.000  O 
  O30      1.0000 0.27031  0.63296  0.00010  Biso   1.000  O 
  O31      1.0000 0.22853  0.88349  0.00276  Biso   1.000  O 
  O32      1.0000 0.23070  0.86744  0.75162  Biso   1.000  O 
  Hf16     1.0000 0.63453  0.01617  0.12645  Biso   1.000  Hf
  Hf17     1.0000 0.63483  0.23308  0.37607  Biso   1.000  Hf
  Hf18     1.0000 0.86567  0.26628  0.12566  Biso   1.000  Hf
  Hf19     1.0000 0.86711  0.48313  0.37601  Biso   1.000  Hf
  O33      1.0000 0.53660  0.18422  0.19428  Biso   1.000  O 
  O34      1.0000 0.53743  0.06527  0.44393  Biso   1.000  O 
  O35      1.0000 0.96445  0.43325  0.19431  Biso   1.000  O 
  O36      1.0000 0.96437  0.31494  0.44367  Biso   1.000  O 
  O37      1.0000 0.77073  0.11742  0.25004  Biso   1.000  O 
  O38      1.0000 0.77176  0.13199  0.49972  Biso   1.000  O 
  O39      1.0000 0.73044  0.38197  0.49983  Biso   1.000  O 
  O40      1.0000 0.72983  0.36743  0.24979  Biso   1.000  O 
  Hf20     1.0000 0.63481  0.01599  0.62542  Biso   1.000  Hf
  Hf21     1.0000 0.63551  0.23299  0.87584  Biso   1.000  Hf
  Hf22     1.0000 0.86711  0.26609  0.62566  Biso   1.000  Hf
  Hf23     1.0000 0.86725  0.48318  0.87581  Biso   1.000  Hf
  O41      1.0000 0.53781  0.18407  0.69401  Biso   1.000  O 
  O42      1.0000 0.53829  0.06496  0.94426  Biso   1.000  O 
  O43      1.0000 0.96474  0.43407  0.69403  Biso   1.000  O 
  O44      1.0000 0.96492  0.31536  0.94390  Biso   1.000  O 
  O45      1.0000 0.77165  0.11720  0.74947  Biso   1.000  O 
  O46      1.0000 0.77232  0.13140  0.99972  Biso   1.000  O 
  O47      1.0000 0.73076  0.38146  0.99975  Biso   1.000  O 
  O48      1.0000 0.73063  0.36726  0.74978  Biso   1.000  O 
  Hf24     1.0000 0.63464  0.51635  0.12649  Biso   1.000  Hf
  Hf25     1.0000 0.63531  0.73365  0.37595  Biso   1.000  Hf
  Hf26     1.0000 0.86730  0.76560  0.12524  Biso   1.000  Hf
  Hf27     1.0000 0.86784  0.98386  0.37625  Biso   1.000  Hf
  O49      1.0000 0.53774  0.68426  0.19465  Biso   1.000  O 
  O50      1.0000 0.53764  0.56544  0.44401  Biso   1.000  O 
  O51      1.0000 0.96509  0.93346  0.19361  Biso   1.000  O 
  O52      1.0000 0.96475  0.81534  0.44449  Biso   1.000  O 
  O53      1.0000 0.77179  0.61712  0.24978  Biso   1.000  O 
  O54      1.0000 0.77159  0.63213  0.49979  Biso   1.000  O 
  O55      1.0000 0.73080  0.88227  0.49951  Biso   1.000  O 
  O56      1.0000 0.73259  0.86745  0.24964  Biso   1.000  O 
  Hf28     1.0000 0.63515  0.51619  0.62582  Biso   1.000  Hf
  Hf29     1.0000 0.63478  0.73283  0.87620  Biso   1.000  Hf
  Hf30     1.0000 0.86721  0.76601  0.62580  Biso   1.000  Hf
  Hf31     1.0000 0.86595  0.98243  0.87522  Biso   1.000  Hf
  O57      1.0000 0.53724  0.68372  0.69459  Biso   1.000  O 
  O58      1.0000 0.53771  0.56507  0.94481  Biso   1.000  O 
  O59      1.0000 0.96433  0.93396  0.69365  Biso   1.000  O 
  O60      1.0000 0.96449  0.81510  0.94361  Biso   1.000  O 
  O61      1.0000 0.77153  0.61732  0.74990  Biso   1.000  O 
  O62      1.0000 0.77206  0.63138  0.99967  Biso   1.000  O 
  O63      1.0000 0.72997  0.88097  0.99970  Biso   1.000  O 
  O64      1.0000 0.72998  0.86695  0.74945  Biso   1.000  O 
