data_image0
_cell_length_a       10.1033
_cell_length_b       10.3341
_cell_length_c       10.1435
_cell_angle_alpha    90
_cell_angle_beta     90
_cell_angle_gamma    90

_symmetry_space_group_name_H-M    "P 1"
_symmetry_int_tables_number       1

loop_
  _symmetry_equiv_pos_as_xyz
  'x, y, z'

loop_
  _atom_site_label
  _atom_site_occupancy
  _atom_site_fract_x
  _atom_site_fract_y
  _atom_site_fract_z
  _atom_site_thermal_displace_type
  _atom_site_B_iso_or_equiv
  _atom_site_type_symbol
  Hf1      1.0000 0.13609  0.89864  0.12126  Biso   1.000  Hf
  Hf2      1.0000 0.17252  0.26633  0.40330  Biso   1.000  Hf
  Hf3      1.0000 0.41440  0.27347  0.15840  Biso   1.000  Hf
  Hf4      1.0000 0.39100  0.02281  0.38017  Biso   1.000  Hf
  O1       1.0000 0.00009  0.15883  0.93553  Biso   1.000  O 
  O2       1.0000 0.99543  0.06051  0.18720  Biso   1.000  O 
  O3       1.0000 0.03023  0.33549  0.26426  Biso   1.000  O 
  O4       1.0000 0.01075  0.41630  0.00097  Biso   1.000  O 
  O5       1.0000 0.37104  0.22491  0.35249  Biso   1.000  O 
  O6       1.0000 0.24686  0.04224  0.98782  Biso   1.000  O 
  O7       1.0000 0.27463  0.33906  0.00888  Biso   1.000  O 
  O8       1.0000 0.28547  0.43327  0.25537  Biso   1.000  O 
  Hf5      1.0000 0.14528  0.98108  0.59915  Biso   1.000  Hf
  Hf6      1.0000 0.17378  0.24932  0.88449  Biso   1.000  Hf
  Hf7      1.0000 0.40509  0.25176  0.63743  Biso   1.000  Hf
  Hf8      1.0000 0.40387  0.98023  0.86759  Biso   1.000  Hf
  O9       1.0000 0.02849  0.13532  0.46112  Biso   1.000  O 
  O10      1.0000 0.02247  0.08988  0.70985  Biso   1.000  O 
  O11      1.0000 0.04825  0.34110  0.74429  Biso   1.000  O 
  O12      1.0000 0.04097  0.38951  0.50826  Biso   1.000  O 
  O13      1.0000 0.31128  0.14844  0.77650  Biso   1.000  O 
  O14      1.0000 0.27054  0.11273  0.52804  Biso   1.000  O 
  O15      1.0000 0.28900  0.37564  0.52843  Biso   1.000  O 
  O16      1.0000 0.29515  0.39956  0.77043  Biso   1.000  O 
  Hf9      1.0000 0.13945  0.50928  0.12444  Biso   1.000  Hf
  Hf10     1.0000 0.13107  0.73617  0.38927  Biso   1.000  Hf
  Hf11     1.0000 0.40290  0.73396  0.10434  Biso   1.000  Hf
  Hf12     1.0000 0.42199  0.49269  0.39153  Biso   1.000  Hf
  O17      1.0000 0.05123  0.68116  0.04413  Biso   1.000  O 
  O18      1.0000 0.04603  0.58324  0.28609  Biso   1.000  O 
  O19      1.0000 0.99697  0.83021  0.25530  Biso   1.000  O 
  O20      1.0000 0.03618  0.88144  0.97982  Biso   1.000  O 
  O21      1.0000 0.24046  0.74197  0.22020  Biso   1.000  O 
  O22      1.0000 0.29039  0.58376  0.01910  Biso   1.000  O 
  O23      1.0000 0.31294  0.81277  0.97247  Biso   1.000  O 
  O24      1.0000 0.26032  0.99356  0.24736  Biso   1.000  O 
  Hf13     1.0000 0.16481  0.49967  0.64150  Biso   1.000  Hf
  Hf14     1.0000 0.15833  0.74408  0.85299  Biso   1.000  Hf
  Hf15     1.0000 0.39541  0.75470  0.59766  Biso   1.000  Hf
  Hf16     1.0000 0.44788  0.46686  0.88657  Biso   1.000  Hf
  O25      1.0000 0.04521  0.64107  0.54442  Biso   1.000  O 
  O26      1.0000 0.05930  0.58483  0.79582  Biso   1.000  O 
  O27      1.0000 0.03365  0.84368  0.73287  Biso   1.000  O 
  O28      1.0000 0.01233  0.88288  0.48632  Biso   1.000  O 
  O29      1.0000 0.28549  0.64962  0.72595  Biso   1.000  O 
  O30      1.0000 0.28364  0.61362  0.47460  Biso   1.000  O 
  O31      1.0000 0.27101  0.86058  0.47711  Biso   1.000  O 
  O32      1.0000 0.28181  0.89691  0.72875  Biso   1.000  O 
  Hf17     1.0000 0.61470  0.98292  0.10861  Biso   1.000  Hf
  Hf18     1.0000 0.64553  0.23070  0.39208  Biso   1.000  Hf
  Hf19     1.0000 0.89320  0.25374  0.11548  Biso   1.000  Hf
  Hf20     1.0000 0.88976  0.00387  0.34721  Biso   1.000  Hf
  O33      1.0000 0.47339  0.13491  0.02382  Biso   1.000  O 
  O34      1.0000 0.54352  0.10077  0.26271  Biso   1.000  O 
  O35      1.0000 0.56062  0.37076  0.26546  Biso   1.000  O 
  O36      1.0000 0.51785  0.38688  0.01956  Biso   1.000  O 
  O37      1.0000 0.78982  0.16603  0.26630  Biso   1.000  O 
  O38      1.0000 0.77933  0.07937  0.99651  Biso   1.000  O 
  O39      1.0000 0.80591  0.33551  0.98401  Biso   1.000  O 
  O40      1.0000 0.80811  0.41598  0.21860  Biso   1.000  O 
  Hf21     1.0000 0.65730  0.98662  0.62179  Biso   1.000  Hf
  Hf22     1.0000 0.66013  0.21310  0.88988  Biso   1.000  Hf
  Hf23     1.0000 0.91033  0.23507  0.61739  Biso   1.000  Hf
  Hf24     1.0000 0.91317  0.00062  0.85824  Biso   1.000  Hf
  O41      1.0000 0.53409  0.13639  0.53270  Biso   1.000  O 
  O42      1.0000 0.55456  0.06612  0.78165  Biso   1.000  O 
  O43      1.0000 0.54150  0.32184  0.76894  Biso   1.000  O 
  O44      1.0000 0.54021  0.38559  0.51717  Biso   1.000  O 
  O45      1.0000 0.78478  0.13843  0.74653  Biso   1.000  O 
  O46      1.0000 0.77763  0.08892  0.50099  Biso   1.000  O 
  O47      1.0000 0.78907  0.33988  0.48148  Biso   1.000  O 
  O48      1.0000 0.80131  0.38226  0.72361  Biso   1.000  O 
  Hf25     1.0000 0.65582  0.50351  0.12647  Biso   1.000  Hf
  Hf26     1.0000 0.63065  0.76137  0.35881  Biso   1.000  Hf
  Hf27     1.0000 0.86566  0.75393  0.10847  Biso   1.000  Hf
  Hf28     1.0000 0.90936  0.47272  0.37629  Biso   1.000  Hf
  O49      1.0000 0.59286  0.61939  0.99383  Biso   1.000  O 
  O50      1.0000 0.50173  0.60919  0.24381  Biso   1.000  O 
  O51      1.0000 0.49953  0.85719  0.23945  Biso   1.000  O 
  O52      1.0000 0.54343  0.86991  0.98416  Biso   1.000  O 
  O53      1.0000 0.75165  0.65465  0.24328  Biso   1.000  O 
  O54      1.0000 0.79800  0.59526  0.00821  Biso   1.000  O 
  O55      1.0000 0.78368  0.82919  0.99286  Biso   1.000  O 
  O56      1.0000 0.75398  0.90455  0.24012  Biso   1.000  O 
  Hf29     1.0000 0.67667  0.49374  0.62016  Biso   1.000  Hf
  Hf30     1.0000 0.66328  0.74049  0.84955  Biso   1.000  Hf
  Hf31     1.0000 0.89072  0.74977  0.61218  Biso   1.000  Hf
  Hf32     1.0000 0.91788  0.46416  0.86416  Biso   1.000  Hf
  O57      1.0000 0.53680  0.64099  0.49626  Biso   1.000  O 
  O58      1.0000 0.55335  0.57721  0.75330  Biso   1.000  O 
  O59      1.0000 0.53163  0.82909  0.73029  Biso   1.000  O 
  O60      1.0000 0.51959  0.89795  0.49053  Biso   1.000  O 
  O61      1.0000 0.80033  0.63015  0.74922  Biso   1.000  O 
  O62      1.0000 0.79871  0.59192  0.49901  Biso   1.000  O 
  O63      1.0000 0.75910  0.83956  0.49468  Biso   1.000  O 
  O64      1.0000 0.78566  0.88309  0.74342  Biso   1.000  O 
  Sn1      1.0000 0.15561  0.18490  0.14258  Biso   1.000  Sn
