data_image0
_cell_length_a       5.12742
_cell_length_b       10.3649
_cell_length_c       10.1431
_cell_angle_alpha    90
_cell_angle_beta     90
_cell_angle_gamma    90

_symmetry_space_group_name_H-M    "P 1"
_symmetry_int_tables_number       1

loop_
  _symmetry_equiv_pos_as_xyz
  'x, y, z'

loop_
  _atom_site_label
  _atom_site_occupancy
  _atom_site_fract_x
  _atom_site_fract_y
  _atom_site_fract_z
  _atom_site_thermal_displace_type
  _atom_site_B_iso_or_equiv
  _atom_site_type_symbol
  Hf1      1.0000 0.22492  0.98105  0.12426  Biso   1.000  Hf
  Hf2      1.0000 0.09248  0.24920  0.38054  Biso   1.000  Hf
  Hf3      1.0000 0.72493  0.19946  0.12427  Biso   1.000  Hf
  Hf4      1.0000 0.62774  0.01008  0.38787  Biso   1.000  Hf
  O1       1.0000 0.83819  0.13187  0.98814  Biso   1.000  O 
  O2       1.0000 0.92796  0.08087  0.26185  Biso   1.000  O 
  O3       1.0000 0.75342  0.33162  0.28161  Biso   1.000  O 
  O4       1.0000 0.95644  0.43872  0.97704  Biso   1.000  O 
  O5       1.0000 0.41222  0.13187  0.25529  Biso   1.000  O 
  O6       1.0000 0.32242  0.08085  0.98160  Biso   1.000  O 
  O7       1.0000 0.49696  0.33159  0.96182  Biso   1.000  O 
  O8       1.0000 0.29394  0.43875  0.26643  Biso   1.000  O 
  Hf5      1.0000 0.12518  0.99798  0.62172  Biso   1.000  Hf
  Hf6      1.0000 0.15788  0.24919  0.86292  Biso   1.000  Hf
  Hf7      1.0000 0.62518  0.26223  0.62174  Biso   1.000  Hf
  Hf8      1.0000 0.62264  0.01007  0.85558  Biso   1.000  Hf
  O9       1.0000 0.84667  0.14490  0.50240  Biso   1.000  O 
  O10      1.0000 0.90942  0.10394  0.74715  Biso   1.000  O 
  O11      1.0000 0.87954  0.35175  0.74645  Biso   1.000  O 
  O12      1.0000 0.87617  0.39496  0.50180  Biso   1.000  O 
  O13      1.0000 0.40366  0.14489  0.74105  Biso   1.000  O 
  O14      1.0000 0.34092  0.10394  0.49628  Biso   1.000  O 
  O15      1.0000 0.37083  0.35176  0.49701  Biso   1.000  O 
  O16      1.0000 0.37419  0.39495  0.74165  Biso   1.000  O 
  Hf9      1.0000 0.22493  0.58031  0.12427  Biso   1.000  Hf
  Hf10     1.0000 0.14294  0.74092  0.39422  Biso   1.000  Hf
  Hf11     1.0000 0.72492  0.76183  0.12427  Biso   1.000  Hf
  Hf12     1.0000 0.63126  0.49828  0.36619  Biso   1.000  Hf
  O17      1.0000 0.80648  0.66835  0.97883  Biso   1.000  O 
  O18      1.0000 0.90039  0.60270  0.24256  Biso   1.000  O 
  O19      1.0000 0.04882  0.83172  0.23030  Biso   1.000  O 
  O20      1.0000 0.90753  0.90528  0.01623  Biso   1.000  O 
  O21      1.0000 0.44392  0.66836  0.26462  Biso   1.000  O 
  O22      1.0000 0.54947  0.60267  0.00602  Biso   1.000  O 
  O23      1.0000 0.40104  0.83171  0.01824  Biso   1.000  O 
  O24      1.0000 0.54232  0.90529  0.23230  Biso   1.000  O 
  Hf13     1.0000 0.12518  0.49091  0.62173  Biso   1.000  Hf
  Hf14     1.0000 0.10739  0.74093  0.84922  Biso   1.000  Hf
  Hf15     1.0000 0.62515  0.73959  0.62173  Biso   1.000  Hf
  Hf16     1.0000 0.61912  0.49826  0.87726  Biso   1.000  Hf
  O25      1.0000 0.86285  0.64077  0.49410  Biso   1.000  O 
  O26      1.0000 0.88099  0.60148  0.73983  Biso   1.000  O 
  O27      1.0000 0.84349  0.85509  0.74750  Biso   1.000  O 
  O28      1.0000 0.90715  0.88969  0.49145  Biso   1.000  O 
  O29      1.0000 0.38748  0.64076  0.74936  Biso   1.000  O 
  O30      1.0000 0.36935  0.60150  0.50362  Biso   1.000  O 
  O31      1.0000 0.40689  0.85510  0.49594  Biso   1.000  O 
  O32      1.0000 0.34323  0.88968  0.75198  Biso   1.000  O 
  Sn1      1.0000 0.22493  0.29440  0.12429  Biso   1.000  Sn
