data_image0
_cell_length_a       10.0735
_cell_length_b       10.2869
_cell_length_c       10.5041
_cell_angle_alpha    90
_cell_angle_beta     90
_cell_angle_gamma    90

_symmetry_space_group_name_H-M    "P 1"
_symmetry_int_tables_number       1

loop_
  _symmetry_equiv_pos_as_xyz
  'x, y, z'

loop_
  _atom_site_label
  _atom_site_occupancy
  _atom_site_fract_x
  _atom_site_fract_y
  _atom_site_fract_z
  _atom_site_thermal_displace_type
  _atom_site_B_iso_or_equiv
  _atom_site_type_symbol
  Hf1      1.0000 0.12900  0.01789  0.17505  Biso   1.000  Hf
  Hf2      1.0000 0.12720  0.22819  0.42764  Biso   1.000  Hf
  Hf3      1.0000 0.33606  0.26865  0.18949  Biso   1.000  Hf
  Hf4      1.0000 0.35253  0.48088  0.42368  Biso   1.000  Hf
  Hf5      1.0000 0.64234  0.01574  0.07377  Biso   1.000  Hf
  Hf6      1.0000 0.62854  0.22801  0.32916  Biso   1.000  Hf
  Hf7      1.0000 0.85818  0.27159  0.07533  Biso   1.000  Hf
  Hf8      1.0000 0.85335  0.47917  0.32750  Biso   1.000  Hf
  O1       1.0000 0.02984  0.16887  0.08835  Biso   1.000  O 
  O2       1.0000 0.02184  0.08548  0.33628  Biso   1.000  O 
  O3       1.0000 0.46318  0.43961  0.10318  Biso   1.000  O 
  O4       1.0000 0.45511  0.33391  0.33627  Biso   1.000  O 
  O5       1.0000 0.26102  0.12412  0.30352  Biso   1.000  O 
  O6       1.0000 0.26201  0.11114  0.05313  Biso   1.000  O 
  O7       1.0000 0.20827  0.37793  0.30495  Biso   1.000  O 
  O8       1.0000 0.21377  0.37995  0.05535  Biso   1.000  O 
  O9       1.0000 0.51221  0.14772  0.18584  Biso   1.000  O 
  O10      1.0000 0.52120  0.08704  0.42381  Biso   1.000  O 
  O11      1.0000 0.95861  0.41805  0.16686  Biso   1.000  O 
  O12      1.0000 0.95841  0.33592  0.41694  Biso   1.000  O 
  O13      1.0000 0.76511  0.12575  0.45190  Biso   1.000  O 
  O14      1.0000 0.76621  0.12730  0.20161  Biso   1.000  O 
  O15      1.0000 0.71469  0.37594  0.45269  Biso   1.000  O 
  O16      1.0000 0.71554  0.37541  0.20382  Biso   1.000  O 
  Hf9      1.0000 0.12699  0.02262  0.67483  Biso   1.000  Hf
  Hf10     1.0000 0.12215  0.23019  0.92700  Biso   1.000  Hf
  Hf11     1.0000 0.35179  0.27377  0.67318  Biso   1.000  Hf
  Hf12     1.0000 0.33799  0.48604  0.92856  Biso   1.000  Hf
  Hf13     1.0000 0.62780  0.02091  0.57866  Biso   1.000  Hf
  Hf14     1.0000 0.64428  0.23314  0.81285  Biso   1.000  Hf
  Hf15     1.0000 0.85314  0.27359  0.57470  Biso   1.000  Hf
  Hf16     1.0000 0.85133  0.48390  0.82729  Biso   1.000  Hf
  O17      1.0000 0.02192  0.16587  0.58540  Biso   1.000  O 
  O18      1.0000 0.02172  0.08373  0.83548  Biso   1.000  O 
  O19      1.0000 0.45912  0.41475  0.57853  Biso   1.000  O 
  O20      1.0000 0.46813  0.35407  0.81649  Biso   1.000  O 
  O21      1.0000 0.26479  0.12637  0.79852  Biso   1.000  O 
  O22      1.0000 0.26565  0.12585  0.54966  Biso   1.000  O 
  O23      1.0000 0.21413  0.37449  0.80072  Biso   1.000  O 
  O24      1.0000 0.21523  0.37603  0.55043  Biso   1.000  O 
  O25      1.0000 0.52522  0.16787  0.66608  Biso   1.000  O 
  O26      1.0000 0.51715  0.06217  0.89915  Biso   1.000  O 
  O27      1.0000 0.95849  0.41631  0.66606  Biso   1.000  O 
  O28      1.0000 0.95049  0.33292  0.91399  Biso   1.000  O 
  O29      1.0000 0.76656  0.12184  0.94700  Biso   1.000  O 
  O30      1.0000 0.77207  0.12386  0.69739  Biso   1.000  O 
  O31      1.0000 0.71833  0.39063  0.94922  Biso   1.000  O 
  O32      1.0000 0.71932  0.37767  0.69883  Biso   1.000  O 
  Hf17     1.0000 0.13135  0.52335  0.17407  Biso   1.000  Hf
  Hf18     1.0000 0.12924  0.72983  0.42289  Biso   1.000  Hf
  Hf19     1.0000 0.35936  0.77261  0.17496  Biso   1.000  Hf
  Hf20     1.0000 0.35329  0.97853  0.42700  Biso   1.000  Hf
  Hf21     1.0000 0.64135  0.52761  0.07942  Biso   1.000  Hf
  Hf22     1.0000 0.63268  0.73177  0.32905  Biso   1.000  Hf
  Hf23     1.0000 0.86125  0.77025  0.07914  Biso   1.000  Hf
  Hf24     1.0000 0.85343  0.98073  0.32943  Biso   1.000  Hf
  O33      1.0000 0.03224  0.66668  0.08416  Biso   1.000  O 
  O34      1.0000 0.02397  0.58619  0.33568  Biso   1.000  O 
  O35      1.0000 0.46823  0.91452  0.08371  Biso   1.000  O 
  O36      1.0000 0.46154  0.83737  0.33656  Biso   1.000  O 
  O37      1.0000 0.26874  0.62615  0.29592  Biso   1.000  O 
  O38      1.0000 0.27502  0.62606  0.04659  Biso   1.000  O 
  O39      1.0000 0.21828  0.87478  0.29892  Biso   1.000  O 
  O40      1.0000 0.22357  0.87059  0.04978  Biso   1.000  O 
  O41      1.0000 0.53449  0.67461  0.16619  Biso   1.000  O 
  O42      1.0000 0.52377  0.58734  0.41518  Biso   1.000  O 
  O43      1.0000 0.95981  0.91711  0.16683  Biso   1.000  O 
  O44      1.0000 0.95783  0.83519  0.41693  Biso   1.000  O 
  O45      1.0000 0.76718  0.62541  0.45436  Biso   1.000  O 
  O46      1.0000 0.77397  0.62807  0.20529  Biso   1.000  O 
  O47      1.0000 0.71630  0.87634  0.45624  Biso   1.000  O 
  O48      1.0000 0.72046  0.87644  0.20568  Biso   1.000  O 
  Hf25     1.0000 0.12801  0.52105  0.67290  Biso   1.000  Hf
  Hf26     1.0000 0.12019  0.73153  0.92319  Biso   1.000  Hf
  Hf27     1.0000 0.34877  0.77000  0.67328  Biso   1.000  Hf
  Hf28     1.0000 0.34008  0.97417  0.92291  Biso   1.000  Hf
  Hf29     1.0000 0.62816  0.52326  0.57534  Biso   1.000  Hf
  Hf30     1.0000 0.62208  0.72917  0.82739  Biso   1.000  Hf
  Hf31     1.0000 0.85221  0.77196  0.57945  Biso   1.000  Hf
  Hf32     1.0000 0.85009  0.97844  0.82828  Biso   1.000  Hf
  O49      1.0000 0.02361  0.66659  0.58541  Biso   1.000  O 
  O50      1.0000 0.02163  0.58468  0.83550  Biso   1.000  O 
  O51      1.0000 0.45767  0.91444  0.58717  Biso   1.000  O 
  O52      1.0000 0.44695  0.82716  0.83614  Biso   1.000  O 
  O53      1.0000 0.26098  0.62534  0.79665  Biso   1.000  O 
  O54      1.0000 0.26515  0.62545  0.54610  Biso   1.000  O 
  O55      1.0000 0.20747  0.87371  0.79704  Biso   1.000  O 
  O56      1.0000 0.21426  0.87637  0.54798  Biso   1.000  O 
  O57      1.0000 0.51990  0.66442  0.66578  Biso   1.000  O 
  O58      1.0000 0.51321  0.58726  0.91863  Biso   1.000  O 
  O59      1.0000 0.95747  0.91560  0.66667  Biso   1.000  O 
  O60      1.0000 0.94920  0.83510  0.91817  Biso   1.000  O 
  O61      1.0000 0.75787  0.63119  0.95257  Biso   1.000  O 
  O62      1.0000 0.76316  0.62701  0.70342  Biso   1.000  O 
  O63      1.0000 0.70642  0.87572  0.95576  Biso   1.000  O 
  O64      1.0000 0.71270  0.87563  0.70643  Biso   1.000  O 
  Sn1      1.0000 0.50167  0.24999  0.00129  Biso   1.000  Sn
