data_image0
_cell_length_a       5.15311
_cell_length_b       10.3846
_cell_length_c       10.5472
_cell_angle_alpha    90
_cell_angle_beta     80
_cell_angle_gamma    90

_symmetry_space_group_name_H-M    "P 1"
_symmetry_int_tables_number       1

loop_
  _symmetry_equiv_pos_as_xyz
  'x, y, z'

loop_
  _atom_site_label
  _atom_site_occupancy
  _atom_site_fract_x
  _atom_site_fract_y
  _atom_site_fract_z
  _atom_site_thermal_displace_type
  _atom_site_B_iso_or_equiv
  _atom_site_type_symbol
  Hf1      1.0000 0.27647  0.01201  0.14967  Biso   1.000  Hf
  Hf2      1.0000 0.37084  0.23673  0.40136  Biso   1.000  Hf
  Hf3      1.0000 0.65997  0.26510  0.10033  Biso   1.000  Hf
  Hf4      1.0000 0.75425  0.48981  0.35202  Biso   1.000  Hf
  O1       1.0000 0.01865  0.14748  0.06518  Biso   1.000  O 
  O2       1.0000 0.08408  0.06096  0.33953  Biso   1.000  O 
  O3       1.0000 0.94664  0.44080  0.16216  Biso   1.000  O 
  O4       1.0000 0.01214  0.35435  0.43655  Biso   1.000  O 
  O5       1.0000 0.55843  0.10867  0.24139  Biso   1.000  O 
  O6       1.0000 0.61453  0.11860  0.49264  Biso   1.000  O 
  O7       1.0000 0.41624  0.38320  0.00905  Biso   1.000  O 
  O8       1.0000 0.47230  0.39315  0.26030  Biso   1.000  O 
  Hf5      1.0000 0.32407  0.02404  0.64252  Biso   1.000  Hf
  Hf6      1.0000 0.31416  0.23064  0.88910  Biso   1.000  Hf
  Hf7      1.0000 0.78891  0.27477  0.60585  Biso   1.000  Hf
  Hf8      1.0000 0.77898  0.48137  0.85243  Biso   1.000  Hf
  O9       1.0000 0.13257  0.17036  0.57163  Biso   1.000  O 
  O10      1.0000 0.10819  0.09163  0.81575  Biso   1.000  O 
  O11      1.0000 0.99486  0.41379  0.67921  Biso   1.000  O 
  O12      1.0000 0.97051  0.33505  0.92332  Biso   1.000  O 
  O13      1.0000 0.59552  0.13129  0.73806  Biso   1.000  O 
  O14      1.0000 0.58277  0.12582  0.98463  Biso   1.000  O 
  O15      1.0000 0.52030  0.37960  0.51032  Biso   1.000  O 
  O16      1.0000 0.50753  0.37413  0.75689  Biso   1.000  O 
  Hf9      1.0000 0.29488  0.53217  0.14622  Biso   1.000  Hf
  Hf10     1.0000 0.30814  0.72873  0.39803  Biso   1.000  Hf
  Hf11     1.0000 0.73365  0.77305  0.10366  Biso   1.000  Hf
  Hf12     1.0000 0.74690  0.96961  0.35547  Biso   1.000  Hf
  O17      1.0000 0.08219  0.67598  0.07797  Biso   1.000  O 
  O18      1.0000 0.09520  0.59247  0.32603  Biso   1.000  O 
  O19      1.0000 0.94659  0.90932  0.17565  Biso   1.000  O 
  O20      1.0000 0.95958  0.82579  0.42371  Biso   1.000  O 
  O21      1.0000 0.57915  0.63486  0.24366  Biso   1.000  O 
  O22      1.0000 0.58367  0.62332  0.49170  Biso   1.000  O 
  O23      1.0000 0.45812  0.87847  0.00998  Biso   1.000  O 
  O24      1.0000 0.46264  0.86692  0.25803  Biso   1.000  O 
  Hf13     1.0000 0.32851  0.52395  0.64764  Biso   1.000  Hf
  Hf14     1.0000 0.34090  0.73228  0.89140  Biso   1.000  Hf
  Hf15     1.0000 0.77321  0.77313  0.60355  Biso   1.000  Hf
  Hf16     1.0000 0.78561  0.98145  0.84731  Biso   1.000  Hf
  O25      1.0000 0.10723  0.66396  0.58028  Biso   1.000  O 
  O26      1.0000 0.12664  0.58698  0.82707  Biso   1.000  O 
  O27      1.0000 0.98747  0.91843  0.66786  Biso   1.000  O 
  O28      1.0000 0.00687  0.84143  0.91467  Biso   1.000  O 
  O29      1.0000 0.60410  0.62991  0.73815  Biso   1.000  O 
  O30      1.0000 0.62958  0.62787  0.98522  Biso   1.000  O 
  O31      1.0000 0.48450  0.87751  0.50973  Biso   1.000  O 
  O32      1.0000 0.51002  0.87549  0.75680  Biso   1.000  O 
  Sn1      1.0000 0.01534  0.25090  0.25089  Biso   1.000  Sn
