data_image0
_cell_length_a       10.071
_cell_length_b       5.23877
_cell_length_c       10.2378
_cell_angle_alpha    90
_cell_angle_beta     90
_cell_angle_gamma    90

_symmetry_space_group_name_H-M    "P 1"
_symmetry_int_tables_number       1

loop_
  _symmetry_equiv_pos_as_xyz
  'x, y, z'

loop_
  _atom_site_label
  _atom_site_occupancy
  _atom_site_fract_x
  _atom_site_fract_y
  _atom_site_fract_z
  _atom_site_thermal_displace_type
  _atom_site_B_iso_or_equiv
  _atom_site_type_symbol
  Hf1      1.0000 0.15981  0.13700  0.08771  Biso   1.000  Hf
  Hf2      1.0000 0.06629  0.40092  0.37522  Biso   1.000  Hf
  Hf3      1.0000 0.37489  0.56130  0.12312  Biso   1.000  Hf
  Hf4      1.0000 0.33354  0.94074  0.36998  Biso   1.000  Hf
  O1       1.0000 0.99844  0.24431  0.19971  Biso   1.000  O 
  O2       1.0000 0.98497  0.06293  0.42849  Biso   1.000  O 
  O3       1.0000 0.46498  0.87065  0.21053  Biso   1.000  O 
  O4       1.0000 0.42231  0.60238  0.43557  Biso   1.000  O 
  O5       1.0000 0.26125  0.29557  0.24665  Biso   1.000  O 
  O6       1.0000 0.20870  0.20128  0.48915  Biso   1.000  O 
  O7       1.0000 0.18483  0.70031  0.47121  Biso   1.000  O 
  O8       1.0000 0.22391  0.80553  0.21165  Biso   1.000  O 
  Hf5      1.0000 0.06980  0.95930  0.60331  Biso   1.000  Hf
  Hf6      1.0000 0.07757  0.39332  0.83500  Biso   1.000  Hf
  Hf7      1.0000 0.32216  0.46426  0.60011  Biso   1.000  Hf
  Hf8      1.0000 0.31511  0.89243  0.85441  Biso   1.000  Hf
  O9       1.0000 0.98738  0.29816  0.65862  Biso   1.000  O 
  O10      1.0000 0.95753  0.08476  0.90058  Biso   1.000  O 
  O11      1.0000 0.41503  0.79568  0.68388  Biso   1.000  O 
  O12      1.0000 0.41788  0.59403  0.97262  Biso   1.000  O 
  O13      1.0000 0.20713  0.15366  0.73051  Biso   1.000  O 
  O14      1.0000 0.21027  0.19760  0.97305  Biso   1.000  O 
  O15      1.0000 0.17057  0.70864  0.96561  Biso   1.000  O 
  O16      1.0000 0.18283  0.65500  0.71997  Biso   1.000  O 
  Hf9      1.0000 0.63235  0.98604  0.12309  Biso   1.000  Hf
  Hf10     1.0000 0.59100  0.40718  0.39188  Biso   1.000  Hf
  Hf11     1.0000 0.82196  0.44633  0.18541  Biso   1.000  Hf
  Hf12     1.0000 0.83192  0.87908  0.41708  Biso   1.000  Hf
  O17      1.0000 0.52935  0.34299  0.19102  Biso   1.000  O 
  O18      1.0000 0.46640  0.11721  0.46595  Biso   1.000  O 
  O19      1.0000 0.96071  0.69761  0.25886  Biso   1.000  O 
  O20      1.0000 0.88725  0.50285  0.44818  Biso   1.000  O 
  O21      1.0000 0.73002  0.14942  0.27786  Biso   1.000  O 
  O22      1.0000 0.70609  0.18991  0.52396  Biso   1.000  O 
  O23      1.0000 0.66868  0.68699  0.52294  Biso   1.000  O 
  O24      1.0000 0.69741  0.68540  0.27863  Biso   1.000  O 
  Hf13     1.0000 0.56729  0.97792  0.64081  Biso   1.000  Hf
  Hf14     1.0000 0.56922  0.39031  0.88748  Biso   1.000  Hf
  Hf15     1.0000 0.80950  0.47186  0.64557  Biso   1.000  Hf
  Hf16     1.0000 0.80311  0.89059  0.89141  Biso   1.000  Hf
  O25      1.0000 0.47007  0.30969  0.70994  Biso   1.000  O 
  O26      1.0000 0.45726  0.05685  0.93377  Biso   1.000  O 
  O27      1.0000 0.90231  0.82653  0.62008  Biso   1.000  O 
  O28      1.0000 0.89876  0.57390  0.83329  Biso   1.000  O 
  O29      1.0000 0.70632  0.17589  0.76950  Biso   1.000  O 
  O30      1.0000 0.78219  0.23746  0.02480  Biso   1.000  O 
  O31      1.0000 0.78286  0.73010  0.03362  Biso   1.000  O 
  O32      1.0000 0.66370  0.69034  0.77201  Biso   1.000  O 
  Sn1      1.0000 0.06789  0.67522  0.08524  Biso   1.000  Sn
