data_image0
_cell_length_a       9.99644
_cell_length_b       10.4242
_cell_length_c       10.0983
_cell_angle_alpha    90
_cell_angle_beta     90
_cell_angle_gamma    90

_symmetry_space_group_name_H-M    "P 1"
_symmetry_int_tables_number       1

loop_
  _symmetry_equiv_pos_as_xyz
  'x, y, z'

loop_
  _atom_site_label
  _atom_site_occupancy
  _atom_site_fract_x
  _atom_site_fract_y
  _atom_site_fract_z
  _atom_site_thermal_displace_type
  _atom_site_B_iso_or_equiv
  _atom_site_type_symbol
  Hf1      1.0000 0.14528  0.00638  0.11021  Biso   1.000  Hf
  Hf2      1.0000 0.11743  0.23698  0.39771  Biso   1.000  Hf
  Hf3      1.0000 0.35952  0.26326  0.11936  Biso   1.000  Hf
  Hf4      1.0000 0.35644  0.49155  0.37318  Biso   1.000  Hf
  O1       1.0000 0.97042  0.18835  0.25865  Biso   1.000  O 
  O2       1.0000 0.03792  0.06100  0.45032  Biso   1.000  O 
  O3       1.0000 0.44161  0.43693  0.19147  Biso   1.000  O 
  O4       1.0000 0.44964  0.32333  0.44346  Biso   1.000  O 
  O5       1.0000 0.25402  0.11673  0.24793  Biso   1.000  O 
  O6       1.0000 0.26862  0.13709  0.49829  Biso   1.000  O 
  O7       1.0000 0.22039  0.39285  0.49463  Biso   1.000  O 
  O8       1.0000 0.19420  0.35924  0.23970  Biso   1.000  O 
  Hf5      1.0000 0.13195  0.01381  0.62395  Biso   1.000  Hf
  Hf6      1.0000 0.12794  0.23102  0.84690  Biso   1.000  Hf
  Hf7      1.0000 0.35967  0.27472  0.62303  Biso   1.000  Hf
  Hf8      1.0000 0.34667  0.49455  0.87313  Biso   1.000  Hf
  O9       1.0000 0.04198  0.18828  0.66503  Biso   1.000  O 
  O10      1.0000 0.03505  0.06323  0.92282  Biso   1.000  O 
  O11      1.0000 0.44786  0.44324  0.69494  Biso   1.000  O 
  O12      1.0000 0.44901  0.32636  0.94203  Biso   1.000  O 
  O13      1.0000 0.26809  0.12085  0.74222  Biso   1.000  O 
  O14      1.0000 0.27790  0.13047  0.98857  Biso   1.000  O 
  O15      1.0000 0.21248  0.39850  0.99271  Biso   1.000  O 
  O16      1.0000 0.21582  0.37572  0.74032  Biso   1.000  O 
  Hf9      1.0000 0.11094  0.52746  0.12720  Biso   1.000  Hf
  Hf10     1.0000 0.11589  0.74127  0.37588  Biso   1.000  Hf
  Hf11     1.0000 0.35087  0.76309  0.12597  Biso   1.000  Hf
  Hf12     1.0000 0.34346  0.98968  0.37319  Biso   1.000  Hf
  O17      1.0000 0.02088  0.69166  0.19371  Biso   1.000  O 
  O18      1.0000 0.02049  0.57920  0.44281  Biso   1.000  O 
  O19      1.0000 0.44401  0.93550  0.19511  Biso   1.000  O 
  O20      1.0000 0.44667  0.82288  0.44443  Biso   1.000  O 
  O21      1.0000 0.25186  0.61803  0.25037  Biso   1.000  O 
  O22      1.0000 0.25386  0.64080  0.49817  Biso   1.000  O 
  O23      1.0000 0.21273  0.88717  0.49659  Biso   1.000  O 
  O24      1.0000 0.21468  0.86642  0.24568  Biso   1.000  O 
  Hf13     1.0000 0.11681  0.52565  0.61919  Biso   1.000  Hf
  Hf14     1.0000 0.10776  0.74313  0.87131  Biso   1.000  Hf
  Hf15     1.0000 0.35017  0.77172  0.62378  Biso   1.000  Hf
  Hf16     1.0000 0.34711  0.98756  0.87169  Biso   1.000  Hf
  O25      1.0000 0.02023  0.69808  0.68953  Biso   1.000  O 
  O26      1.0000 0.00920  0.57552  0.94465  Biso   1.000  O 
  O27      1.0000 0.44767  0.93837  0.69457  Biso   1.000  O 
  O28      1.0000 0.44356  0.82638  0.95158  Biso   1.000  O 
  O29      1.0000 0.24873  0.62409  0.74901  Biso   1.000  O 
  O30      1.0000 0.24075  0.64540  0.99961  Biso   1.000  O 
  O31      1.0000 0.20604  0.88811  0.99416  Biso   1.000  O 
  O32      1.0000 0.21347  0.87117  0.74762  Biso   1.000  O 
  Hf17     1.0000 0.62805  0.01381  0.12439  Biso   1.000  Hf
  Hf18     1.0000 0.61958  0.23540  0.39326  Biso   1.000  Hf
  Hf19     1.0000 0.81125  0.27407  0.15548  Biso   1.000  Hf
  Hf20     1.0000 0.84894  0.49288  0.39058  Biso   1.000  Hf
  O33      1.0000 0.52557  0.18617  0.19290  Biso   1.000  O 
  O34      1.0000 0.52609  0.07108  0.45199  Biso   1.000  O 
  O35      1.0000 0.93074  0.45093  0.21379  Biso   1.000  O 
  O36      1.0000 0.95768  0.33379  0.46538  Biso   1.000  O 
  O37      1.0000 0.73798  0.11692  0.26313  Biso   1.000  O 
  O38      1.0000 0.76897  0.14303  0.50739  Biso   1.000  O 
  O39      1.0000 0.71408  0.38582  0.51153  Biso   1.000  O 
  O40      1.0000 0.69231  0.38346  0.26886  Biso   1.000  O 
  Hf21     1.0000 0.63385  0.02410  0.62754  Biso   1.000  Hf
  Hf22     1.0000 0.62047  0.24379  0.87720  Biso   1.000  Hf
  Hf23     1.0000 0.86162  0.28205  0.64294  Biso   1.000  Hf
  Hf24     1.0000 0.84533  0.49040  0.87216  Biso   1.000  Hf
  O41      1.0000 0.52948  0.19336  0.69148  Biso   1.000  O 
  O42      1.0000 0.53231  0.07371  0.93824  Biso   1.000  O 
  O43      1.0000 0.93513  0.46700  0.67695  Biso   1.000  O 
  O44      1.0000 0.94017  0.31268  0.85172  Biso   1.000  O 
  O45      1.0000 0.76127  0.12692  0.75701  Biso   1.000  O 
  O46      1.0000 0.77327  0.13684  0.01140  Biso   1.000  O 
  O47      1.0000 0.72723  0.38424  0.00750  Biso   1.000  O 
  O48      1.0000 0.70529  0.38227  0.75563  Biso   1.000  O 
  Hf25     1.0000 0.61869  0.52512  0.13141  Biso   1.000  Hf
  Hf26     1.0000 0.61937  0.74394  0.37882  Biso   1.000  Hf
  Hf27     1.0000 0.84914  0.77037  0.12825  Biso   1.000  Hf
  Hf28     1.0000 0.85274  0.99874  0.36914  Biso   1.000  Hf
  O49      1.0000 0.51814  0.68500  0.20151  Biso   1.000  O 
  O50      1.0000 0.51830  0.57371  0.44860  Biso   1.000  O 
  O51      1.0000 0.94908  0.94515  0.18524  Biso   1.000  O 
  O52      1.0000 0.94437  0.82427  0.44072  Biso   1.000  O 
  O53      1.0000 0.75258  0.62787  0.25760  Biso   1.000  O 
  O54      1.0000 0.74919  0.64298  0.50581  Biso   1.000  O 
  O55      1.0000 0.71356  0.89478  0.49842  Biso   1.000  O 
  O56      1.0000 0.71402  0.87298  0.24880  Biso   1.000  O 
  Hf29     1.0000 0.61847  0.52506  0.63035  Biso   1.000  Hf
  Hf30     1.0000 0.61231  0.74464  0.87750  Biso   1.000  Hf
  Hf31     1.0000 0.84808  0.77784  0.62515  Biso   1.000  Hf
  Hf32     1.0000 0.83974  0.99232  0.87689  Biso   1.000  Hf
  O57      1.0000 0.51578  0.69038  0.69937  Biso   1.000  O 
  O58      1.0000 0.50989  0.57990  0.94953  Biso   1.000  O 
  O59      1.0000 0.94202  0.94235  0.69682  Biso   1.000  O 
  O60      1.0000 0.93781  0.82294  0.94548  Biso   1.000  O 
  O61      1.0000 0.75131  0.62946  0.75618  Biso   1.000  O 
  O62      1.0000 0.75695  0.63375  0.00693  Biso   1.000  O 
  O63      1.0000 0.71876  0.88297  0.00067  Biso   1.000  O 
  O64      1.0000 0.70963  0.87603  0.75004  Biso   1.000  O 
  Sn1      1.0000 0.06373  0.26644  0.09257  Biso   1.000  Sn
