data_image0
_cell_length_a       10.1058
_cell_length_b       5.13642
_cell_length_c       10.4507
_cell_angle_alpha    90
_cell_angle_beta     80
_cell_angle_gamma    90

_symmetry_space_group_name_H-M    "P 1"
_symmetry_int_tables_number       1

loop_
  _symmetry_equiv_pos_as_xyz
  'x, y, z'

loop_
  _atom_site_label
  _atom_site_occupancy
  _atom_site_fract_x
  _atom_site_fract_y
  _atom_site_fract_z
  _atom_site_thermal_displace_type
  _atom_site_B_iso_or_equiv
  _atom_site_type_symbol
  Sn1      1.0000 0.13364  0.03563  0.14920  Biso   1.000  Sn
  Hf1      1.0000 0.13380  0.45644  0.39647  Biso   1.000  Hf
  Hf2      1.0000 0.36088  0.54153  0.10332  Biso   1.000  Hf
  Hf3      1.0000 0.35870  0.95659  0.35430  Biso   1.000  Hf
  O1       1.0000 0.03846  0.33883  0.07933  Biso   1.000  O 
  O2       1.0000 0.03047  0.15965  0.33242  Biso   1.000  O 
  O3       1.0000 0.46340  0.83776  0.17012  Biso   1.000  O 
  O4       1.0000 0.45974  0.65917  0.41995  Biso   1.000  O 
  O5       1.0000 0.27284  0.25324  0.23857  Biso   1.000  O 
  O6       1.0000 0.27170  0.24181  0.48976  Biso   1.000  O 
  O7       1.0000 0.22496  0.76864  0.00984  Biso   1.000  O 
  O8       1.0000 0.22107  0.73771  0.25914  Biso   1.000  O 
  Hf4      1.0000 0.13200  0.04156  0.64627  Biso   1.000  Hf
  Hf5      1.0000 0.13072  0.45560  0.89625  Biso   1.000  Hf
  Hf6      1.0000 0.35527  0.54281  0.60496  Biso   1.000  Hf
  Hf7      1.0000 0.35365  0.95991  0.85523  Biso   1.000  Hf
  O9       1.0000 0.03002  0.33803  0.58116  Biso   1.000  O 
  O10      1.0000 0.02780  0.16042  0.83100  Biso   1.000  O 
  O11      1.0000 0.45790  0.83933  0.67016  Biso   1.000  O 
  O12      1.0000 0.45422  0.66010  0.92096  Biso   1.000  O 
  O13      1.0000 0.26894  0.25730  0.73966  Biso   1.000  O 
  O14      1.0000 0.26955  0.24890  0.98783  Biso   1.000  O 
  O15      1.0000 0.21855  0.75788  0.50977  Biso   1.000  O 
  O16      1.0000 0.21683  0.74114  0.76066  Biso   1.000  O 
  Hf8      1.0000 0.63724  0.04092  0.14592  Biso   1.000  Hf
  Hf9      1.0000 0.63458  0.45607  0.39668  Biso   1.000  Hf
  Hf10     1.0000 0.86152  0.53833  0.10469  Biso   1.000  Hf
  Hf11     1.0000 0.85551  0.95592  0.35689  Biso   1.000  Hf
  O17      1.0000 0.53638  0.33929  0.08040  Biso   1.000  O 
  O18      1.0000 0.53237  0.15960  0.33097  Biso   1.000  O 
  O19      1.0000 0.95933  0.83778  0.17148  Biso   1.000  O 
  O20      1.0000 0.95916  0.66053  0.42165  Biso   1.000  O 
  O21      1.0000 0.77345  0.25682  0.24162  Biso   1.000  O 
  O22      1.0000 0.77121  0.24086  0.49233  Biso   1.000  O 
  O23      1.0000 0.72469  0.75684  0.01001  Biso   1.000  O 
  O24      1.0000 0.72152  0.73979  0.26057  Biso   1.000  O 
  Hf12     1.0000 0.63176  0.04229  0.64762  Biso   1.000  Hf
  Hf13     1.0000 0.62997  0.45693  0.89773  Biso   1.000  Hf
  Hf14     1.0000 0.85501  0.54184  0.60621  Biso   1.000  Hf
  Hf15     1.0000 0.85400  0.95539  0.85646  Biso   1.000  Hf
  O25      1.0000 0.53011  0.33876  0.58135  Biso   1.000  O 
  O26      1.0000 0.52815  0.16038  0.83162  Biso   1.000  O 
  O27      1.0000 0.95800  0.83700  0.67174  Biso   1.000  O 
  O28      1.0000 0.95526  0.65885  0.92291  Biso   1.000  O 
  O29      1.0000 0.76934  0.25777  0.74243  Biso   1.000  O 
  O30      1.0000 0.76627  0.23864  0.99248  Biso   1.000  O 
  O31      1.0000 0.71762  0.75686  0.51138  Biso   1.000  O 
  O32      1.0000 0.71637  0.74142  0.76158  Biso   1.000  O 
