data_image0
_cell_length_a       10.3786
_cell_length_b       5.33083
_cell_length_c       10.4993
_cell_angle_alpha    90
_cell_angle_beta     90
_cell_angle_gamma    90

_symmetry_space_group_name_H-M    "P 1"
_symmetry_int_tables_number       1

loop_
  _symmetry_equiv_pos_as_xyz
  'x, y, z'

loop_
  _atom_site_label
  _atom_site_occupancy
  _atom_site_fract_x
  _atom_site_fract_y
  _atom_site_fract_z
  _atom_site_thermal_displace_type
  _atom_site_B_iso_or_equiv
  _atom_site_type_symbol
  Hf1      1.0000 0.14026  0.92169  0.13273  Biso   1.000  Hf
  Hf2      1.0000 0.08964  0.26422  0.38794  Biso   1.000  Hf
  Hf3      1.0000 0.35663  0.40585  0.13078  Biso   1.000  Hf
  Hf4      1.0000 0.40140  0.89531  0.34810  Biso   1.000  Hf
  O1       1.0000 0.97098  0.00662  0.93808  Biso   1.000  O 
  O2       1.0000 0.02802  0.94756  0.27946  Biso   1.000  O 
  O3       1.0000 0.93145  0.42638  0.30203  Biso   1.000  O 
  O4       1.0000 0.04199  0.49881  0.94952  Biso   1.000  O 
  O5       1.0000 0.25878  0.15453  0.27983  Biso   1.000  O 
  O6       1.0000 0.29947  0.10211  0.02365  Biso   1.000  O 
  O7       1.0000 0.21780  0.60707  0.01009  Biso   1.000  O 
  O8       1.0000 0.25153  0.66260  0.24730  Biso   1.000  O 
  Hf5      1.0000 0.14570  0.68597  0.62301  Biso   1.000  Hf
  Hf6      1.0000 0.11608  0.18481  0.82764  Biso   1.000  Hf
  Hf7      1.0000 0.36150  0.20490  0.61765  Biso   1.000  Hf
  Hf8      1.0000 0.42012  0.70686  0.83713  Biso   1.000  Hf
  O9       1.0000 0.99635  0.05577  0.50982  Biso   1.000  O 
  O10      1.0000 0.03530  0.87530  0.73050  Biso   1.000  O 
  O11      1.0000 0.99139  0.38544  0.72437  Biso   1.000  O 
  O12      1.0000 0.99784  0.56007  0.50740  Biso   1.000  O 
  O13      1.0000 0.26904  0.96850  0.74769  Biso   1.000  O 
  O14      1.0000 0.28290  0.89540  0.50835  Biso   1.000  O 
  O15      1.0000 0.22310  0.38423  0.51901  Biso   1.000  O 
  O16      1.0000 0.25235  0.46630  0.75156  Biso   1.000  O 
  Hf9      1.0000 0.62146  0.93391  0.12911  Biso   1.000  Hf
  Hf10     1.0000 0.59026  0.41743  0.34960  Biso   1.000  Hf
  Hf11     1.0000 0.81440  0.44372  0.12458  Biso   1.000  Hf
  Hf12     1.0000 0.88034  0.76607  0.39270  Biso   1.000  Hf
  O17      1.0000 0.48416  0.01997  0.94047  Biso   1.000  O 
  O18      1.0000 0.49023  0.14391  0.21500  Biso   1.000  O 
  O19      1.0000 0.49287  0.64679  0.21701  Biso   1.000  O 
  O20      1.0000 0.53697  0.52549  0.93673  Biso   1.000  O 
  O21      1.0000 0.71819  0.21524  0.24329  Biso   1.000  O 
  O22      1.0000 0.77965  0.12314  0.02213  Biso   1.000  O 
  O23      1.0000 0.70028  0.64341  0.01261  Biso   1.000  O 
  O24      1.0000 0.73494  0.70869  0.25336  Biso   1.000  O 
  Hf13     1.0000 0.65913  0.74247  0.61652  Biso   1.000  Hf
  Hf14     1.0000 0.60868  0.22378  0.82983  Biso   1.000  Hf
  Hf15     1.0000 0.84900  0.24610  0.60212  Biso   1.000  Hf
  Hf16     1.0000 0.92577  0.66473  0.84840  Biso   1.000  Hf
  O25      1.0000 0.47645  0.19897  0.45849  Biso   1.000  O 
  O26      1.0000 0.51394  0.95306  0.70339  Biso   1.000  O 
  O27      1.0000 0.49728  0.45189  0.70155  Biso   1.000  O 
  O28      1.0000 0.51340  0.70639  0.45910  Biso   1.000  O 
  O29      1.0000 0.75485  0.02110  0.73382  Biso   1.000  O 
  O30      1.0000 0.76528  0.95689  0.49809  Biso   1.000  O 
  O31      1.0000 0.73262  0.46986  0.49148  Biso   1.000  O 
  O32      1.0000 0.74969  0.51036  0.73716  Biso   1.000  O 
  Sn1      1.0000 0.07481  0.42797  0.12420  Biso   1.000  Sn
