data_image0
_cell_length_a       10.2145
_cell_length_b       10.3051
_cell_length_c       10.5158
_cell_angle_alpha    90
_cell_angle_beta     80
_cell_angle_gamma    90

_symmetry_space_group_name_H-M    "P 1"
_symmetry_int_tables_number       1

loop_
  _symmetry_equiv_pos_as_xyz
  'x, y, z'

loop_
  _atom_site_label
  _atom_site_occupancy
  _atom_site_fract_x
  _atom_site_fract_y
  _atom_site_fract_z
  _atom_site_thermal_displace_type
  _atom_site_B_iso_or_equiv
  _atom_site_type_symbol
  Hf1      1.0000 0.13147  0.01863  0.14390  Biso   1.000  Hf
  Hf2      1.0000 0.14612  0.22624  0.39048  Biso   1.000  Hf
  Hf3      1.0000 0.33745  0.26726  0.09106  Biso   1.000  Hf
  Hf4      1.0000 0.36066  0.48321  0.34984  Biso   1.000  Hf
  O1       1.0000 0.03162  0.16835  0.07815  Biso   1.000  O 
  O2       1.0000 0.03526  0.07967  0.33135  Biso   1.000  O 
  O3       1.0000 0.46082  0.44002  0.15538  Biso   1.000  O 
  O4       1.0000 0.48726  0.35223  0.43784  Biso   1.000  O 
  O5       1.0000 0.26423  0.11898  0.23178  Biso   1.000  O 
  O6       1.0000 0.28601  0.12125  0.48437  Biso   1.000  O 
  O7       1.0000 0.21285  0.38401  0.00159  Biso   1.000  O 
  O8       1.0000 0.21582  0.37366  0.25265  Biso   1.000  O 
  Hf5      1.0000 0.14660  0.02040  0.64342  Biso   1.000  Hf
  Hf6      1.0000 0.14215  0.22829  0.88913  Biso   1.000  Hf
  Hf7      1.0000 0.37110  0.27263  0.60292  Biso   1.000  Hf
  Hf8      1.0000 0.37102  0.47834  0.85233  Biso   1.000  Hf
  O9       1.0000 0.04698  0.16740  0.57744  Biso   1.000  O 
  O10      1.0000 0.04086  0.08246  0.82516  Biso   1.000  O 
  O11      1.0000 0.47622  0.41423  0.67708  Biso   1.000  O 
  O12      1.0000 0.47142  0.33050  0.92005  Biso   1.000  O 
  O13      1.0000 0.28278  0.12715  0.73482  Biso   1.000  O 
  O14      1.0000 0.27755  0.12036  0.98025  Biso   1.000  O 
  O15      1.0000 0.23450  0.37697  0.50398  Biso   1.000  O 
  O16      1.0000 0.23351  0.37004  0.75434  Biso   1.000  O 
  Hf9      1.0000 0.13990  0.52418  0.14418  Biso   1.000  Hf
  Hf10     1.0000 0.14425  0.72903  0.39647  Biso   1.000  Hf
  Hf11     1.0000 0.36264  0.77383  0.10412  Biso   1.000  Hf
  Hf12     1.0000 0.36567  0.97158  0.35503  Biso   1.000  Hf
  O17      1.0000 0.03431  0.66864  0.07752  Biso   1.000  O 
  O18      1.0000 0.04108  0.58688  0.32622  Biso   1.000  O 
  O19      1.0000 0.46891  0.91658  0.17373  Biso   1.000  O 
  O20      1.0000 0.46618  0.82258  0.42099  Biso   1.000  O 
  O21      1.0000 0.27975  0.62977  0.24081  Biso   1.000  O 
  O22      1.0000 0.28034  0.61994  0.48984  Biso   1.000  O 
  O23      1.0000 0.22476  0.87917  0.00943  Biso   1.000  O 
  O24      1.0000 0.22631  0.86817  0.25891  Biso   1.000  O 
  Hf13     1.0000 0.14740  0.52046  0.64492  Biso   1.000  Hf
  Hf14     1.0000 0.14923  0.72748  0.89462  Biso   1.000  Hf
  Hf15     1.0000 0.36975  0.76908  0.60385  Biso   1.000  Hf
  Hf16     1.0000 0.37160  0.97721  0.84994  Biso   1.000  Hf
  O25      1.0000 0.04054  0.66432  0.57872  Biso   1.000  O 
  O26      1.0000 0.04459  0.58206  0.82754  Biso   1.000  O 
  O27      1.0000 0.47472  0.91486  0.66874  Biso   1.000  O 
  O28      1.0000 0.47775  0.83465  0.91925  Biso   1.000  O 
  O29      1.0000 0.28463  0.62653  0.73880  Biso   1.000  O 
  O30      1.0000 0.28938  0.62291  0.98870  Biso   1.000  O 
  O31      1.0000 0.23024  0.87727  0.51004  Biso   1.000  O 
  O32      1.0000 0.23395  0.87001  0.75837  Biso   1.000  O 
  Hf17     1.0000 0.64368  0.01620  0.15163  Biso   1.000  Hf
  Hf18     1.0000 0.66689  0.23213  0.41039  Biso   1.000  Hf
  Hf19     1.0000 0.85822  0.27316  0.11098  Biso   1.000  Hf
  Hf20     1.0000 0.87287  0.48077  0.35756  Biso   1.000  Hf
  O33      1.0000 0.51708  0.14717  0.06362  Biso   1.000  O 
  O34      1.0000 0.54352  0.05937  0.34608  Biso   1.000  O 
  O35      1.0000 0.96907  0.41972  0.17011  Biso   1.000  O 
  O36      1.0000 0.97273  0.33105  0.42332  Biso   1.000  O 
  O37      1.0000 0.78852  0.12573  0.24881  Biso   1.000  O 
  O38      1.0000 0.79148  0.11537  0.49988  Biso   1.000  O 
  O39      1.0000 0.71833  0.37814  0.01708  Biso   1.000  O 
  O40      1.0000 0.74011  0.38041  0.26968  Biso   1.000  O 
  Hf21     1.0000 0.64607  0.01985  0.64690  Biso   1.000  Hf
  Hf22     1.0000 0.64599  0.22555  0.89631  Biso   1.000  Hf
  Hf23     1.0000 0.87495  0.26989  0.61011  Biso   1.000  Hf
  Hf24     1.0000 0.87050  0.47778  0.85581  Biso   1.000  Hf
  O41      1.0000 0.54567  0.16769  0.57919  Biso   1.000  O 
  O42      1.0000 0.54087  0.08395  0.82216  Biso   1.000  O 
  O43      1.0000 0.97623  0.41572  0.67407  Biso   1.000  O 
  O44      1.0000 0.97013  0.33078  0.92179  Biso   1.000  O 
  O45      1.0000 0.78358  0.12815  0.74490  Biso   1.000  O 
  O46      1.0000 0.78259  0.12121  0.99526  Biso   1.000  O 
  O47      1.0000 0.73954  0.37782  0.51897  Biso   1.000  O 
  O48      1.0000 0.73431  0.37103  0.76441  Biso   1.000  O 
  Hf25     1.0000 0.64026  0.52781  0.14642  Biso   1.000  Hf
  Hf26     1.0000 0.64330  0.72556  0.39733  Biso   1.000  Hf
  Hf27     1.0000 0.86167  0.77036  0.10500  Biso   1.000  Hf
  Hf28     1.0000 0.86602  0.97521  0.35727  Biso   1.000  Hf
  O49      1.0000 0.53974  0.67681  0.08047  Biso   1.000  O 
  O50      1.0000 0.53701  0.58282  0.32773  Biso   1.000  O 
  O51      1.0000 0.96485  0.91250  0.17523  Biso   1.000  O 
  O52      1.0000 0.97162  0.83076  0.42393  Biso   1.000  O 
  O53      1.0000 0.77962  0.63123  0.24255  Biso   1.000  O 
  O54      1.0000 0.78117  0.62022  0.49202  Biso   1.000  O 
  O55      1.0000 0.72558  0.87945  0.01162  Biso   1.000  O 
  O56      1.0000 0.72618  0.86962  0.26064  Biso   1.000  O 
  Hf29     1.0000 0.64708  0.52097  0.64929  Biso   1.000  Hf
  Hf30     1.0000 0.64893  0.72911  0.89538  Biso   1.000  Hf
  Hf31     1.0000 0.86945  0.77071  0.60461  Biso   1.000  Hf
  Hf32     1.0000 0.87128  0.97772  0.85431  Biso   1.000  Hf
  O57      1.0000 0.54092  0.66354  0.57999  Biso   1.000  O 
  O58      1.0000 0.54396  0.58332  0.83050  Biso   1.000  O 
  O59      1.0000 0.97409  0.91613  0.67169  Biso   1.000  O 
  O60      1.0000 0.97815  0.83386  0.92052  Biso   1.000  O 
  O61      1.0000 0.78472  0.62817  0.74087  Biso   1.000  O 
  O62      1.0000 0.78844  0.62091  0.98919  Biso   1.000  O 
  O63      1.0000 0.72930  0.87526  0.51052  Biso   1.000  O 
  O64      1.0000 0.73405  0.87165  0.76043  Biso   1.000  O 
  Sn1      1.0000 0.50216  0.24970  0.25074  Biso   1.000  Sn
