data_image0
_cell_length_a       10.1431
_cell_length_b       10.365
_cell_length_c       5.12742
_cell_angle_alpha    90
_cell_angle_beta     90
_cell_angle_gamma    90

_symmetry_space_group_name_H-M    "P 1"
_symmetry_int_tables_number       1

loop_
  _symmetry_equiv_pos_as_xyz
  'x, y, z'

loop_
  _atom_site_label
  _atom_site_occupancy
  _atom_site_fract_x
  _atom_site_fract_y
  _atom_site_fract_z
  _atom_site_thermal_displace_type
  _atom_site_B_iso_or_equiv
  _atom_site_type_symbol
  Hf1      1.0000 0.11230  0.98124  0.24856  Biso   1.000  Hf
  Hf2      1.0000 0.08674  0.19968  0.74608  Biso   1.000  Hf
  Hf3      1.0000 0.37395  0.24934  0.16802  Biso   1.000  Hf
  Hf4      1.0000 0.35393  0.01028  0.70192  Biso   1.000  Hf
  O1       1.0000 0.99137  0.13207  0.03613  Biso   1.000  O 
  O2       1.0000 0.96019  0.08111  0.51660  Biso   1.000  O 
  O3       1.0000 0.93166  0.33187  0.68634  Biso   1.000  O 
  O4       1.0000 0.97432  0.43895  0.15162  Biso   1.000  O 
  O5       1.0000 0.23302  0.13209  0.46111  Biso   1.000  O 
  O6       1.0000 0.21324  0.08106  0.97553  Biso   1.000  O 
  O7       1.0000 0.24184  0.33180  0.80583  Biso   1.000  O 
  O8       1.0000 0.25014  0.43893  0.34569  Biso   1.000  O 
  Hf5      1.0000 0.11224  0.58050  0.24860  Biso   1.000  Hf
  Hf6      1.0000 0.08678  0.76204  0.74603  Biso   1.000  Hf
  Hf7      1.0000 0.38501  0.74114  0.22106  Biso   1.000  Hf
  Hf8      1.0000 0.33218  0.49847  0.70121  Biso   1.000  Hf
  O9       1.0000 0.98376  0.66857  0.00273  Biso   1.000  O 
  O10      1.0000 0.97798  0.60294  0.54784  Biso   1.000  O 
  O11      1.0000 0.99781  0.83195  0.40264  Biso   1.000  O 
  O12      1.0000 0.97004  0.90553  0.90613  Biso   1.000  O 
  O13      1.0000 0.24071  0.66856  0.49449  Biso   1.000  O 
  O14      1.0000 0.19543  0.60285  0.94416  Biso   1.000  O 
  O15      1.0000 0.22674  0.83187  0.09450  Biso   1.000  O 
  O16      1.0000 0.20361  0.90546  0.58589  Biso   1.000  O 
  Hf9      1.0000 0.61234  0.99818  0.24851  Biso   1.000  Hf
  Hf10     1.0000 0.58681  0.26245  0.74621  Biso   1.000  Hf
  Hf11     1.0000 0.85054  0.24946  0.32930  Biso   1.000  Hf
  Hf12     1.0000 0.81951  0.01032  0.79010  Biso   1.000  Hf
  O17      1.0000 0.45670  0.14511  0.94250  Biso   1.000  O 
  O18      1.0000 0.47636  0.10407  0.43804  Biso   1.000  O 
  O19      1.0000 0.47566  0.35191  0.46815  Biso   1.000  O 
  O20      1.0000 0.45465  0.39516  0.97189  Biso   1.000  O 
  O21      1.0000 0.71671  0.14513  0.54934  Biso   1.000  O 
  O22      1.0000 0.74796  0.10422  0.05877  Biso   1.000  O 
  O23      1.0000 0.74884  0.35201  0.02913  Biso   1.000  O 
  O24      1.0000 0.71886  0.39520  0.52034  Biso   1.000  O 
  Hf13     1.0000 0.61218  0.49110  0.24869  Biso   1.000  Hf
  Hf14     1.0000 0.58673  0.73981  0.74628  Biso   1.000  Hf
  Hf15     1.0000 0.83951  0.74113  0.27643  Biso   1.000  Hf
  Hf16     1.0000 0.84127  0.49853  0.79105  Biso   1.000  Hf
  O25      1.0000 0.44764  0.64096  0.95726  Biso   1.000  O 
  O26      1.0000 0.48227  0.60168  0.46816  Biso   1.000  O 
  O27      1.0000 0.47279  0.85528  0.50381  Biso   1.000  O 
  O28      1.0000 0.49383  0.88984  0.00568  Biso   1.000  O 
  O29      1.0000 0.72583  0.64102  0.53521  Biso   1.000  O 
  O30      1.0000 0.74217  0.60171  0.02940  Biso   1.000  O 
  O31      1.0000 0.70082  0.85535  0.98837  Biso   1.000  O 
  O32      1.0000 0.73080  0.88994  0.49150  Biso   1.000  O 
  Sn1      1.0000 0.11225  0.29459  0.24861  Biso   1.000  Sn
