data_image0
_cell_length_a       10.1373
_cell_length_b       10.4046
_cell_length_c       5.26743
_cell_angle_alpha    90
_cell_angle_beta     90
_cell_angle_gamma    90

_symmetry_space_group_name_H-M    "P 1"
_symmetry_int_tables_number       1

loop_
  _symmetry_equiv_pos_as_xyz
  'x, y, z'

loop_
  _atom_site_label
  _atom_site_occupancy
  _atom_site_fract_x
  _atom_site_fract_y
  _atom_site_fract_z
  _atom_site_thermal_displace_type
  _atom_site_B_iso_or_equiv
  _atom_site_type_symbol
  Hf1      1.0000 0.12610  0.01545  0.35856  Biso   1.000  Hf
  Hf2      1.0000 0.12288  0.22381  0.86810  Biso   1.000  Hf
  Hf3      1.0000 0.33624  0.26170  0.38668  Biso   1.000  Hf
  Hf4      1.0000 0.34684  0.48458  0.85322  Biso   1.000  Hf
  Hf5      1.0000 0.63937  0.01076  0.15580  Biso   1.000  Hf
  Hf6      1.0000 0.64997  0.23365  0.62233  Biso   1.000  Hf
  Hf7      1.0000 0.86333  0.27154  0.14091  Biso   1.000  Hf
  Hf8      1.0000 0.86010  0.47989  0.65046  Biso   1.000  Hf
  O1       1.0000 0.03117  0.16731  0.18028  Biso   1.000  O 
  O2       1.0000 0.02129  0.07889  0.67863  Biso   1.000  O 
  O3       1.0000 0.47505  0.44369  0.17885  Biso   1.000  O 
  O4       1.0000 0.46724  0.34821  0.63188  Biso   1.000  O 
  O5       1.0000 0.25991  0.12025  0.61685  Biso   1.000  O 
  O6       1.0000 0.26262  0.10774  0.12009  Biso   1.000  O 
  O7       1.0000 0.21166  0.37316  0.62260  Biso   1.000  O 
  O8       1.0000 0.22079  0.37510  0.12596  Biso   1.000  O 
  O9       1.0000 0.51897  0.14714  0.37715  Biso   1.000  O 
  O10      1.0000 0.51115  0.05167  0.83021  Biso   1.000  O 
  O11      1.0000 0.96491  0.41645  0.33038  Biso   1.000  O 
  O12      1.0000 0.95504  0.32803  0.82873  Biso   1.000  O 
  O13      1.0000 0.76543  0.12025  0.88304  Biso   1.000  O 
  O14      1.0000 0.77455  0.12220  0.38641  Biso   1.000  O 
  O15      1.0000 0.72359  0.38761  0.88893  Biso   1.000  O 
  O16      1.0000 0.72630  0.37509  0.39216  Biso   1.000  O 
  Hf9      1.0000 0.13613  0.51903  0.34810  Biso   1.000  Hf
  Hf10     1.0000 0.12664  0.72595  0.84850  Biso   1.000  Hf
  Hf11     1.0000 0.36379  0.76663  0.35526  Biso   1.000  Hf
  Hf12     1.0000 0.34769  0.96459  0.86481  Biso   1.000  Hf
  Hf13     1.0000 0.64989  0.53070  0.14422  Biso   1.000  Hf
  Hf14     1.0000 0.63379  0.72866  0.65378  Biso   1.000  Hf
  Hf15     1.0000 0.87095  0.76934  0.16053  Biso   1.000  Hf
  Hf16     1.0000 0.86146  0.97624  0.66093  Biso   1.000  Hf
  O17      1.0000 0.04017  0.66533  0.17133  Biso   1.000  O 
  O18      1.0000 0.02880  0.58060  0.67402  Biso   1.000  O 
  O19      1.0000 0.47518  0.91085  0.18727  Biso   1.000  O 
  O20      1.0000 0.45771  0.82226  0.68318  Biso   1.000  O 
  O21      1.0000 0.26919  0.62268  0.59209  Biso   1.000  O 
  O22      1.0000 0.28008  0.62313  0.09317  Biso   1.000  O 
  O23      1.0000 0.21822  0.86890  0.60414  Biso   1.000  O 
  O24      1.0000 0.23185  0.86754  0.10851  Biso   1.000  O 
  O25      1.0000 0.53987  0.67303  0.32585  Biso   1.000  O 
  O26      1.0000 0.52241  0.58444  0.82177  Biso   1.000  O 
  O27      1.0000 0.96879  0.91468  0.33501  Biso   1.000  O 
  O28      1.0000 0.95742  0.82994  0.83770  Biso   1.000  O 
  O29      1.0000 0.76574  0.62775  0.90052  Biso   1.000  O 
  O30      1.0000 0.77936  0.62638  0.40489  Biso   1.000  O 
  O31      1.0000 0.71751  0.87216  0.91586  Biso   1.000  O 
  O32      1.0000 0.72840  0.87260  0.41695  Biso   1.000  O 
  Sn1      1.0000 0.50557  0.24998  0.00512  Biso   1.000  Sn
