data_image0
_cell_length_a       10.3189
_cell_length_b       10.4008
_cell_length_c       5.26876
_cell_angle_alpha    90
_cell_angle_beta     80
_cell_angle_gamma    90

_symmetry_space_group_name_H-M    "P 1"
_symmetry_int_tables_number       1

loop_
  _symmetry_equiv_pos_as_xyz
  'x, y, z'

loop_
  _atom_site_label
  _atom_site_occupancy
  _atom_site_fract_x
  _atom_site_fract_y
  _atom_site_fract_z
  _atom_site_thermal_displace_type
  _atom_site_B_iso_or_equiv
  _atom_site_type_symbol
  Hf1      1.0000 0.13328  0.01782  0.28496  Biso   1.000  Hf
  Hf2      1.0000 0.14571  0.22933  0.76914  Biso   1.000  Hf
  Hf3      1.0000 0.34026  0.26469  0.17946  Biso   1.000  Hf
  Hf4      1.0000 0.37169  0.48939  0.70189  Biso   1.000  Hf
  O1       1.0000 0.03963  0.17057  0.15850  Biso   1.000  O 
  O2       1.0000 0.03776  0.08207  0.65933  Biso   1.000  O 
  O3       1.0000 0.47246  0.44607  0.33671  Biso   1.000  O 
  O4       1.0000 0.48776  0.35363  0.88004  Biso   1.000  O 
  O5       1.0000 0.26594  0.11887  0.45628  Biso   1.000  O 
  O6       1.0000 0.28438  0.12394  0.95058  Biso   1.000  O 
  O7       1.0000 0.23361  0.38577  0.98797  Biso   1.000  O 
  O8       1.0000 0.22351  0.37225  0.49377  Biso   1.000  O 
  Hf5      1.0000 0.14695  0.52331  0.28949  Biso   1.000  Hf
  Hf6      1.0000 0.15429  0.73128  0.79132  Biso   1.000  Hf
  Hf7      1.0000 0.37015  0.77153  0.20732  Biso   1.000  Hf
  Hf8      1.0000 0.37591  0.97195  0.69744  Biso   1.000  Hf
  O9       1.0000 0.03947  0.66745  0.15951  Biso   1.000  O 
  O10      1.0000 0.05077  0.58779  0.65419  Biso   1.000  O 
  O11      1.0000 0.47638  0.91621  0.33362  Biso   1.000  O 
  O12      1.0000 0.47884  0.82647  0.83453  Biso   1.000  O 
  O13      1.0000 0.28626  0.62986  0.48166  Biso   1.000  O 
  O14      1.0000 0.29349  0.62663  0.97956  Biso   1.000  O 
  O15      1.0000 0.22958  0.87739  0.01827  Biso   1.000  O 
  O16      1.0000 0.23629  0.86844  0.51320  Biso   1.000  O 
  Hf9      1.0000 0.64281  0.01396  0.30281  Biso   1.000  Hf
  Hf10     1.0000 0.67424  0.23867  0.82527  Biso   1.000  Hf
  Hf11     1.0000 0.86878  0.27402  0.23557  Biso   1.000  Hf
  Hf12     1.0000 0.88123  0.48553  0.71972  Biso   1.000  Hf
  O17      1.0000 0.52676  0.14972  0.12467  Biso   1.000  O 
  O18      1.0000 0.54204  0.05726  0.66799  Biso   1.000  O 
  O19      1.0000 0.97675  0.42128  0.34538  Biso   1.000  O 
  O20      1.0000 0.97488  0.33279  0.84620  Biso   1.000  O 
  O21      1.0000 0.79100  0.13110  0.51093  Biso   1.000  O 
  O22      1.0000 0.78091  0.11758  0.01674  Biso   1.000  O 
  O23      1.0000 0.73012  0.37941  0.05412  Biso   1.000  O 
  O24      1.0000 0.74857  0.38447  0.54842  Biso   1.000  O 
  Hf13     1.0000 0.64909  0.53133  0.30725  Biso   1.000  Hf
  Hf14     1.0000 0.65485  0.73177  0.79736  Biso   1.000  Hf
  Hf15     1.0000 0.87071  0.77202  0.21336  Biso   1.000  Hf
  Hf16     1.0000 0.87806  0.98000  0.71520  Biso   1.000  Hf
  O25      1.0000 0.54615  0.67682  0.17016  Biso   1.000  O 
  O26      1.0000 0.54861  0.58709  0.67106  Biso   1.000  O 
  O27      1.0000 0.97423  0.91551  0.35050  Biso   1.000  O 
  O28      1.0000 0.98552  0.83585  0.84519  Biso   1.000  O 
  O29      1.0000 0.78870  0.63485  0.49149  Biso   1.000  O 
  O30      1.0000 0.79541  0.62590  0.98642  Biso   1.000  O 
  O31      1.0000 0.73150  0.87667  0.02511  Biso   1.000  O 
  O32      1.0000 0.73873  0.87344  0.52302  Biso   1.000  O 
  Sn1      1.0000 0.50724  0.25167  0.50238  Biso   1.000  Sn
