data_image0
_cell_length_a       10.3164
_cell_length_b       5.17234
_cell_length_c       10.5894
_cell_angle_alpha    90
_cell_angle_beta     80
_cell_angle_gamma    90

_symmetry_space_group_name_H-M    "P 1"
_symmetry_int_tables_number       1

loop_
  _symmetry_equiv_pos_as_xyz
  'x, y, z'

loop_
  _atom_site_label
  _atom_site_occupancy
  _atom_site_fract_x
  _atom_site_fract_y
  _atom_site_fract_z
  _atom_site_thermal_displace_type
  _atom_site_B_iso_or_equiv
  _atom_site_type_symbol
  Hf1      1.0000 0.13276  0.04219  0.14221  Biso   1.000  Hf
  Hf2      1.0000 0.15472  0.45169  0.38996  Biso   1.000  Hf
  Hf3      1.0000 0.34095  0.53844  0.09049  Biso   1.000  Hf
  Hf4      1.0000 0.36395  0.95109  0.34756  Biso   1.000  Hf
  O1       1.0000 0.02893  0.33381  0.07541  Biso   1.000  O 
  O2       1.0000 0.04245  0.17021  0.32697  Biso   1.000  O 
  O3       1.0000 0.46970  0.87598  0.15915  Biso   1.000  O 
  O4       1.0000 0.49414  0.67914  0.43932  Biso   1.000  O 
  O5       1.0000 0.27009  0.23207  0.23167  Biso   1.000  O 
  O6       1.0000 0.29208  0.23662  0.48318  Biso   1.000  O 
  O7       1.0000 0.21399  0.76714  0.00123  Biso   1.000  O 
  O8       1.0000 0.21805  0.73855  0.24907  Biso   1.000  O 
  Hf5      1.0000 0.15959  0.03508  0.64090  Biso   1.000  Hf
  Hf6      1.0000 0.15887  0.44945  0.88724  Biso   1.000  Hf
  Hf7      1.0000 0.38392  0.53569  0.60246  Biso   1.000  Hf
  Hf8      1.0000 0.38697  0.94978  0.84594  Biso   1.000  Hf
  O9       1.0000 0.05547  0.32154  0.57476  Biso   1.000  O 
  O10      1.0000 0.05575  0.16285  0.82134  Biso   1.000  O 
  O11      1.0000 0.49155  0.81676  0.67419  Biso   1.000  O 
  O12      1.0000 0.49142  0.66579  0.91636  Biso   1.000  O 
  O13      1.0000 0.29582  0.24428  0.73244  Biso   1.000  O 
  O14      1.0000 0.29789  0.24084  0.97796  Biso   1.000  O 
  O15      1.0000 0.24446  0.74670  0.50266  Biso   1.000  O 
  O16      1.0000 0.24903  0.73361  0.75144  Biso   1.000  O 
  Hf9      1.0000 0.64889  0.04374  0.15438  Biso   1.000  Hf
  Hf10     1.0000 0.67191  0.45643  0.41146  Biso   1.000  Hf
  Hf11     1.0000 0.85813  0.54316  0.11199  Biso   1.000  Hf
  Hf12     1.0000 0.88008  0.95267  0.35973  Biso   1.000  Hf
  O17      1.0000 0.51870  0.31573  0.06263  Biso   1.000  O 
  O18      1.0000 0.54313  0.11887  0.34278  Biso   1.000  O 
  O19      1.0000 0.97040  0.82464  0.17498  Biso   1.000  O 
  O20      1.0000 0.98391  0.66103  0.42654  Biso   1.000  O 
  O21      1.0000 0.79479  0.25632  0.25288  Biso   1.000  O 
  O22      1.0000 0.79886  0.22772  0.50071  Biso   1.000  O 
  O23      1.0000 0.72076  0.75821  0.01876  Biso   1.000  O 
  O24      1.0000 0.74276  0.76279  0.27027  Biso   1.000  O 
  Hf13     1.0000 0.65963  0.03492  0.64976  Biso   1.000  Hf
  Hf14     1.0000 0.66268  0.44902  0.89323  Biso   1.000  Hf
  Hf15     1.0000 0.88775  0.53523  0.60845  Biso   1.000  Hf
  Hf16     1.0000 0.88702  0.94961  0.85480  Biso   1.000  Hf
  O25      1.0000 0.55518  0.31890  0.57933  Biso   1.000  O 
  O26      1.0000 0.55505  0.16795  0.82151  Biso   1.000  O 
  O27      1.0000 0.99085  0.82185  0.67436  Biso   1.000  O 
  O28      1.0000 0.99113  0.66315  0.92094  Biso   1.000  O 
  O29      1.0000 0.79757  0.25110  0.74427  Biso   1.000  O 
  O30      1.0000 0.80214  0.23798  0.99305  Biso   1.000  O 
  O31      1.0000 0.74872  0.74386  0.51774  Biso   1.000  O 
  O32      1.0000 0.75079  0.74042  0.76326  Biso   1.000  O 
  Sn1      1.0000 0.50642  0.49742  0.25098  Biso   1.000  Sn
