data_image0
_cell_length_a       10.0505
_cell_length_b       10.2096
_cell_length_c       10.0505
_cell_angle_alpha    90
_cell_angle_beta     90
_cell_angle_gamma    90

_symmetry_space_group_name_H-M    "P 1"
_symmetry_int_tables_number       1

loop_
  _symmetry_equiv_pos_as_xyz
  'x, y, z'

loop_
  _atom_site_label
  _atom_site_occupancy
  _atom_site_fract_x
  _atom_site_fract_y
  _atom_site_fract_z
  _atom_site_thermal_displace_type
  _atom_site_B_iso_or_equiv
  _atom_site_type_symbol
  Sr1      1.0000 0.12559  0.00032  0.12560  Biso   1.000  Sr
  Hf1      1.0000 0.12559  0.00034  0.62560  Biso   1.000  Hf
  Hf2      1.0000 0.12561  0.50032  0.12560  Biso   1.000  Hf
  Hf3      1.0000 0.12561  0.50034  0.62560  Biso   1.000  Hf
  Hf4      1.0000 0.62558  0.00032  0.12560  Biso   1.000  Hf
  Hf5      1.0000 0.62559  0.00034  0.62560  Biso   1.000  Hf
  Hf6      1.0000 0.62561  0.50032  0.12560  Biso   1.000  Hf
  Hf7      1.0000 0.62561  0.50034  0.62560  Biso   1.000  Hf
  Hf8      1.0000 0.12404  0.25185  0.37635  Biso   1.000  Hf
  Hf9      1.0000 0.12718  0.25188  0.87487  Biso   1.000  Hf
  Hf10     1.0000 0.12719  0.74881  0.37635  Biso   1.000  Hf
  Hf11     1.0000 0.12407  0.74883  0.87486  Biso   1.000  Hf
  Hf12     1.0000 0.62546  0.24969  0.37550  Biso   1.000  Hf
  Hf13     1.0000 0.62575  0.24971  0.87571  Biso   1.000  Hf
  Hf14     1.0000 0.62576  0.75097  0.37550  Biso   1.000  Hf
  Hf15     1.0000 0.62549  0.75100  0.87571  Biso   1.000  Hf
  Hf16     1.0000 0.37634  0.25184  0.12405  Biso   1.000  Hf
  Hf17     1.0000 0.37551  0.24970  0.62547  Biso   1.000  Hf
  Hf18     1.0000 0.37636  0.74880  0.12717  Biso   1.000  Hf
  Hf19     1.0000 0.37551  0.75098  0.62574  Biso   1.000  Hf
  Hf20     1.0000 0.87486  0.25184  0.12717  Biso   1.000  Hf
  Hf21     1.0000 0.87571  0.24970  0.62575  Biso   1.000  Hf
  Hf22     1.0000 0.87488  0.74880  0.12405  Biso   1.000  Hf
  Hf23     1.0000 0.87573  0.75099  0.62546  Biso   1.000  Hf
  Hf24     1.0000 0.37591  0.00152  0.37592  Biso   1.000  Hf
  Hf25     1.0000 0.37594  0.99916  0.87528  Biso   1.000  Hf
  Hf26     1.0000 0.37654  0.49944  0.37653  Biso   1.000  Hf
  Hf27     1.0000 0.37655  0.50124  0.87467  Biso   1.000  Hf
  Hf28     1.0000 0.87530  0.99914  0.37592  Biso   1.000  Hf
  Hf29     1.0000 0.87527  0.00154  0.87528  Biso   1.000  Hf
  Hf30     1.0000 0.87467  0.50122  0.37653  Biso   1.000  Hf
  Hf31     1.0000 0.87468  0.49947  0.87466  Biso   1.000  Hf
  O1       1.0000 0.99419  0.15388  0.99419  Biso   1.000  O 
  O2       1.0000 0.00828  0.14881  0.51036  Biso   1.000  O 
  O3       1.0000 0.00548  0.64274  0.00547  Biso   1.000  O 
  O4       1.0000 0.00168  0.64696  0.50462  Biso   1.000  O 
  O5       1.0000 0.51034  0.14880  0.00828  Biso   1.000  O 
  O6       1.0000 0.50555  0.14812  0.50555  Biso   1.000  O 
  O7       1.0000 0.50462  0.64695  0.00166  Biso   1.000  O 
  O8       1.0000 0.50113  0.64781  0.50112  Biso   1.000  O 
  O9       1.0000 0.98602  0.12130  0.26519  Biso   1.000  O 
  O10      1.0000 0.99721  0.10221  0.75186  Biso   1.000  O 
  O11      1.0000 0.99829  0.60207  0.25290  Biso   1.000  O 
  O12      1.0000 0.00074  0.60268  0.75398  Biso   1.000  O 
  O13      1.0000 0.49934  0.10219  0.25399  Biso   1.000  O 
  O14      1.0000 0.49823  0.10318  0.75297  Biso   1.000  O 
  O15      1.0000 0.49721  0.60267  0.25047  Biso   1.000  O 
  O16      1.0000 0.50041  0.60308  0.75080  Biso   1.000  O 
  O17      1.0000 0.00548  0.35791  0.24572  Biso   1.000  O 
  O18      1.0000 0.00167  0.35371  0.74658  Biso   1.000  O 
  O19      1.0000 0.99420  0.84681  0.25702  Biso   1.000  O 
  O20      1.0000 0.00830  0.85187  0.74086  Biso   1.000  O 
  O21      1.0000 0.50462  0.35370  0.24954  Biso   1.000  O 
  O22      1.0000 0.50113  0.35286  0.75009  Biso   1.000  O 
  O23      1.0000 0.51037  0.85185  0.24291  Biso   1.000  O 
  O24      1.0000 0.50558  0.85255  0.74565  Biso   1.000  O 
  O25      1.0000 0.99832  0.39862  0.99829  Biso   1.000  O 
  O26      1.0000 0.00073  0.39799  0.49721  Biso   1.000  O 
  O27      1.0000 0.98605  0.87939  0.98603  Biso   1.000  O 
  O28      1.0000 0.99723  0.89847  0.49935  Biso   1.000  O 
  O29      1.0000 0.49721  0.39798  0.00073  Biso   1.000  O 
  O30      1.0000 0.50040  0.39759  0.50040  Biso   1.000  O 
  O31      1.0000 0.49937  0.89849  0.99721  Biso   1.000  O 
  O32      1.0000 0.49826  0.89749  0.49823  Biso   1.000  O 
  O33      1.0000 0.25701  0.15385  0.25702  Biso   1.000  O 
  O34      1.0000 0.24293  0.14882  0.74086  Biso   1.000  O 
  O35      1.0000 0.24572  0.64275  0.24571  Biso   1.000  O 
  O36      1.0000 0.24955  0.64697  0.74657  Biso   1.000  O 
  O37      1.0000 0.74085  0.14881  0.24292  Biso   1.000  O 
  O38      1.0000 0.74565  0.14813  0.74565  Biso   1.000  O 
  O39      1.0000 0.74658  0.64696  0.24953  Biso   1.000  O 
  O40      1.0000 0.75009  0.64782  0.75008  Biso   1.000  O 
  O41      1.0000 0.26519  0.12132  0.98603  Biso   1.000  O 
  O42      1.0000 0.25399  0.10220  0.49935  Biso   1.000  O 
  O43      1.0000 0.25291  0.60209  0.99829  Biso   1.000  O 
  O44      1.0000 0.25049  0.60267  0.49721  Biso   1.000  O 
  O45      1.0000 0.75187  0.10222  0.99722  Biso   1.000  O 
  O46      1.0000 0.75296  0.10317  0.49824  Biso   1.000  O 
  O47      1.0000 0.75399  0.60267  0.00072  Biso   1.000  O 
  O48      1.0000 0.75082  0.60307  0.50039  Biso   1.000  O 
  O49      1.0000 0.24572  0.35790  0.00548  Biso   1.000  O 
  O50      1.0000 0.24955  0.35370  0.50463  Biso   1.000  O 
  O51      1.0000 0.25705  0.84683  0.99419  Biso   1.000  O 
  O52      1.0000 0.24293  0.85185  0.51036  Biso   1.000  O 
  O53      1.0000 0.74658  0.35369  0.00166  Biso   1.000  O 
  O54      1.0000 0.75009  0.35285  0.50112  Biso   1.000  O 
  O55      1.0000 0.74087  0.85184  0.00828  Biso   1.000  O 
  O56      1.0000 0.74566  0.85254  0.50556  Biso   1.000  O 
  O57      1.0000 0.25292  0.39859  0.25291  Biso   1.000  O 
  O58      1.0000 0.25049  0.39800  0.75399  Biso   1.000  O 
  O59      1.0000 0.26520  0.87936  0.26519  Biso   1.000  O 
  O60      1.0000 0.25401  0.89848  0.75186  Biso   1.000  O 
  O61      1.0000 0.75400  0.39799  0.25047  Biso   1.000  O 
  O62      1.0000 0.75082  0.39760  0.75080  Biso   1.000  O 
  O63      1.0000 0.75187  0.89847  0.25399  Biso   1.000  O 
  O64      1.0000 0.75299  0.89750  0.75297  Biso   1.000  O 
