data_image0
_cell_length_a       10.128
_cell_length_b       5.23116
_cell_length_c       10.1923
_cell_angle_alpha    80
_cell_angle_beta     90
_cell_angle_gamma    90

_symmetry_space_group_name_H-M    "P 1"
_symmetry_int_tables_number       1

loop_
  _symmetry_equiv_pos_as_xyz
  'x, y, z'

loop_
  _atom_site_label
  _atom_site_occupancy
  _atom_site_fract_x
  _atom_site_fract_y
  _atom_site_fract_z
  _atom_site_thermal_displace_type
  _atom_site_B_iso_or_equiv
  _atom_site_type_symbol
  Hf1      1.0000 0.15025  0.06337  0.11812  Biso   1.000  Hf
  Hf2      1.0000 0.15465  0.39420  0.39730  Biso   1.000  Hf
  Hf3      1.0000 0.42521  0.48339  0.08017  Biso   1.000  Hf
  Hf4      1.0000 0.39391  0.93216  0.35520  Biso   1.000  Hf
  O1       1.0000 0.00744  0.26796  0.22054  Biso   1.000  O 
  O2       1.0000 0.04851  0.04478  0.45831  Biso   1.000  O 
  O3       1.0000 0.50628  0.71174  0.21074  Biso   1.000  O 
  O4       1.0000 0.45777  0.56679  0.45670  Biso   1.000  O 
  O5       1.0000 0.26527  0.26712  0.23588  Biso   1.000  O 
  O6       1.0000 0.28621  0.11503  0.49195  Biso   1.000  O 
  O7       1.0000 0.21779  0.58370  0.54570  Biso   1.000  O 
  O8       1.0000 0.21677  0.76380  0.28370  Biso   1.000  O 
  Hf5      1.0000 0.14962  0.90417  0.62975  Biso   1.000  Hf
  Hf6      1.0000 0.11916  0.32630  0.82505  Biso   1.000  Hf
  Hf7      1.0000 0.39185  0.45069  0.64657  Biso   1.000  Hf
  Hf8      1.0000 0.39723  0.87544  0.86975  Biso   1.000  Hf
  O9       1.0000 0.02523  0.19930  0.68033  Biso   1.000  O 
  O10      1.0000 0.06160  0.95759  0.94394  Biso   1.000  O 
  O11      1.0000 0.49002  0.75467  0.69124  Biso   1.000  O 
  O12      1.0000 0.51483  0.53117  0.92663  Biso   1.000  O 
  O13      1.0000 0.26931  0.12137  0.73956  Biso   1.000  O 
  O14      1.0000 0.28266  0.17382  0.98207  Biso   1.000  O 
  O15      1.0000 0.31321  0.85174  0.03649  Biso   1.000  O 
  O16      1.0000 0.26491  0.61632  0.78384  Biso   1.000  O 
  Hf9      1.0000 0.64484  0.99928  0.13565  Biso   1.000  Hf
  Hf10     1.0000 0.60512  0.40856  0.35531  Biso   1.000  Hf
  Hf11     1.0000 0.84607  0.48900  0.13536  Biso   1.000  Hf
  Hf12     1.0000 0.91881  0.91802  0.34720  Biso   1.000  Hf
  O17      1.0000 0.50114  0.19364  0.22987  Biso   1.000  O 
  O18      1.0000 0.54116  0.04706  0.46029  Biso   1.000  O 
  O19      1.0000 0.96912  0.81924  0.16599  Biso   1.000  O 
  O20      1.0000 0.97588  0.54526  0.43776  Biso   1.000  O 
  O21      1.0000 0.75578  0.18004  0.26913  Biso   1.000  O 
  O22      1.0000 0.71294  0.33745  0.52657  Biso   1.000  O 
  O23      1.0000 0.80696  0.83387  0.51950  Biso   1.000  O 
  O24      1.0000 0.74932  0.68419  0.26927  Biso   1.000  O 
  Hf13     1.0000 0.65001  0.96334  0.62895  Biso   1.000  Hf
  Hf14     1.0000 0.67062  0.31569  0.88907  Biso   1.000  Hf
  Hf15     1.0000 0.86948  0.46633  0.61434  Biso   1.000  Hf
  Hf16     1.0000 0.89781  0.80878  0.88653  Biso   1.000  Hf
  O25      1.0000 0.53051  0.19896  0.74466  Biso   1.000  O 
  O26      1.0000 0.53872  0.01513  0.99043  Biso   1.000  O 
  O27      1.0000 0.00961  0.67174  0.72489  Biso   1.000  O 
  O28      1.0000 0.97857  0.43614  0.95542  Biso   1.000  O 
  O29      1.0000 0.78607  0.11496  0.76162  Biso   1.000  O 
  O30      1.0000 0.78552  0.22753  0.00630  Biso   1.000  O 
  O31      1.0000 0.73890  0.76084  0.00004  Biso   1.000  O 
  O32      1.0000 0.75310  0.62342  0.75691  Biso   1.000  O 
  Sr1      1.0000 0.13702  0.58581  0.09035  Biso   1.000  Sr
