data_image0
_cell_length_a       10.0543
_cell_length_b       5.19176
_cell_length_c       10.1008
_cell_angle_alpha    90
_cell_angle_beta     90
_cell_angle_gamma    90

_symmetry_space_group_name_H-M    "P 1"
_symmetry_int_tables_number       1

loop_
  _symmetry_equiv_pos_as_xyz
  'x, y, z'

loop_
  _atom_site_label
  _atom_site_occupancy
  _atom_site_fract_x
  _atom_site_fract_y
  _atom_site_fract_z
  _atom_site_thermal_displace_type
  _atom_site_B_iso_or_equiv
  _atom_site_type_symbol
  Sr1      1.0000 0.12288  0.01484  0.12276  Biso   1.000  Sr
  Hf1      1.0000 0.13014  0.03182  0.62587  Biso   1.000  Hf
  Hf2      1.0000 0.63446  0.02801  0.12422  Biso   1.000  Hf
  Hf3      1.0000 0.62833  0.02855  0.62622  Biso   1.000  Hf
  Hf4      1.0000 0.13416  0.46760  0.37773  Biso   1.000  Hf
  Hf5      1.0000 0.13430  0.46554  0.87266  Biso   1.000  Hf
  Hf6      1.0000 0.62753  0.46222  0.37886  Biso   1.000  Hf
  Hf7      1.0000 0.63070  0.46026  0.87427  Biso   1.000  Hf
  Hf8      1.0000 0.36430  0.52356  0.12559  Biso   1.000  Hf
  Hf9      1.0000 0.36173  0.53076  0.62547  Biso   1.000  Hf
  Hf10     1.0000 0.85812  0.52914  0.12805  Biso   1.000  Hf
  Hf11     1.0000 0.86255  0.53048  0.62402  Biso   1.000  Hf
  Hf12     1.0000 0.36013  0.96563  0.37444  Biso   1.000  Hf
  Hf13     1.0000 0.36109  0.96101  0.87615  Biso   1.000  Hf
  Hf14     1.0000 0.85852  0.96724  0.38247  Biso   1.000  Hf
  Hf15     1.0000 0.85811  0.96013  0.87245  Biso   1.000  Hf
  O1       1.0000 0.02868  0.41399  0.20458  Biso   1.000  O 
  O2       1.0000 0.03597  0.37666  0.68380  Biso   1.000  O 
  O3       1.0000 0.53758  0.36452  0.19470  Biso   1.000  O 
  O4       1.0000 0.53072  0.36222  0.69529  Biso   1.000  O 
  O5       1.0000 0.03219  0.12826  0.44155  Biso   1.000  O 
  O6       1.0000 0.02374  0.15012  0.91528  Biso   1.000  O 
  O7       1.0000 0.53195  0.12784  0.44681  Biso   1.000  O 
  O8       1.0000 0.53234  0.12812  0.94435  Biso   1.000  O 
  O9       1.0000 0.46457  0.86807  0.19513  Biso   1.000  O 
  O10      1.0000 0.46120  0.86149  0.69662  Biso   1.000  O 
  O11      1.0000 0.92243  0.87661  0.19812  Biso   1.000  O 
  O12      1.0000 0.95730  0.86783  0.69085  Biso   1.000  O 
  O13      1.0000 0.46216  0.63075  0.44936  Biso   1.000  O 
  O14      1.0000 0.46906  0.63411  0.94686  Biso   1.000  O 
  O15      1.0000 0.96041  0.63487  0.44612  Biso   1.000  O 
  O16      1.0000 0.96561  0.64285  0.95065  Biso   1.000  O 
  O17      1.0000 0.28090  0.24581  0.25638  Biso   1.000  O 
  O18      1.0000 0.26744  0.23305  0.74750  Biso   1.000  O 
  O19      1.0000 0.76461  0.23518  0.25225  Biso   1.000  O 
  O20      1.0000 0.76613  0.23035  0.74738  Biso   1.000  O 
  O21      1.0000 0.26630  0.26051  0.50215  Biso   1.000  O 
  O22      1.0000 0.27318  0.25986  0.99148  Biso   1.000  O 
  O23      1.0000 0.76472  0.26424  0.50063  Biso   1.000  O 
  O24      1.0000 0.76544  0.25679  0.99815  Biso   1.000  O 
  O25      1.0000 0.22560  0.76559  0.50085  Biso   1.000  O 
  O26      1.0000 0.23756  0.73621  0.99090  Biso   1.000  O 
  O27      1.0000 0.72441  0.76097  0.50132  Biso   1.000  O 
  O28      1.0000 0.72361  0.75631  0.99849  Biso   1.000  O 
  O29      1.0000 0.24203  0.71430  0.25814  Biso   1.000  O 
  O30      1.0000 0.22523  0.73684  0.74589  Biso   1.000  O 
  O31      1.0000 0.71255  0.73026  0.25072  Biso   1.000  O 
  O32      1.0000 0.72568  0.72876  0.74875  Biso   1.000  O 
