data_image0
_cell_length_a       10.0812
_cell_length_b       10.2602
_cell_length_c       10.474
_cell_angle_alpha    90
_cell_angle_beta     90
_cell_angle_gamma    90

_symmetry_space_group_name_H-M    "P 1"
_symmetry_int_tables_number       1

loop_
  _symmetry_equiv_pos_as_xyz
  'x, y, z'

loop_
  _atom_site_label
  _atom_site_occupancy
  _atom_site_fract_x
  _atom_site_fract_y
  _atom_site_fract_z
  _atom_site_thermal_displace_type
  _atom_site_B_iso_or_equiv
  _atom_site_type_symbol
  Sr1      1.0000 0.13555  0.01086  0.16549  Biso   1.000  Sr
  Hf1      1.0000 0.13893  0.02137  0.67252  Biso   1.000  Hf
  Hf2      1.0000 0.13885  0.52020  0.17159  Biso   1.000  Hf
  Hf3      1.0000 0.13776  0.52133  0.67185  Biso   1.000  Hf
  Hf4      1.0000 0.13884  0.22716  0.42239  Biso   1.000  Hf
  Hf5      1.0000 0.13725  0.23182  0.92172  Biso   1.000  Hf
  Hf6      1.0000 0.13934  0.72842  0.42218  Biso   1.000  Hf
  Hf7      1.0000 0.13952  0.72895  0.92090  Biso   1.000  Hf
  Hf8      1.0000 0.35704  0.26702  0.17121  Biso   1.000  Hf
  Hf9      1.0000 0.35944  0.27059  0.67198  Biso   1.000  Hf
  Hf10     1.0000 0.36329  0.76808  0.17076  Biso   1.000  Hf
  Hf11     1.0000 0.35824  0.77192  0.67140  Biso   1.000  Hf
  Hf12     1.0000 0.35873  0.47760  0.42087  Biso   1.000  Hf
  Hf13     1.0000 0.35882  0.47818  0.92241  Biso   1.000  Hf
  Hf14     1.0000 0.35792  0.98010  0.42126  Biso   1.000  Hf
  Hf15     1.0000 0.36042  0.98092  0.92076  Biso   1.000  Hf
  Hf16     1.0000 0.64041  0.02175  0.07961  Biso   1.000  Hf
  Hf17     1.0000 0.63764  0.02123  0.57973  Biso   1.000  Hf
  Hf18     1.0000 0.63610  0.51836  0.07758  Biso   1.000  Hf
  Hf19     1.0000 0.63673  0.52107  0.57721  Biso   1.000  Hf
  Hf20     1.0000 0.63670  0.23056  0.32832  Biso   1.000  Hf
  Hf21     1.0000 0.63806  0.22947  0.82804  Biso   1.000  Hf
  Hf22     1.0000 0.63870  0.72832  0.32889  Biso   1.000  Hf
  Hf23     1.0000 0.63533  0.72957  0.82694  Biso   1.000  Hf
  Hf24     1.0000 0.85941  0.27277  0.07599  Biso   1.000  Hf
  Hf25     1.0000 0.85984  0.27179  0.57822  Biso   1.000  Hf
  Hf26     1.0000 0.85642  0.76613  0.07574  Biso   1.000  Hf
  Hf27     1.0000 0.86007  0.77158  0.57878  Biso   1.000  Hf
  Hf28     1.0000 0.85984  0.47980  0.32796  Biso   1.000  Hf
  Hf29     1.0000 0.85811  0.48064  0.82612  Biso   1.000  Hf
  Hf30     1.0000 0.85509  0.98194  0.33347  Biso   1.000  Hf
  Hf31     1.0000 0.85847  0.97954  0.82987  Biso   1.000  Hf
  O1       1.0000 0.03196  0.18759  0.08131  Biso   1.000  O 
  O2       1.0000 0.03325  0.17135  0.59176  Biso   1.000  O 
  O3       1.0000 0.03364  0.66975  0.08582  Biso   1.000  O 
  O4       1.0000 0.03179  0.66722  0.58618  Biso   1.000  O 
  O5       1.0000 0.02188  0.08690  0.35342  Biso   1.000  O 
  O6       1.0000 0.03342  0.08210  0.83813  Biso   1.000  O 
  O7       1.0000 0.03183  0.58490  0.33519  Biso   1.000  O 
  O8       1.0000 0.03093  0.58347  0.83391  Biso   1.000  O 
  O9       1.0000 0.46645  0.41140  0.08189  Biso   1.000  O 
  O10      1.0000 0.46693  0.41343  0.58208  Biso   1.000  O 
  O11      1.0000 0.46944  0.91542  0.08349  Biso   1.000  O 
  O12      1.0000 0.46565  0.91362  0.58220  Biso   1.000  O 
  O13      1.0000 0.46736  0.33826  0.33192  Biso   1.000  O 
  O14      1.0000 0.46670  0.33572  0.83187  Biso   1.000  O 
  O15      1.0000 0.47308  0.83929  0.33147  Biso   1.000  O 
  O16      1.0000 0.46684  0.83738  0.82990  Biso   1.000  O 
  O17      1.0000 0.28315  0.13012  0.30559  Biso   1.000  O 
  O18      1.0000 0.27440  0.12420  0.79265  Biso   1.000  O 
  O19      1.0000 0.27632  0.61912  0.29472  Biso   1.000  O 
  O20      1.0000 0.27435  0.62473  0.79539  Biso   1.000  O 
  O21      1.0000 0.28792  0.13530  0.03381  Biso   1.000  O 
  O22      1.0000 0.27443  0.12503  0.54769  Biso   1.000  O 
  O23      1.0000 0.27438  0.61962  0.04665  Biso   1.000  O 
  O24      1.0000 0.27424  0.62586  0.54542  Biso   1.000  O 
  O25      1.0000 0.22055  0.37303  0.29477  Biso   1.000  O 
  O26      1.0000 0.22330  0.37536  0.79458  Biso   1.000  O 
  O27      1.0000 0.23542  0.86096  0.30318  Biso   1.000  O 
  O28      1.0000 0.22159  0.87442  0.79257  Biso   1.000  O 
  O29      1.0000 0.22154  0.37783  0.04515  Biso   1.000  O 
  O30      1.0000 0.22330  0.37643  0.54561  Biso   1.000  O 
  O31      1.0000 0.24237  0.86000  0.03349  Biso   1.000  O 
  O32      1.0000 0.22122  0.87690  0.54677  Biso   1.000  O 
  O33      1.0000 0.53231  0.16487  0.16714  Biso   1.000  O 
  O34      1.0000 0.53112  0.16449  0.66681  Biso   1.000  O 
  O35      1.0000 0.53208  0.66079  0.16838  Biso   1.000  O 
  O36      1.0000 0.52937  0.66352  0.66684  Biso   1.000  O 
  O37      1.0000 0.53287  0.08517  0.41744  Biso   1.000  O 
  O38      1.0000 0.53612  0.08423  0.91503  Biso   1.000  O 
  O39      1.0000 0.52952  0.58669  0.41781  Biso   1.000  O 
  O40      1.0000 0.52797  0.58733  0.91782  Biso   1.000  O 
  O41      1.0000 0.96212  0.42274  0.16299  Biso   1.000  O 
  O42      1.0000 0.96458  0.41973  0.66220  Biso   1.000  O 
  O43      1.0000 0.93196  0.91565  0.16652  Biso   1.000  O 
  O44      1.0000 0.96369  0.91740  0.66606  Biso   1.000  O 
  O45      1.0000 0.96617  0.33641  0.41602  Biso   1.000  O 
  O46      1.0000 0.96222  0.33614  0.90817  Biso   1.000  O 
  O47      1.0000 0.96639  0.83434  0.41572  Biso   1.000  O 
  O48      1.0000 0.96666  0.83440  0.91605  Biso   1.000  O 
  O49      1.0000 0.77659  0.12487  0.95536  Biso   1.000  O 
  O50      1.0000 0.77097  0.12727  0.45830  Biso   1.000  O 
  O51      1.0000 0.77091  0.62209  0.95210  Biso   1.000  O 
  O52      1.0000 0.77478  0.62451  0.45450  Biso   1.000  O 
  O53      1.0000 0.77460  0.12884  0.20731  Biso   1.000  O 
  O54      1.0000 0.77526  0.12637  0.70619  Biso   1.000  O 
  O55      1.0000 0.77456  0.62654  0.20419  Biso   1.000  O 
  O56      1.0000 0.77286  0.62733  0.70295  Biso   1.000  O 
  O57      1.0000 0.72009  0.37513  0.95242  Biso   1.000  O 
  O58      1.0000 0.72296  0.37599  0.45373  Biso   1.000  O 
  O59      1.0000 0.72190  0.87359  0.95415  Biso   1.000  O 
  O60      1.0000 0.72320  0.87428  0.45736  Biso   1.000  O 
  O61      1.0000 0.72186  0.37771  0.20488  Biso   1.000  O 
  O62      1.0000 0.72282  0.37615  0.70282  Biso   1.000  O 
  O63      1.0000 0.70817  0.87648  0.20712  Biso   1.000  O 
  O64      1.0000 0.72232  0.87612  0.70529  Biso   1.000  O 
