data_image0
_cell_length_a       10.1562
_cell_length_b       5.19072
_cell_length_c       10.6487
_cell_angle_alpha    90
_cell_angle_beta     80
_cell_angle_gamma    90

_symmetry_space_group_name_H-M    "P 1"
_symmetry_int_tables_number       1

loop_
  _symmetry_equiv_pos_as_xyz
  'x, y, z'

loop_
  _atom_site_label
  _atom_site_occupancy
  _atom_site_fract_x
  _atom_site_fract_y
  _atom_site_fract_z
  _atom_site_thermal_displace_type
  _atom_site_B_iso_or_equiv
  _atom_site_type_symbol
  Hf1      1.0000 0.13608  0.04275  0.14789  Biso   1.000  Hf
  Hf2      1.0000 0.13681  0.45846  0.39400  Biso   1.000  Hf
  Hf3      1.0000 0.34222  0.55132  0.07735  Biso   1.000  Hf
  Hf4      1.0000 0.36104  0.96499  0.35804  Biso   1.000  Hf
  O1       1.0000 0.03307  0.33118  0.07661  Biso   1.000  O 
  O2       1.0000 0.03291  0.16768  0.32817  Biso   1.000  O 
  O3       1.0000 0.46035  0.86187  0.16547  Biso   1.000  O 
  O4       1.0000 0.48145  0.71103  0.44631  Biso   1.000  O 
  O5       1.0000 0.27119  0.24991  0.23688  Biso   1.000  O 
  O6       1.0000 0.29017  0.26830  0.48318  Biso   1.000  O 
  O7       1.0000 0.20625  0.77278  0.00077  Biso   1.000  O 
  O8       1.0000 0.22861  0.72983  0.25595  Biso   1.000  O 
  Hf5      1.0000 0.14899  0.05335  0.64288  Biso   1.000  Hf
  Hf6      1.0000 0.14533  0.46456  0.88965  Biso   1.000  Hf
  Hf7      1.0000 0.36994  0.56116  0.60621  Biso   1.000  Hf
  Hf8      1.0000 0.36910  0.97342  0.84806  Biso   1.000  Hf
  O9       1.0000 0.04533  0.34202  0.57734  Biso   1.000  O 
  O10      1.0000 0.04403  0.17553  0.82391  Biso   1.000  O 
  O11      1.0000 0.47746  0.83747  0.67942  Biso   1.000  O 
  O12      1.0000 0.47817  0.68796  0.91566  Biso   1.000  O 
  O13      1.0000 0.28554  0.26406  0.73604  Biso   1.000  O 
  O14      1.0000 0.28645  0.25562  0.98279  Biso   1.000  O 
  O15      1.0000 0.22688  0.77040  0.50851  Biso   1.000  O 
  O16      1.0000 0.23269  0.75096  0.75530  Biso   1.000  O 
  Hf9      1.0000 0.64127  0.03580  0.14707  Biso   1.000  Hf
  Hf10     1.0000 0.65850  0.45337  0.41714  Biso   1.000  Hf
  Hf11     1.0000 0.85908  0.53860  0.10778  Biso   1.000  Hf
  Hf12     1.0000 0.85917  0.95611  0.35511  Biso   1.000  Hf
  O17      1.0000 0.52909  0.33416  0.07169  Biso   1.000  O 
  O18      1.0000 0.55590  0.13320  0.33875  Biso   1.000  O 
  O19      1.0000 0.96304  0.82597  0.17686  Biso   1.000  O 
  O20      1.0000 0.96744  0.66914  0.42387  Biso   1.000  O 
  O21      1.0000 0.78280  0.25444  0.24309  Biso   1.000  O 
  O22      1.0000 0.79338  0.23657  0.50008  Biso   1.000  O 
  O23      1.0000 0.71996  0.75277  0.01430  Biso   1.000  O 
  O24      1.0000 0.71959  0.72858  0.26246  Biso   1.000  O 
  Hf13     1.0000 0.64981  0.04958  0.65130  Biso   1.000  Hf
  Hf14     1.0000 0.65078  0.46395  0.89642  Biso   1.000  Hf
  Hf15     1.0000 0.87226  0.55261  0.60940  Biso   1.000  Hf
  Hf16     1.0000 0.87083  0.96438  0.85569  Biso   1.000  Hf
  O25      1.0000 0.54285  0.33688  0.58400  Biso   1.000  O 
  O26      1.0000 0.54315  0.18475  0.82618  Biso   1.000  O 
  O27      1.0000 0.97606  0.84055  0.67426  Biso   1.000  O 
  O28      1.0000 0.97466  0.67344  0.92107  Biso   1.000  O 
  O29      1.0000 0.78717  0.26783  0.74444  Biso   1.000  O 
  O30      1.0000 0.79039  0.25048  0.99114  Biso   1.000  O 
  O31      1.0000 0.73352  0.75956  0.51745  Biso   1.000  O 
  O32      1.0000 0.73484  0.75384  0.76332  Biso   1.000  O 
  Sr1      1.0000 0.45789  0.48068  0.27501  Biso   1.000  Sr
