data_image0
_cell_length_a       5.09966
_cell_length_b       10.3431
_cell_length_c       10.4982
_cell_angle_alpha    90
_cell_angle_beta     80
_cell_angle_gamma    90

_symmetry_space_group_name_H-M    "P 1"
_symmetry_int_tables_number       1

loop_
  _symmetry_equiv_pos_as_xyz
  'x, y, z'

loop_
  _atom_site_label
  _atom_site_occupancy
  _atom_site_fract_x
  _atom_site_fract_y
  _atom_site_fract_z
  _atom_site_thermal_displace_type
  _atom_site_B_iso_or_equiv
  _atom_site_type_symbol
  Sr1      1.0000 0.27401  0.01031  0.14324  Biso   1.000  Sr
  Hf1      1.0000 0.27225  0.02283  0.64820  Biso   1.000  Hf
  Hf2      1.0000 0.26704  0.51772  0.14489  Biso   1.000  Hf
  Hf3      1.0000 0.26543  0.52203  0.64622  Biso   1.000  Hf
  Hf4      1.0000 0.26748  0.22972  0.39858  Biso   1.000  Hf
  Hf5      1.0000 0.26422  0.23226  0.89689  Biso   1.000  Hf
  Hf6      1.0000 0.26070  0.72404  0.39763  Biso   1.000  Hf
  Hf7      1.0000 0.26907  0.73074  0.89381  Biso   1.000  Hf
  Hf8      1.0000 0.70789  0.26886  0.10342  Biso   1.000  Hf
  Hf9      1.0000 0.71035  0.27247  0.60536  Biso   1.000  Hf
  Hf10     1.0000 0.71217  0.76265  0.10163  Biso   1.000  Hf
  Hf11     1.0000 0.70559  0.77392  0.60318  Biso   1.000  Hf
  Hf12     1.0000 0.70650  0.47747  0.35311  Biso   1.000  Hf
  Hf13     1.0000 0.70651  0.48002  0.85325  Biso   1.000  Hf
  Hf14     1.0000 0.69550  0.98316  0.36004  Biso   1.000  Hf
  Hf15     1.0000 0.70288  0.98033  0.85561  Biso   1.000  Hf
  O1       1.0000 0.06311  0.18799  0.07557  Biso   1.000  O 
  O2       1.0000 0.06041  0.17332  0.58800  Biso   1.000  O 
  O3       1.0000 0.07056  0.67141  0.08046  Biso   1.000  O 
  O4       1.0000 0.05334  0.66860  0.58127  Biso   1.000  O 
  O5       1.0000 0.05021  0.08179  0.35206  Biso   1.000  O 
  O6       1.0000 0.06578  0.08217  0.83208  Biso   1.000  O 
  O7       1.0000 0.05271  0.58136  0.32903  Biso   1.000  O 
  O8       1.0000 0.05381  0.58376  0.82855  Biso   1.000  O 
  O9       1.0000 0.91249  0.42083  0.16926  Biso   1.000  O 
  O10      1.0000 0.91703  0.42122  0.66854  Biso   1.000  O 
  O11      1.0000 0.83892  0.92923  0.16725  Biso   1.000  O 
  O12      1.0000 0.91355  0.91799  0.67245  Biso   1.000  O 
  O13      1.0000 0.91715  0.33315  0.42167  Biso   1.000  O 
  O14      1.0000 0.91606  0.33780  0.91520  Biso   1.000  O 
  O15      1.0000 0.91864  0.83260  0.41966  Biso   1.000  O 
  O16      1.0000 0.93417  0.83836  0.92234  Biso   1.000  O 
  O17      1.0000 0.55971  0.13989  0.25419  Biso   1.000  O 
  O18      1.0000 0.54440  0.13002  0.74001  Biso   1.000  O 
  O19      1.0000 0.53770  0.62156  0.23870  Biso   1.000  O 
  O20      1.0000 0.53800  0.63148  0.73863  Biso   1.000  O 
  O21      1.0000 0.53628  0.12310  0.49688  Biso   1.000  O 
  O22      1.0000 0.55788  0.13039  0.98044  Biso   1.000  O 
  O23      1.0000 0.53700  0.62137  0.49021  Biso   1.000  O 
  O24      1.0000 0.53381  0.61701  0.98971  Biso   1.000  O 
  O25      1.0000 0.44175  0.37970  0.00749  Biso   1.000  O 
  O26      1.0000 0.43587  0.38041  0.51010  Biso   1.000  O 
  O27      1.0000 0.46048  0.86418  0.99454  Biso   1.000  O 
  O28      1.0000 0.43192  0.88044  0.51235  Biso   1.000  O 
  O29      1.0000 0.42755  0.37285  0.25990  Biso   1.000  O 
  O30      1.0000 0.43568  0.37367  0.75828  Biso   1.000  O 
  O31      1.0000 0.45082  0.85502  0.26906  Biso   1.000  O 
  O32      1.0000 0.43235  0.87332  0.75615  Biso   1.000  O 
