data_image0
_cell_length_a       10.2035
_cell_length_b       10.3426
_cell_length_c       5.12939
_cell_angle_alpha    80
_cell_angle_beta     90
_cell_angle_gamma    90

_symmetry_space_group_name_H-M    "P 1"
_symmetry_int_tables_number       1

loop_
  _symmetry_equiv_pos_as_xyz
  'x, y, z'

loop_
  _atom_site_label
  _atom_site_occupancy
  _atom_site_fract_x
  _atom_site_fract_y
  _atom_site_fract_z
  _atom_site_thermal_displace_type
  _atom_site_B_iso_or_equiv
  _atom_site_type_symbol
  Hf1      1.0000 0.09180  0.96224  0.21584  Biso   1.000  Hf
  Hf2      1.0000 0.10329  0.20693  0.60134  Biso   1.000  Hf
  Hf3      1.0000 0.39731  0.23726  0.14785  Biso   1.000  Hf
  Hf4      1.0000 0.38651  0.45909  0.70927  Biso   1.000  Hf
  O1       1.0000 0.98366  0.10818  0.35068  Biso   1.000  O 
  O2       1.0000 0.05426  0.02961  0.85952  Biso   1.000  O 
  O3       1.0000 0.48271  0.36268  0.42586  Biso   1.000  O 
  O4       1.0000 0.52069  0.31933  0.91582  Biso   1.000  O 
  O5       1.0000 0.23901  0.11233  0.36561  Biso   1.000  O 
  O6       1.0000 0.28358  0.15964  0.83514  Biso   1.000  O 
  O7       1.0000 0.29039  0.42182  0.06767  Biso   1.000  O 
  O8       1.0000 0.21437  0.37773  0.57597  Biso   1.000  O 
  Hf5      1.0000 0.14632  0.52222  0.27605  Biso   1.000  Hf
  Hf6      1.0000 0.10149  0.70022  0.74854  Biso   1.000  Hf
  Hf7      1.0000 0.35692  0.76713  0.27846  Biso   1.000  Hf
  Hf8      1.0000 0.35119  0.99781  0.69238  Biso   1.000  Hf
  O9       1.0000 0.99370  0.61507  0.45746  Biso   1.000  O 
  O10      1.0000 0.03327  0.51359  0.93278  Biso   1.000  O 
  O11      1.0000 0.47030  0.86893  0.53363  Biso   1.000  O 
  O12      1.0000 0.52007  0.83925  0.04936  Biso   1.000  O 
  O13      1.0000 0.25541  0.61455  0.54591  Biso   1.000  O 
  O14      1.0000 0.23059  0.68193  0.04353  Biso   1.000  O 
  O15      1.0000 0.26393  0.92681  0.03136  Biso   1.000  O 
  O16      1.0000 0.21923  0.85489  0.52218  Biso   1.000  O 
  Hf9      1.0000 0.60670  0.98805  0.22214  Biso   1.000  Hf
  Hf10     1.0000 0.60632  0.20661  0.67973  Biso   1.000  Hf
  Hf11     1.0000 0.83166  0.25682  0.21193  Biso   1.000  Hf
  Hf12     1.0000 0.88657  0.44871  0.68848  Biso   1.000  Hf
  O17      1.0000 0.49663  0.11198  0.43515  Biso   1.000  O 
  O18      1.0000 0.49596  0.05798  0.94996  Biso   1.000  O 
  O19      1.0000 0.98493  0.37004  0.37910  Biso   1.000  O 
  O20      1.0000 0.93425  0.25517  0.84024  Biso   1.000  O 
  O21      1.0000 0.74344  0.09354  0.49743  Biso   1.000  O 
  O22      1.0000 0.70988  0.16367  0.00174  Biso   1.000  O 
  O23      1.0000 0.76386  0.43414  0.01030  Biso   1.000  O 
  O24      1.0000 0.73184  0.34826  0.49573  Biso   1.000  O 
  Hf13     1.0000 0.62755  0.50973  0.24058  Biso   1.000  Hf
  Hf14     1.0000 0.59312  0.71455  0.74884  Biso   1.000  Hf
  Hf15     1.0000 0.84253  0.74978  0.27752  Biso   1.000  Hf
  Hf16     1.0000 0.86415  0.97323  0.70086  Biso   1.000  Hf
  O25      1.0000 0.49653  0.62026  0.46294  Biso   1.000  O 
  O26      1.0000 0.49913  0.55719  0.96220  Biso   1.000  O 
  O27      1.0000 0.97309  0.85228  0.51345  Biso   1.000  O 
  O28      1.0000 0.00222  0.81514  0.02833  Biso   1.000  O 
  O29      1.0000 0.74396  0.59072  0.52119  Biso   1.000  O 
  O30      1.0000 0.72620  0.67889  0.02216  Biso   1.000  O 
  O31      1.0000 0.77483  0.93052  0.03847  Biso   1.000  O 
  O32      1.0000 0.72476  0.84441  0.51928  Biso   1.000  O 
  Sr1      1.0000 0.11671  0.28152  0.07017  Biso   1.000  Sr
