data_image0
_cell_length_a       5.00688
_cell_length_b       10.4117
_cell_length_c       10.1093
_cell_angle_alpha    90
_cell_angle_beta     90
_cell_angle_gamma    90

_symmetry_space_group_name_H-M    "P 1"
_symmetry_int_tables_number       1

loop_
  _symmetry_equiv_pos_as_xyz
  'x, y, z'

loop_
  _atom_site_label
  _atom_site_occupancy
  _atom_site_fract_x
  _atom_site_fract_y
  _atom_site_fract_z
  _atom_site_thermal_displace_type
  _atom_site_B_iso_or_equiv
  _atom_site_type_symbol
  Sr1      1.0000 0.25235  0.00730  0.11821  Biso   1.000  Sr
  Hf1      1.0000 0.25676  0.01527  0.62731  Biso   1.000  Hf
  Hf2      1.0000 0.26725  0.51399  0.12538  Biso   1.000  Hf
  Hf3      1.0000 0.25997  0.51351  0.62745  Biso   1.000  Hf
  Hf4      1.0000 0.26250  0.23200  0.37720  Biso   1.000  Hf
  Hf5      1.0000 0.26274  0.23136  0.87115  Biso   1.000  Hf
  Hf6      1.0000 0.25852  0.72978  0.38146  Biso   1.000  Hf
  Hf7      1.0000 0.26689  0.72789  0.87491  Biso   1.000  Hf
  Hf8      1.0000 0.71753  0.26547  0.12843  Biso   1.000  Hf
  Hf9      1.0000 0.72448  0.26489  0.62390  Biso   1.000  Hf
  Hf10     1.0000 0.72613  0.76005  0.12720  Biso   1.000  Hf
  Hf11     1.0000 0.72364  0.76380  0.62482  Biso   1.000  Hf
  Hf12     1.0000 0.72185  0.48159  0.37768  Biso   1.000  Hf
  Hf13     1.0000 0.72351  0.47777  0.87734  Biso   1.000  Hf
  Hf14     1.0000 0.71594  0.98251  0.37974  Biso   1.000  Hf
  Hf15     1.0000 0.72279  0.98025  0.87018  Biso   1.000  Hf
  O1       1.0000 0.06061  0.20189  0.20207  Biso   1.000  O 
  O2       1.0000 0.07350  0.18831  0.68219  Biso   1.000  O 
  O3       1.0000 0.07184  0.68269  0.19821  Biso   1.000  O 
  O4       1.0000 0.06310  0.68115  0.69508  Biso   1.000  O 
  O5       1.0000 0.06173  0.06343  0.44212  Biso   1.000  O 
  O6       1.0000 0.06714  0.06676  0.90563  Biso   1.000  O 
  O7       1.0000 0.06191  0.56292  0.44800  Biso   1.000  O 
  O8       1.0000 0.05657  0.56564  0.94673  Biso   1.000  O 
  O9       1.0000 0.92065  0.43796  0.19566  Biso   1.000  O 
  O10      1.0000 0.92377  0.43160  0.69774  Biso   1.000  O 
  O11      1.0000 0.86446  0.93112  0.20082  Biso   1.000  O 
  O12      1.0000 0.91370  0.93084  0.68850  Biso   1.000  O 
  O13      1.0000 0.92012  0.31702  0.44605  Biso   1.000  O 
  O14      1.0000 0.92551  0.31513  0.94688  Biso   1.000  O 
  O15      1.0000 0.92049  0.81329  0.44781  Biso   1.000  O 
  O16      1.0000 0.94931  0.82092  0.95417  Biso   1.000  O 
  O17      1.0000 0.55567  0.12905  0.26027  Biso   1.000  O 
  O18      1.0000 0.53850  0.11650  0.74588  Biso   1.000  O 
  O19      1.0000 0.53530  0.61098  0.24975  Biso   1.000  O 
  O20      1.0000 0.53476  0.61402  0.74996  Biso   1.000  O 
  O21      1.0000 0.52718  0.13000  0.50348  Biso   1.000  O 
  O22      1.0000 0.55061  0.13298  0.99062  Biso   1.000  O 
  O23      1.0000 0.53271  0.62934  0.50071  Biso   1.000  O 
  O24      1.0000 0.52966  0.62141  0.99985  Biso   1.000  O 
  O25      1.0000 0.45176  0.38128  0.50062  Biso   1.000  O 
  O26      1.0000 0.44694  0.37824  0.99977  Biso   1.000  O 
  O27      1.0000 0.44532  0.88015  0.50179  Biso   1.000  O 
  O28      1.0000 0.48251  0.86139  0.98849  Biso   1.000  O 
  O29      1.0000 0.44833  0.36983  0.25115  Biso   1.000  O 
  O30      1.0000 0.45528  0.36634  0.74889  Biso   1.000  O 
  O31      1.0000 0.46011  0.84902  0.25671  Biso   1.000  O 
  O32      1.0000 0.44834  0.86502  0.74646  Biso   1.000  O 
