data_image0
_cell_length_a       10.1354
_cell_length_b       5.15579
_cell_length_c       10.1354
_cell_angle_alpha    90
_cell_angle_beta     90
_cell_angle_gamma    90

_symmetry_space_group_name_H-M    "P 1"
_symmetry_int_tables_number       1

loop_
  _symmetry_equiv_pos_as_xyz
  'x, y, z'

loop_
  _atom_site_label
  _atom_site_occupancy
  _atom_site_fract_x
  _atom_site_fract_y
  _atom_site_fract_z
  _atom_site_thermal_displace_type
  _atom_site_B_iso_or_equiv
  _atom_site_type_symbol
  Hf1      1.0000 0.12491  0.00011  0.12491  Biso   1.000  Hf
  Hf2      1.0000 0.12491  0.50011  0.39941  Biso   1.000  Hf
  Hf3      1.0000 0.39941  0.50011  0.12491  Biso   1.000  Hf
  Hf4      1.0000 0.37292  0.00716  0.37292  Biso   1.000  Hf
  O1       1.0000 0.98056  0.30626  0.98056  Biso   1.000  O 
  O2       1.0000 0.00194  0.19292  0.24787  Biso   1.000  O 
  O3       1.0000 0.98056  0.69394  0.26926  Biso   1.000  O 
  O4       1.0000 0.00194  0.80730  0.00195  Biso   1.000  O 
  O5       1.0000 0.26926  0.30628  0.26926  Biso   1.000  O 
  O6       1.0000 0.24788  0.19291  0.00195  Biso   1.000  O 
  O7       1.0000 0.26926  0.69393  0.98056  Biso   1.000  O 
  O8       1.0000 0.24788  0.80730  0.24787  Biso   1.000  O 
  Hf5      1.0000 0.12491  0.00011  0.62491  Biso   1.000  Hf
  Hf6      1.0000 0.12491  0.50010  0.85040  Biso   1.000  Hf
  Hf7      1.0000 0.37940  0.50011  0.62491  Biso   1.000  Hf
  Hf8      1.0000 0.37292  0.99305  0.87690  Biso   1.000  Hf
  O9       1.0000 0.98824  0.28289  0.49651  Biso   1.000  O 
  O10      1.0000 0.00621  0.21330  0.74285  Biso   1.000  O 
  O11      1.0000 0.98824  0.71732  0.75330  Biso   1.000  O 
  O12      1.0000 0.00621  0.78690  0.50697  Biso   1.000  O 
  O13      1.0000 0.26157  0.28288  0.75331  Biso   1.000  O 
  O14      1.0000 0.24361  0.21332  0.50697  Biso   1.000  O 
  O15      1.0000 0.26158  0.71732  0.49651  Biso   1.000  O 
  O16      1.0000 0.24360  0.78689  0.74285  Biso   1.000  O 
  Hf9      1.0000 0.62491  0.00011  0.12491  Biso   1.000  Hf
  Hf10     1.0000 0.62491  0.50011  0.37940  Biso   1.000  Hf
  Hf11     1.0000 0.85041  0.50011  0.12491  Biso   1.000  Hf
  Hf12     1.0000 0.87690  0.99305  0.37292  Biso   1.000  Hf
  O17      1.0000 0.49652  0.28289  0.98824  Biso   1.000  O 
  O18      1.0000 0.50697  0.21332  0.24360  Biso   1.000  O 
  O19      1.0000 0.49651  0.71732  0.26158  Biso   1.000  O 
  O20      1.0000 0.50697  0.78690  0.00621  Biso   1.000  O 
  O21      1.0000 0.75330  0.28289  0.26158  Biso   1.000  O 
  O22      1.0000 0.74285  0.21331  0.00621  Biso   1.000  O 
  O23      1.0000 0.75330  0.71731  0.98824  Biso   1.000  O 
  O24      1.0000 0.74285  0.78690  0.24360  Biso   1.000  O 
  Hf13     1.0000 0.62491  0.00011  0.62490  Biso   1.000  Hf
  Hf14     1.0000 0.62491  0.50010  0.87042  Biso   1.000  Hf
  Hf15     1.0000 0.87042  0.50011  0.62491  Biso   1.000  Hf
  Hf16     1.0000 0.87689  0.00714  0.87689  Biso   1.000  Hf
  O25      1.0000 0.49136  0.29636  0.49136  Biso   1.000  O 
  O26      1.0000 0.50608  0.20801  0.74373  Biso   1.000  O 
  O27      1.0000 0.49136  0.70385  0.75846  Biso   1.000  O 
  O28      1.0000 0.50608  0.79219  0.50608  Biso   1.000  O 
  O29      1.0000 0.75846  0.29634  0.75846  Biso   1.000  O 
  O30      1.0000 0.74374  0.20802  0.50608  Biso   1.000  O 
  O31      1.0000 0.75846  0.70386  0.49136  Biso   1.000  O 
  O32      1.0000 0.74373  0.79218  0.74373  Biso   1.000  O 
  Sr1      1.0000 0.12491  0.50010  0.12491  Biso   1.000  Sr
