data_image0
_cell_length_a       10.1868
_cell_length_b       10.3615
_cell_length_c       5.238
_cell_angle_alpha    90
_cell_angle_beta     80
_cell_angle_gamma    90

_symmetry_space_group_name_H-M    "P 1"
_symmetry_int_tables_number       1

loop_
  _symmetry_equiv_pos_as_xyz
  'x, y, z'

loop_
  _atom_site_label
  _atom_site_occupancy
  _atom_site_fract_x
  _atom_site_fract_y
  _atom_site_fract_z
  _atom_site_thermal_displace_type
  _atom_site_B_iso_or_equiv
  _atom_site_type_symbol
  Sr1      1.0000 0.12923  0.01151  0.28331  Biso   1.000  Sr
  Hf1      1.0000 0.13664  0.52010  0.28804  Biso   1.000  Hf
  Hf2      1.0000 0.63950  0.02209  0.29642  Biso   1.000  Hf
  Hf3      1.0000 0.63248  0.51793  0.29187  Biso   1.000  Hf
  Hf4      1.0000 0.13258  0.23088  0.79338  Biso   1.000  Hf
  Hf5      1.0000 0.13632  0.72655  0.78752  Biso   1.000  Hf
  Hf6      1.0000 0.63268  0.23037  0.79556  Biso   1.000  Hf
  Hf7      1.0000 0.62944  0.72577  0.79307  Biso   1.000  Hf
  Hf8      1.0000 0.35585  0.26690  0.20777  Biso   1.000  Hf
  Hf9      1.0000 0.35860  0.76962  0.20781  Biso   1.000  Hf
  Hf10     1.0000 0.85591  0.27378  0.20750  Biso   1.000  Hf
  Hf11     1.0000 0.85516  0.76355  0.20075  Biso   1.000  Hf
  Hf12     1.0000 0.35382  0.47594  0.70660  Biso   1.000  Hf
  Hf13     1.0000 0.35190  0.98029  0.70344  Biso   1.000  Hf
  Hf14     1.0000 0.85470  0.47987  0.70603  Biso   1.000  Hf
  Hf15     1.0000 0.84735  0.97953  0.72886  Biso   1.000  Hf
  O1       1.0000 0.03594  0.20075  0.17009  Biso   1.000  O 
  O2       1.0000 0.03540  0.67434  0.16554  Biso   1.000  O 
  O3       1.0000 0.53313  0.16761  0.15987  Biso   1.000  O 
  O4       1.0000 0.53147  0.66519  0.15641  Biso   1.000  O 
  O5       1.0000 0.02369  0.07881  0.71687  Biso   1.000  O 
  O6       1.0000 0.02985  0.57930  0.66085  Biso   1.000  O 
  O7       1.0000 0.53399  0.08274  0.65933  Biso   1.000  O 
  O8       1.0000 0.52663  0.58158  0.65638  Biso   1.000  O 
  O9       1.0000 0.46066  0.41489  0.34150  Biso   1.000  O 
  O10      1.0000 0.46126  0.91832  0.33842  Biso   1.000  O 
  O11      1.0000 0.95448  0.43053  0.32755  Biso   1.000  O 
  O12      1.0000 0.91746  0.92041  0.35556  Biso   1.000  O 
  O13      1.0000 0.46063  0.33375  0.84263  Biso   1.000  O 
  O14      1.0000 0.46496  0.83681  0.84146  Biso   1.000  O 
  O15      1.0000 0.95380  0.33171  0.82658  Biso   1.000  O 
  O16      1.0000 0.95822  0.82889  0.83998  Biso   1.000  O 
  O17      1.0000 0.28042  0.13445  0.49392  Biso   1.000  O 
  O18      1.0000 0.27205  0.62322  0.47599  Biso   1.000  O 
  O19      1.0000 0.77333  0.13260  0.49017  Biso   1.000  O 
  O20      1.0000 0.76789  0.63015  0.48013  Biso   1.000  O 
  O21      1.0000 0.27942  0.12845  0.96424  Biso   1.000  O 
  O22      1.0000 0.26883  0.61702  0.97947  Biso   1.000  O 
  O23      1.0000 0.76706  0.12307  0.99203  Biso   1.000  O 
  O24      1.0000 0.76642  0.61860  0.97939  Biso   1.000  O 
  O25      1.0000 0.22311  0.38017  0.01441  Biso   1.000  O 
  O26      1.0000 0.23122  0.86522  0.99460  Biso   1.000  O 
  O27      1.0000 0.71973  0.38013  0.01706  Biso   1.000  O 
  O28      1.0000 0.71981  0.87683  0.02452  Biso   1.000  O 
  O29      1.0000 0.21618  0.37192  0.51482  Biso   1.000  O 
  O30      1.0000 0.22931  0.85825  0.52024  Biso   1.000  O 
  O31      1.0000 0.71795  0.37284  0.51927  Biso   1.000  O 
  O32      1.0000 0.70157  0.87278  0.53535  Biso   1.000  O 
