data_image0
_cell_length_a       5.1294
_cell_length_b       10.3426
_cell_length_c       10.2034
_cell_angle_alpha    90
_cell_angle_beta     90
_cell_angle_gamma    90

_symmetry_space_group_name_H-M    "P 1"
_symmetry_int_tables_number       1

loop_
  _symmetry_equiv_pos_as_xyz
  'x, y, z'

loop_
  _atom_site_label
  _atom_site_occupancy
  _atom_site_fract_x
  _atom_site_fract_y
  _atom_site_fract_z
  _atom_site_thermal_displace_type
  _atom_site_B_iso_or_equiv
  _atom_site_type_symbol
  Hf1      1.0000 0.10013  0.96135  0.07733  Biso   1.000  Hf
  Hf2      1.0000 0.18796  0.22694  0.39665  Biso   1.000  Hf
  Hf3      1.0000 0.57088  0.26872  0.12762  Biso   1.000  Hf
  Hf4      1.0000 0.61571  0.49327  0.35272  Biso   1.000  Hf
  O1       1.0000 0.81640  0.20948  0.29667  Biso   1.000  O 
  O2       1.0000 0.02370  0.05612  0.46027  Biso   1.000  O 
  O3       1.0000 0.78935  0.43539  0.18100  Biso   1.000  O 
  O4       1.0000 0.95591  0.32423  0.51927  Biso   1.000  O 
  O5       1.0000 0.38202  0.11174  0.24197  Biso   1.000  O 
  O6       1.0000 0.48891  0.12457  0.49588  Biso   1.000  O 
  O7       1.0000 0.43599  0.37796  0.48907  Biso   1.000  O 
  O8       1.0000 0.29727  0.37298  0.24802  Biso   1.000  O 
  Hf5      1.0000 0.05228  0.96491  0.59608  Biso   1.000  Hf
  Hf6      1.0000 0.11164  0.24013  0.83099  Biso   1.000  Hf
  Hf7      1.0000 0.63962  0.25678  0.62478  Biso   1.000  Hf
  Hf8      1.0000 0.60248  0.45900  0.88382  Biso   1.000  Hf
  O9       1.0000 0.89784  0.13514  0.70923  Biso   1.000  O 
  O10      1.0000 0.06935  0.05727  0.93409  Biso   1.000  O 
  O11      1.0000 0.87514  0.39333  0.73900  Biso   1.000  O 
  O12      1.0000 0.77848  0.29201  0.94895  Biso   1.000  O 
  O13      1.0000 0.41763  0.10776  0.74439  Biso   1.000  O 
  O14      1.0000 0.58442  0.10194  0.01325  Biso   1.000  O 
  O15      1.0000 0.29902  0.35394  0.99249  Biso   1.000  O 
  O16      1.0000 0.37316  0.35696  0.73522  Biso   1.000  O 
  Hf9      1.0000 0.13377  0.52489  0.12334  Biso   1.000  Hf
  Hf10     1.0000 0.14486  0.72920  0.37678  Biso   1.000  Hf
  Hf11     1.0000 0.60900  0.76767  0.12075  Biso   1.000  Hf
  Hf12     1.0000 0.70576  0.02125  0.34008  Biso   1.000  Hf
  O17      1.0000 0.91333  0.67568  0.21487  Biso   1.000  O 
  O18      1.0000 0.94400  0.55624  0.44009  Biso   1.000  O 
  O19      1.0000 0.75133  0.94570  0.19320  Biso   1.000  O 
  O20      1.0000 0.87263  0.80600  0.49337  Biso   1.000  O 
  O21      1.0000 0.40477  0.62191  0.24530  Biso   1.000  O 
  O22      1.0000 0.40419  0.62473  0.49373  Biso   1.000  O 
  O23      1.0000 0.35185  0.87723  0.47932  Biso   1.000  O 
  O24      1.0000 0.29822  0.86000  0.22893  Biso   1.000  O 
  Hf13     1.0000 0.13643  0.48962  0.60785  Biso   1.000  Hf
  Hf14     1.0000 0.14035  0.70251  0.86195  Biso   1.000  Hf
  Hf15     1.0000 0.60278  0.74357  0.62872  Biso   1.000  Hf
  Hf16     1.0000 0.71930  0.00054  0.83992  Biso   1.000  Hf
  O25      1.0000 0.93040  0.64166  0.69655  Biso   1.000  O 
  O26      1.0000 0.92647  0.55025  0.95091  Biso   1.000  O 
  O27      1.0000 0.78000  0.89102  0.72653  Biso   1.000  O 
  O28      1.0000 0.88525  0.79265  0.98890  Biso   1.000  O 
  O29      1.0000 0.41900  0.59495  0.74773  Biso   1.000  O 
  O30      1.0000 0.39982  0.60442  0.99897  Biso   1.000  O 
  O31      1.0000 0.37241  0.84325  0.96740  Biso   1.000  O 
  O32      1.0000 0.29542  0.84503  0.72589  Biso   1.000  O 
  Sr1      1.0000 0.05725  0.21267  0.11061  Biso   1.000  Sr
