data_image0
_cell_length_a       10.0497
_cell_length_b       10.2686
_cell_length_c       10.5472
_cell_angle_alpha    90
_cell_angle_beta     90
_cell_angle_gamma    90

_symmetry_space_group_name_H-M    "P 1"
_symmetry_int_tables_number       1

loop_
  _symmetry_equiv_pos_as_xyz
  'x, y, z'

loop_
  _atom_site_label
  _atom_site_occupancy
  _atom_site_fract_x
  _atom_site_fract_y
  _atom_site_fract_z
  _atom_site_thermal_displace_type
  _atom_site_B_iso_or_equiv
  _atom_site_type_symbol
  Hf1      1.0000 0.13752  0.02047  0.17295  Biso   1.000  Hf
  Hf2      1.0000 0.13169  0.22660  0.42693  Biso   1.000  Hf
  Hf3      1.0000 0.34397  0.27375  0.19155  Biso   1.000  Hf
  Hf4      1.0000 0.35461  0.47905  0.42494  Biso   1.000  Hf
  Hf5      1.0000 0.63925  0.00639  0.08107  Biso   1.000  Hf
  Hf6      1.0000 0.63166  0.22169  0.33014  Biso   1.000  Hf
  Hf7      1.0000 0.86693  0.27107  0.07567  Biso   1.000  Hf
  Hf8      1.0000 0.85341  0.47733  0.32572  Biso   1.000  Hf
  O1       1.0000 0.03555  0.16347  0.08256  Biso   1.000  O 
  O2       1.0000 0.02659  0.08691  0.33179  Biso   1.000  O 
  O3       1.0000 0.44734  0.43893  0.10121  Biso   1.000  O 
  O4       1.0000 0.46021  0.33173  0.33987  Biso   1.000  O 
  O5       1.0000 0.26664  0.12314  0.30254  Biso   1.000  O 
  O6       1.0000 0.28308  0.12992  0.04708  Biso   1.000  O 
  O7       1.0000 0.21056  0.37711  0.30565  Biso   1.000  O 
  O8       1.0000 0.21809  0.37724  0.04931  Biso   1.000  O 
  O9       1.0000 0.51699  0.13348  0.19270  Biso   1.000  O 
  O10      1.0000 0.52452  0.08532  0.42725  Biso   1.000  O 
  O11      1.0000 0.96334  0.41422  0.16989  Biso   1.000  O 
  O12      1.0000 0.96185  0.33629  0.41782  Biso   1.000  O 
  O13      1.0000 0.77008  0.12228  0.45187  Biso   1.000  O 
  O14      1.0000 0.77298  0.12639  0.20155  Biso   1.000  O 
  O15      1.0000 0.71707  0.37390  0.45152  Biso   1.000  O 
  O16      1.0000 0.71171  0.37205  0.19734  Biso   1.000  O 
  Hf9      1.0000 0.13087  0.02017  0.67430  Biso   1.000  Hf
  Hf10     1.0000 0.13069  0.22860  0.92299  Biso   1.000  Hf
  Hf11     1.0000 0.35314  0.27195  0.67431  Biso   1.000  Hf
  Hf12     1.0000 0.34561  0.48405  0.92530  Biso   1.000  Hf
  Hf13     1.0000 0.63336  0.01571  0.57621  Biso   1.000  Hf
  Hf14     1.0000 0.64192  0.22559  0.80103  Biso   1.000  Hf
  Hf15     1.0000 0.85670  0.27259  0.57295  Biso   1.000  Hf
  Hf16     1.0000 0.85275  0.47930  0.82846  Biso   1.000  Hf
  O17      1.0000 0.02422  0.16167  0.58241  Biso   1.000  O 
  O18      1.0000 0.02357  0.08559  0.83343  Biso   1.000  O 
  O19      1.0000 0.46137  0.41386  0.58329  Biso   1.000  O 
  O20      1.0000 0.46094  0.33652  0.83185  Biso   1.000  O 
  O21      1.0000 0.26735  0.12386  0.79678  Biso   1.000  O 
  O22      1.0000 0.26883  0.12450  0.54937  Biso   1.000  O 
  O23      1.0000 0.21468  0.37343  0.79897  Biso   1.000  O 
  O24      1.0000 0.21706  0.37479  0.55044  Biso   1.000  O 
  O25      1.0000 0.52298  0.16059  0.66246  Biso   1.000  O 
  O26      1.0000 0.52498  0.07414  0.90971  Biso   1.000  O 
  O27      1.0000 0.96095  0.41204  0.66910  Biso   1.000  O 
  O28      1.0000 0.95972  0.33467  0.91810  Biso   1.000  O 
  O29      1.0000 0.75961  0.12722  0.95175  Biso   1.000  O 
  O30      1.0000 0.77670  0.11944  0.69534  Biso   1.000  O 
  O31      1.0000 0.71993  0.38149  0.95010  Biso   1.000  O 
  O32      1.0000 0.71919  0.37717  0.69804  Biso   1.000  O 
  Hf17     1.0000 0.13547  0.52229  0.17375  Biso   1.000  Hf
  Hf18     1.0000 0.12999  0.72777  0.42293  Biso   1.000  Hf
  Hf19     1.0000 0.35515  0.77194  0.17487  Biso   1.000  Hf
  Hf20     1.0000 0.35302  0.97720  0.42609  Biso   1.000  Hf
  Hf21     1.0000 0.63706  0.53455  0.07810  Biso   1.000  Hf
  Hf22     1.0000 0.63265  0.72955  0.33039  Biso   1.000  Hf
  Hf23     1.0000 0.86190  0.77018  0.07867  Biso   1.000  Hf
  Hf24     1.0000 0.85626  0.97937  0.32809  Biso   1.000  Hf
  O33      1.0000 0.03068  0.66359  0.08261  Biso   1.000  O 
  O34      1.0000 0.02369  0.58631  0.33286  Biso   1.000  O 
  O35      1.0000 0.46455  0.90618  0.07844  Biso   1.000  O 
  O36      1.0000 0.46200  0.83783  0.33400  Biso   1.000  O 
  O37      1.0000 0.26830  0.62563  0.29725  Biso   1.000  O 
  O38      1.0000 0.27238  0.63007  0.04536  Biso   1.000  O 
  O39      1.0000 0.21744  0.87412  0.29767  Biso   1.000  O 
  O40      1.0000 0.21993  0.87889  0.04761  Biso   1.000  O 
  O41      1.0000 0.52993  0.67150  0.17008  Biso   1.000  O 
  O42      1.0000 0.52478  0.58636  0.41736  Biso   1.000  O 
  O43      1.0000 0.96419  0.91514  0.16827  Biso   1.000  O 
  O44      1.0000 0.96048  0.83668  0.41967  Biso   1.000  O 
  O45      1.0000 0.76926  0.62359  0.45397  Biso   1.000  O 
  O46      1.0000 0.77354  0.62585  0.20552  Biso   1.000  O 
  O47      1.0000 0.71712  0.87319  0.45594  Biso   1.000  O 
  O48      1.0000 0.72354  0.87145  0.20708  Biso   1.000  O 
  Hf25     1.0000 0.13000  0.52001  0.67327  Biso   1.000  Hf
  Hf26     1.0000 0.12531  0.73024  0.92216  Biso   1.000  Hf
  Hf27     1.0000 0.35128  0.76929  0.67287  Biso   1.000  Hf
  Hf28     1.0000 0.34926  0.97642  0.92131  Biso   1.000  Hf
  Hf29     1.0000 0.63126  0.52204  0.57576  Biso   1.000  Hf
  Hf30     1.0000 0.62783  0.72822  0.82602  Biso   1.000  Hf
  Hf31     1.0000 0.85444  0.77007  0.57970  Biso   1.000  Hf
  Hf32     1.0000 0.84982  0.97903  0.83024  Biso   1.000  Hf
  O49      1.0000 0.02431  0.66253  0.58296  Biso   1.000  O 
  O50      1.0000 0.02295  0.58591  0.83325  Biso   1.000  O 
  O51      1.0000 0.45974  0.90933  0.58327  Biso   1.000  O 
  O52      1.0000 0.45498  0.83182  0.83170  Biso   1.000  O 
  O53      1.0000 0.26487  0.62453  0.79596  Biso   1.000  O 
  O54      1.0000 0.26724  0.62449  0.54617  Biso   1.000  O 
  O55      1.0000 0.21238  0.87318  0.79661  Biso   1.000  O 
  O56      1.0000 0.21478  0.87488  0.54763  Biso   1.000  O 
  O57      1.0000 0.52301  0.66232  0.66704  Biso   1.000  O 
  O58      1.0000 0.51890  0.58671  0.91850  Biso   1.000  O 
  O59      1.0000 0.95883  0.91120  0.67117  Biso   1.000  O 
  O60      1.0000 0.95505  0.83661  0.91975  Biso   1.000  O 
  O61      1.0000 0.76492  0.62795  0.95165  Biso   1.000  O 
  O62      1.0000 0.76745  0.62508  0.70330  Biso   1.000  O 
  O63      1.0000 0.71203  0.87232  0.95560  Biso   1.000  O 
  O64      1.0000 0.71491  0.87360  0.70645  Biso   1.000  O 
  Sr1      1.0000 0.55573  0.26432  0.02690  Biso   1.000  Sr
