data_image0
_cell_length_a       10.1813
_cell_length_b       10.2943
_cell_length_c       10.4707
_cell_angle_alpha    90
_cell_angle_beta     80
_cell_angle_gamma    90

_symmetry_space_group_name_H-M    "P 1"
_symmetry_int_tables_number       1

loop_
  _symmetry_equiv_pos_as_xyz
  'x, y, z'

loop_
  _atom_site_label
  _atom_site_occupancy
  _atom_site_fract_x
  _atom_site_fract_y
  _atom_site_fract_z
  _atom_site_thermal_displace_type
  _atom_site_B_iso_or_equiv
  _atom_site_type_symbol
  Sr1      1.0000 0.13582  0.01235  0.14318  Biso   1.000  Sr
  Hf1      1.0000 0.13685  0.02141  0.64672  Biso   1.000  Hf
  Hf2      1.0000 0.13779  0.52020  0.14430  Biso   1.000  Hf
  Hf3      1.0000 0.13537  0.52141  0.64652  Biso   1.000  Hf
  Hf4      1.0000 0.64000  0.02039  0.14653  Biso   1.000  Hf
  Hf5      1.0000 0.63641  0.02199  0.64739  Biso   1.000  Hf
  Hf6      1.0000 0.63539  0.51862  0.14615  Biso   1.000  Hf
  Hf7      1.0000 0.63454  0.52115  0.64565  Biso   1.000  Hf
  Hf8      1.0000 0.13755  0.22738  0.39693  Biso   1.000  Hf
  Hf9      1.0000 0.13392  0.23088  0.89693  Biso   1.000  Hf
  Hf10     1.0000 0.13741  0.72700  0.39589  Biso   1.000  Hf
  Hf11     1.0000 0.13592  0.72941  0.89553  Biso   1.000  Hf
  Hf12     1.0000 0.63507  0.22960  0.39665  Biso   1.000  Hf
  Hf13     1.0000 0.63486  0.22906  0.89727  Biso   1.000  Hf
  Hf14     1.0000 0.63232  0.72743  0.39692  Biso   1.000  Hf
  Hf15     1.0000 0.63531  0.72895  0.89506  Biso   1.000  Hf
  Hf16     1.0000 0.35762  0.26679  0.10459  Biso   1.000  Hf
  Hf17     1.0000 0.35660  0.27063  0.60478  Biso   1.000  Hf
  Hf18     1.0000 0.36233  0.76895  0.10331  Biso   1.000  Hf
  Hf19     1.0000 0.35549  0.77239  0.60442  Biso   1.000  Hf
  Hf20     1.0000 0.85838  0.27250  0.10246  Biso   1.000  Hf
  Hf21     1.0000 0.85740  0.27167  0.60460  Biso   1.000  Hf
  Hf22     1.0000 0.85501  0.76693  0.10335  Biso   1.000  Hf
  Hf23     1.0000 0.85730  0.77170  0.60361  Biso   1.000  Hf
  Hf24     1.0000 0.35607  0.47690  0.35289  Biso   1.000  Hf
  Hf25     1.0000 0.35679  0.47773  0.85507  Biso   1.000  Hf
  Hf26     1.0000 0.35671  0.97970  0.35405  Biso   1.000  Hf
  Hf27     1.0000 0.35573  0.97940  0.85433  Biso   1.000  Hf
  Hf28     1.0000 0.85735  0.47940  0.35419  Biso   1.000  Hf
  Hf29     1.0000 0.85512  0.47981  0.85290  Biso   1.000  Hf
  Hf30     1.0000 0.85251  0.97969  0.35805  Biso   1.000  Hf
  Hf31     1.0000 0.85539  0.97856  0.85567  Biso   1.000  Hf
  O1       1.0000 0.03378  0.19074  0.07679  Biso   1.000  O 
  O2       1.0000 0.03317  0.17344  0.58700  Biso   1.000  O 
  O3       1.0000 0.03495  0.67202  0.08083  Biso   1.000  O 
  O4       1.0000 0.03125  0.66896  0.58139  Biso   1.000  O 
  O5       1.0000 0.53539  0.16748  0.07923  Biso   1.000  O 
  O6       1.0000 0.52986  0.16699  0.58056  Biso   1.000  O 
  O7       1.0000 0.53466  0.66535  0.07757  Biso   1.000  O 
  O8       1.0000 0.52884  0.66633  0.58029  Biso   1.000  O 
  O9       1.0000 0.02199  0.08499  0.35084  Biso   1.000  O 
  O10      1.0000 0.03258  0.07944  0.83374  Biso   1.000  O 
  O11      1.0000 0.03141  0.58233  0.32958  Biso   1.000  O 
  O12      1.0000 0.03021  0.58036  0.83035  Biso   1.000  O 
  O13      1.0000 0.53487  0.08134  0.33065  Biso   1.000  O 
  O14      1.0000 0.53342  0.08290  0.82893  Biso   1.000  O 
  O15      1.0000 0.52907  0.58206  0.32877  Biso   1.000  O 
  O16      1.0000 0.52964  0.58353  0.82863  Biso   1.000  O 
  O17      1.0000 0.46278  0.41466  0.17163  Biso   1.000  O 
  O18      1.0000 0.46183  0.41654  0.67142  Biso   1.000  O 
  O19      1.0000 0.46422  0.91861  0.16939  Biso   1.000  O 
  O20      1.0000 0.46131  0.91644  0.67212  Biso   1.000  O 
  O21      1.0000 0.95838  0.42507  0.16794  Biso   1.000  O 
  O22      1.0000 0.95995  0.42164  0.66739  Biso   1.000  O 
  O23      1.0000 0.92999  0.91968  0.17491  Biso   1.000  O 
  O24      1.0000 0.95953  0.91939  0.67032  Biso   1.000  O 
  O25      1.0000 0.46133  0.33207  0.42165  Biso   1.000  O 
  O26      1.0000 0.46357  0.33526  0.92199  Biso   1.000  O 
  O27      1.0000 0.46105  0.83306  0.42390  Biso   1.000  O 
  O28      1.0000 0.46965  0.83768  0.92175  Biso   1.000  O 
  O29      1.0000 0.96217  0.33400  0.42082  Biso   1.000  O 
  O30      1.0000 0.95631  0.33206  0.91329  Biso   1.000  O 
  O31      1.0000 0.96220  0.83147  0.41922  Biso   1.000  O 
  O32      1.0000 0.95988  0.83077  0.92028  Biso   1.000  O 
  O33      1.0000 0.28468  0.13619  0.25153  Biso   1.000  O 
  O34      1.0000 0.27218  0.12857  0.73937  Biso   1.000  O 
  O35      1.0000 0.27394  0.62263  0.23858  Biso   1.000  O 
  O36      1.0000 0.27158  0.62949  0.74087  Biso   1.000  O 
  O37      1.0000 0.77316  0.13152  0.24256  Biso   1.000  O 
  O38      1.0000 0.77409  0.12911  0.74172  Biso   1.000  O 
  O39      1.0000 0.77081  0.62817  0.24103  Biso   1.000  O 
  O40      1.0000 0.77126  0.62937  0.73890  Biso   1.000  O 
  O41      1.0000 0.27226  0.12016  0.49434  Biso   1.000  O 
  O42      1.0000 0.28228  0.12944  0.97961  Biso   1.000  O 
  O43      1.0000 0.27218  0.62060  0.49058  Biso   1.000  O 
  O44      1.0000 0.27080  0.61726  0.99084  Biso   1.000  O 
  O45      1.0000 0.76928  0.12338  0.49390  Biso   1.000  O 
  O46      1.0000 0.77172  0.12084  0.99150  Biso   1.000  O 
  O47      1.0000 0.77154  0.62170  0.49031  Biso   1.000  O 
  O48      1.0000 0.76920  0.61914  0.98972  Biso   1.000  O 
  O49      1.0000 0.22421  0.37940  0.00818  Biso   1.000  O 
  O50      1.0000 0.22046  0.37908  0.50979  Biso   1.000  O 
  O51      1.0000 0.23390  0.86424  0.99546  Biso   1.000  O 
  O52      1.0000 0.21887  0.87904  0.51090  Biso   1.000  O 
  O53      1.0000 0.72153  0.37954  0.00831  Biso   1.000  O 
  O54      1.0000 0.72021  0.37965  0.50966  Biso   1.000  O 
  O55      1.0000 0.72293  0.87781  0.00839  Biso   1.000  O 
  O56      1.0000 0.71975  0.87874  0.51121  Biso   1.000  O 
  O57      1.0000 0.21766  0.37154  0.25847  Biso   1.000  O 
  O58      1.0000 0.22012  0.37240  0.75923  Biso   1.000  O 
  O59      1.0000 0.23520  0.85775  0.26510  Biso   1.000  O 
  O60      1.0000 0.21795  0.87212  0.75685  Biso   1.000  O 
  O61      1.0000 0.72010  0.37238  0.26079  Biso   1.000  O 
  O62      1.0000 0.71966  0.37113  0.75862  Biso   1.000  O 
  O63      1.0000 0.70612  0.86940  0.26368  Biso   1.000  O 
  O64      1.0000 0.72083  0.87124  0.75912  Biso   1.000  O 
