data_image0
_cell_length_a       5.09301
_cell_length_b       10.3594
_cell_length_c       10.6406
_cell_angle_alpha    90
_cell_angle_beta     80
_cell_angle_gamma    90

_symmetry_space_group_name_H-M    "P 1"
_symmetry_int_tables_number       1

loop_
  _symmetry_equiv_pos_as_xyz
  'x, y, z'

loop_
  _atom_site_label
  _atom_site_occupancy
  _atom_site_fract_x
  _atom_site_fract_y
  _atom_site_fract_z
  _atom_site_thermal_displace_type
  _atom_site_B_iso_or_equiv
  _atom_site_type_symbol
  Hf1      1.0000 0.28767  0.01549  0.15030  Biso   1.000  Hf
  Hf2      1.0000 0.32707  0.23053  0.41337  Biso   1.000  Hf
  Hf3      1.0000 0.67560  0.27271  0.08246  Biso   1.000  Hf
  Hf4      1.0000 0.71092  0.48993  0.35588  Biso   1.000  Hf
  O1       1.0000 0.04465  0.15943  0.06637  Biso   1.000  O 
  O2       1.0000 0.11193  0.05940  0.34255  Biso   1.000  O 
  O3       1.0000 0.89898  0.43096  0.16490  Biso   1.000  O 
  O4       1.0000 0.96581  0.36155  0.44464  Biso   1.000  O 
  O5       1.0000 0.56954  0.12563  0.24047  Biso   1.000  O 
  O6       1.0000 0.60908  0.12297  0.49057  Biso   1.000  O 
  O7       1.0000 0.40560  0.38433  0.00524  Biso   1.000  O 
  O8       1.0000 0.42202  0.36785  0.25600  Biso   1.000  O 
  Hf5      1.0000 0.30883  0.02398  0.64446  Biso   1.000  Hf
  Hf6      1.0000 0.29204  0.22978  0.88891  Biso   1.000  Hf
  Hf7      1.0000 0.75358  0.28142  0.60821  Biso   1.000  Hf
  Hf8      1.0000 0.73495  0.48737  0.85222  Biso   1.000  Hf
  O9       1.0000 0.10413  0.17253  0.58325  Biso   1.000  O 
  O10      1.0000 0.09124  0.08729  0.82037  Biso   1.000  O 
  O11      1.0000 0.95476  0.42051  0.68169  Biso   1.000  O 
  O12      1.0000 0.94639  0.33886  0.91384  Biso   1.000  O 
  O13      1.0000 0.57681  0.13232  0.73938  Biso   1.000  O 
  O14      1.0000 0.57447  0.12476  0.98387  Biso   1.000  O 
  O15      1.0000 0.46732  0.38386  0.51421  Biso   1.000  O 
  O16      1.0000 0.46905  0.37653  0.75767  Biso   1.000  O 
  Hf9      1.0000 0.25795  0.52603  0.14674  Biso   1.000  Hf
  Hf10     1.0000 0.26925  0.72866  0.39769  Biso   1.000  Hf
  Hf11     1.0000 0.70299  0.77180  0.10460  Biso   1.000  Hf
  Hf12     1.0000 0.71295  0.96905  0.35556  Biso   1.000  Hf
  O17      1.0000 0.04995  0.67078  0.07847  Biso   1.000  O 
  O18      1.0000 0.05610  0.58995  0.32478  Biso   1.000  O 
  O19      1.0000 0.91591  0.91336  0.17624  Biso   1.000  O 
  O20      1.0000 0.92167  0.82748  0.42474  Biso   1.000  O 
  O21      1.0000 0.53781  0.62962  0.24307  Biso   1.000  O 
  O22      1.0000 0.54662  0.62655  0.49223  Biso   1.000  O 
  O23      1.0000 0.42535  0.87781  0.01122  Biso   1.000  O 
  O24      1.0000 0.43382  0.86637  0.25817  Biso   1.000  O 
  Hf13     1.0000 0.28942  0.52727  0.64810  Biso   1.000  Hf
  Hf14     1.0000 0.29062  0.73433  0.89577  Biso   1.000  Hf
  Hf15     1.0000 0.72770  0.77459  0.60489  Biso   1.000  Hf
  Hf16     1.0000 0.72908  0.98084  0.85053  Biso   1.000  Hf
  O25      1.0000 0.06681  0.66580  0.57835  Biso   1.000  O 
  O26      1.0000 0.08210  0.59191  0.82749  Biso   1.000  O 
  O27      1.0000 0.93820  0.91778  0.67142  Biso   1.000  O 
  O28      1.0000 0.94916  0.84133  0.92099  Biso   1.000  O 
  O29      1.0000 0.56486  0.63303  0.74066  Biso   1.000  O 
  O30      1.0000 0.57310  0.62896  0.98944  Biso   1.000  O 
  O31      1.0000 0.44408  0.87934  0.51082  Biso   1.000  O 
  O32      1.0000 0.45464  0.87549  0.75883  Biso   1.000  O 
  Sr1      1.0000 0.94836  0.24143  0.27009  Biso   1.000  Sr
