data_image0
_cell_length_a       10.0579
_cell_length_b       5.16394
_cell_length_c       10.6588
_cell_angle_alpha    90
_cell_angle_beta     90
_cell_angle_gamma    90

_symmetry_space_group_name_H-M    "P 1"
_symmetry_int_tables_number       1

loop_
  _symmetry_equiv_pos_as_xyz
  'x, y, z'

loop_
  _atom_site_label
  _atom_site_occupancy
  _atom_site_fract_x
  _atom_site_fract_y
  _atom_site_fract_z
  _atom_site_thermal_displace_type
  _atom_site_B_iso_or_equiv
  _atom_site_type_symbol
  Hf1      1.0000 0.13304  0.04490  0.17531  Biso   1.000  Hf
  Hf2      1.0000 0.12526  0.45215  0.42721  Biso   1.000  Hf
  Hf3      1.0000 0.34272  0.55183  0.19354  Biso   1.000  Hf
  Hf4      1.0000 0.34709  0.95668  0.42957  Biso   1.000  Hf
  Hf5      1.0000 0.64310  0.05037  0.08435  Biso   1.000  Hf
  Hf6      1.0000 0.62898  0.45116  0.33227  Biso   1.000  Hf
  Hf7      1.0000 0.86372  0.54165  0.07711  Biso   1.000  Hf
  Hf8      1.0000 0.84915  0.95502  0.32651  Biso   1.000  Hf
  O1       1.0000 0.03241  0.32082  0.08072  Biso   1.000  O 
  O2       1.0000 0.02124  0.17394  0.33335  Biso   1.000  O 
  O3       1.0000 0.44372  0.86996  0.10203  Biso   1.000  O 
  O4       1.0000 0.45717  0.67215  0.34106  Biso   1.000  O 
  O5       1.0000 0.26214  0.25078  0.30245  Biso   1.000  O 
  O6       1.0000 0.28138  0.27343  0.04580  Biso   1.000  O 
  O7       1.0000 0.20825  0.75395  0.30696  Biso   1.000  O 
  O8       1.0000 0.21288  0.76166  0.05271  Biso   1.000  O 
  O9       1.0000 0.51741  0.30314  0.19088  Biso   1.000  O 
  O10      1.0000 0.51862  0.17467  0.42501  Biso   1.000  O 
  O11      1.0000 0.96078  0.82659  0.17300  Biso   1.000  O 
  O12      1.0000 0.95769  0.67606  0.42195  Biso   1.000  O 
  O13      1.0000 0.76493  0.24677  0.45163  Biso   1.000  O 
  O14      1.0000 0.77791  0.25144  0.20548  Biso   1.000  O 
  O15      1.0000 0.71285  0.74805  0.45398  Biso   1.000  O 
  O16      1.0000 0.71258  0.73826  0.20271  Biso   1.000  O 
  Hf9      1.0000 0.12426  0.04252  0.67599  Biso   1.000  Hf
  Hf10     1.0000 0.11686  0.46869  0.92392  Biso   1.000  Hf
  Hf11     1.0000 0.34351  0.54483  0.67495  Biso   1.000  Hf
  Hf12     1.0000 0.33076  0.97454  0.92781  Biso   1.000  Hf
  Hf13     1.0000 0.62817  0.03459  0.57183  Biso   1.000  Hf
  Hf14     1.0000 0.63015  0.45123  0.79513  Biso   1.000  Hf
  Hf15     1.0000 0.85286  0.54562  0.57527  Biso   1.000  Hf
  Hf16     1.0000 0.84278  0.96575  0.83090  Biso   1.000  Hf
  O17      1.0000 0.01848  0.32254  0.58256  Biso   1.000  O 
  O18      1.0000 0.01431  0.18072  0.83279  Biso   1.000  O 
  O19      1.0000 0.45620  0.81459  0.58026  Biso   1.000  O 
  O20      1.0000 0.45307  0.67337  0.82280  Biso   1.000  O 
  O21      1.0000 0.25595  0.25621  0.79719  Biso   1.000  O 
  O22      1.0000 0.26156  0.24753  0.54899  Biso   1.000  O 
  O23      1.0000 0.20425  0.75172  0.80116  Biso   1.000  O 
  O24      1.0000 0.20908  0.75031  0.55288  Biso   1.000  O 
  O25      1.0000 0.51207  0.30888  0.66314  Biso   1.000  O 
  O26      1.0000 0.51048  0.15067  0.91631  Biso   1.000  O 
  O27      1.0000 0.95375  0.82196  0.67400  Biso   1.000  O 
  O28      1.0000 0.94673  0.67952  0.92084  Biso   1.000  O 
  O29      1.0000 0.74590  0.27622  0.94619  Biso   1.000  O 
  O30      1.0000 0.76828  0.23889  0.69294  Biso   1.000  O 
  O31      1.0000 0.71012  0.77911  0.95688  Biso   1.000  O 
  O32      1.0000 0.71269  0.75105  0.70046  Biso   1.000  O 
  Sr1      1.0000 0.55110  0.53862  0.01719  Biso   1.000  Sr
