data_image0
_cell_length_a       10.0073
_cell_length_b       10.2188
_cell_length_c       10.4572
_cell_angle_alpha    90
_cell_angle_beta     90
_cell_angle_gamma    90

_symmetry_space_group_name_H-M    "P 1"
_symmetry_int_tables_number       1

loop_
  _symmetry_equiv_pos_as_xyz
  'x, y, z'

loop_
  _atom_site_label
  _atom_site_occupancy
  _atom_site_fract_x
  _atom_site_fract_y
  _atom_site_fract_z
  _atom_site_thermal_displace_type
  _atom_site_B_iso_or_equiv
  _atom_site_type_symbol
  Ta1      1.0000 0.13973  0.02338  0.17323  Biso   1.000  Ta
  Hf1      1.0000 0.13997  0.22966  0.42132  Biso   1.000  Hf
  Hf2      1.0000 0.36159  0.27140  0.17202  Biso   1.000  Hf
  Hf3      1.0000 0.36202  0.47946  0.42164  Biso   1.000  Hf
  Hf4      1.0000 0.63909  0.02134  0.07762  Biso   1.000  Hf
  Hf5      1.0000 0.63921  0.22830  0.32850  Biso   1.000  Hf
  Hf6      1.0000 0.86113  0.27079  0.07852  Biso   1.000  Hf
  Hf7      1.0000 0.86134  0.47849  0.32821  Biso   1.000  Hf
  O1       1.0000 0.03379  0.16023  0.08452  Biso   1.000  O 
  O2       1.0000 0.03827  0.08063  0.33093  Biso   1.000  O 
  O3       1.0000 0.46662  0.41638  0.08474  Biso   1.000  O 
  O4       1.0000 0.46692  0.33347  0.33463  Biso   1.000  O 
  O5       1.0000 0.27730  0.12205  0.29575  Biso   1.000  O 
  O6       1.0000 0.27404  0.12461  0.04742  Biso   1.000  O 
  O7       1.0000 0.22481  0.37420  0.29545  Biso   1.000  O 
  O8       1.0000 0.22366  0.37552  0.04514  Biso   1.000  O 
  O9       1.0000 0.53337  0.16576  0.16619  Biso   1.000  O 
  O10      1.0000 0.53374  0.08357  0.41582  Biso   1.000  O 
  O11      1.0000 0.96804  0.41391  0.16637  Biso   1.000  O 
  O12      1.0000 0.96662  0.33223  0.41465  Biso   1.000  O 
  O13      1.0000 0.77817  0.12268  0.45422  Biso   1.000  O 
  O14      1.0000 0.77779  0.12602  0.20487  Biso   1.000  O 
  O15      1.0000 0.72384  0.37312  0.45512  Biso   1.000  O 
  O16      1.0000 0.72359  0.37588  0.20471  Biso   1.000  O 
  Hf8      1.0000 0.13921  0.02076  0.67149  Biso   1.000  Hf
  Hf9      1.0000 0.13979  0.22834  0.92083  Biso   1.000  Hf
  Hf10     1.0000 0.36192  0.27106  0.67144  Biso   1.000  Hf
  Hf11     1.0000 0.36188  0.47889  0.92180  Biso   1.000  Hf
  Hf12     1.0000 0.63904  0.02070  0.57812  Biso   1.000  Hf
  Hf13     1.0000 0.63926  0.22876  0.82835  Biso   1.000  Hf
  Hf14     1.0000 0.86170  0.27044  0.57832  Biso   1.000  Hf
  Hf15     1.0000 0.86211  0.47835  0.82880  Biso   1.000  Hf
  O17      1.0000 0.03337  0.16413  0.58178  Biso   1.000  O 
  O18      1.0000 0.03332  0.08461  0.83301  Biso   1.000  O 
  O19      1.0000 0.46719  0.41612  0.58421  Biso   1.000  O 
  O20      1.0000 0.46691  0.33395  0.83439  Biso   1.000  O 
  O21      1.0000 0.27728  0.12362  0.79565  Biso   1.000  O 
  O22      1.0000 0.27757  0.12642  0.54533  Biso   1.000  O 
  O23      1.0000 0.22355  0.37327  0.79516  Biso   1.000  O 
  O24      1.0000 0.22370  0.37601  0.54482  Biso   1.000  O 
  O25      1.0000 0.53388  0.16590  0.66575  Biso   1.000  O 
  O26      1.0000 0.53277  0.08446  0.91601  Biso   1.000  O 
  O27      1.0000 0.96784  0.41450  0.66637  Biso   1.000  O 
  O28      1.0000 0.96787  0.33285  0.91702  Biso   1.000  O 
  O29      1.0000 0.77668  0.12358  0.95390  Biso   1.000  O 
  O30      1.0000 0.77709  0.12589  0.70430  Biso   1.000  O 
  O31      1.0000 0.72429  0.37342  0.95516  Biso   1.000  O 
  O32      1.0000 0.72401  0.37608  0.70510  Biso   1.000  O 
  Hf16     1.0000 0.13924  0.52121  0.17165  Biso   1.000  Hf
  Hf17     1.0000 0.13930  0.72846  0.42176  Biso   1.000  Hf
  Hf18     1.0000 0.36001  0.77378  0.17189  Biso   1.000  Hf
  Hf19     1.0000 0.36154  0.97827  0.42179  Biso   1.000  Hf
  Hf20     1.0000 0.63899  0.52196  0.07872  Biso   1.000  Hf
  Hf21     1.0000 0.63923  0.72865  0.32776  Biso   1.000  Hf
  Hf22     1.0000 0.86267  0.77219  0.07804  Biso   1.000  Hf
  Hf23     1.0000 0.86184  0.97813  0.32767  Biso   1.000  Hf
  O33      1.0000 0.03372  0.66504  0.08415  Biso   1.000  O 
  O34      1.0000 0.03355  0.58351  0.33401  Biso   1.000  O 
  O35      1.0000 0.46707  0.91627  0.08315  Biso   1.000  O 
  O36      1.0000 0.46689  0.83460  0.33322  Biso   1.000  O 
  O37      1.0000 0.27700  0.62459  0.29507  Biso   1.000  O 
  O38      1.0000 0.27711  0.62763  0.04546  Biso   1.000  O 
  O39      1.0000 0.21942  0.87526  0.29552  Biso   1.000  O 
  O40      1.0000 0.21737  0.88036  0.04748  Biso   1.000  O 
  O41      1.0000 0.53324  0.66747  0.16517  Biso   1.000  O 
  O42      1.0000 0.53419  0.58405  0.41568  Biso   1.000  O 
  O43      1.0000 0.97332  0.91651  0.16578  Biso   1.000  O 
  O44      1.0000 0.96768  0.83467  0.41629  Biso   1.000  O 
  O45      1.0000 0.77743  0.62340  0.45490  Biso   1.000  O 
  O46      1.0000 0.77701  0.62596  0.20473  Biso   1.000  O 
  O47      1.0000 0.72403  0.87340  0.45429  Biso   1.000  O 
  O48      1.0000 0.72607  0.87664  0.20434  Biso   1.000  O 
  Hf24     1.0000 0.13952  0.52104  0.67171  Biso   1.000  Hf
  Hf25     1.0000 0.13983  0.72866  0.92202  Biso   1.000  Hf
  Hf26     1.0000 0.36227  0.77086  0.67185  Biso   1.000  Hf
  Hf27     1.0000 0.36207  0.97804  0.92225  Biso   1.000  Hf
  Hf28     1.0000 0.63978  0.52095  0.57865  Biso   1.000  Hf
  Hf29     1.0000 0.64004  0.72846  0.82864  Biso   1.000  Hf
  Hf30     1.0000 0.86181  0.77088  0.57828  Biso   1.000  Hf
  Hf31     1.0000 0.86214  0.97840  0.82822  Biso   1.000  Hf
  O49      1.0000 0.03361  0.66509  0.58384  Biso   1.000  O 
  O50      1.0000 0.03402  0.58409  0.83404  Biso   1.000  O 
  O51      1.0000 0.46770  0.91564  0.58407  Biso   1.000  O 
  O52      1.0000 0.46794  0.83403  0.83399  Biso   1.000  O 
  O53      1.0000 0.27764  0.62334  0.79521  Biso   1.000  O 
  O54      1.0000 0.27756  0.62598  0.54550  Biso   1.000  O 
  O55      1.0000 0.22434  0.87353  0.79587  Biso   1.000  O 
  O56      1.0000 0.22419  0.87576  0.54585  Biso   1.000  O 
  O57      1.0000 0.53442  0.66578  0.66583  Biso   1.000  O 
  O58      1.0000 0.53439  0.58342  0.91580  Biso   1.000  O 
  O59      1.0000 0.96809  0.91511  0.66619  Biso   1.000  O 
  O60      1.0000 0.96745  0.83379  0.91605  Biso   1.000  O 
  O61      1.0000 0.77817  0.62357  0.95535  Biso   1.000  O 
  O62      1.0000 0.77787  0.62563  0.70516  Biso   1.000  O 
  O63      1.0000 0.72360  0.87346  0.95397  Biso   1.000  O 
  O64      1.0000 0.72437  0.87583  0.70442  Biso   1.000  O 
