data_image0
_cell_length_a       9.94606
_cell_length_b       10.3591
_cell_length_c       9.99418
_cell_angle_alpha    90
_cell_angle_beta     90
_cell_angle_gamma    90

_symmetry_space_group_name_H-M    "P 1"
_symmetry_int_tables_number       1

loop_
  _symmetry_equiv_pos_as_xyz
  'x, y, z'

loop_
  _atom_site_label
  _atom_site_occupancy
  _atom_site_fract_x
  _atom_site_fract_y
  _atom_site_fract_z
  _atom_site_thermal_displace_type
  _atom_site_B_iso_or_equiv
  _atom_site_type_symbol
  Ta1      1.0000 0.13613  0.01889  0.12603  Biso   1.000  Ta
  Hf1      1.0000 0.13441  0.23311  0.37558  Biso   1.000  Hf
  Hf2      1.0000 0.36716  0.26752  0.12587  Biso   1.000  Hf
  Hf3      1.0000 0.36662  0.48407  0.37625  Biso   1.000  Hf
  O1       1.0000 0.03971  0.18256  0.19225  Biso   1.000  O 
  O2       1.0000 0.03551  0.06705  0.44734  Biso   1.000  O 
  O3       1.0000 0.46380  0.43504  0.19371  Biso   1.000  O 
  O4       1.0000 0.46429  0.31613  0.44386  Biso   1.000  O 
  O5       1.0000 0.27096  0.11794  0.24760  Biso   1.000  O 
  O6       1.0000 0.27137  0.13233  0.49915  Biso   1.000  O 
  O7       1.0000 0.22986  0.38214  0.49996  Biso   1.000  O 
  O8       1.0000 0.23032  0.36844  0.25029  Biso   1.000  O 
  Hf4      1.0000 0.13481  0.01675  0.62654  Biso   1.000  Hf
  Hf5      1.0000 0.13489  0.23408  0.87697  Biso   1.000  Hf
  Hf6      1.0000 0.36664  0.26680  0.62595  Biso   1.000  Hf
  Hf7      1.0000 0.36679  0.48426  0.87590  Biso   1.000  Hf
  O9       1.0000 0.03594  0.18324  0.69801  Biso   1.000  O 
  O10      1.0000 0.03758  0.06510  0.95212  Biso   1.000  O 
  O11      1.0000 0.46394  0.43493  0.69356  Biso   1.000  O 
  O12      1.0000 0.46383  0.31556  0.94349  Biso   1.000  O 
  O13      1.0000 0.27165  0.11841  0.75030  Biso   1.000  O 
  O14      1.0000 0.26992  0.13027  0.00136  Biso   1.000  O 
  O15      1.0000 0.22924  0.38179  0.00014  Biso   1.000  O 
  O16      1.0000 0.22980  0.36779  0.75025  Biso   1.000  O 
  Hf8      1.0000 0.13482  0.51676  0.12655  Biso   1.000  Hf
  Hf9      1.0000 0.13484  0.73403  0.37616  Biso   1.000  Hf
  Hf10     1.0000 0.36530  0.76806  0.12622  Biso   1.000  Hf
  Hf11     1.0000 0.36694  0.98352  0.37562  Biso   1.000  Hf
  O17      1.0000 0.03726  0.68430  0.19387  Biso   1.000  O 
  O18      1.0000 0.03730  0.56586  0.44371  Biso   1.000  O 
  O19      1.0000 0.46472  0.93440  0.19481  Biso   1.000  O 
  O20      1.0000 0.46434  0.81598  0.44362  Biso   1.000  O 
  O21      1.0000 0.27181  0.61941  0.25030  Biso   1.000  O 
  O22      1.0000 0.27158  0.63234  0.50004  Biso   1.000  O 
  O23      1.0000 0.23033  0.88253  0.49973  Biso   1.000  O 
  O24      1.0000 0.22599  0.87103  0.24880  Biso   1.000  O 
  Hf12     1.0000 0.13467  0.51645  0.62584  Biso   1.000  Hf
  Hf13     1.0000 0.13464  0.73339  0.87572  Biso   1.000  Hf
  Hf14     1.0000 0.36700  0.76669  0.62588  Biso   1.000  Hf
  Hf15     1.0000 0.36653  0.98355  0.87640  Biso   1.000  Hf
  O25      1.0000 0.03717  0.68424  0.69381  Biso   1.000  O 
  O26      1.0000 0.03749  0.56534  0.94456  Biso   1.000  O 
  O27      1.0000 0.46414  0.93492  0.69429  Biso   1.000  O 
  O28      1.0000 0.46309  0.81615  0.94428  Biso   1.000  O 
  O29      1.0000 0.27146  0.61786  0.74977  Biso   1.000  O 
  O30      1.0000 0.27095  0.63226  0.00007  Biso   1.000  O 
  O31      1.0000 0.22437  0.88306  0.00091  Biso   1.000  O 
  O32      1.0000 0.23062  0.86765  0.75009  Biso   1.000  O 
  Hf16     1.0000 0.63490  0.01675  0.12575  Biso   1.000  Hf
  Hf17     1.0000 0.63483  0.23378  0.37610  Biso   1.000  Hf
  Hf18     1.0000 0.86609  0.26621  0.12578  Biso   1.000  Hf
  Hf19     1.0000 0.86654  0.48368  0.37594  Biso   1.000  Hf
  O33      1.0000 0.53743  0.18476  0.19409  Biso   1.000  O 
  O34      1.0000 0.53659  0.06604  0.44398  Biso   1.000  O 
  O35      1.0000 0.96485  0.43296  0.19452  Biso   1.000  O 
  O36      1.0000 0.96439  0.31564  0.44441  Biso   1.000  O 
  O37      1.0000 0.77264  0.11847  0.24967  Biso   1.000  O 
  O38      1.0000 0.77114  0.13221  0.49976  Biso   1.000  O 
  O39      1.0000 0.73008  0.38239  0.50003  Biso   1.000  O 
  O40      1.0000 0.72969  0.36836  0.24995  Biso   1.000  O 
  Hf20     1.0000 0.63446  0.01652  0.62584  Biso   1.000  Hf
  Hf21     1.0000 0.63485  0.23357  0.87582  Biso   1.000  Hf
  Hf22     1.0000 0.86671  0.26619  0.62619  Biso   1.000  Hf
  Hf23     1.0000 0.86674  0.48385  0.87598  Biso   1.000  Hf
  O41      1.0000 0.53735  0.18488  0.69372  Biso   1.000  O 
  O42      1.0000 0.53670  0.06596  0.94427  Biso   1.000  O 
  O43      1.0000 0.96420  0.43427  0.69396  Biso   1.000  O 
  O44      1.0000 0.96421  0.31554  0.94387  Biso   1.000  O 
  O45      1.0000 0.77097  0.11761  0.74985  Biso   1.000  O 
  O46      1.0000 0.77183  0.13252  0.99955  Biso   1.000  O 
  O47      1.0000 0.72932  0.38169  0.00024  Biso   1.000  O 
  O48      1.0000 0.73001  0.36788  0.74988  Biso   1.000  O 
  Hf24     1.0000 0.63475  0.51716  0.12616  Biso   1.000  Hf
  Hf25     1.0000 0.63547  0.73423  0.37500  Biso   1.000  Hf
  Hf26     1.0000 0.86783  0.76709  0.12443  Biso   1.000  Hf
  Hf27     1.0000 0.86790  0.98387  0.37566  Biso   1.000  Hf
  O49      1.0000 0.53688  0.68542  0.19316  Biso   1.000  O 
  O50      1.0000 0.53759  0.56634  0.44357  Biso   1.000  O 
  O51      1.0000 0.97006  0.93553  0.19188  Biso   1.000  O 
  O52      1.0000 0.96487  0.81628  0.44451  Biso   1.000  O 
  O53      1.0000 0.77167  0.61818  0.24978  Biso   1.000  O 
  O54      1.0000 0.77157  0.63268  0.49977  Biso   1.000  O 
  O55      1.0000 0.73019  0.88271  0.49905  Biso   1.000  O 
  O56      1.0000 0.73251  0.86872  0.24890  Biso   1.000  O 
  Hf28     1.0000 0.63484  0.51690  0.62582  Biso   1.000  Hf
  Hf29     1.0000 0.63478  0.73397  0.87616  Biso   1.000  Hf
  Hf30     1.0000 0.86676  0.76686  0.62604  Biso   1.000  Hf
  Hf31     1.0000 0.86778  0.98379  0.87595  Biso   1.000  Hf
  O57      1.0000 0.53729  0.68484  0.69425  Biso   1.000  O 
  O58      1.0000 0.53782  0.56568  0.94357  Biso   1.000  O 
  O59      1.0000 0.96496  0.93435  0.69485  Biso   1.000  O 
  O60      1.0000 0.96302  0.81491  0.94198  Biso   1.000  O 
  O61      1.0000 0.77139  0.61807  0.74996  Biso   1.000  O 
  O62      1.0000 0.77088  0.63194  0.00002  Biso   1.000  O 
  O63      1.0000 0.72982  0.88288  0.99888  Biso   1.000  O 
  O64      1.0000 0.73004  0.86810  0.74952  Biso   1.000  O 
