data_image0
_cell_length_a       10.081
_cell_length_b       10.2162
_cell_length_c       10.5482
_cell_angle_alpha    90
_cell_angle_beta     90
_cell_angle_gamma    90

_symmetry_space_group_name_H-M    "P 1"
_symmetry_int_tables_number       1

loop_
  _symmetry_equiv_pos_as_xyz
  'x, y, z'

loop_
  _atom_site_label
  _atom_site_occupancy
  _atom_site_fract_x
  _atom_site_fract_y
  _atom_site_fract_z
  _atom_site_thermal_displace_type
  _atom_site_B_iso_or_equiv
  _atom_site_type_symbol
  Hf1      1.0000 0.13712  0.01911  0.17377  Biso   1.000  Hf
  Hf2      1.0000 0.13455  0.22723  0.42449  Biso   1.000  Hf
  Hf3      1.0000 0.35331  0.26506  0.17898  Biso   1.000  Hf
  Hf4      1.0000 0.35970  0.47678  0.42472  Biso   1.000  Hf
  Hf5      1.0000 0.63877  0.99704  0.08039  Biso   1.000  Hf
  Hf6      1.0000 0.63113  0.22503  0.33332  Biso   1.000  Hf
  Hf7      1.0000 0.88073  0.27824  0.07294  Biso   1.000  Hf
  Hf8      1.0000 0.86096  0.47863  0.32678  Biso   1.000  Hf
  O1       1.0000 0.03621  0.15823  0.07704  Biso   1.000  O 
  O2       1.0000 0.02401  0.09147  0.32752  Biso   1.000  O 
  O3       1.0000 0.47822  0.40355  0.08272  Biso   1.000  O 
  O4       1.0000 0.46569  0.33800  0.32918  Biso   1.000  O 
  O5       1.0000 0.26818  0.12267  0.30068  Biso   1.000  O 
  O6       1.0000 0.27606  0.12275  0.04880  Biso   1.000  O 
  O7       1.0000 0.22068  0.37314  0.29944  Biso   1.000  O 
  O8       1.0000 0.22948  0.37537  0.04740  Biso   1.000  O 
  O9       1.0000 0.50948  0.13077  0.18963  Biso   1.000  O 
  O10      1.0000 0.52350  0.09032  0.43018  Biso   1.000  O 
  O11      1.0000 0.97447  0.41529  0.17345  Biso   1.000  O 
  O12      1.0000 0.96672  0.33844  0.41977  Biso   1.000  O 
  O13      1.0000 0.77229  0.12100  0.45179  Biso   1.000  O 
  O14      1.0000 0.75617  0.13588  0.19312  Biso   1.000  O 
  O15      1.0000 0.72197  0.37334  0.45187  Biso   1.000  O 
  O16      1.0000 0.72242  0.38045  0.19753  Biso   1.000  O 
  Hf9      1.0000 0.13260  0.01944  0.67368  Biso   1.000  Hf
  Hf10     1.0000 0.13833  0.22514  0.92137  Biso   1.000  Hf
  Hf11     1.0000 0.35637  0.26959  0.67272  Biso   1.000  Hf
  Hf12     1.0000 0.35624  0.47728  0.92197  Biso   1.000  Hf
  Hf13     1.0000 0.63406  0.01674  0.57764  Biso   1.000  Hf
  Hf14     1.0000 0.63559  0.22876  0.81337  Biso   1.000  Hf
  Hf15     1.0000 0.85906  0.27073  0.57476  Biso   1.000  Hf
  Hf16     1.0000 0.85976  0.47821  0.82499  Biso   1.000  Hf
  O17      1.0000 0.02679  0.15956  0.58003  Biso   1.000  O 
  O18      1.0000 0.02446  0.08845  0.83024  Biso   1.000  O 
  O19      1.0000 0.46872  0.40567  0.57839  Biso   1.000  O 
  O20      1.0000 0.46697  0.34227  0.82655  Biso   1.000  O 
  O21      1.0000 0.27051  0.12241  0.79651  Biso   1.000  O 
  O22      1.0000 0.27049  0.12387  0.54832  Biso   1.000  O 
  O23      1.0000 0.22145  0.37256  0.79669  Biso   1.000  O 
  O24      1.0000 0.22161  0.37472  0.54765  Biso   1.000  O 
  O25      1.0000 0.52046  0.15006  0.67428  Biso   1.000  O 
  O26      1.0000 0.51579  0.10435  0.93947  Biso   1.000  O 
  O27      1.0000 0.96630  0.41151  0.66761  Biso   1.000  O 
  O28      1.0000 0.97205  0.33957  0.91637  Biso   1.000  O 
  O29      1.0000 0.75708  0.12822  0.95525  Biso   1.000  O 
  O30      1.0000 0.77354  0.12241  0.69873  Biso   1.000  O 
  O31      1.0000 0.72380  0.37783  0.95088  Biso   1.000  O 
  O32      1.0000 0.72290  0.37496  0.69929  Biso   1.000  O 
  Hf17     1.0000 0.14314  0.52223  0.17503  Biso   1.000  Hf
  Hf18     1.0000 0.13777  0.72764  0.42447  Biso   1.000  Hf
  Hf19     1.0000 0.36045  0.76849  0.17555  Biso   1.000  Hf
  Hf20     1.0000 0.36215  0.97647  0.42524  Biso   1.000  Hf
  Hf21     1.0000 0.64592  0.53350  0.07603  Biso   1.000  Hf
  Hf22     1.0000 0.63894  0.72701  0.32989  Biso   1.000  Hf
  Hf23     1.0000 0.86960  0.77089  0.07720  Biso   1.000  Hf
  Hf24     1.0000 0.86379  0.97815  0.32832  Biso   1.000  Hf
  O33      1.0000 0.03739  0.66267  0.08120  Biso   1.000  O 
  O34      1.0000 0.03095  0.58896  0.33202  Biso   1.000  O 
  O35      1.0000 0.47085  0.89416  0.07201  Biso   1.000  O 
  O36      1.0000 0.47171  0.84129  0.32771  Biso   1.000  O 
  O37      1.0000 0.27644  0.62286  0.29951  Biso   1.000  O 
  O38      1.0000 0.28144  0.62383  0.04837  Biso   1.000  O 
  O39      1.0000 0.22450  0.87213  0.29895  Biso   1.000  O 
  O40      1.0000 0.22644  0.87588  0.04771  Biso   1.000  O 
  O41      1.0000 0.53145  0.65858  0.17485  Biso   1.000  O 
  O42      1.0000 0.52868  0.58867  0.42202  Biso   1.000  O 
  O43      1.0000 0.97070  0.91407  0.16957  Biso   1.000  O 
  O44      1.0000 0.96827  0.84036  0.42084  Biso   1.000  O 
  O45      1.0000 0.77561  0.62246  0.45329  Biso   1.000  O 
  O46      1.0000 0.78048  0.62823  0.20356  Biso   1.000  O 
  O47      1.0000 0.72415  0.87238  0.45502  Biso   1.000  O 
  O48      1.0000 0.73191  0.87075  0.20855  Biso   1.000  O 
  Hf25     1.0000 0.13621  0.52052  0.67287  Biso   1.000  Hf
  Hf26     1.0000 0.13619  0.72690  0.92306  Biso   1.000  Hf
  Hf27     1.0000 0.35987  0.77028  0.67404  Biso   1.000  Hf
  Hf28     1.0000 0.35865  0.97666  0.92469  Biso   1.000  Hf
  Hf29     1.0000 0.63650  0.52009  0.57599  Biso   1.000  Hf
  Hf30     1.0000 0.63596  0.72652  0.82522  Biso   1.000  Hf
  Hf31     1.0000 0.86031  0.77054  0.57885  Biso   1.000  Hf
  Hf32     1.0000 0.86013  0.97932  0.82847  Biso   1.000  Hf
  O49      1.0000 0.02979  0.66208  0.58113  Biso   1.000  O 
  O50      1.0000 0.02874  0.58749  0.82990  Biso   1.000  O 
  O51      1.0000 0.47054  0.90337  0.57710  Biso   1.000  O 
  O52      1.0000 0.47095  0.84429  0.82560  Biso   1.000  O 
  O53      1.0000 0.27438  0.62185  0.79851  Biso   1.000  O 
  O54      1.0000 0.27403  0.62439  0.54793  Biso   1.000  O 
  O55      1.0000 0.22280  0.87201  0.79833  Biso   1.000  O 
  O56      1.0000 0.22362  0.87505  0.54831  Biso   1.000  O 
  O57      1.0000 0.52729  0.65655  0.67238  Biso   1.000  O 
  O58      1.0000 0.52534  0.58977  0.92239  Biso   1.000  O 
  O59      1.0000 0.96736  0.91048  0.67183  Biso   1.000  O 
  O60      1.0000 0.96688  0.83718  0.91938  Biso   1.000  O 
  O61      1.0000 0.77451  0.62504  0.95091  Biso   1.000  O 
  O62      1.0000 0.77375  0.62450  0.70223  Biso   1.000  O 
  O63      1.0000 0.72353  0.87043  0.95222  Biso   1.000  O 
  O64      1.0000 0.72387  0.87358  0.70562  Biso   1.000  O 
  Ta1      1.0000 0.61916  0.25144  0.06752  Biso   1.000  Ta
