data_image0
_cell_length_a       10.0931
_cell_length_b       5.12701
_cell_length_c       10.4504
_cell_angle_alpha    90
_cell_angle_beta     80
_cell_angle_gamma    90

_symmetry_space_group_name_H-M    "P 1"
_symmetry_int_tables_number       1

loop_
  _symmetry_equiv_pos_as_xyz
  'x, y, z'

loop_
  _atom_site_label
  _atom_site_occupancy
  _atom_site_fract_x
  _atom_site_fract_y
  _atom_site_fract_z
  _atom_site_thermal_displace_type
  _atom_site_B_iso_or_equiv
  _atom_site_type_symbol
  Ta1      1.0000 0.13951  0.04576  0.14696  Biso   1.000  Ta
  Hf1      1.0000 0.14048  0.45773  0.39542  Biso   1.000  Hf
  Hf2      1.0000 0.35998  0.54937  0.10478  Biso   1.000  Hf
  Hf3      1.0000 0.36300  0.95750  0.35414  Biso   1.000  Hf
  O1       1.0000 0.03684  0.32772  0.08170  Biso   1.000  O 
  O2       1.0000 0.04082  0.15373  0.32597  Biso   1.000  O 
  O3       1.0000 0.46624  0.83914  0.17068  Biso   1.000  O 
  O4       1.0000 0.46600  0.66158  0.41997  Biso   1.000  O 
  O5       1.0000 0.27715  0.25744  0.23976  Biso   1.000  O 
  O6       1.0000 0.27832  0.24253  0.49087  Biso   1.000  O 
  O7       1.0000 0.21575  0.76279  0.01156  Biso   1.000  O 
  O8       1.0000 0.22272  0.74649  0.25964  Biso   1.000  O 
  Hf4      1.0000 0.13857  0.04197  0.64562  Biso   1.000  Hf
  Hf5      1.0000 0.13872  0.45577  0.89518  Biso   1.000  Hf
  Hf6      1.0000 0.36206  0.54261  0.60423  Biso   1.000  Hf
  Hf7      1.0000 0.36026  0.95716  0.85498  Biso   1.000  Hf
  O9       1.0000 0.03540  0.33454  0.57781  Biso   1.000  O 
  O10      1.0000 0.03455  0.16138  0.82930  Biso   1.000  O 
  O11      1.0000 0.46441  0.83917  0.67039  Biso   1.000  O 
  O12      1.0000 0.46035  0.65830  0.92047  Biso   1.000  O 
  O13      1.0000 0.27660  0.25723  0.74082  Biso   1.000  O 
  O14      1.0000 0.27285  0.23954  0.99318  Biso   1.000  O 
  O15      1.0000 0.22418  0.75669  0.50927  Biso   1.000  O 
  O16      1.0000 0.22305  0.74115  0.75963  Biso   1.000  O 
  Hf8      1.0000 0.63933  0.04573  0.14585  Biso   1.000  Hf
  Hf9      1.0000 0.64092  0.45644  0.39569  Biso   1.000  Hf
  Hf10     1.0000 0.86247  0.54482  0.10348  Biso   1.000  Hf
  Hf11     1.0000 0.86243  0.95604  0.35320  Biso   1.000  Hf
  O17      1.0000 0.53459  0.34082  0.08120  Biso   1.000  O 
  O18      1.0000 0.53723  0.16163  0.33083  Biso   1.000  O 
  O19      1.0000 0.97265  0.83597  0.16787  Biso   1.000  O 
  O20      1.0000 0.96502  0.65836  0.41837  Biso   1.000  O 
  O21      1.0000 0.77946  0.25741  0.24046  Biso   1.000  O 
  O22      1.0000 0.77885  0.23977  0.49022  Biso   1.000  O 
  O23      1.0000 0.72206  0.75887  0.00913  Biso   1.000  O 
  O24      1.0000 0.72711  0.74208  0.25903  Biso   1.000  O 
  Hf12     1.0000 0.63852  0.04193  0.64641  Biso   1.000  Hf
  Hf13     1.0000 0.63778  0.45657  0.89675  Biso   1.000  Hf
  Hf14     1.0000 0.86109  0.54156  0.60414  Biso   1.000  Hf
  Hf15     1.0000 0.86097  0.95548  0.85462  Biso   1.000  Hf
  O25      1.0000 0.53742  0.33973  0.58066  Biso   1.000  O 
  O26      1.0000 0.53423  0.15977  0.83146  Biso   1.000  O 
  O27      1.0000 0.96518  0.83542  0.66991  Biso   1.000  O 
  O28      1.0000 0.96377  0.65798  0.92041  Biso   1.000  O 
  O29      1.0000 0.77598  0.25708  0.74082  Biso   1.000  O 
  O30      1.0000 0.77576  0.24220  0.99032  Biso   1.000  O 
  O31      1.0000 0.72460  0.75783  0.50935  Biso   1.000  O 
  O32      1.0000 0.72287  0.74115  0.75971  Biso   1.000  O 
