data_image0
_cell_length_a       10.0871
_cell_length_b       10.2588
_cell_length_c       5.22426
_cell_angle_alpha    90
_cell_angle_beta     80
_cell_angle_gamma    90

_symmetry_space_group_name_H-M    "P 1"
_symmetry_int_tables_number       1

loop_
  _symmetry_equiv_pos_as_xyz
  'x, y, z'

loop_
  _atom_site_label
  _atom_site_occupancy
  _atom_site_fract_x
  _atom_site_fract_y
  _atom_site_fract_z
  _atom_site_thermal_displace_type
  _atom_site_B_iso_or_equiv
  _atom_site_type_symbol
  Ta1      1.0000 0.13975  0.02284  0.29226  Biso   1.000  Ta
  Hf1      1.0000 0.14016  0.22872  0.78987  Biso   1.000  Hf
  Hf2      1.0000 0.36203  0.27231  0.20820  Biso   1.000  Hf
  Hf3      1.0000 0.36184  0.47930  0.70878  Biso   1.000  Hf
  O1       1.0000 0.03654  0.16345  0.15887  Biso   1.000  O 
  O2       1.0000 0.04011  0.07814  0.64891  Biso   1.000  O 
  O3       1.0000 0.46469  0.42078  0.33821  Biso   1.000  O 
  O4       1.0000 0.46346  0.32975  0.83850  Biso   1.000  O 
  O5       1.0000 0.27681  0.12751  0.47968  Biso   1.000  O 
  O6       1.0000 0.27501  0.12005  0.98658  Biso   1.000  O 
  O7       1.0000 0.22308  0.37858  0.01897  Biso   1.000  O 
  O8       1.0000 0.22467  0.37043  0.51950  Biso   1.000  O 
  Hf4      1.0000 0.14016  0.52175  0.29198  Biso   1.000  Hf
  Hf5      1.0000 0.14007  0.72835  0.79186  Biso   1.000  Hf
  Hf6      1.0000 0.36117  0.77401  0.20969  Biso   1.000  Hf
  Hf7      1.0000 0.36187  0.97796  0.70838  Biso   1.000  Hf
  O9       1.0000 0.03693  0.66817  0.16005  Biso   1.000  O 
  O10      1.0000 0.03664  0.57972  0.66134  Biso   1.000  O 
  O11      1.0000 0.46636  0.91952  0.34315  Biso   1.000  O 
  O12      1.0000 0.46439  0.83118  0.84225  Biso   1.000  O 
  O13      1.0000 0.27756  0.63034  0.48153  Biso   1.000  O 
  O14      1.0000 0.27828  0.62142  0.98223  Biso   1.000  O 
  O15      1.0000 0.21887  0.88097  0.02218  Biso   1.000  O 
  O16      1.0000 0.22010  0.87346  0.51760  Biso   1.000  O 
  Hf8      1.0000 0.63905  0.02174  0.29277  Biso   1.000  Hf
  Hf9      1.0000 0.63939  0.22813  0.79147  Biso   1.000  Hf
  Hf10     1.0000 0.86103  0.27123  0.20807  Biso   1.000  Hf
  Hf11     1.0000 0.86162  0.47805  0.70807  Biso   1.000  Hf
  O17      1.0000 0.53666  0.17008  0.16133  Biso   1.000  O 
  O18      1.0000 0.53546  0.08064  0.66240  Biso   1.000  O 
  O19      1.0000 0.96627  0.41692  0.34000  Biso   1.000  O 
  O20      1.0000 0.96434  0.32791  0.83915  Biso   1.000  O 
  O21      1.0000 0.77837  0.12876  0.48103  Biso   1.000  O 
  O22      1.0000 0.77780  0.12038  0.97974  Biso   1.000  O 
  O23      1.0000 0.72401  0.37925  0.01899  Biso   1.000  O 
  O24      1.0000 0.72361  0.37065  0.51843  Biso   1.000  O 
  Hf12     1.0000 0.64007  0.52261  0.29211  Biso   1.000  Hf
  Hf13     1.0000 0.64024  0.72867  0.79377  Biso   1.000  Hf
  Hf14     1.0000 0.86318  0.77234  0.20762  Biso   1.000  Hf
  Hf15     1.0000 0.86277  0.97811  0.70744  Biso   1.000  Hf
  O25      1.0000 0.53701  0.67101  0.16297  Biso   1.000  O 
  O26      1.0000 0.53704  0.58050  0.66259  Biso   1.000  O 
  O27      1.0000 0.97242  0.91932  0.33558  Biso   1.000  O 
  O28      1.0000 0.96528  0.83067  0.83884  Biso   1.000  O 
  O29      1.0000 0.77856  0.62907  0.48169  Biso   1.000  O 
  O30      1.0000 0.77826  0.62100  0.98201  Biso   1.000  O 
  O31      1.0000 0.72411  0.87965  0.01860  Biso   1.000  O 
  O32      1.0000 0.72721  0.87123  0.51885  Biso   1.000  O 
