data_image0
_cell_length_a       10.0944
_cell_length_b       10.2678
_cell_length_c       10.447
_cell_angle_alpha    90
_cell_angle_beta     80
_cell_angle_gamma    90

_symmetry_space_group_name_H-M    "P 1"
_symmetry_int_tables_number       1

loop_
  _symmetry_equiv_pos_as_xyz
  'x, y, z'

loop_
  _atom_site_label
  _atom_site_occupancy
  _atom_site_fract_x
  _atom_site_fract_y
  _atom_site_fract_z
  _atom_site_thermal_displace_type
  _atom_site_B_iso_or_equiv
  _atom_site_type_symbol
  Ta1      1.0000 0.13949  0.02298  0.14692  Biso   1.000  Ta
  Hf1      1.0000 0.13871  0.22899  0.39594  Biso   1.000  Hf
  Hf2      1.0000 0.36128  0.27219  0.10422  Biso   1.000  Hf
  Hf3      1.0000 0.36083  0.47915  0.35436  Biso   1.000  Hf
  O1       1.0000 0.03648  0.16390  0.08121  Biso   1.000  O 
  O2       1.0000 0.03977  0.07767  0.32564  Biso   1.000  O 
  O3       1.0000 0.46369  0.42064  0.16891  Biso   1.000  O 
  O4       1.0000 0.46295  0.33041  0.41946  Biso   1.000  O 
  O5       1.0000 0.27617  0.12735  0.23958  Biso   1.000  O 
  O6       1.0000 0.27618  0.12104  0.49080  Biso   1.000  O 
  O7       1.0000 0.22281  0.37862  0.00966  Biso   1.000  O 
  O8       1.0000 0.22396  0.37046  0.25992  Biso   1.000  O 
  Hf4      1.0000 0.13652  0.02095  0.64593  Biso   1.000  Hf
  Hf5      1.0000 0.13586  0.22828  0.89540  Biso   1.000  Hf
  Hf6      1.0000 0.35948  0.27149  0.60423  Biso   1.000  Hf
  Hf7      1.0000 0.35790  0.47861  0.85484  Biso   1.000  Hf
  O9       1.0000 0.03353  0.16778  0.57865  Biso   1.000  O 
  O10      1.0000 0.03236  0.08078  0.82998  Biso   1.000  O 
  O11      1.0000 0.46185  0.41986  0.66997  Biso   1.000  O 
  O12      1.0000 0.45959  0.32917  0.91987  Biso   1.000  O 
  O13      1.0000 0.27417  0.12909  0.74129  Biso   1.000  O 
  O14      1.0000 0.26961  0.11934  0.99352  Biso   1.000  O 
  O15      1.0000 0.22151  0.37898  0.50953  Biso   1.000  O 
  O16      1.0000 0.22047  0.37053  0.75978  Biso   1.000  O 
  Hf8      1.0000 0.13920  0.52159  0.14617  Biso   1.000  Hf
  Hf9      1.0000 0.13851  0.72850  0.39611  Biso   1.000  Hf
  Hf10     1.0000 0.35960  0.77425  0.10467  Biso   1.000  Hf
  Hf11     1.0000 0.36119  0.97785  0.35408  Biso   1.000  Hf
  O17      1.0000 0.03617  0.66839  0.08043  Biso   1.000  O 
  O18      1.0000 0.03556  0.57974  0.33102  Biso   1.000  O 
  O19      1.0000 0.46524  0.91947  0.17095  Biso   1.000  O 
  O20      1.0000 0.46469  0.83061  0.42026  Biso   1.000  O 
  O21      1.0000 0.27627  0.63067  0.24087  Biso   1.000  O 
  O22      1.0000 0.27646  0.62085  0.49115  Biso   1.000  O 
  O23      1.0000 0.21628  0.88219  0.01101  Biso   1.000  O 
  O24      1.0000 0.21914  0.87346  0.25895  Biso   1.000  O 
  Hf12     1.0000 0.13709  0.52141  0.64620  Biso   1.000  Hf
  Hf13     1.0000 0.13601  0.72798  0.89661  Biso   1.000  Hf
  Hf14     1.0000 0.36008  0.77119  0.60470  Biso   1.000  Hf
  Hf15     1.0000 0.35813  0.97853  0.85499  Biso   1.000  Hf
  O25      1.0000 0.03457  0.66921  0.58052  Biso   1.000  O 
  O26      1.0000 0.03300  0.58007  0.83077  Biso   1.000  O 
  O27      1.0000 0.46223  0.91977  0.67044  Biso   1.000  O 
  O28      1.0000 0.45867  0.83031  0.92106  Biso   1.000  O 
  O29      1.0000 0.27463  0.62877  0.74109  Biso   1.000  O 
  O30      1.0000 0.27358  0.62105  0.99150  Biso   1.000  O 
  O31      1.0000 0.22293  0.87863  0.50972  Biso   1.000  O 
  O32      1.0000 0.22113  0.87061  0.76015  Biso   1.000  O 
  Hf16     1.0000 0.63881  0.02186  0.14638  Biso   1.000  Hf
  Hf17     1.0000 0.63838  0.22834  0.39596  Biso   1.000  Hf
  Hf18     1.0000 0.86056  0.27142  0.10434  Biso   1.000  Hf
  Hf19     1.0000 0.86037  0.47826  0.35402  Biso   1.000  Hf
  O33      1.0000 0.53540  0.16959  0.08052  Biso   1.000  O 
  O34      1.0000 0.53557  0.08050  0.33107  Biso   1.000  O 
  O35      1.0000 0.96513  0.41761  0.16991  Biso   1.000  O 
  O36      1.0000 0.96253  0.32856  0.41869  Biso   1.000  O 
  O37      1.0000 0.77813  0.12892  0.24094  Biso   1.000  O 
  O38      1.0000 0.77653  0.12001  0.49045  Biso   1.000  O 
  O39      1.0000 0.72334  0.37910  0.00953  Biso   1.000  O 
  O40      1.0000 0.72271  0.37059  0.25916  Biso   1.000  O 
  Hf20     1.0000 0.63634  0.02109  0.64628  Biso   1.000  Hf
  Hf21     1.0000 0.63551  0.22815  0.89631  Biso   1.000  Hf
  Hf22     1.0000 0.85893  0.27094  0.60427  Biso   1.000  Hf
  Hf23     1.0000 0.85809  0.47807  0.85487  Biso   1.000  Hf
  O41      1.0000 0.53489  0.17015  0.58103  Biso   1.000  O 
  O42      1.0000 0.53200  0.08007  0.83137  Biso   1.000  O 
  O43      1.0000 0.96232  0.41831  0.67020  Biso   1.000  O 
  O44      1.0000 0.96110  0.32941  0.92133  Biso   1.000  O 
  O45      1.0000 0.77359  0.12883  0.74082  Biso   1.000  O 
  O46      1.0000 0.77272  0.12089  0.99085  Biso   1.000  O 
  O47      1.0000 0.72205  0.37911  0.50978  Biso   1.000  O 
  O48      1.0000 0.72053  0.37062  0.76008  Biso   1.000  O 
  Hf24     1.0000 0.63890  0.52260  0.14573  Biso   1.000  Hf
  Hf25     1.0000 0.63933  0.72829  0.39614  Biso   1.000  Hf
  Hf26     1.0000 0.86231  0.77246  0.10368  Biso   1.000  Hf
  Hf27     1.0000 0.86124  0.97816  0.35381  Biso   1.000  Hf
  O49      1.0000 0.53544  0.67114  0.08158  Biso   1.000  O 
  O50      1.0000 0.53607  0.58025  0.33098  Biso   1.000  O 
  O51      1.0000 0.97121  0.91942  0.16825  Biso   1.000  O 
  O52      1.0000 0.96412  0.83119  0.42010  Biso   1.000  O 
  O53      1.0000 0.77736  0.62914  0.24041  Biso   1.000  O 
  O54      1.0000 0.77653  0.62064  0.49108  Biso   1.000  O 
  O55      1.0000 0.72268  0.87964  0.00931  Biso   1.000  O 
  O56      1.0000 0.72632  0.87110  0.25946  Biso   1.000  O 
  Hf28     1.0000 0.63729  0.52135  0.64664  Biso   1.000  Hf
  Hf29     1.0000 0.63550  0.72867  0.89744  Biso   1.000  Hf
  Hf30     1.0000 0.85951  0.77125  0.60484  Biso   1.000  Hf
  Hf31     1.0000 0.85857  0.97818  0.85486  Biso   1.000  Hf
  O57      1.0000 0.53537  0.66975  0.58107  Biso   1.000  O 
  O58      1.0000 0.53312  0.58012  0.83166  Biso   1.000  O 
  O59      1.0000 0.96266  0.91907  0.67015  Biso   1.000  O 
  O60      1.0000 0.96053  0.82957  0.91991  Biso   1.000  O 
  O61      1.0000 0.77461  0.62887  0.74162  Biso   1.000  O 
  O62      1.0000 0.77343  0.62072  0.99138  Biso   1.000  O 
  O63      1.0000 0.72276  0.87904  0.50972  Biso   1.000  O 
  O64      1.0000 0.72061  0.87067  0.76009  Biso   1.000  O 
