data_image0
_cell_length_a       10.019
_cell_length_b       10.406
_cell_length_c       10.0679
_cell_angle_alpha    90
_cell_angle_beta     90
_cell_angle_gamma    90

_symmetry_space_group_name_H-M    "P 1"
_symmetry_int_tables_number       1

loop_
  _symmetry_equiv_pos_as_xyz
  'x, y, z'

loop_
  _atom_site_label
  _atom_site_occupancy
  _atom_site_fract_x
  _atom_site_fract_y
  _atom_site_fract_z
  _atom_site_thermal_displace_type
  _atom_site_B_iso_or_equiv
  _atom_site_type_symbol
  Hf1      1.0000 0.12858  0.01338  0.12276  Biso   1.000  Hf
  Hf2      1.0000 0.13335  0.22961  0.38471  Biso   1.000  Hf
  Hf3      1.0000 0.38399  0.27171  0.11953  Biso   1.000  Hf
  Hf4      1.0000 0.37010  0.48493  0.37371  Biso   1.000  Hf
  O1       1.0000 0.99967  0.16234  0.23428  Biso   1.000  O 
  O2       1.0000 0.03841  0.06124  0.45477  Biso   1.000  O 
  O3       1.0000 0.47198  0.43743  0.19675  Biso   1.000  O 
  O4       1.0000 0.46913  0.31933  0.44648  Biso   1.000  O 
  O5       1.0000 0.26135  0.11766  0.24871  Biso   1.000  O 
  O6       1.0000 0.27523  0.13140  0.50081  Biso   1.000  O 
  O7       1.0000 0.23468  0.38518  0.49794  Biso   1.000  O 
  O8       1.0000 0.23820  0.36780  0.24667  Biso   1.000  O 
  Hf5      1.0000 0.13534  0.01171  0.62614  Biso   1.000  Hf
  Hf6      1.0000 0.13651  0.23596  0.85189  Biso   1.000  Hf
  Hf7      1.0000 0.37297  0.26835  0.62135  Biso   1.000  Hf
  Hf8      1.0000 0.37346  0.49059  0.87072  Biso   1.000  Hf
  O9       1.0000 0.03280  0.17707  0.68788  Biso   1.000  O 
  O10      1.0000 0.03276  0.06886  0.94347  Biso   1.000  O 
  O11      1.0000 0.47200  0.43475  0.69385  Biso   1.000  O 
  O12      1.0000 0.47240  0.32363  0.94111  Biso   1.000  O 
  O13      1.0000 0.27190  0.11611  0.74710  Biso   1.000  O 
  O14      1.0000 0.25667  0.15141  0.00205  Biso   1.000  O 
  O15      1.0000 0.24063  0.39958  0.99474  Biso   1.000  O 
  O16      1.0000 0.23955  0.37031  0.74332  Biso   1.000  O 
  Hf9      1.0000 0.14035  0.53348  0.12074  Biso   1.000  Hf
  Hf10     1.0000 0.13872  0.73521  0.37661  Biso   1.000  Hf
  Hf11     1.0000 0.37138  0.76954  0.12510  Biso   1.000  Hf
  Hf12     1.0000 0.36914  0.98640  0.37465  Biso   1.000  Hf
  O17      1.0000 0.03424  0.68422  0.20251  Biso   1.000  O 
  O18      1.0000 0.03826  0.56850  0.44696  Biso   1.000  O 
  O19      1.0000 0.46671  0.93514  0.19653  Biso   1.000  O 
  O20      1.0000 0.47194  0.81953  0.44621  Biso   1.000  O 
  O21      1.0000 0.27847  0.62290  0.24871  Biso   1.000  O 
  O22      1.0000 0.27439  0.63366  0.49824  Biso   1.000  O 
  O23      1.0000 0.23741  0.88228  0.49870  Biso   1.000  O 
  O24      1.0000 0.23363  0.86754  0.24897  Biso   1.000  O 
  Hf13     1.0000 0.13736  0.51683  0.62370  Biso   1.000  Hf
  Hf14     1.0000 0.13620  0.73920  0.87073  Biso   1.000  Hf
  Hf15     1.0000 0.37317  0.76620  0.62308  Biso   1.000  Hf
  Hf16     1.0000 0.37361  0.98590  0.87358  Biso   1.000  Hf
  O25      1.0000 0.03949  0.68318  0.69364  Biso   1.000  O 
  O26      1.0000 0.03707  0.57357  0.94591  Biso   1.000  O 
  O27      1.0000 0.47295  0.93346  0.69800  Biso   1.000  O 
  O28      1.0000 0.47340  0.82291  0.94643  Biso   1.000  O 
  O29      1.0000 0.27318  0.61825  0.74600  Biso   1.000  O 
  O30      1.0000 0.27442  0.64658  0.99435  Biso   1.000  O 
  O31      1.0000 0.23749  0.89185  0.99722  Biso   1.000  O 
  O32      1.0000 0.23953  0.86623  0.74793  Biso   1.000  O 
  Hf17     1.0000 0.63034  0.01138  0.12495  Biso   1.000  Hf
  Hf18     1.0000 0.63444  0.23182  0.37813  Biso   1.000  Hf
  Hf19     1.0000 0.84741  0.25985  0.12818  Biso   1.000  Hf
  Hf20     1.0000 0.87218  0.48117  0.37505  Biso   1.000  Hf
  O33      1.0000 0.53520  0.18003  0.20171  Biso   1.000  O 
  O34      1.0000 0.53407  0.06763  0.44846  Biso   1.000  O 
  O35      1.0000 0.97616  0.42061  0.19919  Biso   1.000  O 
  O36      1.0000 0.96983  0.32174  0.45562  Biso   1.000  O 
  O37      1.0000 0.75684  0.11030  0.25066  Biso   1.000  O 
  O38      1.0000 0.77280  0.13499  0.49825  Biso   1.000  O 
  O39      1.0000 0.73433  0.38449  0.50065  Biso   1.000  O 
  O40      1.0000 0.72884  0.36926  0.25340  Biso   1.000  O 
  Hf21     1.0000 0.63595  0.01514  0.62314  Biso   1.000  Hf
  Hf22     1.0000 0.63636  0.23439  0.87214  Biso   1.000  Hf
  Hf23     1.0000 0.86607  0.26780  0.62577  Biso   1.000  Hf
  Hf24     1.0000 0.86991  0.48468  0.87768  Biso   1.000  Hf
  O41      1.0000 0.53828  0.18353  0.69535  Biso   1.000  O 
  O42      1.0000 0.52826  0.07542  0.95040  Biso   1.000  O 
  O43      1.0000 0.97461  0.42909  0.70577  Biso   1.000  O 
  O44      1.0000 0.97202  0.31890  0.95606  Biso   1.000  O 
  O45      1.0000 0.77108  0.11628  0.74779  Biso   1.000  O 
  O46      1.0000 0.76697  0.13127  0.99769  Biso   1.000  O 
  O47      1.0000 0.72966  0.38485  0.99975  Biso   1.000  O 
  O48      1.0000 0.73472  0.36900  0.75071  Biso   1.000  O 
  Hf25     1.0000 0.63806  0.51956  0.12591  Biso   1.000  Hf
  Hf26     1.0000 0.63883  0.73507  0.37517  Biso   1.000  Hf
  Hf27     1.0000 0.86783  0.76462  0.12582  Biso   1.000  Hf
  Hf28     1.0000 0.87727  0.98795  0.37073  Biso   1.000  Hf
  O49      1.0000 0.54096  0.68662  0.19487  Biso   1.000  O 
  O50      1.0000 0.53795  0.56881  0.44580  Biso   1.000  O 
  O51      1.0000 0.96588  0.92785  0.19295  Biso   1.000  O 
  O52      1.0000 0.97098  0.81880  0.44590  Biso   1.000  O 
  O53      1.0000 0.77542  0.61518  0.24876  Biso   1.000  O 
  O54      1.0000 0.77374  0.63416  0.49827  Biso   1.000  O 
  O55      1.0000 0.73875  0.88624  0.49621  Biso   1.000  O 
  O56      1.0000 0.73325  0.86480  0.24767  Biso   1.000  O 
  Hf29     1.0000 0.63929  0.51847  0.62417  Biso   1.000  Hf
  Hf30     1.0000 0.63943  0.73591  0.87438  Biso   1.000  Hf
  Hf31     1.0000 0.87154  0.76713  0.62258  Biso   1.000  Hf
  Hf32     1.0000 0.87257  0.98339  0.87467  Biso   1.000  Hf
  O57      1.0000 0.54004  0.68393  0.69666  Biso   1.000  O 
  O58      1.0000 0.53874  0.57260  0.94699  Biso   1.000  O 
  O59      1.0000 0.97372  0.92874  0.70004  Biso   1.000  O 
  O60      1.0000 0.97061  0.81858  0.94851  Biso   1.000  O 
  O61      1.0000 0.77599  0.61674  0.74886  Biso   1.000  O 
  O62      1.0000 0.77439  0.63450  0.99788  Biso   1.000  O 
  O63      1.0000 0.73424  0.88413  0.99724  Biso   1.000  O 
  O64      1.0000 0.73629  0.86651  0.74653  Biso   1.000  O 
  Ta1      1.0000 0.11157  0.28090  0.10916  Biso   1.000  Ta
