data_image0
_cell_length_a       10.0065
_cell_length_b       10.1864
_cell_length_c       10.0064
_cell_angle_alpha    90
_cell_angle_beta     90
_cell_angle_gamma    90

_symmetry_space_group_name_H-M    "P 1"
_symmetry_int_tables_number       1

loop_
  _symmetry_equiv_pos_as_xyz
  'x, y, z'

loop_
  _atom_site_label
  _atom_site_occupancy
  _atom_site_fract_x
  _atom_site_fract_y
  _atom_site_fract_z
  _atom_site_thermal_displace_type
  _atom_site_B_iso_or_equiv
  _atom_site_type_symbol
  Ta1      1.0000 0.12491  0.00005  0.12491  Biso   1.000  Ta
  Hf1      1.0000 0.12593  0.25042  0.37493  Biso   1.000  Hf
  Hf2      1.0000 0.37493  0.25042  0.12593  Biso   1.000  Hf
  Hf3      1.0000 0.37499  0.00066  0.37499  Biso   1.000  Hf
  O1       1.0000 0.99677  0.14673  0.99677  Biso   1.000  O 
  O2       1.0000 0.00394  0.09920  0.24588  Biso   1.000  O 
  O3       1.0000 0.99934  0.35105  0.25048  Biso   1.000  O 
  O4       1.0000 0.00019  0.39800  0.00019  Biso   1.000  O 
  O5       1.0000 0.25305  0.14673  0.25305  Biso   1.000  O 
  O6       1.0000 0.24587  0.09920  0.00394  Biso   1.000  O 
  O7       1.0000 0.25048  0.35104  0.99934  Biso   1.000  O 
  O8       1.0000 0.24962  0.39800  0.24963  Biso   1.000  O 
  Hf4      1.0000 0.12491  0.00005  0.62491  Biso   1.000  Hf
  Hf5      1.0000 0.12389  0.25042  0.87488  Biso   1.000  Hf
  Hf6      1.0000 0.37488  0.24960  0.62547  Biso   1.000  Hf
  Hf7      1.0000 0.37499  0.99945  0.87482  Biso   1.000  Hf
  O9       1.0000 0.99697  0.14730  0.49518  Biso   1.000  O 
  O10      1.0000 0.00099  0.10307  0.74728  Biso   1.000  O 
  O11      1.0000 0.99889  0.35269  0.75040  Biso   1.000  O 
  O12      1.0000 0.00072  0.39734  0.50017  Biso   1.000  O 
  O13      1.0000 0.25284  0.14730  0.75463  Biso   1.000  O 
  O14      1.0000 0.24883  0.10307  0.50254  Biso   1.000  O 
  O15      1.0000 0.25093  0.35268  0.49941  Biso   1.000  O 
  O16      1.0000 0.24910  0.39734  0.74964  Biso   1.000  O 
  Hf8      1.0000 0.12491  0.50005  0.12491  Biso   1.000  Hf
  Hf9      1.0000 0.12389  0.74969  0.37493  Biso   1.000  Hf
  Hf10     1.0000 0.37493  0.74969  0.12389  Biso   1.000  Hf
  Hf11     1.0000 0.37547  0.50047  0.37547  Biso   1.000  Hf
  O17      1.0000 0.99934  0.64906  0.99934  Biso   1.000  O 
  O18      1.0000 0.00019  0.60211  0.24962  Biso   1.000  O 
  O19      1.0000 0.99677  0.85338  0.25305  Biso   1.000  O 
  O20      1.0000 0.00394  0.90091  0.00394  Biso   1.000  O 
  O21      1.0000 0.25048  0.64906  0.25048  Biso   1.000  O 
  O22      1.0000 0.24962  0.60211  0.00019  Biso   1.000  O 
  O23      1.0000 0.25305  0.85337  0.99677  Biso   1.000  O 
  O24      1.0000 0.24587  0.90091  0.24588  Biso   1.000  O 
  Hf12     1.0000 0.12491  0.50005  0.62491  Biso   1.000  Hf
  Hf13     1.0000 0.12592  0.74969  0.87488  Biso   1.000  Hf
  Hf14     1.0000 0.37489  0.75051  0.62435  Biso   1.000  Hf
  Hf15     1.0000 0.37547  0.49964  0.87435  Biso   1.000  Hf
  O25      1.0000 0.99889  0.64742  0.49941  Biso   1.000  O 
  O26      1.0000 0.00072  0.60276  0.74964  Biso   1.000  O 
  O27      1.0000 0.99697  0.85281  0.75463  Biso   1.000  O 
  O28      1.0000 0.00099  0.89704  0.50254  Biso   1.000  O 
  O29      1.0000 0.25093  0.64742  0.75040  Biso   1.000  O 
  O30      1.0000 0.24910  0.60277  0.50017  Biso   1.000  O 
  O31      1.0000 0.25284  0.85281  0.49518  Biso   1.000  O 
  O32      1.0000 0.24883  0.89704  0.74728  Biso   1.000  O 
  Hf16     1.0000 0.62491  0.00005  0.12491  Biso   1.000  Hf
  Hf17     1.0000 0.62547  0.24960  0.37489  Biso   1.000  Hf
  Hf18     1.0000 0.87488  0.25042  0.12389  Biso   1.000  Hf
  Hf19     1.0000 0.87482  0.99945  0.37499  Biso   1.000  Hf
  O33      1.0000 0.49518  0.14730  0.99698  Biso   1.000  O 
  O34      1.0000 0.50254  0.10307  0.24883  Biso   1.000  O 
  O35      1.0000 0.49941  0.35269  0.25093  Biso   1.000  O 
  O36      1.0000 0.50017  0.39734  0.00072  Biso   1.000  O 
  O37      1.0000 0.75464  0.14730  0.25284  Biso   1.000  O 
  O38      1.0000 0.74728  0.10307  0.00099  Biso   1.000  O 
  O39      1.0000 0.75040  0.35268  0.99889  Biso   1.000  O 
  O40      1.0000 0.74964  0.39734  0.24910  Biso   1.000  O 
  Hf20     1.0000 0.62491  0.00005  0.62491  Biso   1.000  Hf
  Hf21     1.0000 0.62434  0.24959  0.87493  Biso   1.000  Hf
  Hf22     1.0000 0.87493  0.24960  0.62435  Biso   1.000  Hf
  Hf23     1.0000 0.87482  0.00066  0.87482  Biso   1.000  Hf
  O41      1.0000 0.49731  0.14731  0.49732  Biso   1.000  O 
  O42      1.0000 0.50124  0.10279  0.74858  Biso   1.000  O 
  O43      1.0000 0.49876  0.35288  0.75105  Biso   1.000  O 
  O44      1.0000 0.50055  0.39721  0.50055  Biso   1.000  O 
  O45      1.0000 0.75250  0.14731  0.75250  Biso   1.000  O 
  O46      1.0000 0.74858  0.10279  0.50124  Biso   1.000  O 
  O47      1.0000 0.75105  0.35288  0.49877  Biso   1.000  O 
  O48      1.0000 0.74926  0.39721  0.74927  Biso   1.000  O 
  Hf24     1.0000 0.62491  0.50005  0.12491  Biso   1.000  Hf
  Hf25     1.0000 0.62434  0.75051  0.37489  Biso   1.000  Hf
  Hf26     1.0000 0.87488  0.74969  0.12593  Biso   1.000  Hf
  Hf27     1.0000 0.87435  0.49964  0.37547  Biso   1.000  Hf
  O49      1.0000 0.49941  0.64742  0.99889  Biso   1.000  O 
  O50      1.0000 0.50018  0.60276  0.24910  Biso   1.000  O 
  O51      1.0000 0.49518  0.85281  0.25284  Biso   1.000  O 
  O52      1.0000 0.50254  0.89704  0.00099  Biso   1.000  O 
  O53      1.0000 0.75040  0.64742  0.25093  Biso   1.000  O 
  O54      1.0000 0.74964  0.60277  0.00072  Biso   1.000  O 
  O55      1.0000 0.75464  0.85281  0.99698  Biso   1.000  O 
  O56      1.0000 0.74728  0.89704  0.24883  Biso   1.000  O 
  Hf28     1.0000 0.62491  0.50005  0.62491  Biso   1.000  Hf
  Hf29     1.0000 0.62547  0.75051  0.87493  Biso   1.000  Hf
  Hf30     1.0000 0.87493  0.75051  0.62547  Biso   1.000  Hf
  Hf31     1.0000 0.87435  0.50047  0.87435  Biso   1.000  Hf
  O57      1.0000 0.49876  0.64723  0.49877  Biso   1.000  O 
  O58      1.0000 0.50055  0.60289  0.74927  Biso   1.000  O 
  O59      1.0000 0.49731  0.85280  0.75250  Biso   1.000  O 
  O60      1.0000 0.50124  0.89732  0.50124  Biso   1.000  O 
  O61      1.0000 0.75105  0.64722  0.75105  Biso   1.000  O 
  O62      1.0000 0.74926  0.60290  0.50055  Biso   1.000  O 
  O63      1.0000 0.75250  0.85280  0.49732  Biso   1.000  O 
  O64      1.0000 0.74858  0.89732  0.74858  Biso   1.000  O 
