data_image0
_cell_length_a       5.1134
_cell_length_b       10.0953
_cell_length_c       10.0631
_cell_angle_alpha    90
_cell_angle_beta     90
_cell_angle_gamma    90

_symmetry_space_group_name_H-M    "P 1"
_symmetry_int_tables_number       1

loop_
  _symmetry_equiv_pos_as_xyz
  'x, y, z'

loop_
  _atom_site_label
  _atom_site_occupancy
  _atom_site_fract_x
  _atom_site_fract_y
  _atom_site_fract_z
  _atom_site_thermal_displace_type
  _atom_site_B_iso_or_equiv
  _atom_site_type_symbol
  Hf1      1.0000 0.24987  0.98283  0.12492  Biso   1.000  Hf
  Hf2      1.0000 0.24985  0.25000  0.39871  Biso   1.000  Hf
  Hf3      1.0000 0.74985  0.25000  0.12493  Biso   1.000  Hf
  Hf4      1.0000 0.74972  0.00041  0.37212  Biso   1.000  Hf
  O1       1.0000 0.98582  0.13057  0.00324  Biso   1.000  O 
  O2       1.0000 0.02490  0.11993  0.25169  Biso   1.000  O 
  O3       1.0000 0.98583  0.36942  0.24660  Biso   1.000  O 
  O4       1.0000 0.02490  0.38006  0.99815  Biso   1.000  O 
  O5       1.0000 0.51387  0.13057  0.24660  Biso   1.000  O 
  O6       1.0000 0.47479  0.11993  0.99815  Biso   1.000  O 
  O7       1.0000 0.51387  0.36943  0.00324  Biso   1.000  O 
  O8       1.0000 0.47480  0.38006  0.25169  Biso   1.000  O 
  Hf5      1.0000 0.24984  0.00189  0.62492  Biso   1.000  Hf
  Hf6      1.0000 0.24984  0.24999  0.85114  Biso   1.000  Hf
  Hf7      1.0000 0.74984  0.24999  0.62492  Biso   1.000  Hf
  Hf8      1.0000 0.74996  0.00042  0.87772  Biso   1.000  Hf
  O9       1.0000 0.96372  0.13191  0.49966  Biso   1.000  O 
  O10      1.0000 0.02198  0.10919  0.75484  Biso   1.000  O 
  O11      1.0000 0.96372  0.36809  0.75017  Biso   1.000  O 
  O12      1.0000 0.02199  0.39080  0.49500  Biso   1.000  O 
  O13      1.0000 0.53596  0.13190  0.75017  Biso   1.000  O 
  O14      1.0000 0.47770  0.10919  0.49500  Biso   1.000  O 
  O15      1.0000 0.53597  0.36808  0.49966  Biso   1.000  O 
  O16      1.0000 0.47771  0.39079  0.75484  Biso   1.000  O 
  Hf9      1.0000 0.24985  0.51717  0.12492  Biso   1.000  Hf
  Hf10     1.0000 0.24986  0.75000  0.38063  Biso   1.000  Hf
  Hf11     1.0000 0.74986  0.75000  0.12492  Biso   1.000  Hf
  Hf12     1.0000 0.74997  0.49959  0.37212  Biso   1.000  Hf
  O17      1.0000 0.96828  0.63039  0.00560  Biso   1.000  O 
  O18      1.0000 0.02944  0.62152  0.25968  Biso   1.000  O 
  O19      1.0000 0.96827  0.86960  0.24423  Biso   1.000  O 
  O20      1.0000 0.02942  0.87847  0.99016  Biso   1.000  O 
  O21      1.0000 0.53145  0.63039  0.24423  Biso   1.000  O 
  O22      1.0000 0.47029  0.62152  0.99016  Biso   1.000  O 
  O23      1.0000 0.53143  0.86961  0.00560  Biso   1.000  O 
  O24      1.0000 0.47028  0.87848  0.25968  Biso   1.000  O 
  Hf13     1.0000 0.24985  0.49809  0.62492  Biso   1.000  Hf
  Hf14     1.0000 0.24986  0.74999  0.86921  Biso   1.000  Hf
  Hf15     1.0000 0.74986  0.74999  0.62493  Biso   1.000  Hf
  Hf16     1.0000 0.74973  0.49958  0.87772  Biso   1.000  Hf
  O25      1.0000 0.96261  0.63480  0.50305  Biso   1.000  O 
  O26      1.0000 0.03902  0.61225  0.75914  Biso   1.000  O 
  O27      1.0000 0.96260  0.86520  0.74678  Biso   1.000  O 
  O28      1.0000 0.03903  0.88775  0.49069  Biso   1.000  O 
  O29      1.0000 0.53711  0.63479  0.74678  Biso   1.000  O 
  O30      1.0000 0.46070  0.61224  0.49069  Biso   1.000  O 
  O31      1.0000 0.53712  0.86519  0.50306  Biso   1.000  O 
  O32      1.0000 0.46069  0.88774  0.75914  Biso   1.000  O 
  Ta1      1.0000 0.24985  0.25000  0.12492  Biso   1.000  Ta
