data_image0
_cell_length_a       10.1516
_cell_length_b       5.1934
_cell_length_c       10.4788
_cell_angle_alpha    90
_cell_angle_beta     90
_cell_angle_gamma    90

_symmetry_space_group_name_H-M    "P 1"
_symmetry_int_tables_number       1

loop_
  _symmetry_equiv_pos_as_xyz
  'x, y, z'

loop_
  _atom_site_label
  _atom_site_occupancy
  _atom_site_fract_x
  _atom_site_fract_y
  _atom_site_fract_z
  _atom_site_thermal_displace_type
  _atom_site_B_iso_or_equiv
  _atom_site_type_symbol
  Hf1      1.0000 0.13849  0.03844  0.17047  Biso   1.000  Hf
  Hf2      1.0000 0.13364  0.45127  0.42443  Biso   1.000  Hf
  Hf3      1.0000 0.34235  0.53590  0.17658  Biso   1.000  Hf
  Hf4      1.0000 0.35856  0.94778  0.42508  Biso   1.000  Hf
  Hf5      1.0000 0.64026  0.08723  0.06339  Biso   1.000  Hf
  Hf6      1.0000 0.63066  0.44529  0.35395  Biso   1.000  Hf
  Hf7      1.0000 0.87919  0.55091  0.07160  Biso   1.000  Hf
  Hf8      1.0000 0.86686  0.95131  0.33437  Biso   1.000  Hf
  O1       1.0000 0.03908  0.31930  0.07769  Biso   1.000  O 
  O2       1.0000 0.02606  0.17896  0.32812  Biso   1.000  O 
  O3       1.0000 0.45857  0.84168  0.08392  Biso   1.000  O 
  O4       1.0000 0.46085  0.66050  0.33327  Biso   1.000  O 
  O5       1.0000 0.26686  0.24414  0.29787  Biso   1.000  O 
  O6       1.0000 0.27712  0.24465  0.04121  Biso   1.000  O 
  O7       1.0000 0.21785  0.74719  0.29969  Biso   1.000  O 
  O8       1.0000 0.22199  0.74668  0.04326  Biso   1.000  O 
  O9       1.0000 0.50491  0.29456  0.17446  Biso   1.000  O 
  O10      1.0000 0.52879  0.14773  0.42330  Biso   1.000  O 
  O11      1.0000 0.97683  0.81968  0.17365  Biso   1.000  O 
  O12      1.0000 0.96339  0.66588  0.42095  Biso   1.000  O 
  O13      1.0000 0.77726  0.22455  0.45997  Biso   1.000  O 
  O14      1.0000 0.75543  0.33438  0.20200  Biso   1.000  O 
  O15      1.0000 0.72235  0.73157  0.46169  Biso   1.000  O 
  O16      1.0000 0.73305  0.83579  0.20207  Biso   1.000  O 
  Hf9      1.0000 0.13405  0.02807  0.66988  Biso   1.000  Hf
  Hf10     1.0000 0.13820  0.44254  0.91688  Biso   1.000  Hf
  Hf11     1.0000 0.36113  0.52598  0.67134  Biso   1.000  Hf
  Hf12     1.0000 0.35543  0.94458  0.91546  Biso   1.000  Hf
  Hf13     1.0000 0.63560  0.02759  0.58558  Biso   1.000  Hf
  Hf14     1.0000 0.63500  0.44594  0.83368  Biso   1.000  Hf
  Hf15     1.0000 0.85829  0.52803  0.58380  Biso   1.000  Hf
  Hf16     1.0000 0.86175  0.94872  0.82817  Biso   1.000  Hf
  O17      1.0000 0.02940  0.31857  0.58240  Biso   1.000  O 
  O18      1.0000 0.03213  0.15810  0.82929  Biso   1.000  O 
  O19      1.0000 0.46375  0.82064  0.58754  Biso   1.000  O 
  O20      1.0000 0.45795  0.63904  0.83838  Biso   1.000  O 
  O21      1.0000 0.27258  0.23334  0.79164  Biso   1.000  O 
  O22      1.0000 0.27025  0.23946  0.54479  Biso   1.000  O 
  O23      1.0000 0.22202  0.73557  0.79249  Biso   1.000  O 
  O24      1.0000 0.22350  0.73849  0.54563  Biso   1.000  O 
  O25      1.0000 0.53254  0.32760  0.66210  Biso   1.000  O 
  O26      1.0000 0.53139  0.12172  0.89387  Biso   1.000  O 
  O27      1.0000 0.96545  0.81885  0.66424  Biso   1.000  O 
  O28      1.0000 0.97185  0.66297  0.91107  Biso   1.000  O 
  O29      1.0000 0.78876  0.23671  0.94757  Biso   1.000  O 
  O30      1.0000 0.77314  0.23747  0.70513  Biso   1.000  O 
  O31      1.0000 0.72610  0.74654  0.95996  Biso   1.000  O 
  O32      1.0000 0.72323  0.73875  0.71030  Biso   1.000  O 
  Ta1      1.0000 0.60916  0.58849  0.11023  Biso   1.000  Ta
