data_image0
_cell_length_a       5.06373
_cell_length_b       10.497
_cell_length_c       10.1082
_cell_angle_alpha    90
_cell_angle_beta     90
_cell_angle_gamma    90

_symmetry_space_group_name_H-M    "P 1"
_symmetry_int_tables_number       1

loop_
  _symmetry_equiv_pos_as_xyz
  'x, y, z'

loop_
  _atom_site_label
  _atom_site_occupancy
  _atom_site_fract_x
  _atom_site_fract_y
  _atom_site_fract_z
  _atom_site_thermal_displace_type
  _atom_site_B_iso_or_equiv
  _atom_site_type_symbol
  Hf1      1.0000 0.29657  0.93958  0.11554  Biso   1.000  Hf
  Hf2      1.0000 0.33228  0.26782  0.38753  Biso   1.000  Hf
  Hf3      1.0000 0.77952  0.27493  0.13989  Biso   1.000  Hf
  Hf4      1.0000 0.85289  0.97968  0.35679  Biso   1.000  Hf
  O1       1.0000 0.00594  0.11321  0.99845  Biso   1.000  O 
  O2       1.0000 0.06301  0.06535  0.25513  Biso   1.000  O 
  O3       1.0000 0.03552  0.34723  0.27729  Biso   1.000  O 
  O4       1.0000 0.00404  0.39862  0.00247  Biso   1.000  O 
  O5       1.0000 0.58271  0.15283  0.26973  Biso   1.000  O 
  O6       1.0000 0.48232  0.02217  0.97324  Biso   1.000  O 
  O7       1.0000 0.46934  0.32076  0.02130  Biso   1.000  O 
  O8       1.0000 0.54622  0.40750  0.26337  Biso   1.000  O 
  Hf5      1.0000 0.32794  0.99779  0.60843  Biso   1.000  Hf
  Hf6      1.0000 0.29149  0.20447  0.87913  Biso   1.000  Hf
  Hf7      1.0000 0.82728  0.22403  0.63764  Biso   1.000  Hf
  Hf8      1.0000 0.79436  0.97046  0.86042  Biso   1.000  Hf
  O9       1.0000 0.14124  0.16358  0.52423  Biso   1.000  O 
  O10      1.0000 0.05931  0.07758  0.74998  Biso   1.000  O 
  O11      1.0000 0.11175  0.33367  0.74802  Biso   1.000  O 
  O12      1.0000 0.13014  0.41808  0.49852  Biso   1.000  O 
  O13      1.0000 0.56673  0.12126  0.75092  Biso   1.000  O 
  O14      1.0000 0.63255  0.08731  0.51147  Biso   1.000  O 
  O15      1.0000 0.62594  0.34755  0.51111  Biso   1.000  O 
  O16      1.0000 0.61776  0.36394  0.76311  Biso   1.000  O 
  Hf9      1.0000 0.29392  0.49148  0.12610  Biso   1.000  Hf
  Hf10     1.0000 0.33330  0.75220  0.38516  Biso   1.000  Hf
  Hf11     1.0000 0.78004  0.72184  0.12164  Biso   1.000  Hf
  Hf12     1.0000 0.83565  0.49792  0.38695  Biso   1.000  Hf
  O17      1.0000 0.12585  0.60525  0.98118  Biso   1.000  O 
  O18      1.0000 0.98210  0.57551  0.22153  Biso   1.000  O 
  O19      1.0000 0.06168  0.81955  0.24292  Biso   1.000  O 
  O20      1.0000 0.06818  0.84883  0.98542  Biso   1.000  O 
  O21      1.0000 0.48938  0.64461  0.24143  Biso   1.000  O 
  O22      1.0000 0.58154  0.56475  0.01392  Biso   1.000  O 
  O23      1.0000 0.57139  0.76890  0.99759  Biso   1.000  O 
  O24      1.0000 0.58266  0.88162  0.24414  Biso   1.000  O 
  Hf13     1.0000 0.38194  0.46994  0.64123  Biso   1.000  Hf
  Hf14     1.0000 0.31225  0.72674  0.85269  Biso   1.000  Hf
  Hf15     1.0000 0.80985  0.72659  0.62749  Biso   1.000  Hf
  Hf16     1.0000 0.88771  0.47482  0.86529  Biso   1.000  Hf
  O25      1.0000 0.02540  0.66226  0.47067  Biso   1.000  O 
  O26      1.0000 0.09767  0.58679  0.72783  Biso   1.000  O 
  O27      1.0000 0.06943  0.83252  0.73410  Biso   1.000  O 
  O28      1.0000 0.14730  0.91284  0.47937  Biso   1.000  O 
  O29      1.0000 0.60126  0.61361  0.75993  Biso   1.000  O 
  O30      1.0000 0.54845  0.59861  0.50737  Biso   1.000  O 
  O31      1.0000 0.62117  0.84657  0.49622  Biso   1.000  O 
  O32      1.0000 0.57615  0.86760  0.74677  Biso   1.000  O 
  Tc1      1.0000 0.27302  0.17638  0.13331  Biso   1.000  Tc
