data_image0
_cell_length_a       10.0219
_cell_length_b       10.448
_cell_length_c       10.0463
_cell_angle_alpha    90
_cell_angle_beta     90
_cell_angle_gamma    90

_symmetry_space_group_name_H-M    "P 1"
_symmetry_int_tables_number       1

loop_
  _symmetry_equiv_pos_as_xyz
  'x, y, z'

loop_
  _atom_site_label
  _atom_site_occupancy
  _atom_site_fract_x
  _atom_site_fract_y
  _atom_site_fract_z
  _atom_site_thermal_displace_type
  _atom_site_B_iso_or_equiv
  _atom_site_type_symbol
  Hf1      1.0000 0.13360  0.01553  0.12460  Biso   1.000  Hf
  Hf2      1.0000 0.14181  0.22692  0.38087  Biso   1.000  Hf
  Hf3      1.0000 0.38636  0.26976  0.12337  Biso   1.000  Hf
  Hf4      1.0000 0.37222  0.48249  0.37695  Biso   1.000  Hf
  O1       1.0000 0.01323  0.16930  0.22122  Biso   1.000  O 
  O2       1.0000 0.04227  0.05990  0.45092  Biso   1.000  O 
  O3       1.0000 0.48022  0.43258  0.20319  Biso   1.000  O 
  O4       1.0000 0.47573  0.31879  0.45573  Biso   1.000  O 
  O5       1.0000 0.26738  0.10473  0.25286  Biso   1.000  O 
  O6       1.0000 0.27973  0.13107  0.50442  Biso   1.000  O 
  O7       1.0000 0.23808  0.38251  0.50728  Biso   1.000  O 
  O8       1.0000 0.26053  0.35022  0.26691  Biso   1.000  O 
  Hf5      1.0000 0.14172  0.01198  0.62464  Biso   1.000  Hf
  Hf6      1.0000 0.13103  0.22810  0.86221  Biso   1.000  Hf
  Hf7      1.0000 0.37298  0.26854  0.63022  Biso   1.000  Hf
  Hf8      1.0000 0.38049  0.49374  0.87296  Biso   1.000  Hf
  O9       1.0000 0.03774  0.17696  0.68676  Biso   1.000  O 
  O10      1.0000 0.03912  0.06368  0.94414  Biso   1.000  O 
  O11      1.0000 0.47287  0.43433  0.69586  Biso   1.000  O 
  O12      1.0000 0.47978  0.32383  0.94143  Biso   1.000  O 
  O13      1.0000 0.27455  0.11419  0.75374  Biso   1.000  O 
  O14      1.0000 0.24745  0.16310  0.01201  Biso   1.000  O 
  O15      1.0000 0.25594  0.41302  0.01726  Biso   1.000  O 
  O16      1.0000 0.23822  0.36809  0.75909  Biso   1.000  O 
  Hf9      1.0000 0.13088  0.54127  0.11155  Biso   1.000  Hf
  Hf10     1.0000 0.14035  0.73289  0.37583  Biso   1.000  Hf
  Hf11     1.0000 0.37155  0.76817  0.12382  Biso   1.000  Hf
  Hf12     1.0000 0.37315  0.98311  0.37601  Biso   1.000  Hf
  O17      1.0000 0.03033  0.68858  0.20331  Biso   1.000  O 
  O18      1.0000 0.04319  0.56556  0.44531  Biso   1.000  O 
  O19      1.0000 0.46852  0.93193  0.19763  Biso   1.000  O 
  O20      1.0000 0.47379  0.81580  0.44546  Biso   1.000  O 
  O21      1.0000 0.27517  0.61508  0.24531  Biso   1.000  O 
  O22      1.0000 0.27757  0.63176  0.49719  Biso   1.000  O 
  O23      1.0000 0.23870  0.88077  0.49707  Biso   1.000  O 
  O24      1.0000 0.23294  0.86221  0.24552  Biso   1.000  O 
  Hf13     1.0000 0.14111  0.51558  0.62619  Biso   1.000  Hf
  Hf14     1.0000 0.13940  0.74364  0.86509  Biso   1.000  Hf
  Hf15     1.0000 0.37641  0.76254  0.62148  Biso   1.000  Hf
  Hf16     1.0000 0.38545  0.98347  0.86743  Biso   1.000  Hf
  O25      1.0000 0.04364  0.68489  0.68950  Biso   1.000  O 
  O26      1.0000 0.04395  0.57288  0.93546  Biso   1.000  O 
  O27      1.0000 0.47773  0.93014  0.69360  Biso   1.000  O 
  O28      1.0000 0.48093  0.82208  0.94446  Biso   1.000  O 
  O29      1.0000 0.27689  0.61744  0.74564  Biso   1.000  O 
  O30      1.0000 0.27626  0.65742  0.99054  Biso   1.000  O 
  O31      1.0000 0.24804  0.90094  0.99475  Biso   1.000  O 
  O32      1.0000 0.24481  0.86588  0.74419  Biso   1.000  O 
  Hf17     1.0000 0.63372  0.01326  0.12777  Biso   1.000  Hf
  Hf18     1.0000 0.63881  0.23450  0.37773  Biso   1.000  Hf
  Hf19     1.0000 0.85724  0.25995  0.12008  Biso   1.000  Hf
  Hf20     1.0000 0.87642  0.48114  0.37410  Biso   1.000  Hf
  O33      1.0000 0.53949  0.17939  0.20414  Biso   1.000  O 
  O34      1.0000 0.54060  0.06636  0.44719  Biso   1.000  O 
  O35      1.0000 0.97768  0.42658  0.19259  Biso   1.000  O 
  O36      1.0000 0.97452  0.31807  0.44805  Biso   1.000  O 
  O37      1.0000 0.76634  0.11176  0.24913  Biso   1.000  O 
  O38      1.0000 0.77618  0.13555  0.49795  Biso   1.000  O 
  O39      1.0000 0.74016  0.38519  0.49824  Biso   1.000  O 
  O40      1.0000 0.73863  0.36552  0.25061  Biso   1.000  O 
  Hf21     1.0000 0.64285  0.01692  0.62213  Biso   1.000  Hf
  Hf22     1.0000 0.64340  0.23543  0.87260  Biso   1.000  Hf
  Hf23     1.0000 0.87227  0.26907  0.62328  Biso   1.000  Hf
  Hf24     1.0000 0.87211  0.48527  0.87212  Biso   1.000  Hf
  O41      1.0000 0.53947  0.17937  0.69983  Biso   1.000  O 
  O42      1.0000 0.53357  0.07690  0.95625  Biso   1.000  O 
  O43      1.0000 0.97246  0.43315  0.69456  Biso   1.000  O 
  O44      1.0000 0.96233  0.31776  0.93374  Biso   1.000  O 
  O45      1.0000 0.77705  0.11683  0.74734  Biso   1.000  O 
  O46      1.0000 0.77412  0.13150  0.99680  Biso   1.000  O 
  O47      1.0000 0.73546  0.38466  0.99879  Biso   1.000  O 
  O48      1.0000 0.73449  0.36929  0.74648  Biso   1.000  O 
  Hf25     1.0000 0.63973  0.51798  0.12704  Biso   1.000  Hf
  Hf26     1.0000 0.64049  0.73255  0.37474  Biso   1.000  Hf
  Hf27     1.0000 0.86536  0.76715  0.12543  Biso   1.000  Hf
  Hf28     1.0000 0.87593  0.98575  0.37215  Biso   1.000  Hf
  O49      1.0000 0.54005  0.68489  0.19615  Biso   1.000  O 
  O50      1.0000 0.54199  0.56772  0.44662  Biso   1.000  O 
  O51      1.0000 0.96648  0.93129  0.19331  Biso   1.000  O 
  O52      1.0000 0.97231  0.81718  0.44467  Biso   1.000  O 
  O53      1.0000 0.77586  0.61445  0.24861  Biso   1.000  O 
  O54      1.0000 0.77741  0.63331  0.49727  Biso   1.000  O 
  O55      1.0000 0.74023  0.88505  0.49713  Biso   1.000  O 
  O56      1.0000 0.73344  0.86553  0.24885  Biso   1.000  O 
  Hf29     1.0000 0.64111  0.51677  0.62268  Biso   1.000  Hf
  Hf30     1.0000 0.64616  0.73451  0.87450  Biso   1.000  Hf
  Hf31     1.0000 0.87391  0.76641  0.62116  Biso   1.000  Hf
  Hf32     1.0000 0.87453  0.98289  0.87327  Biso   1.000  Hf
  O57      1.0000 0.54179  0.68132  0.69893  Biso   1.000  O 
  O58      1.0000 0.54481  0.57348  0.95146  Biso   1.000  O 
  O59      1.0000 0.97753  0.92811  0.69972  Biso   1.000  O 
  O60      1.0000 0.97516  0.81853  0.94777  Biso   1.000  O 
  O61      1.0000 0.77720  0.61794  0.74612  Biso   1.000  O 
  O62      1.0000 0.78236  0.63554  0.99746  Biso   1.000  O 
  O63      1.0000 0.73958  0.88481  0.99788  Biso   1.000  O 
  O64      1.0000 0.73973  0.86698  0.74676  Biso   1.000  O 
  Tc1      1.0000 0.11872  0.29907  0.11211  Biso   1.000  Tc
