data_image0
_cell_length_a       10.0073
_cell_length_b       10.215
_cell_length_c       10.4468
_cell_angle_alpha    90
_cell_angle_beta     90
_cell_angle_gamma    90

_symmetry_space_group_name_H-M    "P 1"
_symmetry_int_tables_number       1

loop_
  _symmetry_equiv_pos_as_xyz
  'x, y, z'

loop_
  _atom_site_label
  _atom_site_occupancy
  _atom_site_fract_x
  _atom_site_fract_y
  _atom_site_fract_z
  _atom_site_thermal_displace_type
  _atom_site_B_iso_or_equiv
  _atom_site_type_symbol
  Tc1      1.0000 0.13993  0.02241  0.17622  Biso   1.000  Tc
  Hf1      1.0000 0.14063  0.23020  0.42063  Biso   1.000  Hf
  Hf2      1.0000 0.36032  0.27005  0.17218  Biso   1.000  Hf
  Hf3      1.0000 0.36211  0.47997  0.42156  Biso   1.000  Hf
  Hf4      1.0000 0.63866  0.02177  0.07766  Biso   1.000  Hf
  Hf5      1.0000 0.63909  0.22925  0.32843  Biso   1.000  Hf
  Hf6      1.0000 0.86336  0.26961  0.07956  Biso   1.000  Hf
  Hf7      1.0000 0.86154  0.47937  0.32823  Biso   1.000  Hf
  O1       1.0000 0.03371  0.16183  0.08419  Biso   1.000  O 
  O2       1.0000 0.03771  0.08545  0.32644  Biso   1.000  O 
  O3       1.0000 0.46648  0.41562  0.08500  Biso   1.000  O 
  O4       1.0000 0.46622  0.33338  0.33494  Biso   1.000  O 
  O5       1.0000 0.27763  0.12200  0.29546  Biso   1.000  O 
  O6       1.0000 0.27205  0.12130  0.05151  Biso   1.000  O 
  O7       1.0000 0.22422  0.37460  0.29499  Biso   1.000  O 
  O8       1.0000 0.22408  0.37468  0.04522  Biso   1.000  O 
  O9       1.0000 0.53333  0.16599  0.16635  Biso   1.000  O 
  O10      1.0000 0.53400  0.08451  0.41622  Biso   1.000  O 
  O11      1.0000 0.96767  0.41564  0.16634  Biso   1.000  O 
  O12      1.0000 0.96766  0.33430  0.41536  Biso   1.000  O 
  O13      1.0000 0.77874  0.12354  0.45358  Biso   1.000  O 
  O14      1.0000 0.77660  0.12614  0.20465  Biso   1.000  O 
  O15      1.0000 0.72414  0.37376  0.45546  Biso   1.000  O 
  O16      1.0000 0.72406  0.37618  0.20534  Biso   1.000  O 
  Hf8      1.0000 0.13989  0.02161  0.67135  Biso   1.000  Hf
  Hf9      1.0000 0.13921  0.22688  0.92350  Biso   1.000  Hf
  Hf10     1.0000 0.36229  0.27192  0.67220  Biso   1.000  Hf
  Hf11     1.0000 0.36259  0.47931  0.92192  Biso   1.000  Hf
  Hf12     1.0000 0.63958  0.02156  0.57806  Biso   1.000  Hf
  Hf13     1.0000 0.64025  0.22995  0.82878  Biso   1.000  Hf
  Hf14     1.0000 0.86235  0.27141  0.57808  Biso   1.000  Hf
  Hf15     1.0000 0.86284  0.47927  0.82936  Biso   1.000  Hf
  O17      1.0000 0.03307  0.16307  0.57931  Biso   1.000  O 
  O18      1.0000 0.03301  0.08633  0.83090  Biso   1.000  O 
  O19      1.0000 0.46735  0.41698  0.58453  Biso   1.000  O 
  O20      1.0000 0.46823  0.33504  0.83440  Biso   1.000  O 
  O21      1.0000 0.27794  0.12421  0.79730  Biso   1.000  O 
  O22      1.0000 0.27793  0.12720  0.54554  Biso   1.000  O 
  O23      1.0000 0.22461  0.37412  0.79541  Biso   1.000  O 
  O24      1.0000 0.22417  0.37649  0.54472  Biso   1.000  O 
  O25      1.0000 0.53436  0.16642  0.66635  Biso   1.000  O 
  O26      1.0000 0.53282  0.08653  0.91732  Biso   1.000  O 
  O27      1.0000 0.96863  0.41451  0.66699  Biso   1.000  O 
  O28      1.0000 0.96925  0.33431  0.91743  Biso   1.000  O 
  O29      1.0000 0.77742  0.12474  0.95424  Biso   1.000  O 
  O30      1.0000 0.77760  0.12678  0.70419  Biso   1.000  O 
  O31      1.0000 0.72566  0.37467  0.95558  Biso   1.000  O 
  O32      1.0000 0.72472  0.37700  0.70532  Biso   1.000  O 
  Hf16     1.0000 0.13952  0.52133  0.17141  Biso   1.000  Hf
  Hf17     1.0000 0.13911  0.72956  0.42117  Biso   1.000  Hf
  Hf18     1.0000 0.35889  0.77466  0.17111  Biso   1.000  Hf
  Hf19     1.0000 0.36150  0.97913  0.42139  Biso   1.000  Hf
  Hf20     1.0000 0.63855  0.52155  0.07912  Biso   1.000  Hf
  Hf21     1.0000 0.63877  0.72926  0.32765  Biso   1.000  Hf
  Hf22     1.0000 0.86382  0.77222  0.07800  Biso   1.000  Hf
  Hf23     1.0000 0.86271  0.97977  0.32678  Biso   1.000  Hf
  O33      1.0000 0.03335  0.66470  0.08334  Biso   1.000  O 
  O34      1.0000 0.03354  0.58496  0.33330  Biso   1.000  O 
  O35      1.0000 0.46813  0.91516  0.08311  Biso   1.000  O 
  O36      1.0000 0.46670  0.83557  0.33320  Biso   1.000  O 
  O37      1.0000 0.27698  0.62527  0.29517  Biso   1.000  O 
  O38      1.0000 0.27684  0.62699  0.04508  Biso   1.000  O 
  O39      1.0000 0.22080  0.87623  0.29363  Biso   1.000  O 
  O40      1.0000 0.22072  0.87768  0.04519  Biso   1.000  O 
  O41      1.0000 0.53274  0.66722  0.16574  Biso   1.000  O 
  O42      1.0000 0.53433  0.58457  0.41587  Biso   1.000  O 
  O43      1.0000 0.97550  0.91784  0.16490  Biso   1.000  O 
  O44      1.0000 0.96802  0.83640  0.41583  Biso   1.000  O 
  O45      1.0000 0.77722  0.62428  0.45494  Biso   1.000  O 
  O46      1.0000 0.77686  0.62670  0.20503  Biso   1.000  O 
  O47      1.0000 0.72418  0.87433  0.45397  Biso   1.000  O 
  O48      1.0000 0.72858  0.87702  0.20448  Biso   1.000  O 
  Hf24     1.0000 0.14004  0.52154  0.67203  Biso   1.000  Hf
  Hf25     1.0000 0.14080  0.73038  0.92171  Biso   1.000  Hf
  Hf26     1.0000 0.36263  0.77153  0.67155  Biso   1.000  Hf
  Hf27     1.0000 0.36168  0.97865  0.92290  Biso   1.000  Hf
  Hf28     1.0000 0.64001  0.52166  0.57910  Biso   1.000  Hf
  Hf29     1.0000 0.64033  0.72961  0.82922  Biso   1.000  Hf
  Hf30     1.0000 0.86182  0.77165  0.57804  Biso   1.000  Hf
  Hf31     1.0000 0.86239  0.97958  0.82783  Biso   1.000  Hf
  O49      1.0000 0.03352  0.66540  0.58296  Biso   1.000  O 
  O50      1.0000 0.03450  0.58524  0.83383  Biso   1.000  O 
  O51      1.0000 0.46795  0.91628  0.58422  Biso   1.000  O 
  O52      1.0000 0.46776  0.83462  0.83463  Biso   1.000  O 
  O53      1.0000 0.27815  0.62429  0.79521  Biso   1.000  O 
  O54      1.0000 0.27752  0.62680  0.54520  Biso   1.000  O 
  O55      1.0000 0.22478  0.87441  0.79460  Biso   1.000  O 
  O56      1.0000 0.22455  0.87641  0.54466  Biso   1.000  O 
  O57      1.0000 0.53492  0.66674  0.66612  Biso   1.000  O 
  O58      1.0000 0.53537  0.58418  0.91593  Biso   1.000  O 
  O59      1.0000 0.96847  0.91532  0.66595  Biso   1.000  O 
  O60      1.0000 0.96843  0.83531  0.91572  Biso   1.000  O 
  O61      1.0000 0.77899  0.62546  0.95590  Biso   1.000  O 
  O62      1.0000 0.77817  0.62658  0.70554  Biso   1.000  O 
  O63      1.0000 0.72507  0.87490  0.95476  Biso   1.000  O 
  O64      1.0000 0.72455  0.87674  0.70465  Biso   1.000  O 
