data_image0
_cell_length_a       5.09385
_cell_length_b       10.2636
_cell_length_c       10.601
_cell_angle_alpha    90
_cell_angle_beta     80
_cell_angle_gamma    90

_symmetry_space_group_name_H-M    "P 1"
_symmetry_int_tables_number       1

loop_
  _symmetry_equiv_pos_as_xyz
  'x, y, z'

loop_
  _atom_site_label
  _atom_site_occupancy
  _atom_site_fract_x
  _atom_site_fract_y
  _atom_site_fract_z
  _atom_site_thermal_displace_type
  _atom_site_B_iso_or_equiv
  _atom_site_type_symbol
  Hf1      1.0000 0.27560  0.02170  0.14531  Biso   1.000  Hf
  Hf2      1.0000 0.28389  0.24158  0.40256  Biso   1.000  Hf
  Hf3      1.0000 0.71471  0.26910  0.09424  Biso   1.000  Hf
  Hf4      1.0000 0.70241  0.48965  0.35738  Biso   1.000  Hf
  O1       1.0000 0.05739  0.15411  0.06551  Biso   1.000  O 
  O2       1.0000 0.08687  0.07592  0.33211  Biso   1.000  O 
  O3       1.0000 0.94293  0.39059  0.19253  Biso   1.000  O 
  O4       1.0000 0.96419  0.36903  0.44153  Biso   1.000  O 
  O5       1.0000 0.56287  0.12474  0.23194  Biso   1.000  O 
  O6       1.0000 0.57929  0.12594  0.48182  Biso   1.000  O 
  O7       1.0000 0.43732  0.37873  0.00813  Biso   1.000  O 
  O8       1.0000 0.43848  0.37987  0.25551  Biso   1.000  O 
  Hf5      1.0000 0.27718  0.02801  0.64447  Biso   1.000  Hf
  Hf6      1.0000 0.27523  0.23437  0.89220  Biso   1.000  Hf
  Hf7      1.0000 0.72508  0.28235  0.60563  Biso   1.000  Hf
  Hf8      1.0000 0.71323  0.48667  0.85611  Biso   1.000  Hf
  O9       1.0000 0.07303  0.17180  0.57710  Biso   1.000  O 
  O10      1.0000 0.06334  0.09488  0.82031  Biso   1.000  O 
  O11      1.0000 0.93198  0.41757  0.68414  Biso   1.000  O 
  O12      1.0000 0.94108  0.35094  0.92681  Biso   1.000  O 
  O13      1.0000 0.55096  0.13473  0.73647  Biso   1.000  O 
  O14      1.0000 0.55113  0.12961  0.98351  Biso   1.000  O 
  O15      1.0000 0.44421  0.38895  0.51968  Biso   1.000  O 
  O16      1.0000 0.44681  0.37912  0.76127  Biso   1.000  O 
  Hf9      1.0000 0.26548  0.52062  0.14758  Biso   1.000  Hf
  Hf10     1.0000 0.25666  0.73040  0.39686  Biso   1.000  Hf
  Hf11     1.0000 0.70653  0.77135  0.10395  Biso   1.000  Hf
  Hf12     1.0000 0.70567  0.97158  0.35390  Biso   1.000  Hf
  O17      1.0000 0.03903  0.65567  0.07269  Biso   1.000  O 
  O18      1.0000 0.04699  0.59642  0.31859  Biso   1.000  O 
  O19      1.0000 0.92237  0.90967  0.17686  Biso   1.000  O 
  O20      1.0000 0.91666  0.83660  0.42826  Biso   1.000  O 
  O21      1.0000 0.53663  0.62884  0.24022  Biso   1.000  O 
  O22      1.0000 0.53036  0.63028  0.49300  Biso   1.000  O 
  O23      1.0000 0.43105  0.87856  0.01204  Biso   1.000  O 
  O24      1.0000 0.43261  0.86883  0.25971  Biso   1.000  O 
  Hf13     1.0000 0.26531  0.53000  0.64962  Biso   1.000  Hf
  Hf14     1.0000 0.26319  0.73542  0.89792  Biso   1.000  Hf
  Hf15     1.0000 0.70712  0.77690  0.60644  Biso   1.000  Hf
  Hf16     1.0000 0.70859  0.98485  0.85278  Biso   1.000  Hf
  O25      1.0000 0.04457  0.66510  0.57510  Biso   1.000  O 
  O26      1.0000 0.05130  0.59872  0.82487  Biso   1.000  O 
  O27      1.0000 0.92200  0.91815  0.67529  Biso   1.000  O 
  O28      1.0000 0.92363  0.84660  0.92661  Biso   1.000  O 
  O29      1.0000 0.53981  0.63531  0.74249  Biso   1.000  O 
  O30      1.0000 0.53791  0.63045  0.99140  Biso   1.000  O 
  O31      1.0000 0.43127  0.88346  0.51133  Biso   1.000  O 
  O32      1.0000 0.43411  0.87849  0.76119  Biso   1.000  O 
  Tc1      1.0000 0.81435  0.23751  0.32689  Biso   1.000  Tc
