data_image0
_cell_length_a       10.1081
_cell_length_b       10.497
_cell_length_c       5.06374
_cell_angle_alpha    90
_cell_angle_beta     90
_cell_angle_gamma    90

_symmetry_space_group_name_H-M    "P 1"
_symmetry_int_tables_number       1

loop_
  _symmetry_equiv_pos_as_xyz
  'x, y, z'

loop_
  _atom_site_label
  _atom_site_occupancy
  _atom_site_fract_x
  _atom_site_fract_y
  _atom_site_fract_z
  _atom_site_thermal_displace_type
  _atom_site_B_iso_or_equiv
  _atom_site_type_symbol
  Hf1      1.0000 0.08120  0.94768  0.22181  Biso   1.000  Hf
  Hf2      1.0000 0.14132  0.29315  0.74944  Biso   1.000  Hf
  Hf3      1.0000 0.38142  0.28765  0.28600  Biso   1.000  Hf
  Hf4      1.0000 0.32979  0.00627  0.75786  Biso   1.000  Hf
  O1       1.0000 0.00928  0.16766  0.92722  Biso   1.000  O 
  O2       1.0000 0.97907  0.06688  0.41241  Biso   1.000  O 
  O3       1.0000 0.01577  0.32914  0.44462  Biso   1.000  O 
  O4       1.0000 0.00270  0.41531  0.97452  Biso   1.000  O 
  O5       1.0000 0.27277  0.17270  0.55250  Biso   1.000  O 
  O6       1.0000 0.25316  0.07590  0.04064  Biso   1.000  O 
  O7       1.0000 0.27979  0.37485  0.99054  Biso   1.000  O 
  O8       1.0000 0.25520  0.42616  0.49849  Biso   1.000  O 
  Hf5      1.0000 0.11037  0.50056  0.25007  Biso   1.000  Hf
  Hf6      1.0000 0.10449  0.73873  0.71964  Biso   1.000  Hf
  Hf7      1.0000 0.35887  0.77129  0.25296  Biso   1.000  Hf
  Hf8      1.0000 0.37971  0.52601  0.77258  Biso   1.000  Hf
  O9       1.0000 0.95672  0.64335  0.01466  Biso   1.000  O 
  O10      1.0000 0.00013  0.57443  0.54001  Biso   1.000  O 
  O11      1.0000 0.97376  0.81502  0.44695  Biso   1.000  O 
  O12      1.0000 0.96664  0.90286  0.93832  Biso   1.000  O 
  O13      1.0000 0.22242  0.66114  0.42639  Biso   1.000  O 
  O14      1.0000 0.21374  0.59981  0.92484  Biso   1.000  O 
  O15      1.0000 0.22626  0.84566  0.98560  Biso   1.000  O 
  O16      1.0000 0.21683  0.89951  0.50270  Biso   1.000  O 
  Hf9      1.0000 0.61319  0.02620  0.28535  Biso   1.000  Hf
  Hf10     1.0000 0.64132  0.26176  0.76609  Biso   1.000  Hf
  Hf11     1.0000 0.87431  0.24212  0.21547  Biso   1.000  Hf
  Hf12     1.0000 0.87382  0.01633  0.73558  Biso   1.000  Hf
  O17      1.0000 0.51907  0.18543  0.09304  Biso   1.000  O 
  O18      1.0000 0.51775  0.11716  0.59004  Biso   1.000  O 
  O19      1.0000 0.50643  0.37692  0.56509  Biso   1.000  O 
  O20      1.0000 0.48261  0.43839  0.06576  Biso   1.000  O 
  O21      1.0000 0.75436  0.15894  0.50521  Biso   1.000  O 
  O22      1.0000 0.74673  0.10662  0.00153  Biso   1.000  O 
  O23      1.0000 0.73497  0.36316  0.03602  Biso   1.000  O 
  O24      1.0000 0.75727  0.40262  0.53824  Biso   1.000  O 
  Hf13     1.0000 0.62719  0.49986  0.30367  Biso   1.000  Hf
  Hf14     1.0000 0.60994  0.76295  0.71388  Biso   1.000  Hf
  Hf15     1.0000 0.82649  0.76304  0.20117  Biso   1.000  Hf
  Hf16     1.0000 0.85923  0.52178  0.79288  Biso   1.000  Hf
  O25      1.0000 0.45964  0.69650  0.94464  Biso   1.000  O 
  O26      1.0000 0.49092  0.62616  0.47022  Biso   1.000  O 
  O27      1.0000 0.47067  0.87460  0.52608  Biso   1.000  O 
  O28      1.0000 0.44315  0.93205  0.04927  Biso   1.000  O 
  O29      1.0000 0.74340  0.65154  0.50428  Biso   1.000  O 
  O30      1.0000 0.70401  0.61493  0.00543  Biso   1.000  O 
  O31      1.0000 0.71637  0.87715  0.95825  Biso   1.000  O 
  O32      1.0000 0.71924  0.90424  0.46221  Biso   1.000  O 
  Tc1      1.0000 0.13038  0.18581  0.25096  Biso   1.000  Tc
