data_image0
_cell_length_a       9.99381
_cell_length_b       10.1899
_cell_length_c       5.22621
_cell_angle_alpha    90
_cell_angle_beta     90
_cell_angle_gamma    90

_symmetry_space_group_name_H-M    "P 1"
_symmetry_int_tables_number       1

loop_
  _symmetry_equiv_pos_as_xyz
  'x, y, z'

loop_
  _atom_site_label
  _atom_site_occupancy
  _atom_site_fract_x
  _atom_site_fract_y
  _atom_site_fract_z
  _atom_site_thermal_displace_type
  _atom_site_B_iso_or_equiv
  _atom_site_type_symbol
  Tc1      1.0000 0.14003  0.02250  0.35277  Biso   1.000  Tc
  Hf1      1.0000 0.14016  0.22788  0.84510  Biso   1.000  Hf
  Hf2      1.0000 0.36010  0.27026  0.34604  Biso   1.000  Hf
  Hf3      1.0000 0.36242  0.47989  0.84437  Biso   1.000  Hf
  Hf4      1.0000 0.63857  0.02186  0.15424  Biso   1.000  Hf
  Hf5      1.0000 0.63939  0.22990  0.65703  Biso   1.000  Hf
  Hf6      1.0000 0.86373  0.26941  0.15823  Biso   1.000  Hf
  Hf7      1.0000 0.86214  0.47927  0.65813  Biso   1.000  Hf
  O1       1.0000 0.03240  0.15671  0.15605  Biso   1.000  O 
  O2       1.0000 0.03506  0.08963  0.64391  Biso   1.000  O 
  O3       1.0000 0.46661  0.41530  0.16967  Biso   1.000  O 
  O4       1.0000 0.46709  0.33485  0.66904  Biso   1.000  O 
  O5       1.0000 0.27820  0.12194  0.59564  Biso   1.000  O 
  O6       1.0000 0.27228  0.12180  0.10394  Biso   1.000  O 
  O7       1.0000 0.22440  0.37458  0.59121  Biso   1.000  O 
  O8       1.0000 0.22386  0.37457  0.09035  Biso   1.000  O 
  O9       1.0000 0.53288  0.16510  0.33500  Biso   1.000  O 
  O10      1.0000 0.53192  0.08749  0.83675  Biso   1.000  O 
  O11      1.0000 0.96926  0.41254  0.33711  Biso   1.000  O 
  O12      1.0000 0.96971  0.33516  0.83603  Biso   1.000  O 
  O13      1.0000 0.77827  0.12417  0.90527  Biso   1.000  O 
  O14      1.0000 0.77651  0.12635  0.40730  Biso   1.000  O 
  O15      1.0000 0.72546  0.37418  0.91192  Biso   1.000  O 
  O16      1.0000 0.72452  0.37657  0.41100  Biso   1.000  O 
  Hf8      1.0000 0.13983  0.52142  0.34434  Biso   1.000  Hf
  Hf9      1.0000 0.14013  0.73062  0.84308  Biso   1.000  Hf
  Hf10     1.0000 0.35921  0.77480  0.34250  Biso   1.000  Hf
  Hf11     1.0000 0.36085  0.97835  0.84608  Biso   1.000  Hf
  Hf12     1.0000 0.63885  0.52173  0.15928  Biso   1.000  Hf
  Hf13     1.0000 0.63931  0.72955  0.65643  Biso   1.000  Hf
  Hf14     1.0000 0.86363  0.77243  0.15481  Biso   1.000  Hf
  Hf15     1.0000 0.86283  0.98026  0.65241  Biso   1.000  Hf
  O17      1.0000 0.03214  0.66265  0.16271  Biso   1.000  O 
  O18      1.0000 0.03321  0.58675  0.66443  Biso   1.000  O 
  O19      1.0000 0.46890  0.91412  0.16506  Biso   1.000  O 
  O20      1.0000 0.46715  0.83650  0.66612  Biso   1.000  O 
  O21      1.0000 0.27755  0.62539  0.59129  Biso   1.000  O 
  O22      1.0000 0.27688  0.62726  0.09108  Biso   1.000  O 
  O23      1.0000 0.22151  0.87651  0.58665  Biso   1.000  O 
  O24      1.0000 0.22027  0.87782  0.08935  Biso   1.000  O 
  O25      1.0000 0.53290  0.66679  0.33330  Biso   1.000  O 
  O26      1.0000 0.53495  0.58504  0.83314  Biso   1.000  O 
  O27      1.0000 0.97668  0.91656  0.33136  Biso   1.000  O 
  O28      1.0000 0.96922  0.83830  0.83271  Biso   1.000  O 
  O29      1.0000 0.77853  0.62564  0.91150  Biso   1.000  O 
  O30      1.0000 0.77748  0.62668  0.41081  Biso   1.000  O 
  O31      1.0000 0.72481  0.87507  0.90731  Biso   1.000  O 
  O32      1.0000 0.72886  0.87712  0.40812  Biso   1.000  O 
