data_image0
_cell_length_a       10.1714
_cell_length_b       5.1499
_cell_length_c       10.5832
_cell_angle_alpha    90
_cell_angle_beta     80
_cell_angle_gamma    90

_symmetry_space_group_name_H-M    "P 1"
_symmetry_int_tables_number       1

loop_
  _symmetry_equiv_pos_as_xyz
  'x, y, z'

loop_
  _atom_site_label
  _atom_site_occupancy
  _atom_site_fract_x
  _atom_site_fract_y
  _atom_site_fract_z
  _atom_site_thermal_displace_type
  _atom_site_B_iso_or_equiv
  _atom_site_type_symbol
  Hf1      1.0000 0.13657  0.04459  0.14356  Biso   1.000  Hf
  Hf2      1.0000 0.13181  0.47366  0.39781  Biso   1.000  Hf
  Hf3      1.0000 0.35623  0.53639  0.09359  Biso   1.000  Hf
  Hf4      1.0000 0.35028  0.95723  0.35590  Biso   1.000  Hf
  O1       1.0000 0.03145  0.33634  0.07594  Biso   1.000  O 
  O2       1.0000 0.03333  0.18396  0.32359  Biso   1.000  O 
  O3       1.0000 0.47176  0.77820  0.19046  Biso   1.000  O 
  O4       1.0000 0.48118  0.72695  0.44212  Biso   1.000  O 
  O5       1.0000 0.27805  0.24850  0.23364  Biso   1.000  O 
  O6       1.0000 0.27896  0.26265  0.48540  Biso   1.000  O 
  O7       1.0000 0.21992  0.76061  0.00572  Biso   1.000  O 
  O8       1.0000 0.21187  0.74803  0.25271  Biso   1.000  O 
  Hf5      1.0000 0.13604  0.06284  0.64841  Biso   1.000  Hf
  Hf6      1.0000 0.13450  0.47760  0.89415  Biso   1.000  Hf
  Hf7      1.0000 0.35947  0.56560  0.60552  Biso   1.000  Hf
  Hf8      1.0000 0.35845  0.97699  0.85297  Biso   1.000  Hf
  O9       1.0000 0.03207  0.34587  0.57789  Biso   1.000  O 
  O10      1.0000 0.03120  0.18775  0.82794  Biso   1.000  O 
  O11      1.0000 0.46633  0.83778  0.68111  Biso   1.000  O 
  O12      1.0000 0.47044  0.70515  0.92780  Biso   1.000  O 
  O13      1.0000 0.27381  0.27539  0.73867  Biso   1.000  O 
  O14      1.0000 0.27236  0.26509  0.98482  Biso   1.000  O 
  O15      1.0000 0.21647  0.78089  0.51663  Biso   1.000  O 
  O16      1.0000 0.22186  0.76212  0.75998  Biso   1.000  O 
  Hf9      1.0000 0.63962  0.03881  0.14735  Biso   1.000  Hf
  Hf10     1.0000 0.64155  0.47160  0.40107  Biso   1.000  Hf
  Hf11     1.0000 0.85944  0.54591  0.10589  Biso   1.000  Hf
  Hf12     1.0000 0.85817  0.97052  0.35492  Biso   1.000  Hf
  O17      1.0000 0.52483  0.29312  0.06686  Biso   1.000  O 
  O18      1.0000 0.53771  0.15896  0.32851  Biso   1.000  O 
  O19      1.0000 0.96187  0.83805  0.17274  Biso   1.000  O 
  O20      1.0000 0.96383  0.69144  0.42727  Biso   1.000  O 
  O21      1.0000 0.77438  0.26172  0.23884  Biso   1.000  O 
  O22      1.0000 0.77800  0.25415  0.49192  Biso   1.000  O 
  O23      1.0000 0.71981  0.75279  0.01348  Biso   1.000  O 
  O24      1.0000 0.72547  0.74983  0.26242  Biso   1.000  O 
  Hf13     1.0000 0.63824  0.06014  0.64629  Biso   1.000  Hf
  Hf14     1.0000 0.63740  0.47026  0.89685  Biso   1.000  Hf
  Hf15     1.0000 0.85932  0.56152  0.60749  Biso   1.000  Hf
  Hf16     1.0000 0.85618  0.97405  0.85634  Biso   1.000  Hf
  O25      1.0000 0.53055  0.33904  0.57570  Biso   1.000  O 
  O26      1.0000 0.53034  0.20098  0.82079  Biso   1.000  O 
  O27      1.0000 0.96322  0.84628  0.67711  Biso   1.000  O 
  O28      1.0000 0.96255  0.68943  0.92338  Biso   1.000  O 
  O29      1.0000 0.77459  0.27366  0.74145  Biso   1.000  O 
  O30      1.0000 0.77465  0.26156  0.99113  Biso   1.000  O 
  O31      1.0000 0.72452  0.76970  0.51410  Biso   1.000  O 
  O32      1.0000 0.72160  0.76006  0.76266  Biso   1.000  O 
  Tc1      1.0000 0.40360  0.47293  0.32713  Biso   1.000  Tc
