data_image0
_cell_length_a       10.0766
_cell_length_b       10.2927
_cell_length_c       10.0777
_cell_angle_alpha    90
_cell_angle_beta     90
_cell_angle_gamma    90

_symmetry_space_group_name_H-M    "P 1"
_symmetry_int_tables_number       1

loop_
  _symmetry_equiv_pos_as_xyz
  'x, y, z'

loop_
  _atom_site_label
  _atom_site_occupancy
  _atom_site_fract_x
  _atom_site_fract_y
  _atom_site_fract_z
  _atom_site_thermal_displace_type
  _atom_site_B_iso_or_equiv
  _atom_site_type_symbol
  Hf1      1.0000 0.12388  0.95267  0.12592  Biso   1.000  Hf
  Hf2      1.0000 0.14165  0.26491  0.38465  Biso   1.000  Hf
  Hf3      1.0000 0.38671  0.25928  0.13086  Biso   1.000  Hf
  Hf4      1.0000 0.37955  0.00452  0.38088  Biso   1.000  Hf
  O1       1.0000 0.01591  0.15994  0.96527  Biso   1.000  O 
  O2       1.0000 0.97513  0.07296  0.20792  Biso   1.000  O 
  O3       1.0000 0.01140  0.33353  0.23736  Biso   1.000  O 
  O4       1.0000 0.03671  0.41331  0.98850  Biso   1.000  O 
  O5       1.0000 0.26996  0.16206  0.26726  Biso   1.000  O 
  O6       1.0000 0.24658  0.08084  0.01747  Biso   1.000  O 
  O7       1.0000 0.30117  0.34378  0.98343  Biso   1.000  O 
  O8       1.0000 0.26271  0.40943  0.25568  Biso   1.000  O 
  Hf5      1.0000 0.14777  0.99015  0.63127  Biso   1.000  Hf
  Hf6      1.0000 0.15100  0.27289  0.86735  Biso   1.000  Hf
  Hf7      1.0000 0.38596  0.25248  0.63350  Biso   1.000  Hf
  Hf8      1.0000 0.39853  0.99648  0.88429  Biso   1.000  Hf
  O9       1.0000 0.99128  0.15783  0.45924  Biso   1.000  O 
  O10      1.0000 0.99999  0.09663  0.71438  Biso   1.000  O 
  O11      1.0000 0.01551  0.35188  0.73673  Biso   1.000  O 
  O12      1.0000 0.01491  0.40368  0.49540  Biso   1.000  O 
  O13      1.0000 0.26144  0.14760  0.75594  Biso   1.000  O 
  O14      1.0000 0.25208  0.10692  0.50652  Biso   1.000  O 
  O15      1.0000 0.26720  0.35941  0.50702  Biso   1.000  O 
  O16      1.0000 0.27118  0.40673  0.74887  Biso   1.000  O 
  Hf9      1.0000 0.12726  0.49785  0.12692  Biso   1.000  Hf
  Hf10     1.0000 0.13884  0.74840  0.38236  Biso   1.000  Hf
  Hf11     1.0000 0.39004  0.74059  0.12232  Biso   1.000  Hf
  Hf12     1.0000 0.39134  0.50706  0.37530  Biso   1.000  Hf
  O17      1.0000 0.03307  0.66276  0.03756  Biso   1.000  O 
  O18      1.0000 0.03805  0.58254  0.28590  Biso   1.000  O 
  O19      1.0000 0.00211  0.83105  0.25441  Biso   1.000  O 
  O20      1.0000 0.02153  0.89481  0.98587  Biso   1.000  O 
  O21      1.0000 0.28400  0.66133  0.27557  Biso   1.000  O 
  O22      1.0000 0.28175  0.58404  0.03148  Biso   1.000  O 
  O23      1.0000 0.25144  0.83222  0.00745  Biso   1.000  O 
  O24      1.0000 0.24845  0.90288  0.27173  Biso   1.000  O 
  Hf13     1.0000 0.13874  0.50111  0.62195  Biso   1.000  Hf
  Hf14     1.0000 0.14643  0.74866  0.87176  Biso   1.000  Hf
  Hf15     1.0000 0.39754  0.74744  0.62598  Biso   1.000  Hf
  Hf16     1.0000 0.40683  0.49930  0.87443  Biso   1.000  Hf
  O25      1.0000 0.03417  0.65729  0.53145  Biso   1.000  O 
  O26      1.0000 0.04961  0.59332  0.78065  Biso   1.000  O 
  O27      1.0000 0.02128  0.84838  0.74569  Biso   1.000  O 
  O28      1.0000 0.01434  0.90557  0.49612  Biso   1.000  O 
  O29      1.0000 0.29860  0.65488  0.77639  Biso   1.000  O 
  O30      1.0000 0.27983  0.60242  0.51918  Biso   1.000  O 
  O31      1.0000 0.26441  0.85142  0.51519  Biso   1.000  O 
  O32      1.0000 0.26751  0.89878  0.76326  Biso   1.000  O 
  Hf17     1.0000 0.62158  0.00094  0.12485  Biso   1.000  Hf
  Hf18     1.0000 0.62710  0.24677  0.37761  Biso   1.000  Hf
  Hf19     1.0000 0.86436  0.24466  0.11681  Biso   1.000  Hf
  Hf20     1.0000 0.88136  0.00105  0.37047  Biso   1.000  Hf
  O33      1.0000 0.49539  0.14630  0.00052  Biso   1.000  O 
  O34      1.0000 0.50408  0.10391  0.25358  Biso   1.000  O 
  O35      1.0000 0.51317  0.35968  0.25443  Biso   1.000  O 
  O36      1.0000 0.51000  0.39930  0.00235  Biso   1.000  O 
  O37      1.0000 0.74472  0.14844  0.24798  Biso   1.000  O 
  O38      1.0000 0.77377  0.10108  0.99640  Biso   1.000  O 
  O39      1.0000 0.78417  0.35109  0.98164  Biso   1.000  O 
  O40      1.0000 0.76736  0.39852  0.23230  Biso   1.000  O 
  Hf21     1.0000 0.63305  0.00291  0.62525  Biso   1.000  Hf
  Hf22     1.0000 0.64409  0.24912  0.87401  Biso   1.000  Hf
  Hf23     1.0000 0.88729  0.24525  0.61305  Biso   1.000  Hf
  Hf24     1.0000 0.89629  0.00508  0.86410  Biso   1.000  Hf
  O41      1.0000 0.50367  0.14963  0.50319  Biso   1.000  O 
  O42      1.0000 0.51109  0.10169  0.75155  Biso   1.000  O 
  O43      1.0000 0.51633  0.35016  0.75392  Biso   1.000  O 
  O44      1.0000 0.51544  0.39892  0.50331  Biso   1.000  O 
  O45      1.0000 0.76184  0.14919  0.74533  Biso   1.000  O 
  O46      1.0000 0.75319  0.10234  0.49760  Biso   1.000  O 
  O47      1.0000 0.76426  0.35224  0.48381  Biso   1.000  O 
  O48      1.0000 0.76949  0.39624  0.73387  Biso   1.000  O 
  Hf25     1.0000 0.63676  0.50129  0.11792  Biso   1.000  Hf
  Hf26     1.0000 0.63626  0.75540  0.36471  Biso   1.000  Hf
  Hf27     1.0000 0.87050  0.75558  0.11338  Biso   1.000  Hf
  Hf28     1.0000 0.87999  0.49445  0.36773  Biso   1.000  Hf
  O49      1.0000 0.55246  0.64642  0.99927  Biso   1.000  O 
  O50      1.0000 0.52350  0.60493  0.24912  Biso   1.000  O 
  O51      1.0000 0.50470  0.85557  0.25100  Biso   1.000  O 
  O52      1.0000 0.49675  0.89644  0.00208  Biso   1.000  O 
  O53      1.0000 0.77313  0.64767  0.25579  Biso   1.000  O 
  O54      1.0000 0.77409  0.60191  0.00608  Biso   1.000  O 
  O55      1.0000 0.77727  0.85314  0.98860  Biso   1.000  O 
  O56      1.0000 0.75393  0.89689  0.23900  Biso   1.000  O 
  Hf29     1.0000 0.64539  0.49979  0.61433  Biso   1.000  Hf
  Hf30     1.0000 0.65448  0.75258  0.86308  Biso   1.000  Hf
  Hf31     1.0000 0.88835  0.76242  0.61482  Biso   1.000  Hf
  Hf32     1.0000 0.89578  0.49030  0.86034  Biso   1.000  Hf
  O57      1.0000 0.52574  0.65098  0.49940  Biso   1.000  O 
  O58      1.0000 0.54036  0.60136  0.74978  Biso   1.000  O 
  O59      1.0000 0.52272  0.85302  0.75031  Biso   1.000  O 
  O60      1.0000 0.51222  0.90060  0.50025  Biso   1.000  O 
  O61      1.0000 0.79318  0.65010  0.75548  Biso   1.000  O 
  O62      1.0000 0.77951  0.60324  0.50434  Biso   1.000  O 
  O63      1.0000 0.76446  0.85450  0.48789  Biso   1.000  O 
  O64      1.0000 0.77018  0.90092  0.73849  Biso   1.000  O 
  Tc1      1.0000 0.12289  0.19219  0.12430  Biso   1.000  Tc
