data_image0
_cell_length_a       9.93302
_cell_length_b       5.16836
_cell_length_c       9.97283
_cell_angle_alpha    90
_cell_angle_beta     90
_cell_angle_gamma    90

_symmetry_space_group_name_H-M    "P 1"
_symmetry_int_tables_number       1

loop_
  _symmetry_equiv_pos_as_xyz
  'x, y, z'

loop_
  _atom_site_label
  _atom_site_occupancy
  _atom_site_fract_x
  _atom_site_fract_y
  _atom_site_fract_z
  _atom_site_thermal_displace_type
  _atom_site_B_iso_or_equiv
  _atom_site_type_symbol
  Tc1      1.0000 0.13821  0.04158  0.12278  Biso   1.000  Tc
  Hf1      1.0000 0.13296  0.46898  0.37405  Biso   1.000  Hf
  Hf2      1.0000 0.36473  0.53903  0.12666  Biso   1.000  Hf
  Hf3      1.0000 0.36485  0.97050  0.37481  Biso   1.000  Hf
  O1       1.0000 0.03790  0.35671  0.19453  Biso   1.000  O 
  O2       1.0000 0.03527  0.13821  0.44903  Biso   1.000  O 
  O3       1.0000 0.46458  0.86972  0.19447  Biso   1.000  O 
  O4       1.0000 0.46347  0.63526  0.44257  Biso   1.000  O 
  O5       1.0000 0.26872  0.23905  0.24637  Biso   1.000  O 
  O6       1.0000 0.27116  0.26841  0.49829  Biso   1.000  O 
  O7       1.0000 0.22952  0.76760  0.49998  Biso   1.000  O 
  O8       1.0000 0.22624  0.74722  0.24865  Biso   1.000  O 
  Hf4      1.0000 0.13487  0.03622  0.62667  Biso   1.000  Hf
  Hf5      1.0000 0.13507  0.47013  0.87867  Biso   1.000  Hf
  Hf6      1.0000 0.36645  0.53695  0.62561  Biso   1.000  Hf
  Hf7      1.0000 0.36553  0.97020  0.87718  Biso   1.000  Hf
  O9       1.0000 0.03492  0.36704  0.70035  Biso   1.000  O 
  O10      1.0000 0.03777  0.13366  0.95687  Biso   1.000  O 
  O11      1.0000 0.46320  0.87341  0.69369  Biso   1.000  O 
  O12      1.0000 0.46120  0.63228  0.94343  Biso   1.000  O 
  O13      1.0000 0.27151  0.23996  0.75067  Biso   1.000  O 
  O14      1.0000 0.27106  0.25748  0.00217  Biso   1.000  O 
  O15      1.0000 0.22444  0.76330  0.00265  Biso   1.000  O 
  O16      1.0000 0.22965  0.73763  0.75143  Biso   1.000  O 
  Hf8      1.0000 0.63503  0.03489  0.12565  Biso   1.000  Hf
  Hf9      1.0000 0.63509  0.47100  0.37463  Biso   1.000  Hf
  Hf10     1.0000 0.87003  0.53350  0.12458  Biso   1.000  Hf
  Hf11     1.0000 0.86949  0.97081  0.37354  Biso   1.000  Hf
  O17      1.0000 0.53651  0.37141  0.19302  Biso   1.000  O 
  O18      1.0000 0.53656  0.13554  0.44268  Biso   1.000  O 
  O19      1.0000 0.97398  0.86201  0.19281  Biso   1.000  O 
  O20      1.0000 0.96502  0.63503  0.44568  Biso   1.000  O 
  O21      1.0000 0.77177  0.23731  0.24883  Biso   1.000  O 
  O22      1.0000 0.77127  0.26869  0.49886  Biso   1.000  O 
  O23      1.0000 0.73067  0.76923  0.49812  Biso   1.000  O 
  O24      1.0000 0.73412  0.73795  0.24785  Biso   1.000  O 
  Hf12     1.0000 0.63448  0.03610  0.62451  Biso   1.000  Hf
  Hf13     1.0000 0.63441  0.47072  0.87560  Biso   1.000  Hf
  Hf14     1.0000 0.86653  0.53534  0.62634  Biso   1.000  Hf
  Hf15     1.0000 0.86696  0.97145  0.87649  Biso   1.000  Hf
  O25      1.0000 0.53748  0.37374  0.69293  Biso   1.000  O 
  O26      1.0000 0.53776  0.13342  0.94305  Biso   1.000  O 
  O27      1.0000 0.96510  0.87055  0.69599  Biso   1.000  O 
  O28      1.0000 0.96270  0.63264  0.94139  Biso   1.000  O 
  O29      1.0000 0.77064  0.23803  0.74958  Biso   1.000  O 
  O30      1.0000 0.77206  0.26959  0.99910  Biso   1.000  O 
  O31      1.0000 0.72985  0.76915  0.99877  Biso   1.000  O 
  O32      1.0000 0.72987  0.73944  0.74921  Biso   1.000  O 
