data_image0
_cell_length_a       5.02735
_cell_length_b       10.4614
_cell_length_c       10.0779
_cell_angle_alpha    90
_cell_angle_beta     90
_cell_angle_gamma    90

_symmetry_space_group_name_H-M    "P 1"
_symmetry_int_tables_number       1

loop_
  _symmetry_equiv_pos_as_xyz
  'x, y, z'

loop_
  _atom_site_label
  _atom_site_occupancy
  _atom_site_fract_x
  _atom_site_fract_y
  _atom_site_fract_z
  _atom_site_thermal_displace_type
  _atom_site_B_iso_or_equiv
  _atom_site_type_symbol
  Hf1      1.0000 0.26144  0.01887  0.11800  Biso   1.000  Hf
  Hf2      1.0000 0.26240  0.22958  0.38786  Biso   1.000  Hf
  Hf3      1.0000 0.69470  0.25389  0.12339  Biso   1.000  Hf
  Hf4      1.0000 0.73391  0.48501  0.37569  Biso   1.000  Hf
  O1       1.0000 0.00734  0.17459  0.23087  Biso   1.000  O 
  O2       1.0000 0.07079  0.06390  0.45500  Biso   1.000  O 
  O3       1.0000 0.91306  0.44003  0.19488  Biso   1.000  O 
  O4       1.0000 0.93604  0.32407  0.45329  Biso   1.000  O 
  O5       1.0000 0.50708  0.11075  0.25280  Biso   1.000  O 
  O6       1.0000 0.54880  0.13498  0.50004  Biso   1.000  O 
  O7       1.0000 0.46472  0.38599  0.50236  Biso   1.000  O 
  O8       1.0000 0.44894  0.36033  0.25655  Biso   1.000  O 
  Hf5      1.0000 0.27422  0.01536  0.62612  Biso   1.000  Hf
  Hf6      1.0000 0.27848  0.22841  0.86666  Biso   1.000  Hf
  Hf7      1.0000 0.73767  0.26998  0.62655  Biso   1.000  Hf
  Hf8      1.0000 0.73214  0.48968  0.87437  Biso   1.000  Hf
  O9       1.0000 0.07491  0.18362  0.69034  Biso   1.000  O 
  O10      1.0000 0.08483  0.06357  0.93395  Biso   1.000  O 
  O11      1.0000 0.93644  0.43560  0.70132  Biso   1.000  O 
  O12      1.0000 0.93507  0.31894  0.94454  Biso   1.000  O 
  O13      1.0000 0.54811  0.11663  0.74574  Biso   1.000  O 
  O14      1.0000 0.57099  0.12452  0.99061  Biso   1.000  O 
  O15      1.0000 0.46551  0.39594  0.99985  Biso   1.000  O 
  O16      1.0000 0.46827  0.36942  0.75029  Biso   1.000  O 
  Hf9      1.0000 0.25954  0.54029  0.12179  Biso   1.000  Hf
  Hf10     1.0000 0.26784  0.73822  0.37758  Biso   1.000  Hf
  Hf11     1.0000 0.72348  0.77082  0.12671  Biso   1.000  Hf
  Hf12     1.0000 0.73256  0.98818  0.37252  Biso   1.000  Hf
  O17      1.0000 0.05892  0.69167  0.20191  Biso   1.000  O 
  O18      1.0000 0.06460  0.57048  0.44739  Biso   1.000  O 
  O19      1.0000 0.92087  0.93710  0.19126  Biso   1.000  O 
  O20      1.0000 0.92779  0.81987  0.44346  Biso   1.000  O 
  O21      1.0000 0.53858  0.62174  0.25097  Biso   1.000  O 
  O22      1.0000 0.53582  0.63533  0.49919  Biso   1.000  O 
  O23      1.0000 0.46404  0.88639  0.49805  Biso   1.000  O 
  O24      1.0000 0.45537  0.86800  0.24893  Biso   1.000  O 
  Hf13     1.0000 0.26819  0.51783  0.62501  Biso   1.000  Hf
  Hf14     1.0000 0.26413  0.74157  0.87107  Biso   1.000  Hf
  Hf15     1.0000 0.73690  0.76713  0.62131  Biso   1.000  Hf
  Hf16     1.0000 0.73616  0.98114  0.87245  Biso   1.000  Hf
  O25      1.0000 0.07157  0.68544  0.69323  Biso   1.000  O 
  O26      1.0000 0.06447  0.57699  0.94423  Biso   1.000  O 
  O27      1.0000 0.93811  0.93016  0.69582  Biso   1.000  O 
  O28      1.0000 0.92940  0.81997  0.94795  Biso   1.000  O 
  O29      1.0000 0.53865  0.61811  0.74829  Biso   1.000  O 
  O30      1.0000 0.53592  0.64495  0.99589  Biso   1.000  O 
  O31      1.0000 0.45357  0.88728  0.99844  Biso   1.000  O 
  O32      1.0000 0.46897  0.86693  0.74677  Biso   1.000  O 
  Tc1      1.0000 0.18266  0.30580  0.10880  Biso   1.000  Tc
