data_image0
_cell_length_a       10.078
_cell_length_b       10.5726
_cell_length_c       5.04564
_cell_angle_alpha    90
_cell_angle_beta     90
_cell_angle_gamma    90

_symmetry_space_group_name_H-M    "P 1"
_symmetry_int_tables_number       1

loop_
  _symmetry_equiv_pos_as_xyz
  'x, y, z'

loop_
  _atom_site_label
  _atom_site_occupancy
  _atom_site_fract_x
  _atom_site_fract_y
  _atom_site_fract_z
  _atom_site_thermal_displace_type
  _atom_site_B_iso_or_equiv
  _atom_site_type_symbol
  Hf1      1.0000 0.13675  0.00820  0.24408  Biso   1.000  Hf
  Hf2      1.0000 0.13101  0.21546  0.73219  Biso   1.000  Hf
  Hf3      1.0000 0.38467  0.27365  0.26608  Biso   1.000  Hf
  Hf4      1.0000 0.37681  0.49248  0.74919  Biso   1.000  Hf
  O1       1.0000 0.01241  0.16271  0.40577  Biso   1.000  O 
  O2       1.0000 0.03441  0.05939  0.90562  Biso   1.000  O 
  O3       1.0000 0.48613  0.43006  0.42216  Biso   1.000  O 
  O4       1.0000 0.48792  0.32487  0.91748  Biso   1.000  O 
  O5       1.0000 0.26200  0.09287  0.52296  Biso   1.000  O 
  O6       1.0000 0.24867  0.16223  0.04409  Biso   1.000  O 
  O7       1.0000 0.26559  0.41872  0.06680  Biso   1.000  O 
  O8       1.0000 0.26404  0.34788  0.57792  Biso   1.000  O 
  Hf5      1.0000 0.12887  0.54133  0.21995  Biso   1.000  Hf
  Hf6      1.0000 0.13798  0.74379  0.72876  Biso   1.000  Hf
  Hf7      1.0000 0.37522  0.76051  0.23582  Biso   1.000  Hf
  Hf8      1.0000 0.38720  0.97997  0.72844  Biso   1.000  Hf
  O9       1.0000 0.02792  0.68844  0.39706  Biso   1.000  O 
  O10      1.0000 0.04339  0.57263  0.86860  Biso   1.000  O 
  O11      1.0000 0.47415  0.92392  0.38498  Biso   1.000  O 
  O12      1.0000 0.48181  0.81893  0.88612  Biso   1.000  O 
  O13      1.0000 0.27373  0.61324  0.48277  Biso   1.000  O 
  O14      1.0000 0.27390  0.65666  0.97428  Biso   1.000  O 
  O15      1.0000 0.24716  0.89954  0.97409  Biso   1.000  O 
  O16      1.0000 0.23879  0.85643  0.46860  Biso   1.000  O 
  Hf9      1.0000 0.63695  0.01386  0.24595  Biso   1.000  Hf
  Hf10     1.0000 0.63950  0.23602  0.74780  Biso   1.000  Hf
  Hf11     1.0000 0.85888  0.26241  0.23104  Biso   1.000  Hf
  Hf12     1.0000 0.87655  0.48252  0.73620  Biso   1.000  Hf
  O17      1.0000 0.53176  0.16988  0.42372  Biso   1.000  O 
  O18      1.0000 0.53408  0.07317  0.91416  Biso   1.000  O 
  O19      1.0000 0.97776  0.42654  0.37904  Biso   1.000  O 
  O20      1.0000 0.96901  0.31990  0.87115  Biso   1.000  O 
  O21      1.0000 0.76724  0.11051  0.49180  Biso   1.000  O 
  O22      1.0000 0.77193  0.13621  0.98935  Biso   1.000  O 
  O23      1.0000 0.74205  0.38861  0.99102  Biso   1.000  O 
  O24      1.0000 0.73897  0.36297  0.49250  Biso   1.000  O 
  Hf13     1.0000 0.63932  0.51574  0.24565  Biso   1.000  Hf
  Hf14     1.0000 0.64407  0.73084  0.74536  Biso   1.000  Hf
  Hf15     1.0000 0.86451  0.76678  0.24099  Biso   1.000  Hf
  Hf16     1.0000 0.87289  0.98367  0.73806  Biso   1.000  Hf
  O25      1.0000 0.53768  0.67920  0.40215  Biso   1.000  O 
  O26      1.0000 0.54092  0.57487  0.91369  Biso   1.000  O 
  O27      1.0000 0.97153  0.92507  0.39937  Biso   1.000  O 
  O28      1.0000 0.97542  0.81972  0.89611  Biso   1.000  O 
  O29      1.0000 0.77334  0.61241  0.48939  Biso   1.000  O 
  O30      1.0000 0.78137  0.63635  0.98920  Biso   1.000  O 
  O31      1.0000 0.74122  0.88703  0.99164  Biso   1.000  O 
  O32      1.0000 0.73454  0.86337  0.49243  Biso   1.000  O 
  Tc1      1.0000 0.12317  0.30075  0.22503  Biso   1.000  Tc
