data_image0
_cell_length_a       4.96834
_cell_length_b       10.3336
_cell_length_c       9.97572
_cell_angle_alpha    90
_cell_angle_beta     90
_cell_angle_gamma    90

_symmetry_space_group_name_H-M    "P 1"
_symmetry_int_tables_number       1

loop_
  _symmetry_equiv_pos_as_xyz
  'x, y, z'

loop_
  _atom_site_label
  _atom_site_occupancy
  _atom_site_fract_x
  _atom_site_fract_y
  _atom_site_fract_z
  _atom_site_thermal_displace_type
  _atom_site_B_iso_or_equiv
  _atom_site_type_symbol
  Tc1      1.0000 0.27276  0.02150  0.12090  Biso   1.000  Tc
  Hf1      1.0000 0.26507  0.23287  0.37519  Biso   1.000  Hf
  Hf2      1.0000 0.73250  0.26570  0.12575  Biso   1.000  Hf
  Hf3      1.0000 0.73172  0.48497  0.37619  Biso   1.000  Hf
  O1       1.0000 0.06698  0.17860  0.19717  Biso   1.000  O 
  O2       1.0000 0.06907  0.06834  0.44931  Biso   1.000  O 
  O3       1.0000 0.92950  0.43237  0.19455  Biso   1.000  O 
  O4       1.0000 0.92817  0.31743  0.44501  Biso   1.000  O 
  O5       1.0000 0.53045  0.11589  0.24514  Biso   1.000  O 
  O6       1.0000 0.54310  0.13405  0.49727  Biso   1.000  O 
  O7       1.0000 0.45850  0.38352  0.49993  Biso   1.000  O 
  O8       1.0000 0.46005  0.36782  0.25000  Biso   1.000  O 
  Hf4      1.0000 0.26961  0.01758  0.62586  Biso   1.000  Hf
  Hf5      1.0000 0.27035  0.23518  0.87740  Biso   1.000  Hf
  Hf6      1.0000 0.73251  0.26739  0.62612  Biso   1.000  Hf
  Hf7      1.0000 0.73185  0.48569  0.87583  Biso   1.000  Hf
  O9       1.0000 0.07101  0.18429  0.69923  Biso   1.000  O 
  O10      1.0000 0.07519  0.06724  0.95582  Biso   1.000  O 
  O11      1.0000 0.92659  0.43579  0.69369  Biso   1.000  O 
  O12      1.0000 0.92610  0.31585  0.94394  Biso   1.000  O 
  O13      1.0000 0.54207  0.11911  0.75010  Biso   1.000  O 
  O14      1.0000 0.54338  0.12870  0.00014  Biso   1.000  O 
  O15      1.0000 0.45689  0.38091  0.00025  Biso   1.000  O 
  O16      1.0000 0.45838  0.36880  0.75026  Biso   1.000  O 
  Hf8      1.0000 0.26933  0.51730  0.12676  Biso   1.000  Hf
  Hf9      1.0000 0.26817  0.73700  0.37378  Biso   1.000  Hf
  Hf10     1.0000 0.73296  0.77009  0.12540  Biso   1.000  Hf
  Hf11     1.0000 0.73467  0.98579  0.37186  Biso   1.000  Hf
  O17      1.0000 0.07300  0.68411  0.19281  Biso   1.000  O 
  O18      1.0000 0.07316  0.56805  0.44301  Biso   1.000  O 
  O19      1.0000 0.94296  0.93424  0.19264  Biso   1.000  O 
  O20      1.0000 0.92697  0.81782  0.44342  Biso   1.000  O 
  O21      1.0000 0.54342  0.62032  0.24974  Biso   1.000  O 
  O22      1.0000 0.54063  0.63445  0.49926  Biso   1.000  O 
  O23      1.0000 0.45995  0.88469  0.49833  Biso   1.000  O 
  O24      1.0000 0.45888  0.87358  0.24671  Biso   1.000  O 
  Hf12     1.0000 0.26791  0.51824  0.62514  Biso   1.000  Hf
  Hf13     1.0000 0.26672  0.73510  0.87653  Biso   1.000  Hf
  Hf14     1.0000 0.73197  0.76847  0.62560  Biso   1.000  Hf
  Hf15     1.0000 0.72956  0.98434  0.87774  Biso   1.000  Hf
  O25      1.0000 0.07255  0.68604  0.69386  Biso   1.000  O 
  O26      1.0000 0.07482  0.56615  0.94389  Biso   1.000  O 
  O27      1.0000 0.92884  0.93569  0.69668  Biso   1.000  O 
  O28      1.0000 0.92031  0.81623  0.94167  Biso   1.000  O 
  O29      1.0000 0.54093  0.61942  0.74963  Biso   1.000  O 
  O30      1.0000 0.54347  0.63436  0.99990  Biso   1.000  O 
  O31      1.0000 0.44743  0.88306  0.00100  Biso   1.000  O 
  O32      1.0000 0.45937  0.86932  0.75036  Biso   1.000  O 
