data_image0
_cell_length_a       10.0834
_cell_length_b       10.2639
_cell_length_c       10.4238
_cell_angle_alpha    90
_cell_angle_beta     80
_cell_angle_gamma    90

_symmetry_space_group_name_H-M    "P 1"
_symmetry_int_tables_number       1

loop_
  _symmetry_equiv_pos_as_xyz
  'x, y, z'

loop_
  _atom_site_label
  _atom_site_occupancy
  _atom_site_fract_x
  _atom_site_fract_y
  _atom_site_fract_z
  _atom_site_thermal_displace_type
  _atom_site_B_iso_or_equiv
  _atom_site_type_symbol
  Ti1      1.0000 0.13097  0.02472  0.14629  Biso   1.000  Ti
  Hf1      1.0000 0.13684  0.22721  0.39386  Biso   1.000  Hf
  Hf2      1.0000 0.35901  0.26919  0.10435  Biso   1.000  Hf
  Hf3      1.0000 0.35933  0.47832  0.35446  Biso   1.000  Hf
  O1       1.0000 0.03804  0.16268  0.08371  Biso   1.000  O 
  O2       1.0000 0.03744  0.07795  0.32452  Biso   1.000  O 
  O3       1.0000 0.46246  0.41971  0.16887  Biso   1.000  O 
  O4       1.0000 0.46135  0.32950  0.41953  Biso   1.000  O 
  O5       1.0000 0.27117  0.12545  0.23705  Biso   1.000  O 
  O6       1.0000 0.27371  0.12081  0.48976  Biso   1.000  O 
  O7       1.0000 0.22282  0.37923  0.00961  Biso   1.000  O 
  O8       1.0000 0.22221  0.36970  0.25946  Biso   1.000  O 
  Hf4      1.0000 0.13430  0.02081  0.64618  Biso   1.000  Hf
  Hf5      1.0000 0.13434  0.22656  0.89712  Biso   1.000  Hf
  Hf6      1.0000 0.35704  0.27115  0.60450  Biso   1.000  Hf
  Hf7      1.0000 0.35505  0.47815  0.85555  Biso   1.000  Hf
  O9       1.0000 0.03152  0.16710  0.57824  Biso   1.000  O 
  O10      1.0000 0.02970  0.08054  0.83077  Biso   1.000  O 
  O11      1.0000 0.45893  0.42030  0.66966  Biso   1.000  O 
  O12      1.0000 0.45644  0.32814  0.91968  Biso   1.000  O 
  O13      1.0000 0.27172  0.12856  0.74123  Biso   1.000  O 
  O14      1.0000 0.26812  0.12002  0.99331  Biso   1.000  O 
  O15      1.0000 0.21959  0.37862  0.50951  Biso   1.000  O 
  O16      1.0000 0.21809  0.36959  0.76050  Biso   1.000  O 
  Hf8      1.0000 0.13896  0.52132  0.14628  Biso   1.000  Hf
  Hf9      1.0000 0.13730  0.72886  0.39561  Biso   1.000  Hf
  Hf10     1.0000 0.35735  0.77440  0.10554  Biso   1.000  Hf
  Hf11     1.0000 0.35734  0.97819  0.35244  Biso   1.000  Hf
  O17      1.0000 0.03632  0.67002  0.08174  Biso   1.000  O 
  O18      1.0000 0.03463  0.57910  0.33152  Biso   1.000  O 
  O19      1.0000 0.46460  0.91938  0.16933  Biso   1.000  O 
  O20      1.0000 0.46158  0.83001  0.41893  Biso   1.000  O 
  O21      1.0000 0.27573  0.62912  0.24116  Biso   1.000  O 
  O22      1.0000 0.27434  0.62053  0.49131  Biso   1.000  O 
  O23      1.0000 0.21949  0.88534  0.01398  Biso   1.000  O 
  O24      1.0000 0.22040  0.87132  0.25934  Biso   1.000  O 
  Hf12     1.0000 0.13526  0.52116  0.64654  Biso   1.000  Hf
  Hf13     1.0000 0.13348  0.72914  0.89770  Biso   1.000  Hf
  Hf14     1.0000 0.35786  0.77141  0.60492  Biso   1.000  Hf
  Hf15     1.0000 0.35407  0.97884  0.85741  Biso   1.000  Hf
  O25      1.0000 0.03265  0.66933  0.58166  Biso   1.000  O 
  O26      1.0000 0.03144  0.57965  0.83263  Biso   1.000  O 
  O27      1.0000 0.45900  0.92022  0.67039  Biso   1.000  O 
  O28      1.0000 0.45498  0.82886  0.92067  Biso   1.000  O 
  O29      1.0000 0.27232  0.62901  0.74174  Biso   1.000  O 
  O30      1.0000 0.26996  0.62108  0.99224  Biso   1.000  O 
  O31      1.0000 0.22014  0.87883  0.50997  Biso   1.000  O 
  O32      1.0000 0.21815  0.87063  0.76125  Biso   1.000  O 
  Hf16     1.0000 0.63784  0.02168  0.14601  Biso   1.000  Hf
  Hf17     1.0000 0.63648  0.22771  0.39608  Biso   1.000  Hf
  Hf18     1.0000 0.86065  0.27089  0.10511  Biso   1.000  Hf
  Hf19     1.0000 0.85897  0.47823  0.35450  Biso   1.000  Hf
  O33      1.0000 0.53615  0.17050  0.08118  Biso   1.000  O 
  O34      1.0000 0.53339  0.08007  0.33054  Biso   1.000  O 
  O35      1.0000 0.96435  0.41804  0.16976  Biso   1.000  O 
  O36      1.0000 0.96088  0.32827  0.41865  Biso   1.000  O 
  O37      1.0000 0.77634  0.12850  0.24076  Biso   1.000  O 
  O38      1.0000 0.77437  0.11971  0.49053  Biso   1.000  O 
  O39      1.0000 0.72426  0.37922  0.00983  Biso   1.000  O 
  O40      1.0000 0.72205  0.37006  0.25923  Biso   1.000  O 
  Hf20     1.0000 0.63373  0.02035  0.64676  Biso   1.000  Hf
  Hf21     1.0000 0.63245  0.22807  0.89687  Biso   1.000  Hf
  Hf22     1.0000 0.85715  0.27056  0.60456  Biso   1.000  Hf
  Hf23     1.0000 0.85627  0.47766  0.85606  Biso   1.000  Hf
  O41      1.0000 0.53286  0.17008  0.58169  Biso   1.000  O 
  O42      1.0000 0.53026  0.07865  0.83286  Biso   1.000  O 
  O43      1.0000 0.96025  0.41810  0.67104  Biso   1.000  O 
  O44      1.0000 0.95885  0.32844  0.92301  Biso   1.000  O 
  O45      1.0000 0.77135  0.12863  0.74135  Biso   1.000  O 
  O46      1.0000 0.77052  0.12033  0.99195  Biso   1.000  O 
  O47      1.0000 0.72013  0.37867  0.51006  Biso   1.000  O 
  O48      1.0000 0.71838  0.37037  0.76068  Biso   1.000  O 
  Hf24     1.0000 0.63715  0.52221  0.14595  Biso   1.000  Hf
  Hf25     1.0000 0.63720  0.72910  0.39619  Biso   1.000  Hf
  Hf26     1.0000 0.86271  0.77222  0.10405  Biso   1.000  Hf
  Hf27     1.0000 0.86201  0.97867  0.35366  Biso   1.000  Hf
  O49      1.0000 0.53490  0.67107  0.08168  Biso   1.000  O 
  O50      1.0000 0.53510  0.57928  0.33187  Biso   1.000  O 
  O51      1.0000 0.97211  0.92229  0.16693  Biso   1.000  O 
  O52      1.0000 0.96138  0.82921  0.41937  Biso   1.000  O 
  O53      1.0000 0.77616  0.62934  0.24080  Biso   1.000  O 
  O54      1.0000 0.77410  0.62021  0.49148  Biso   1.000  O 
  O55      1.0000 0.72395  0.87960  0.00952  Biso   1.000  O 
  O56      1.0000 0.72675  0.87146  0.25862  Biso   1.000  O 
  Hf28     1.0000 0.63492  0.52090  0.64693  Biso   1.000  Hf
  Hf29     1.0000 0.63179  0.72818  0.89815  Biso   1.000  Hf
  Hf30     1.0000 0.85710  0.77042  0.60526  Biso   1.000  Hf
  Hf31     1.0000 0.85558  0.97812  0.85491  Biso   1.000  Hf
  O57      1.0000 0.53349  0.67046  0.58167  Biso   1.000  O 
  O58      1.0000 0.53082  0.57886  0.83247  Biso   1.000  O 
  O59      1.0000 0.95975  0.91914  0.67000  Biso   1.000  O 
  O60      1.0000 0.95768  0.82936  0.92028  Biso   1.000  O 
  O61      1.0000 0.77224  0.62834  0.74245  Biso   1.000  O 
  O62      1.0000 0.77060  0.62086  0.99255  Biso   1.000  O 
  O63      1.0000 0.72047  0.87879  0.50975  Biso   1.000  O 
  O64      1.0000 0.71787  0.86999  0.76060  Biso   1.000  O 
