data_image0
_cell_length_a       9.93638
_cell_length_b       10.3518
_cell_length_c       9.98147
_cell_angle_alpha    90
_cell_angle_beta     90
_cell_angle_gamma    90

_symmetry_space_group_name_H-M    "P 1"
_symmetry_int_tables_number       1

loop_
  _symmetry_equiv_pos_as_xyz
  'x, y, z'

loop_
  _atom_site_label
  _atom_site_occupancy
  _atom_site_fract_x
  _atom_site_fract_y
  _atom_site_fract_z
  _atom_site_thermal_displace_type
  _atom_site_B_iso_or_equiv
  _atom_site_type_symbol
  Ti1      1.0000 0.13071  0.01882  0.12584  Biso   1.000  Ti
  Hf1      1.0000 0.13442  0.23156  0.37380  Biso   1.000  Hf
  Hf2      1.0000 0.36535  0.26453  0.12559  Biso   1.000  Hf
  Hf3      1.0000 0.36693  0.48311  0.37619  Biso   1.000  Hf
  O1       1.0000 0.03944  0.18024  0.18962  Biso   1.000  O 
  O2       1.0000 0.03695  0.06588  0.44630  Biso   1.000  O 
  O3       1.0000 0.46338  0.43404  0.19345  Biso   1.000  O 
  O4       1.0000 0.46460  0.31568  0.44432  Biso   1.000  O 
  O5       1.0000 0.26542  0.11207  0.24581  Biso   1.000  O 
  O6       1.0000 0.27196  0.13230  0.49839  Biso   1.000  O 
  O7       1.0000 0.22955  0.38145  0.49965  Biso   1.000  O 
  O8       1.0000 0.23049  0.36617  0.24985  Biso   1.000  O 
  Hf4      1.0000 0.13544  0.01670  0.62677  Biso   1.000  Hf
  Hf5      1.0000 0.13567  0.23201  0.87866  Biso   1.000  Hf
  Hf6      1.0000 0.36631  0.26659  0.62623  Biso   1.000  Hf
  Hf7      1.0000 0.36691  0.48356  0.87623  Biso   1.000  Hf
  O9       1.0000 0.03625  0.18277  0.69790  Biso   1.000  O 
  O10      1.0000 0.03951  0.06296  0.95129  Biso   1.000  O 
  O11      1.0000 0.46380  0.43473  0.69365  Biso   1.000  O 
  O12      1.0000 0.46390  0.31468  0.94368  Biso   1.000  O 
  O13      1.0000 0.27206  0.11808  0.75037  Biso   1.000  O 
  O14      1.0000 0.26915  0.13119  0.00144  Biso   1.000  O 
  O15      1.0000 0.22896  0.38218  0.00036  Biso   1.000  O 
  O16      1.0000 0.22951  0.36746  0.75071  Biso   1.000  O 
  Hf8      1.0000 0.13483  0.51623  0.12643  Biso   1.000  Hf
  Hf9      1.0000 0.13545  0.73401  0.37619  Biso   1.000  Hf
  Hf10     1.0000 0.36390  0.76819  0.12732  Biso   1.000  Hf
  Hf11     1.0000 0.36482  0.98297  0.37477  Biso   1.000  Hf
  O17      1.0000 0.03708  0.68431  0.19391  Biso   1.000  O 
  O18      1.0000 0.03732  0.56524  0.44381  Biso   1.000  O 
  O19      1.0000 0.46614  0.93324  0.19555  Biso   1.000  O 
  O20      1.0000 0.46419  0.81548  0.44452  Biso   1.000  O 
  O21      1.0000 0.27117  0.61739  0.25033  Biso   1.000  O 
  O22      1.0000 0.27208  0.63191  0.50037  Biso   1.000  O 
  O23      1.0000 0.22980  0.88186  0.50137  Biso   1.000  O 
  O24      1.0000 0.22927  0.86828  0.25073  Biso   1.000  O 
  Hf12     1.0000 0.13528  0.51630  0.62610  Biso   1.000  Hf
  Hf13     1.0000 0.13504  0.73407  0.87725  Biso   1.000  Hf
  Hf14     1.0000 0.36679  0.76695  0.62709  Biso   1.000  Hf
  Hf15     1.0000 0.36416  0.98391  0.87951  Biso   1.000  Hf
  O25      1.0000 0.03771  0.68448  0.69412  Biso   1.000  O 
  O26      1.0000 0.03767  0.56498  0.94477  Biso   1.000  O 
  O27      1.0000 0.46361  0.93462  0.69558  Biso   1.000  O 
  O28      1.0000 0.46198  0.81559  0.94434  Biso   1.000  O 
  O29      1.0000 0.27164  0.61815  0.75061  Biso   1.000  O 
  O30      1.0000 0.27028  0.63317  0.00047  Biso   1.000  O 
  O31      1.0000 0.22391  0.88659  0.00574  Biso   1.000  O 
  O32      1.0000 0.22975  0.86835  0.75237  Biso   1.000  O 
  Hf16     1.0000 0.63473  0.01659  0.12567  Biso   1.000  Hf
  Hf17     1.0000 0.63464  0.23306  0.37637  Biso   1.000  Hf
  Hf18     1.0000 0.86705  0.26584  0.12534  Biso   1.000  Hf
  Hf19     1.0000 0.86664  0.48317  0.37601  Biso   1.000  Hf
  O33      1.0000 0.53591  0.18370  0.19530  Biso   1.000  O 
  O34      1.0000 0.53706  0.06509  0.44342  Biso   1.000  O 
  O35      1.0000 0.96523  0.43240  0.19455  Biso   1.000  O 
  O36      1.0000 0.96413  0.31395  0.44282  Biso   1.000  O 
  O37      1.0000 0.77293  0.11723  0.24880  Biso   1.000  O 
  O38      1.0000 0.77211  0.13143  0.49924  Biso   1.000  O 
  O39      1.0000 0.73027  0.38183  0.49994  Biso   1.000  O 
  O40      1.0000 0.72986  0.36708  0.24954  Biso   1.000  O 
  Hf20     1.0000 0.63377  0.01568  0.62578  Biso   1.000  Hf
  Hf21     1.0000 0.63490  0.23314  0.87558  Biso   1.000  Hf
  Hf22     1.0000 0.86707  0.26565  0.62609  Biso   1.000  Hf
  Hf23     1.0000 0.86709  0.48343  0.87555  Biso   1.000  Hf
  O41      1.0000 0.53768  0.18472  0.69326  Biso   1.000  O 
  O42      1.0000 0.53699  0.06560  0.94514  Biso   1.000  O 
  O43      1.0000 0.96403  0.43414  0.69296  Biso   1.000  O 
  O44      1.0000 0.96449  0.31481  0.94341  Biso   1.000  O 
  O45      1.0000 0.77124  0.11711  0.74951  Biso   1.000  O 
  O46      1.0000 0.77210  0.13220  0.99916  Biso   1.000  O 
  O47      1.0000 0.73089  0.38184  0.99982  Biso   1.000  O 
  O48      1.0000 0.73015  0.36754  0.74963  Biso   1.000  O 
  Hf24     1.0000 0.63378  0.51652  0.12624  Biso   1.000  Hf
  Hf25     1.0000 0.63492  0.73412  0.37471  Biso   1.000  Hf
  Hf26     1.0000 0.86846  0.76601  0.12375  Biso   1.000  Hf
  Hf27     1.0000 0.86783  0.98436  0.37599  Biso   1.000  Hf
  O49      1.0000 0.53686  0.68527  0.19347  Biso   1.000  O 
  O50      1.0000 0.53806  0.56568  0.44304  Biso   1.000  O 
  O51      1.0000 0.97581  0.93742  0.18930  Biso   1.000  O 
  O52      1.0000 0.96424  0.81598  0.44250  Biso   1.000  O 
  O53      1.0000 0.77185  0.61722  0.24919  Biso   1.000  O 
  O54      1.0000 0.77144  0.63251  0.49949  Biso   1.000  O 
  O55      1.0000 0.73049  0.88267  0.49877  Biso   1.000  O 
  O56      1.0000 0.73597  0.86802  0.24836  Biso   1.000  O 
  Hf28     1.0000 0.63493  0.51653  0.62577  Biso   1.000  Hf
  Hf29     1.0000 0.63422  0.73414  0.87620  Biso   1.000  Hf
  Hf30     1.0000 0.86688  0.76634  0.62592  Biso   1.000  Hf
  Hf31     1.0000 0.86846  0.98414  0.87606  Biso   1.000  Hf
  O57      1.0000 0.53752  0.68451  0.69407  Biso   1.000  O 
  O58      1.0000 0.53819  0.56511  0.94341  Biso   1.000  O 
  O59      1.0000 0.96476  0.93435  0.69399  Biso   1.000  O 
  O60      1.0000 0.96236  0.81379  0.94074  Biso   1.000  O 
  O61      1.0000 0.77153  0.61784  0.74992  Biso   1.000  O 
  O62      1.0000 0.77206  0.63262  0.99990  Biso   1.000  O 
  O63      1.0000 0.73069  0.88274  0.99913  Biso   1.000  O 
  O64      1.0000 0.73017  0.86758  0.74940  Biso   1.000  O 
