data_image0
_cell_length_a       5.13456
_cell_length_b       10.2121
_cell_length_c       10.5809
_cell_angle_alpha    90
_cell_angle_beta     80
_cell_angle_gamma    90

_symmetry_space_group_name_H-M    "P 1"
_symmetry_int_tables_number       1

loop_
  _symmetry_equiv_pos_as_xyz
  'x, y, z'

loop_
  _atom_site_label
  _atom_site_occupancy
  _atom_site_fract_x
  _atom_site_fract_y
  _atom_site_fract_z
  _atom_site_thermal_displace_type
  _atom_site_B_iso_or_equiv
  _atom_site_type_symbol
  Hf1      1.0000 0.27538  0.02156  0.14575  Biso   1.000  Hf
  Hf2      1.0000 0.26706  0.23250  0.39956  Biso   1.000  Hf
  Hf3      1.0000 0.72424  0.26962  0.09559  Biso   1.000  Hf
  Hf4      1.0000 0.74322  0.49849  0.35398  Biso   1.000  Hf
  O1       1.0000 0.05818  0.15408  0.06782  Biso   1.000  O 
  O2       1.0000 0.04675  0.09348  0.32162  Biso   1.000  O 
  O3       1.0000 0.96936  0.39163  0.19351  Biso   1.000  O 
  O4       1.0000 0.97958  0.37097  0.44256  Biso   1.000  O 
  O5       1.0000 0.54812  0.12531  0.23844  Biso   1.000  O 
  O6       1.0000 0.56478  0.12282  0.48535  Biso   1.000  O 
  O7       1.0000 0.45114  0.37821  0.00698  Biso   1.000  O 
  O8       1.0000 0.49184  0.37059  0.26040  Biso   1.000  O 
  Hf5      1.0000 0.29101  0.02525  0.64499  Biso   1.000  Hf
  Hf6      1.0000 0.29599  0.23196  0.89303  Biso   1.000  Hf
  Hf7      1.0000 0.74541  0.27667  0.60780  Biso   1.000  Hf
  Hf8      1.0000 0.74828  0.48373  0.85262  Biso   1.000  Hf
  O9       1.0000 0.07139  0.16069  0.57371  Biso   1.000  O 
  O10      1.0000 0.07562  0.09551  0.81981  Biso   1.000  O 
  O11      1.0000 0.96664  0.40984  0.68417  Biso   1.000  O 
  O12      1.0000 0.97076  0.35158  0.92877  Biso   1.000  O 
  O13      1.0000 0.56298  0.13028  0.73933  Biso   1.000  O 
  O14      1.0000 0.56769  0.12618  0.98579  Biso   1.000  O 
  O15      1.0000 0.49229  0.37428  0.50208  Biso   1.000  O 
  O16      1.0000 0.47247  0.37742  0.75847  Biso   1.000  O 
  Hf9      1.0000 0.28813  0.51797  0.14753  Biso   1.000  Hf
  Hf10     1.0000 0.28775  0.73243  0.39781  Biso   1.000  Hf
  Hf11     1.0000 0.73484  0.77076  0.10254  Biso   1.000  Hf
  Hf12     1.0000 0.72817  0.97231  0.35267  Biso   1.000  Hf
  O17      1.0000 0.06604  0.65128  0.06948  Biso   1.000  O 
  O18      1.0000 0.08135  0.60216  0.31442  Biso   1.000  O 
  O19      1.0000 0.95001  0.90676  0.17791  Biso   1.000  O 
  O20      1.0000 0.95458  0.84332  0.43031  Biso   1.000  O 
  O21      1.0000 0.56366  0.62965  0.23830  Biso   1.000  O 
  O22      1.0000 0.55783  0.62836  0.49354  Biso   1.000  O 
  O23      1.0000 0.45943  0.87779  0.01139  Biso   1.000  O 
  O24      1.0000 0.45579  0.87104  0.25933  Biso   1.000  O 
  Hf13     1.0000 0.29632  0.52281  0.64503  Biso   1.000  Hf
  Hf14     1.0000 0.30355  0.73034  0.89488  Biso   1.000  Hf
  Hf15     1.0000 0.74477  0.77506  0.60598  Biso   1.000  Hf
  Hf16     1.0000 0.75353  0.98165  0.85235  Biso   1.000  Hf
  O25      1.0000 0.07274  0.65814  0.57042  Biso   1.000  O 
  O26      1.0000 0.08595  0.59738  0.81727  Biso   1.000  O 
  O27      1.0000 0.96589  0.91200  0.67762  Biso   1.000  O 
  O28      1.0000 0.96956  0.84404  0.92652  Biso   1.000  O 
  O29      1.0000 0.57151  0.63030  0.73895  Biso   1.000  O 
  O30      1.0000 0.57886  0.62687  0.98849  Biso   1.000  O 
  O31      1.0000 0.46692  0.87879  0.51173  Biso   1.000  O 
  O32      1.0000 0.47786  0.87552  0.76054  Biso   1.000  O 
  Ti1      1.0000 0.77055  0.24748  0.34068  Biso   1.000  Ti
