data_image0
_cell_length_a       5.03209
_cell_length_b       10.2466
_cell_length_c       10.4119
_cell_angle_alpha    90
_cell_angle_beta     80
_cell_angle_gamma    90

_symmetry_space_group_name_H-M    "P 1"
_symmetry_int_tables_number       1

loop_
  _symmetry_equiv_pos_as_xyz
  'x, y, z'

loop_
  _atom_site_label
  _atom_site_occupancy
  _atom_site_fract_x
  _atom_site_fract_y
  _atom_site_fract_z
  _atom_site_thermal_displace_type
  _atom_site_B_iso_or_equiv
  _atom_site_type_symbol
  Ti1      1.0000 0.26162  0.02490  0.14620  Biso   1.000  Ti
  Hf1      1.0000 0.27475  0.22616  0.39355  Biso   1.000  Hf
  Hf2      1.0000 0.71861  0.26867  0.10513  Biso   1.000  Hf
  Hf3      1.0000 0.71948  0.47780  0.35438  Biso   1.000  Hf
  O1       1.0000 0.07667  0.16285  0.08367  Biso   1.000  O 
  O2       1.0000 0.07397  0.07797  0.32366  Biso   1.000  O 
  O3       1.0000 0.92877  0.41743  0.16932  Biso   1.000  O 
  O4       1.0000 0.92316  0.32773  0.41848  Biso   1.000  O 
  O5       1.0000 0.54478  0.12464  0.23685  Biso   1.000  O 
  O6       1.0000 0.54991  0.11962  0.48900  Biso   1.000  O 
  O7       1.0000 0.44773  0.37928  0.01007  Biso   1.000  O 
  O8       1.0000 0.44565  0.36893  0.25904  Biso   1.000  O 
  Hf4      1.0000 0.26764  0.01965  0.64635  Biso   1.000  Hf
  Hf5      1.0000 0.26887  0.22589  0.89705  Biso   1.000  Hf
  Hf6      1.0000 0.71500  0.27019  0.60412  Biso   1.000  Hf
  Hf7      1.0000 0.71288  0.47705  0.85643  Biso   1.000  Hf
  O9       1.0000 0.06464  0.16685  0.57825  Biso   1.000  O 
  O10      1.0000 0.05924  0.07930  0.83167  Biso   1.000  O 
  O11      1.0000 0.92082  0.41803  0.67082  Biso   1.000  O 
  O12      1.0000 0.91667  0.32674  0.92257  Biso   1.000  O 
  O13      1.0000 0.54340  0.12783  0.74096  Biso   1.000  O 
  O14      1.0000 0.53802  0.11944  0.99328  Biso   1.000  O 
  O15      1.0000 0.44034  0.37792  0.50959  Biso   1.000  O 
  O16      1.0000 0.43756  0.36906  0.76090  Biso   1.000  O 
  Hf8      1.0000 0.27648  0.52208  0.14625  Biso   1.000  Hf
  Hf9      1.0000 0.27700  0.72917  0.39553  Biso   1.000  Hf
  Hf10     1.0000 0.71974  0.77509  0.10530  Biso   1.000  Hf
  Hf11     1.0000 0.72160  0.97814  0.35163  Biso   1.000  Hf
  O17      1.0000 0.07088  0.67099  0.08254  Biso   1.000  O 
  O18      1.0000 0.07156  0.57843  0.33214  Biso   1.000  O 
  O19      1.0000 0.94784  0.92173  0.16670  Biso   1.000  O 
  O20      1.0000 0.92458  0.82927  0.41864  Biso   1.000  O 
  O21      1.0000 0.55380  0.62903  0.24099  Biso   1.000  O 
  O22      1.0000 0.55048  0.61980  0.49155  Biso   1.000  O 
  O23      1.0000 0.44058  0.88576  0.01428  Biso   1.000  O 
  O24      1.0000 0.45108  0.87164  0.25864  Biso   1.000  O 
  Hf12     1.0000 0.27197  0.52054  0.64691  Biso   1.000  Hf
  Hf13     1.0000 0.26585  0.72862  0.89900  Biso   1.000  Hf
  Hf14     1.0000 0.71646  0.77030  0.60532  Biso   1.000  Hf
  Hf15     1.0000 0.70945  0.97817  0.85716  Biso   1.000  Hf
  O25      1.0000 0.06805  0.66949  0.58181  Biso   1.000  O 
  O26      1.0000 0.06393  0.57860  0.83326  Biso   1.000  O 
  O27      1.0000 0.91980  0.91902  0.67052  Biso   1.000  O 
  O28      1.0000 0.91145  0.82826  0.92075  Biso   1.000  O 
  O29      1.0000 0.54641  0.62799  0.74267  Biso   1.000  O 
  O30      1.0000 0.54186  0.62101  0.99297  Biso   1.000  O 
  O31      1.0000 0.44218  0.87828  0.50987  Biso   1.000  O 
  O32      1.0000 0.43655  0.86968  0.76169  Biso   1.000  O 
