data_image0
_cell_length_a       10.0114
_cell_length_b       10.3755
_cell_length_c       10.0517
_cell_angle_alpha    90
_cell_angle_beta     90
_cell_angle_gamma    90

_symmetry_space_group_name_H-M    "P 1"
_symmetry_int_tables_number       1

loop_
  _symmetry_equiv_pos_as_xyz
  'x, y, z'

loop_
  _atom_site_label
  _atom_site_occupancy
  _atom_site_fract_x
  _atom_site_fract_y
  _atom_site_fract_z
  _atom_site_thermal_displace_type
  _atom_site_B_iso_or_equiv
  _atom_site_type_symbol
  Hf1      1.0000 0.12590  0.00933  0.12244  Biso   1.000  Hf
  Hf2      1.0000 0.12981  0.23331  0.38183  Biso   1.000  Hf
  Hf3      1.0000 0.38193  0.27195  0.11819  Biso   1.000  Hf
  Hf4      1.0000 0.36901  0.48571  0.37342  Biso   1.000  Hf
  O1       1.0000 0.00229  0.15674  0.22534  Biso   1.000  O 
  O2       1.0000 0.03334  0.06563  0.45558  Biso   1.000  O 
  O3       1.0000 0.47274  0.43698  0.19648  Biso   1.000  O 
  O4       1.0000 0.46725  0.31995  0.44549  Biso   1.000  O 
  O5       1.0000 0.25306  0.12589  0.24202  Biso   1.000  O 
  O6       1.0000 0.27120  0.13363  0.49726  Biso   1.000  O 
  O7       1.0000 0.23220  0.38582  0.49650  Biso   1.000  O 
  O8       1.0000 0.23755  0.37018  0.24442  Biso   1.000  O 
  Hf5      1.0000 0.13202  0.01411  0.62612  Biso   1.000  Hf
  Hf6      1.0000 0.13559  0.23948  0.85693  Biso   1.000  Hf
  Hf7      1.0000 0.37064  0.26842  0.62050  Biso   1.000  Hf
  Hf8      1.0000 0.36956  0.48887  0.87181  Biso   1.000  Hf
  O9       1.0000 0.03032  0.17904  0.69257  Biso   1.000  O 
  O10      1.0000 0.02857  0.07175  0.94726  Biso   1.000  O 
  O11      1.0000 0.46955  0.43569  0.69332  Biso   1.000  O 
  O12      1.0000 0.47034  0.32367  0.94117  Biso   1.000  O 
  O13      1.0000 0.26960  0.11836  0.74560  Biso   1.000  O 
  O14      1.0000 0.25807  0.14635  0.99848  Biso   1.000  O 
  O15      1.0000 0.23422  0.39082  0.99414  Biso   1.000  O 
  O16      1.0000 0.23785  0.37124  0.74288  Biso   1.000  O 
  Hf9      1.0000 0.14204  0.52453  0.12357  Biso   1.000  Hf
  Hf10     1.0000 0.13787  0.73539  0.37562  Biso   1.000  Hf
  Hf11     1.0000 0.37214  0.76818  0.12433  Biso   1.000  Hf
  Hf12     1.0000 0.36855  0.98871  0.37158  Biso   1.000  Hf
  O17      1.0000 0.03516  0.67904  0.20192  Biso   1.000  O 
  O18      1.0000 0.03720  0.56880  0.44809  Biso   1.000  O 
  O19      1.0000 0.46589  0.93679  0.19370  Biso   1.000  O 
  O20      1.0000 0.47004  0.82220  0.44425  Biso   1.000  O 
  O21      1.0000 0.27804  0.62240  0.24850  Biso   1.000  O 
  O22      1.0000 0.27300  0.63514  0.49829  Biso   1.000  O 
  O23      1.0000 0.23662  0.88530  0.49754  Biso   1.000  O 
  O24      1.0000 0.23508  0.86769  0.24886  Biso   1.000  O 
  Hf13     1.0000 0.13624  0.51809  0.62423  Biso   1.000  Hf
  Hf14     1.0000 0.13599  0.73719  0.87291  Biso   1.000  Hf
  Hf15     1.0000 0.37150  0.76895  0.62313  Biso   1.000  Hf
  Hf16     1.0000 0.36968  0.98738  0.87556  Biso   1.000  Hf
  O25      1.0000 0.03789  0.68314  0.69551  Biso   1.000  O 
  O26      1.0000 0.03630  0.57161  0.94680  Biso   1.000  O 
  O27      1.0000 0.47055  0.93542  0.69775  Biso   1.000  O 
  O28      1.0000 0.47039  0.82210  0.94567  Biso   1.000  O 
  O29      1.0000 0.27275  0.61962  0.74644  Biso   1.000  O 
  O30      1.0000 0.27340  0.63999  0.99580  Biso   1.000  O 
  O31      1.0000 0.23454  0.88652  0.99673  Biso   1.000  O 
  O32      1.0000 0.23666  0.86772  0.74817  Biso   1.000  O 
  Hf17     1.0000 0.63044  0.01234  0.12466  Biso   1.000  Hf
  Hf18     1.0000 0.63304  0.23266  0.37713  Biso   1.000  Hf
  Hf19     1.0000 0.85392  0.26146  0.12942  Biso   1.000  Hf
  Hf20     1.0000 0.87137  0.48226  0.37546  Biso   1.000  Hf
  O33      1.0000 0.53397  0.17946  0.20168  Biso   1.000  O 
  O34      1.0000 0.53094  0.06861  0.44791  Biso   1.000  O 
  O35      1.0000 0.98006  0.41586  0.20280  Biso   1.000  O 
  O36      1.0000 0.96595  0.32105  0.45551  Biso   1.000  O 
  O37      1.0000 0.75766  0.11154  0.25083  Biso   1.000  O 
  O38      1.0000 0.76911  0.13528  0.49905  Biso   1.000  O 
  O39      1.0000 0.73224  0.38546  0.50024  Biso   1.000  O 
  O40      1.0000 0.73089  0.36861  0.25230  Biso   1.000  O 
  Hf21     1.0000 0.63208  0.01573  0.62367  Biso   1.000  Hf
  Hf22     1.0000 0.63468  0.23440  0.87275  Biso   1.000  Hf
  Hf23     1.0000 0.86376  0.26702  0.62609  Biso   1.000  Hf
  Hf24     1.0000 0.86989  0.48376  0.87830  Biso   1.000  Hf
  O41      1.0000 0.53660  0.18515  0.69456  Biso   1.000  O 
  O42      1.0000 0.52712  0.07407  0.94836  Biso   1.000  O 
  O43      1.0000 0.97374  0.42854  0.70633  Biso   1.000  O 
  O44      1.0000 0.97290  0.31748  0.96180  Biso   1.000  O 
  O45      1.0000 0.76834  0.11627  0.74866  Biso   1.000  O 
  O46      1.0000 0.76501  0.13199  0.99874  Biso   1.000  O 
  O47      1.0000 0.72961  0.38410  0.99934  Biso   1.000  O 
  O48      1.0000 0.73370  0.36858  0.75080  Biso   1.000  O 
  Hf25     1.0000 0.63850  0.51867  0.12441  Biso   1.000  Hf
  Hf26     1.0000 0.63763  0.73564  0.37537  Biso   1.000  Hf
  Hf27     1.0000 0.86895  0.76301  0.12629  Biso   1.000  Hf
  Hf28     1.0000 0.87656  0.98715  0.37186  Biso   1.000  Hf
  O49      1.0000 0.54181  0.68645  0.19376  Biso   1.000  O 
  O50      1.0000 0.53689  0.57007  0.44534  Biso   1.000  O 
  O51      1.0000 0.96755  0.92289  0.19753  Biso   1.000  O 
  O52      1.0000 0.97131  0.81909  0.44806  Biso   1.000  O 
  O53      1.0000 0.77502  0.61465  0.24824  Biso   1.000  O 
  O54      1.0000 0.77323  0.63479  0.49810  Biso   1.000  O 
  O55      1.0000 0.73754  0.88630  0.49659  Biso   1.000  O 
  O56      1.0000 0.73287  0.86483  0.24754  Biso   1.000  O 
  Hf29     1.0000 0.63740  0.51889  0.62459  Biso   1.000  Hf
  Hf30     1.0000 0.63718  0.73607  0.87396  Biso   1.000  Hf
  Hf31     1.0000 0.87039  0.76737  0.62400  Biso   1.000  Hf
  Hf32     1.0000 0.87148  0.98383  0.87585  Biso   1.000  Hf
  O57      1.0000 0.53957  0.68614  0.69439  Biso   1.000  O 
  O58      1.0000 0.53704  0.57138  0.94480  Biso   1.000  O 
  O59      1.0000 0.97262  0.93025  0.70081  Biso   1.000  O 
  O60      1.0000 0.97013  0.81903  0.94993  Biso   1.000  O 
  O61      1.0000 0.77471  0.61657  0.74909  Biso   1.000  O 
  O62      1.0000 0.77231  0.63365  0.99737  Biso   1.000  O 
  O63      1.0000 0.73303  0.88371  0.99750  Biso   1.000  O 
  O64      1.0000 0.73504  0.86723  0.74721  Biso   1.000  O 
  Ti1      1.0000 0.12087  0.26737  0.11342  Biso   1.000  Ti
