data_image0
_cell_length_a       5.09437
_cell_length_b       10.0523
_cell_length_c       10.0524
_cell_angle_alpha    90
_cell_angle_beta     90
_cell_angle_gamma    90

_symmetry_space_group_name_H-M    "P 1"
_symmetry_int_tables_number       1

loop_
  _symmetry_equiv_pos_as_xyz
  'x, y, z'

loop_
  _atom_site_label
  _atom_site_occupancy
  _atom_site_fract_x
  _atom_site_fract_y
  _atom_site_fract_z
  _atom_site_thermal_displace_type
  _atom_site_B_iso_or_equiv
  _atom_site_type_symbol
  Hf1      1.0000 0.25032  0.98778  0.10724  Biso   1.000  Hf
  Hf2      1.0000 0.25030  0.25026  0.36972  Biso   1.000  Hf
  Hf3      1.0000 0.75031  0.25027  0.10724  Biso   1.000  Hf
  Hf4      1.0000 0.74728  0.49692  0.35389  Biso   1.000  Hf
  O1       1.0000 0.98579  0.12825  0.22926  Biso   1.000  O 
  O2       1.0000 0.03305  0.11744  0.48184  Biso   1.000  O 
  O3       1.0000 0.02650  0.37713  0.23412  Biso   1.000  O 
  O4       1.0000 0.96317  0.37053  0.48324  Biso   1.000  O 
  O5       1.0000 0.47412  0.12338  0.23412  Biso   1.000  O 
  O6       1.0000 0.53740  0.13000  0.48324  Biso   1.000  O 
  O7       1.0000 0.46752  0.38309  0.48184  Biso   1.000  O 
  O8       1.0000 0.51484  0.37227  0.22926  Biso   1.000  O 
  Hf5      1.0000 0.25029  0.99728  0.60724  Biso   1.000  Hf
  Hf6      1.0000 0.25029  0.25027  0.84476  Biso   1.000  Hf
  Hf7      1.0000 0.75028  0.25027  0.60724  Biso   1.000  Hf
  Hf8      1.0000 0.75333  0.49694  0.86058  Biso   1.000  Hf
  O9       1.0000 0.96315  0.13002  0.73126  Biso   1.000  O 
  O10      1.0000 0.02648  0.12340  0.98037  Biso   1.000  O 
  O11      1.0000 0.03307  0.38311  0.73265  Biso   1.000  O 
  O12      1.0000 0.98577  0.37229  0.98523  Biso   1.000  O 
  O13      1.0000 0.46750  0.11743  0.73265  Biso   1.000  O 
  O14      1.0000 0.51482  0.12825  0.98523  Biso   1.000  O 
  O15      1.0000 0.47411  0.37714  0.98037  Biso   1.000  O 
  O16      1.0000 0.53742  0.37052  0.73125  Biso   1.000  O 
  Hf9      1.0000 0.25031  0.51274  0.10724  Biso   1.000  Hf
  Hf10     1.0000 0.25031  0.75026  0.36024  Biso   1.000  Hf
  Hf11     1.0000 0.75031  0.75027  0.10724  Biso   1.000  Hf
  Hf12     1.0000 0.75333  0.00361  0.35390  Biso   1.000  Hf
  O17      1.0000 0.96318  0.62625  0.22750  Biso   1.000  O 
  O18      1.0000 0.04144  0.61889  0.47586  Biso   1.000  O 
  O19      1.0000 0.03309  0.87566  0.24008  Biso   1.000  O 
  O20      1.0000 0.95881  0.87175  0.48578  Biso   1.000  O 
  O21      1.0000 0.46753  0.62485  0.24008  Biso   1.000  O 
  O22      1.0000 0.54181  0.62879  0.48578  Biso   1.000  O 
  O23      1.0000 0.45917  0.88163  0.47588  Biso   1.000  O 
  O24      1.0000 0.53743  0.87426  0.22752  Biso   1.000  O 
  Hf13     1.0000 0.25028  0.50326  0.60724  Biso   1.000  Hf
  Hf14     1.0000 0.25030  0.75027  0.85424  Biso   1.000  Hf
  Hf15     1.0000 0.75029  0.75028  0.60724  Biso   1.000  Hf
  Hf16     1.0000 0.74726  0.00361  0.86059  Biso   1.000  Hf
  O25      1.0000 0.95880  0.62881  0.72871  Biso   1.000  O 
  O26      1.0000 0.03308  0.62487  0.97441  Biso   1.000  O 
  O27      1.0000 0.04142  0.88166  0.73863  Biso   1.000  O 
  O28      1.0000 0.96315  0.87429  0.98699  Biso   1.000  O 
  O29      1.0000 0.45916  0.61888  0.73863  Biso   1.000  O 
  O30      1.0000 0.53742  0.62626  0.98699  Biso   1.000  O 
  O31      1.0000 0.46750  0.87567  0.97442  Biso   1.000  O 
  O32      1.0000 0.54178  0.87173  0.72873  Biso   1.000  O 
  Ti1      1.0000 0.25031  0.25026  0.10725  Biso   1.000  Ti
