data_image0
_cell_length_a       9.91672
_cell_length_b       5.16998
_cell_length_c       9.96655
_cell_angle_alpha    90
_cell_angle_beta     90
_cell_angle_gamma    90

_symmetry_space_group_name_H-M    "P 1"
_symmetry_int_tables_number       1

loop_
  _symmetry_equiv_pos_as_xyz
  'x, y, z'

loop_
  _atom_site_label
  _atom_site_occupancy
  _atom_site_fract_x
  _atom_site_fract_y
  _atom_site_fract_z
  _atom_site_thermal_displace_type
  _atom_site_B_iso_or_equiv
  _atom_site_type_symbol
  Ti1      1.0000 0.13158  0.03747  0.12550  Biso   1.000  Ti
  Hf1      1.0000 0.13591  0.46298  0.37395  Biso   1.000  Hf
  Hf2      1.0000 0.36351  0.53195  0.12683  Biso   1.000  Hf
  Hf3      1.0000 0.36564  0.96398  0.37479  Biso   1.000  Hf
  O1       1.0000 0.03992  0.35990  0.18946  Biso   1.000  O 
  O2       1.0000 0.03784  0.13038  0.44637  Biso   1.000  O 
  O3       1.0000 0.46613  0.86510  0.19487  Biso   1.000  O 
  O4       1.0000 0.46552  0.63078  0.44504  Biso   1.000  O 
  O5       1.0000 0.26554  0.22130  0.24588  Biso   1.000  O 
  O6       1.0000 0.27366  0.26307  0.49873  Biso   1.000  O 
  O7       1.0000 0.22997  0.76118  0.50125  Biso   1.000  O 
  O8       1.0000 0.23102  0.73116  0.25105  Biso   1.000  O 
  Hf4      1.0000 0.13702  0.03237  0.62684  Biso   1.000  Hf
  Hf5      1.0000 0.13681  0.46465  0.87968  Biso   1.000  Hf
  Hf6      1.0000 0.36728  0.53344  0.62729  Biso   1.000  Hf
  Hf7      1.0000 0.36515  0.96702  0.87975  Biso   1.000  Hf
  O9       1.0000 0.03768  0.36501  0.69786  Biso   1.000  O 
  O10      1.0000 0.04079  0.12416  0.95168  Biso   1.000  O 
  O11      1.0000 0.46401  0.86907  0.69537  Biso   1.000  O 
  O12      1.0000 0.46234  0.62824  0.94384  Biso   1.000  O 
  O13      1.0000 0.27328  0.23622  0.75109  Biso   1.000  O 
  O14      1.0000 0.26845  0.26445  0.00196  Biso   1.000  O 
  O15      1.0000 0.22334  0.77376  0.00646  Biso   1.000  O 
  O16      1.0000 0.23007  0.73544  0.75328  Biso   1.000  O 
  Hf8      1.0000 0.63471  0.03326  0.12590  Biso   1.000  Hf
  Hf9      1.0000 0.63565  0.46672  0.37517  Biso   1.000  Hf
  Hf10     1.0000 0.86961  0.53100  0.12326  Biso   1.000  Hf
  Hf11     1.0000 0.86855  0.96755  0.37572  Biso   1.000  Hf
  O17      1.0000 0.53613  0.36849  0.19494  Biso   1.000  O 
  O18      1.0000 0.53875  0.12975  0.44237  Biso   1.000  O 
  O19      1.0000 0.97733  0.87102  0.18971  Biso   1.000  O 
  O20      1.0000 0.96490  0.62807  0.44090  Biso   1.000  O 
  O21      1.0000 0.77418  0.23340  0.24813  Biso   1.000  O 
  O22      1.0000 0.77296  0.26283  0.49882  Biso   1.000  O 
  O23      1.0000 0.73164  0.76398  0.49878  Biso   1.000  O 
  O24      1.0000 0.73634  0.73441  0.24800  Biso   1.000  O 
  Hf12     1.0000 0.63490  0.03074  0.62537  Biso   1.000  Hf
  Hf13     1.0000 0.63530  0.46649  0.87571  Biso   1.000  Hf
  Hf14     1.0000 0.86816  0.53037  0.62582  Biso   1.000  Hf
  Hf15     1.0000 0.86948  0.96707  0.87547  Biso   1.000  Hf
  O25      1.0000 0.53886  0.36877  0.69326  Biso   1.000  O 
  O26      1.0000 0.53884  0.12942  0.94465  Biso   1.000  O 
  O27      1.0000 0.96546  0.86722  0.69295  Biso   1.000  O 
  O28      1.0000 0.96361  0.62550  0.94020  Biso   1.000  O 
  O29      1.0000 0.77228  0.23354  0.74949  Biso   1.000  O 
  O30      1.0000 0.77372  0.26431  0.99917  Biso   1.000  O 
  O31      1.0000 0.73229  0.76361  0.99897  Biso   1.000  O 
  O32      1.0000 0.73114  0.73382  0.74905  Biso   1.000  O 
