data_image0
_cell_length_a       10.2458
_cell_length_b       5.17864
_cell_length_c       10.641
_cell_angle_alpha    90
_cell_angle_beta     80
_cell_angle_gamma    90

_symmetry_space_group_name_H-M    "P 1"
_symmetry_int_tables_number       1

loop_
  _symmetry_equiv_pos_as_xyz
  'x, y, z'

loop_
  _atom_site_label
  _atom_site_occupancy
  _atom_site_fract_x
  _atom_site_fract_y
  _atom_site_fract_z
  _atom_site_thermal_displace_type
  _atom_site_B_iso_or_equiv
  _atom_site_type_symbol
  Hf1      1.0000 0.13336  0.04477  0.14209  Biso   1.000  Hf
  Hf2      1.0000 0.14678  0.45487  0.39077  Biso   1.000  Hf
  Hf3      1.0000 0.34808  0.55214  0.08974  Biso   1.000  Hf
  Hf4      1.0000 0.35976  0.94537  0.34882  Biso   1.000  Hf
  O1       1.0000 0.02911  0.33397  0.07412  Biso   1.000  O 
  O2       1.0000 0.03498  0.17469  0.32482  Biso   1.000  O 
  O3       1.0000 0.45455  0.87711  0.14951  Biso   1.000  O 
  O4       1.0000 0.49522  0.71441  0.45977  Biso   1.000  O 
  O5       1.0000 0.26593  0.24114  0.23339  Biso   1.000  O 
  O6       1.0000 0.28865  0.23594  0.48389  Biso   1.000  O 
  O7       1.0000 0.21566  0.76812  0.00251  Biso   1.000  O 
  O8       1.0000 0.21297  0.74370  0.25122  Biso   1.000  O 
  Hf5      1.0000 0.15581  0.04267  0.64153  Biso   1.000  Hf
  Hf6      1.0000 0.15213  0.45754  0.88928  Biso   1.000  Hf
  Hf7      1.0000 0.37891  0.54990  0.60849  Biso   1.000  Hf
  Hf8      1.0000 0.37884  0.96140  0.85093  Biso   1.000  Hf
  O9       1.0000 0.05035  0.32790  0.57411  Biso   1.000  O 
  O10      1.0000 0.04959  0.17283  0.82085  Biso   1.000  O 
  O11      1.0000 0.48714  0.81859  0.68578  Biso   1.000  O 
  O12      1.0000 0.48391  0.66978  0.91697  Biso   1.000  O 
  O13      1.0000 0.29084  0.25177  0.73566  Biso   1.000  O 
  O14      1.0000 0.29085  0.25395  0.98148  Biso   1.000  O 
  O15      1.0000 0.23807  0.74725  0.50656  Biso   1.000  O 
  O16      1.0000 0.24161  0.74372  0.75527  Biso   1.000  O 
  Hf9      1.0000 0.63689  0.03637  0.14438  Biso   1.000  Hf
  Hf10     1.0000 0.66985  0.46689  0.41465  Biso   1.000  Hf
  Hf11     1.0000 0.85817  0.54183  0.10940  Biso   1.000  Hf
  Hf12     1.0000 0.87091  0.95740  0.35446  Biso   1.000  Hf
  O17      1.0000 0.52942  0.33264  0.06970  Biso   1.000  O 
  O18      1.0000 0.54559  0.09940  0.33148  Biso   1.000  O 
  O19      1.0000 0.96551  0.83094  0.17286  Biso   1.000  O 
  O20      1.0000 0.97605  0.66734  0.42443  Biso   1.000  O 
  O21      1.0000 0.77971  0.25837  0.24702  Biso   1.000  O 
  O22      1.0000 0.79497  0.23423  0.49826  Biso   1.000  O 
  O23      1.0000 0.72032  0.75245  0.01624  Biso   1.000  O 
  O24      1.0000 0.73416  0.74329  0.26620  Biso   1.000  O 
  Hf13     1.0000 0.65360  0.04195  0.65106  Biso   1.000  Hf
  Hf14     1.0000 0.65715  0.45810  0.89435  Biso   1.000  Hf
  Hf15     1.0000 0.88292  0.54383  0.60862  Biso   1.000  Hf
  Hf16     1.0000 0.88037  0.95786  0.85445  Biso   1.000  Hf
  O25      1.0000 0.54787  0.31622  0.57664  Biso   1.000  O 
  O26      1.0000 0.54960  0.17616  0.82508  Biso   1.000  O 
  O27      1.0000 0.98580  0.82943  0.67407  Biso   1.000  O 
  O28      1.0000 0.98296  0.67153  0.92153  Biso   1.000  O 
  O29      1.0000 0.79179  0.25933  0.74206  Biso   1.000  O 
  O30      1.0000 0.79465  0.24039  0.99013  Biso   1.000  O 
  O31      1.0000 0.74399  0.75401  0.51847  Biso   1.000  O 
  O32      1.0000 0.74498  0.74701  0.76346  Biso   1.000  O 
  Tl1      1.0000 0.46754  0.47766  0.28734  Biso   1.000  Tl
