data_image0
_cell_length_a       10.1484
_cell_length_b       10.2825
_cell_length_c       10.4644
_cell_angle_alpha    90
_cell_angle_beta     80
_cell_angle_gamma    90

_symmetry_space_group_name_H-M    "P 1"
_symmetry_int_tables_number       1

loop_
  _symmetry_equiv_pos_as_xyz
  'x, y, z'

loop_
  _atom_site_label
  _atom_site_occupancy
  _atom_site_fract_x
  _atom_site_fract_y
  _atom_site_fract_z
  _atom_site_thermal_displace_type
  _atom_site_B_iso_or_equiv
  _atom_site_type_symbol
  Tl1      1.0000 0.13465  0.01598  0.14467  Biso   1.000  Tl
  Hf1      1.0000 0.13663  0.22839  0.39640  Biso   1.000  Hf
  Hf2      1.0000 0.35841  0.26877  0.10417  Biso   1.000  Hf
  Hf3      1.0000 0.35730  0.47782  0.35347  Biso   1.000  Hf
  O1       1.0000 0.03587  0.18104  0.07757  Biso   1.000  O 
  O2       1.0000 0.02664  0.08220  0.34433  Biso   1.000  O 
  O3       1.0000 0.46341  0.41612  0.17106  Biso   1.000  O 
  O4       1.0000 0.46176  0.33189  0.42113  Biso   1.000  O 
  O5       1.0000 0.28119  0.13253  0.24653  Biso   1.000  O 
  O6       1.0000 0.27272  0.12082  0.49226  Biso   1.000  O 
  O7       1.0000 0.22451  0.38033  0.00845  Biso   1.000  O 
  O8       1.0000 0.21988  0.37104  0.25896  Biso   1.000  O 
  Hf4      1.0000 0.13526  0.02125  0.64614  Biso   1.000  Hf
  Hf5      1.0000 0.13388  0.22925  0.89590  Biso   1.000  Hf
  Hf6      1.0000 0.35666  0.27102  0.60452  Biso   1.000  Hf
  Hf7      1.0000 0.35603  0.47845  0.85524  Biso   1.000  Hf
  O9       1.0000 0.03233  0.17154  0.58385  Biso   1.000  O 
  O10      1.0000 0.03078  0.08051  0.83130  Biso   1.000  O 
  O11      1.0000 0.46105  0.41743  0.67131  Biso   1.000  O 
  O12      1.0000 0.46128  0.33382  0.92178  Biso   1.000  O 
  O13      1.0000 0.27158  0.12859  0.73918  Biso   1.000  O 
  O14      1.0000 0.27833  0.12708  0.98237  Biso   1.000  O 
  O15      1.0000 0.22030  0.37919  0.50981  Biso   1.000  O 
  O16      1.0000 0.21953  0.37174  0.75959  Biso   1.000  O 
  Hf8      1.0000 0.13786  0.52104  0.14481  Biso   1.000  Hf
  Hf9      1.0000 0.13646  0.72752  0.39629  Biso   1.000  Hf
  Hf10     1.0000 0.36200  0.77037  0.10411  Biso   1.000  Hf
  Hf11     1.0000 0.35780  0.97916  0.35426  Biso   1.000  Hf
  O17      1.0000 0.03498  0.66985  0.07965  Biso   1.000  O 
  O18      1.0000 0.03259  0.58162  0.32979  Biso   1.000  O 
  O19      1.0000 0.46487  0.91801  0.17043  Biso   1.000  O 
  O20      1.0000 0.46156  0.83179  0.42203  Biso   1.000  O 
  O21      1.0000 0.27490  0.62537  0.23943  Biso   1.000  O 
  O22      1.0000 0.27270  0.62070  0.49079  Biso   1.000  O 
  O23      1.0000 0.23130  0.87292  0.00257  Biso   1.000  O 
  O24      1.0000 0.22889  0.86265  0.26282  Biso   1.000  O 
  Hf12     1.0000 0.13515  0.52127  0.64666  Biso   1.000  Hf
  Hf13     1.0000 0.13410  0.72925  0.89630  Biso   1.000  Hf
  Hf14     1.0000 0.35647  0.77175  0.60456  Biso   1.000  Hf
  Hf15     1.0000 0.35638  0.97947  0.85409  Biso   1.000  Hf
  O25      1.0000 0.03134  0.66859  0.58150  Biso   1.000  O 
  O26      1.0000 0.02999  0.58107  0.83050  Biso   1.000  O 
  O27      1.0000 0.46135  0.91763  0.67087  Biso   1.000  O 
  O28      1.0000 0.46266  0.83334  0.92108  Biso   1.000  O 
  O29      1.0000 0.27148  0.62919  0.74100  Biso   1.000  O 
  O30      1.0000 0.27031  0.62029  0.99084  Biso   1.000  O 
  O31      1.0000 0.21973  0.87889  0.51066  Biso   1.000  O 
  O32      1.0000 0.21883  0.87142  0.75878  Biso   1.000  O 
  Hf16     1.0000 0.63888  0.02071  0.14652  Biso   1.000  Hf
  Hf17     1.0000 0.63580  0.22910  0.39652  Biso   1.000  Hf
  Hf18     1.0000 0.86007  0.27143  0.10397  Biso   1.000  Hf
  Hf19     1.0000 0.85827  0.47898  0.35434  Biso   1.000  Hf
  O33      1.0000 0.53537  0.16797  0.07949  Biso   1.000  O 
  O34      1.0000 0.53376  0.08129  0.33065  Biso   1.000  O 
  O35      1.0000 0.96089  0.42206  0.16943  Biso   1.000  O 
  O36      1.0000 0.96167  0.33290  0.42119  Biso   1.000  O 
  O37      1.0000 0.77402  0.13001  0.24198  Biso   1.000  O 
  O38      1.0000 0.77109  0.12203  0.49291  Biso   1.000  O 
  O39      1.0000 0.72318  0.37896  0.00919  Biso   1.000  O 
  O40      1.0000 0.72105  0.37142  0.26050  Biso   1.000  O 
  Hf20     1.0000 0.63541  0.02184  0.64706  Biso   1.000  Hf
  Hf21     1.0000 0.63367  0.22898  0.89744  Biso   1.000  Hf
  Hf22     1.0000 0.85701  0.27170  0.60488  Biso   1.000  Hf
  Hf23     1.0000 0.85540  0.47881  0.85446  Biso   1.000  Hf
  O41      1.0000 0.53052  0.16784  0.58039  Biso   1.000  O 
  O42      1.0000 0.53168  0.08225  0.82950  Biso   1.000  O 
  O43      1.0000 0.96021  0.41970  0.66994  Biso   1.000  O 
  O44      1.0000 0.95781  0.33199  0.91864  Biso   1.000  O 
  O45      1.0000 0.77268  0.12926  0.74168  Biso   1.000  O 
  O46      1.0000 0.77043  0.12071  0.99182  Biso   1.000  O 
  O47      1.0000 0.71991  0.37924  0.51012  Biso   1.000  O 
  O48      1.0000 0.71911  0.37115  0.75982  Biso   1.000  O 
  Hf24     1.0000 0.63701  0.51953  0.14599  Biso   1.000  Hf
  Hf25     1.0000 0.63464  0.72793  0.39631  Biso   1.000  Hf
  Hf26     1.0000 0.85767  0.76892  0.10383  Biso   1.000  Hf
  Hf27     1.0000 0.85489  0.97843  0.35736  Biso   1.000  Hf
  O49      1.0000 0.53522  0.66668  0.07856  Biso   1.000  O 
  O50      1.0000 0.53117  0.58167  0.32926  Biso   1.000  O 
  O51      1.0000 0.94670  0.91796  0.17347  Biso   1.000  O 
  O52      1.0000 0.96141  0.83037  0.42062  Biso   1.000  O 
  O53      1.0000 0.77277  0.62820  0.24081  Biso   1.000  O 
  O54      1.0000 0.77242  0.62120  0.49080  Biso   1.000  O 
  O55      1.0000 0.72325  0.87840  0.00904  Biso   1.000  O 
  O56      1.0000 0.71560  0.86971  0.26170  Biso   1.000  O 
  Hf28     1.0000 0.63467  0.52122  0.64622  Biso   1.000  Hf
  Hf29     1.0000 0.63392  0.72879  0.89593  Biso   1.000  Hf
  Hf30     1.0000 0.85722  0.77125  0.60457  Biso   1.000  Hf
  Hf31     1.0000 0.85566  0.97875  0.85559  Biso   1.000  Hf
  O57      1.0000 0.53025  0.66718  0.58019  Biso   1.000  O 
  O58      1.0000 0.52978  0.58254  0.82952  Biso   1.000  O 
  O59      1.0000 0.95987  0.91899  0.67062  Biso   1.000  O 
  O60      1.0000 0.95882  0.83100  0.92085  Biso   1.000  O 
  O61      1.0000 0.77138  0.62908  0.74036  Biso   1.000  O 
  O62      1.0000 0.76922  0.61968  0.99059  Biso   1.000  O 
  O63      1.0000 0.71961  0.87862  0.51100  Biso   1.000  O 
  O64      1.0000 0.71962  0.87121  0.76004  Biso   1.000  O 
