data_image0
_cell_length_a       9.97795
_cell_length_b       10.3753
_cell_length_c       10.0236
_cell_angle_alpha    90
_cell_angle_beta     90
_cell_angle_gamma    90

_symmetry_space_group_name_H-M    "P 1"
_symmetry_int_tables_number       1

loop_
  _symmetry_equiv_pos_as_xyz
  'x, y, z'

loop_
  _atom_site_label
  _atom_site_occupancy
  _atom_site_fract_x
  _atom_site_fract_y
  _atom_site_fract_z
  _atom_site_thermal_displace_type
  _atom_site_B_iso_or_equiv
  _atom_site_type_symbol
  Tl1      1.0000 0.12714  0.01475  0.12094  Biso   1.000  Tl
  Hf1      1.0000 0.13527  0.23288  0.37750  Biso   1.000  Hf
  Hf2      1.0000 0.36544  0.26657  0.12753  Biso   1.000  Hf
  Hf3      1.0000 0.36540  0.48332  0.37634  Biso   1.000  Hf
  O1       1.0000 0.03180  0.19269  0.20083  Biso   1.000  O 
  O2       1.0000 0.03576  0.06530  0.44510  Biso   1.000  O 
  O3       1.0000 0.46437  0.43366  0.19561  Biso   1.000  O 
  O4       1.0000 0.46355  0.31526  0.44442  Biso   1.000  O 
  O5       1.0000 0.27856  0.12520  0.25486  Biso   1.000  O 
  O6       1.0000 0.27043  0.13090  0.50193  Biso   1.000  O 
  O7       1.0000 0.22996  0.38237  0.50040  Biso   1.000  O 
  O8       1.0000 0.22819  0.36924  0.25054  Biso   1.000  O 
  Hf4      1.0000 0.13366  0.01678  0.62810  Biso   1.000  Hf
  Hf5      1.0000 0.13426  0.23503  0.87361  Biso   1.000  Hf
  Hf6      1.0000 0.36656  0.26608  0.62590  Biso   1.000  Hf
  Hf7      1.0000 0.36612  0.48291  0.87634  Biso   1.000  Hf
  O9       1.0000 0.03924  0.18868  0.68767  Biso   1.000  O 
  O10      1.0000 0.03598  0.06715  0.91867  Biso   1.000  O 
  O11      1.0000 0.46435  0.43368  0.69481  Biso   1.000  O 
  O12      1.0000 0.46469  0.31540  0.94380  Biso   1.000  O 
  O13      1.0000 0.27302  0.11838  0.74893  Biso   1.000  O 
  O14      1.0000 0.27557  0.13504  0.99481  Biso   1.000  O 
  O15      1.0000 0.23021  0.38278  0.00008  Biso   1.000  O 
  O16      1.0000 0.23038  0.36844  0.74921  Biso   1.000  O 
  Hf8      1.0000 0.13452  0.51602  0.12635  Biso   1.000  Hf
  Hf9      1.0000 0.13493  0.73358  0.37666  Biso   1.000  Hf
  Hf10     1.0000 0.36744  0.76465  0.12642  Biso   1.000  Hf
  Hf11     1.0000 0.36451  0.98325  0.37513  Biso   1.000  Hf
  O17      1.0000 0.03672  0.68462  0.19458  Biso   1.000  O 
  O18      1.0000 0.03601  0.56515  0.44557  Biso   1.000  O 
  O19      1.0000 0.46551  0.93408  0.19423  Biso   1.000  O 
  O20      1.0000 0.46505  0.81613  0.44702  Biso   1.000  O 
  O21      1.0000 0.27052  0.61487  0.24989  Biso   1.000  O 
  O22      1.0000 0.27079  0.63244  0.50031  Biso   1.000  O 
  O23      1.0000 0.22865  0.88280  0.50163  Biso   1.000  O 
  O24      1.0000 0.23883  0.85887  0.25560  Biso   1.000  O 
  Hf12     1.0000 0.13438  0.51662  0.62630  Biso   1.000  Hf
  Hf13     1.0000 0.13491  0.73303  0.87709  Biso   1.000  Hf
  Hf14     1.0000 0.36596  0.76683  0.62649  Biso   1.000  Hf
  Hf15     1.0000 0.36716  0.98319  0.87611  Biso   1.000  Hf
  O25      1.0000 0.03637  0.68417  0.69488  Biso   1.000  O 
  O26      1.0000 0.03587  0.56588  0.94483  Biso   1.000  O 
  O27      1.0000 0.46427  0.93383  0.69469  Biso   1.000  O 
  O28      1.0000 0.46567  0.81516  0.94415  Biso   1.000  O 
  O29      1.0000 0.27068  0.61754  0.75031  Biso   1.000  O 
  O30      1.0000 0.27122  0.63077  0.00028  Biso   1.000  O 
  O31      1.0000 0.23491  0.87620  0.99767  Biso   1.000  O 
  O32      1.0000 0.22943  0.86777  0.75011  Biso   1.000  O 
  Hf16     1.0000 0.63454  0.01556  0.12592  Biso   1.000  Hf
  Hf17     1.0000 0.63320  0.23307  0.37516  Biso   1.000  Hf
  Hf18     1.0000 0.86329  0.26671  0.12638  Biso   1.000  Hf
  Hf19     1.0000 0.86591  0.48370  0.37653  Biso   1.000  Hf
  O33      1.0000 0.53866  0.18530  0.19162  Biso   1.000  O 
  O34      1.0000 0.53572  0.06552  0.44418  Biso   1.000  O 
  O35      1.0000 0.96242  0.43609  0.19434  Biso   1.000  O 
  O36      1.0000 0.96385  0.31711  0.44488  Biso   1.000  O 
  O37      1.0000 0.76883  0.11730  0.25092  Biso   1.000  O 
  O38      1.0000 0.76941  0.13313  0.49983  Biso   1.000  O 
  O39      1.0000 0.72920  0.38247  0.49983  Biso   1.000  O 
  O40      1.0000 0.72910  0.36809  0.25046  Biso   1.000  O 
  Hf20     1.0000 0.63316  0.01625  0.62534  Biso   1.000  Hf
  Hf21     1.0000 0.63476  0.23234  0.87590  Biso   1.000  Hf
  Hf22     1.0000 0.86570  0.26673  0.62488  Biso   1.000  Hf
  Hf23     1.0000 0.86609  0.48274  0.87648  Biso   1.000  Hf
  O41      1.0000 0.53683  0.18420  0.69425  Biso   1.000  O 
  O42      1.0000 0.53877  0.06422  0.94273  Biso   1.000  O 
  O43      1.0000 0.96437  0.43446  0.69567  Biso   1.000  O 
  O44      1.0000 0.96454  0.31623  0.94603  Biso   1.000  O 
  O45      1.0000 0.77072  0.11729  0.74861  Biso   1.000  O 
  O46      1.0000 0.77290  0.13062  0.99957  Biso   1.000  O 
  O47      1.0000 0.72870  0.38145  0.99968  Biso   1.000  O 
  O48      1.0000 0.73002  0.36711  0.75003  Biso   1.000  O 
  Hf24     1.0000 0.63393  0.51581  0.12668  Biso   1.000  Hf
  Hf25     1.0000 0.63349  0.73340  0.37704  Biso   1.000  Hf
  Hf26     1.0000 0.86478  0.76474  0.12596  Biso   1.000  Hf
  Hf27     1.0000 0.86536  0.98372  0.37828  Biso   1.000  Hf
  O49      1.0000 0.53707  0.68280  0.19617  Biso   1.000  O 
  O50      1.0000 0.53578  0.56531  0.44527  Biso   1.000  O 
  O51      1.0000 0.95149  0.93203  0.19750  Biso   1.000  O 
  O52      1.0000 0.96381  0.81471  0.44477  Biso   1.000  O 
  O53      1.0000 0.77064  0.61710  0.24993  Biso   1.000  O 
  O54      1.0000 0.77007  0.63202  0.49978  Biso   1.000  O 
  O55      1.0000 0.72935  0.88198  0.50037  Biso   1.000  O 
  O56      1.0000 0.72720  0.86648  0.25062  Biso   1.000  O 
  Hf28     1.0000 0.63386  0.51585  0.62631  Biso   1.000  Hf
  Hf29     1.0000 0.63441  0.73244  0.87580  Biso   1.000  Hf
  Hf30     1.0000 0.86617  0.76530  0.62542  Biso   1.000  Hf
  Hf31     1.0000 0.86415  0.98138  0.87349  Biso   1.000  Hf
  O57      1.0000 0.53584  0.68318  0.69499  Biso   1.000  O 
  O58      1.0000 0.53570  0.56529  0.94583  Biso   1.000  O 
  O59      1.0000 0.96153  0.93380  0.69017  Biso   1.000  O 
  O60      1.0000 0.96452  0.81591  0.94530  Biso   1.000  O 
  O61      1.0000 0.77071  0.61657  0.74968  Biso   1.000  O 
  O62      1.0000 0.77011  0.63030  0.99940  Biso   1.000  O 
  O63      1.0000 0.72884  0.88018  0.00010  Biso   1.000  O 
  O64      1.0000 0.72899  0.86640  0.74924  Biso   1.000  O 
