data_image0
_cell_length_a       10.2109
_cell_length_b       10.576
_cell_length_c       5.17224
_cell_angle_alpha    90
_cell_angle_beta     90
_cell_angle_gamma    90

_symmetry_space_group_name_H-M    "P 1"
_symmetry_int_tables_number       1

loop_
  _symmetry_equiv_pos_as_xyz
  'x, y, z'

loop_
  _atom_site_label
  _atom_site_occupancy
  _atom_site_fract_x
  _atom_site_fract_y
  _atom_site_fract_z
  _atom_site_thermal_displace_type
  _atom_site_B_iso_or_equiv
  _atom_site_type_symbol
  Hf1      1.0000 0.06853  0.95450  0.25185  Biso   1.000  Hf
  Hf2      1.0000 0.13853  0.32722  0.76885  Biso   1.000  Hf
  Hf3      1.0000 0.39374  0.25506  0.27316  Biso   1.000  Hf
  Hf4      1.0000 0.37705  0.04898  0.78984  Biso   1.000  Hf
  O1       1.0000 0.99959  0.17417  0.79005  Biso   1.000  O 
  O2       1.0000 0.96247  0.06142  0.32134  Biso   1.000  O 
  O3       1.0000 0.99708  0.41650  0.50969  Biso   1.000  O 
  O4       1.0000 0.98649  0.41461  0.99183  Biso   1.000  O 
  O5       1.0000 0.29474  0.20713  0.63372  Biso   1.000  O 
  O6       1.0000 0.27108  0.08480  0.13171  Biso   1.000  O 
  O7       1.0000 0.26371  0.34129  0.01993  Biso   1.000  O 
  O8       1.0000 0.24242  0.46781  0.57273  Biso   1.000  O 
  Hf5      1.0000 0.10360  0.56211  0.35516  Biso   1.000  Hf
  Hf6      1.0000 0.09000  0.78792  0.77196  Biso   1.000  Hf
  Hf7      1.0000 0.35169  0.74767  0.20738  Biso   1.000  Hf
  Hf8      1.0000 0.39114  0.52059  0.81817  Biso   1.000  Hf
  O9       1.0000 0.98919  0.67383  0.12518  Biso   1.000  O 
  O10      1.0000 0.99233  0.63313  0.65189  Biso   1.000  O 
  O11      1.0000 0.94701  0.84895  0.49435  Biso   1.000  O 
  O12      1.0000 0.96727  0.92452  0.95867  Biso   1.000  O 
  O13      1.0000 0.21088  0.71653  0.48775  Biso   1.000  O 
  O14      1.0000 0.23791  0.59586  0.04421  Biso   1.000  O 
  O15      1.0000 0.19800  0.84641  0.03142  Biso   1.000  O 
  O16      1.0000 0.16765  0.95782  0.58945  Biso   1.000  O 
  Hf9      1.0000 0.61078  0.01202  0.22784  Biso   1.000  Hf
  Hf10     1.0000 0.64232  0.25796  0.68240  Biso   1.000  Hf
  Hf11     1.0000 0.85751  0.20654  0.09777  Biso   1.000  Hf
  Hf12     1.0000 0.83656  0.00200  0.68050  Biso   1.000  Hf
  O17      1.0000 0.49964  0.14996  0.00272  Biso   1.000  O 
  O18      1.0000 0.50676  0.11575  0.49882  Biso   1.000  O 
  O19      1.0000 0.49280  0.37203  0.54993  Biso   1.000  O 
  O20      1.0000 0.49062  0.40376  0.07008  Biso   1.000  O 
  O21      1.0000 0.73741  0.15899  0.40167  Biso   1.000  O 
  O22      1.0000 0.76516  0.10715  0.91175  Biso   1.000  O 
  O23      1.0000 0.75136  0.35434  0.94300  Biso   1.000  O 
  O24      1.0000 0.73283  0.41313  0.48689  Biso   1.000  O 
  Hf13     1.0000 0.60252  0.51764  0.29231  Biso   1.000  Hf
  Hf14     1.0000 0.58556  0.78652  0.68428  Biso   1.000  Hf
  Hf15     1.0000 0.81407  0.75554  0.20680  Biso   1.000  Hf
  Hf16     1.0000 0.85481  0.50141  0.74943  Biso   1.000  Hf
  O25      1.0000 0.51416  0.67785  0.98603  Biso   1.000  O 
  O26      1.0000 0.46780  0.62745  0.49817  Biso   1.000  O 
  O27      1.0000 0.44958  0.87043  0.44736  Biso   1.000  O 
  O28      1.0000 0.47353  0.92749  0.95044  Biso   1.000  O 
  O29      1.0000 0.71698  0.66373  0.50722  Biso   1.000  O 
  O30      1.0000 0.74545  0.58137  0.04511  Biso   1.000  O 
  O31      1.0000 0.73272  0.85816  0.90771  Biso   1.000  O 
  O32      1.0000 0.69574  0.90690  0.42054  Biso   1.000  O 
  Tl1      1.0000 0.10489  0.23800  0.30030  Biso   1.000  Tl
