data_image0
_cell_length_a       10.0025
_cell_length_b       10.4161
_cell_length_c       10.1006
_cell_angle_alpha    90
_cell_angle_beta     90
_cell_angle_gamma    90

_symmetry_space_group_name_H-M    "P 1"
_symmetry_int_tables_number       1

loop_
  _symmetry_equiv_pos_as_xyz
  'x, y, z'

loop_
  _atom_site_label
  _atom_site_occupancy
  _atom_site_fract_x
  _atom_site_fract_y
  _atom_site_fract_z
  _atom_site_thermal_displace_type
  _atom_site_B_iso_or_equiv
  _atom_site_type_symbol
  Hf1      1.0000 0.13337  0.99939  0.11053  Biso   1.000  Hf
  Hf2      1.0000 0.11933  0.23621  0.39740  Biso   1.000  Hf
  Hf3      1.0000 0.35969  0.26673  0.12103  Biso   1.000  Hf
  Hf4      1.0000 0.35632  0.48846  0.37356  Biso   1.000  Hf
  O1       1.0000 0.95383  0.18670  0.27742  Biso   1.000  O 
  O2       1.0000 0.04139  0.05901  0.45297  Biso   1.000  O 
  O3       1.0000 0.44726  0.43837  0.19147  Biso   1.000  O 
  O4       1.0000 0.45254  0.32261  0.44545  Biso   1.000  O 
  O5       1.0000 0.24861  0.11485  0.24855  Biso   1.000  O 
  O6       1.0000 0.27009  0.13651  0.49900  Biso   1.000  O 
  O7       1.0000 0.22366  0.39032  0.49883  Biso   1.000  O 
  O8       1.0000 0.20848  0.36381  0.24923  Biso   1.000  O 
  Hf5      1.0000 0.13347  0.01249  0.62535  Biso   1.000  Hf
  Hf6      1.0000 0.12811  0.23230  0.84743  Biso   1.000  Hf
  Hf7      1.0000 0.36156  0.27335  0.62439  Biso   1.000  Hf
  Hf8      1.0000 0.35108  0.49262  0.87305  Biso   1.000  Hf
  O9       1.0000 0.04251  0.18657  0.66838  Biso   1.000  O 
  O10      1.0000 0.03723  0.06124  0.92451  Biso   1.000  O 
  O11      1.0000 0.45105  0.44148  0.69456  Biso   1.000  O 
  O12      1.0000 0.45167  0.32386  0.94249  Biso   1.000  O 
  O13      1.0000 0.26925  0.12036  0.74395  Biso   1.000  O 
  O14      1.0000 0.27454  0.12955  0.99173  Biso   1.000  O 
  O15      1.0000 0.21823  0.39827  0.99524  Biso   1.000  O 
  O16      1.0000 0.21838  0.37444  0.74252  Biso   1.000  O 
  Hf9      1.0000 0.12035  0.52376  0.12756  Biso   1.000  Hf
  Hf10     1.0000 0.11869  0.73987  0.37549  Biso   1.000  Hf
  Hf11     1.0000 0.35586  0.76164  0.12541  Biso   1.000  Hf
  Hf12     1.0000 0.34617  0.98914  0.37411  Biso   1.000  Hf
  O17      1.0000 0.02551  0.68873  0.19235  Biso   1.000  O 
  O18      1.0000 0.02341  0.57726  0.44022  Biso   1.000  O 
  O19      1.0000 0.44420  0.93575  0.19527  Biso   1.000  O 
  O20      1.0000 0.45051  0.82181  0.44326  Biso   1.000  O 
  O21      1.0000 0.25749  0.61854  0.24927  Biso   1.000  O 
  O22      1.0000 0.25619  0.63871  0.49729  Biso   1.000  O 
  O23      1.0000 0.21679  0.88567  0.49676  Biso   1.000  O 
  O24      1.0000 0.21781  0.86408  0.24522  Biso   1.000  O 
  Hf13     1.0000 0.11796  0.52285  0.61836  Biso   1.000  Hf
  Hf14     1.0000 0.11227  0.73787  0.87028  Biso   1.000  Hf
  Hf15     1.0000 0.35349  0.76963  0.62255  Biso   1.000  Hf
  Hf16     1.0000 0.35043  0.98612  0.87107  Biso   1.000  Hf
  O25      1.0000 0.02332  0.69628  0.68858  Biso   1.000  O 
  O26      1.0000 0.01450  0.56980  0.94592  Biso   1.000  O 
  O27      1.0000 0.45096  0.93682  0.69461  Biso   1.000  O 
  O28      1.0000 0.44991  0.82523  0.95190  Biso   1.000  O 
  O29      1.0000 0.25174  0.62120  0.74773  Biso   1.000  O 
  O30      1.0000 0.24704  0.64156  0.99867  Biso   1.000  O 
  O31      1.0000 0.21299  0.88240  0.99284  Biso   1.000  O 
  O32      1.0000 0.21735  0.86861  0.74758  Biso   1.000  O 
  Hf17     1.0000 0.62546  0.00927  0.12175  Biso   1.000  Hf
  Hf18     1.0000 0.62011  0.23376  0.39394  Biso   1.000  Hf
  Hf19     1.0000 0.80581  0.26528  0.15648  Biso   1.000  Hf
  Hf20     1.0000 0.85324  0.48899  0.38621  Biso   1.000  Hf
  O33      1.0000 0.52438  0.18632  0.19242  Biso   1.000  O 
  O34      1.0000 0.52580  0.07007  0.45315  Biso   1.000  O 
  O35      1.0000 0.94007  0.44114  0.20557  Biso   1.000  O 
  O36      1.0000 0.96470  0.33728  0.47108  Biso   1.000  O 
  O37      1.0000 0.73061  0.10959  0.26283  Biso   1.000  O 
  O38      1.0000 0.76986  0.14277  0.50726  Biso   1.000  O 
  O39      1.0000 0.71917  0.38516  0.51037  Biso   1.000  O 
  O40      1.0000 0.69577  0.38163  0.26948  Biso   1.000  O 
  Hf21     1.0000 0.63536  0.02193  0.62713  Biso   1.000  Hf
  Hf22     1.0000 0.62264  0.24142  0.87646  Biso   1.000  Hf
  Hf23     1.0000 0.86305  0.28158  0.64362  Biso   1.000  Hf
  Hf24     1.0000 0.84715  0.49054  0.87233  Biso   1.000  Hf
  O41      1.0000 0.53174  0.19147  0.69190  Biso   1.000  O 
  O42      1.0000 0.53183  0.07172  0.93789  Biso   1.000  O 
  O43      1.0000 0.93803  0.46597  0.68067  Biso   1.000  O 
  O44      1.0000 0.93951  0.31148  0.85417  Biso   1.000  O 
  O45      1.0000 0.76332  0.12459  0.75691  Biso   1.000  O 
  O46      1.0000 0.77078  0.13353  0.01043  Biso   1.000  O 
  O47      1.0000 0.72869  0.38278  0.00825  Biso   1.000  O 
  O48      1.0000 0.70686  0.38123  0.75539  Biso   1.000  O 
  Hf25     1.0000 0.62211  0.52376  0.13000  Biso   1.000  Hf
  Hf26     1.0000 0.62356  0.74215  0.37773  Biso   1.000  Hf
  Hf27     1.0000 0.85374  0.76848  0.12709  Biso   1.000  Hf
  Hf28     1.0000 0.85846  0.00130  0.36690  Biso   1.000  Hf
  O49      1.0000 0.52464  0.68654  0.19887  Biso   1.000  O 
  O50      1.0000 0.52160  0.57256  0.44675  Biso   1.000  O 
  O51      1.0000 0.95316  0.94541  0.18448  Biso   1.000  O 
  O52      1.0000 0.94834  0.82396  0.43931  Biso   1.000  O 
  O53      1.0000 0.75871  0.62390  0.25455  Biso   1.000  O 
  O54      1.0000 0.75464  0.64011  0.50279  Biso   1.000  O 
  O55      1.0000 0.71676  0.89336  0.49749  Biso   1.000  O 
  O56      1.0000 0.71869  0.86962  0.24704  Biso   1.000  O 
  Hf29     1.0000 0.62103  0.52364  0.62781  Biso   1.000  Hf
  Hf30     1.0000 0.61707  0.74194  0.87628  Biso   1.000  Hf
  Hf31     1.0000 0.85146  0.77653  0.62259  Biso   1.000  Hf
  Hf32     1.0000 0.84502  0.98932  0.87600  Biso   1.000  Hf
  O57      1.0000 0.51895  0.68881  0.69854  Biso   1.000  O 
  O58      1.0000 0.51534  0.57730  0.94881  Biso   1.000  O 
  O59      1.0000 0.94635  0.94003  0.69691  Biso   1.000  O 
  O60      1.0000 0.94444  0.82012  0.94550  Biso   1.000  O 
  O61      1.0000 0.75418  0.62811  0.75354  Biso   1.000  O 
  O62      1.0000 0.76067  0.63344  0.00424  Biso   1.000  O 
  O63      1.0000 0.70890  0.89126  0.99908  Biso   1.000  O 
  O64      1.0000 0.71377  0.87403  0.74900  Biso   1.000  O 
  Tl1      1.0000 0.05683  0.25338  0.09227  Biso   1.000  Tl
