data_image0
_cell_length_a       5.08799
_cell_length_b       10.2967
_cell_length_c       10.4824
_cell_angle_alpha    90
_cell_angle_beta     80
_cell_angle_gamma    90

_symmetry_space_group_name_H-M    "P 1"
_symmetry_int_tables_number       1

loop_
  _symmetry_equiv_pos_as_xyz
  'x, y, z'

loop_
  _atom_site_label
  _atom_site_occupancy
  _atom_site_fract_x
  _atom_site_fract_y
  _atom_site_fract_z
  _atom_site_thermal_displace_type
  _atom_site_B_iso_or_equiv
  _atom_site_type_symbol
  Tl1      1.0000 0.27039  0.01592  0.14507  Biso   1.000  Tl
  Hf1      1.0000 0.27179  0.22920  0.39697  Biso   1.000  Hf
  Hf2      1.0000 0.71535  0.26905  0.10383  Biso   1.000  Hf
  Hf3      1.0000 0.71317  0.47789  0.35342  Biso   1.000  Hf
  O1       1.0000 0.07214  0.18087  0.07703  Biso   1.000  O 
  O2       1.0000 0.05331  0.08163  0.34602  Biso   1.000  O 
  O3       1.0000 0.92157  0.41922  0.17008  Biso   1.000  O 
  O4       1.0000 0.92191  0.33291  0.42172  Biso   1.000  O 
  O5       1.0000 0.55929  0.13331  0.24765  Biso   1.000  O 
  O6       1.0000 0.53979  0.12144  0.49400  Biso   1.000  O 
  O7       1.0000 0.44874  0.38035  0.00808  Biso   1.000  O 
  O8       1.0000 0.43775  0.37136  0.25968  Biso   1.000  O 
  Hf4      1.0000 0.26976  0.02099  0.64676  Biso   1.000  Hf
  Hf5      1.0000 0.26661  0.22926  0.89617  Biso   1.000  Hf
  Hf6      1.0000 0.71116  0.27098  0.60475  Biso   1.000  Hf
  Hf7      1.0000 0.70982  0.47826  0.85479  Biso   1.000  Hf
  O9       1.0000 0.06050  0.17008  0.58372  Biso   1.000  O 
  O10      1.0000 0.06180  0.08139  0.82994  Biso   1.000  O 
  O11      1.0000 0.92068  0.41763  0.67071  Biso   1.000  O 
  O12      1.0000 0.91847  0.33394  0.91963  Biso   1.000  O 
  O13      1.0000 0.54273  0.12843  0.73955  Biso   1.000  O 
  O14      1.0000 0.55331  0.12616  0.98284  Biso   1.000  O 
  O15      1.0000 0.43853  0.37899  0.51000  Biso   1.000  O 
  O16      1.0000 0.43818  0.37153  0.75924  Biso   1.000  O 
  Hf8      1.0000 0.27360  0.51941  0.14472  Biso   1.000  Hf
  Hf9      1.0000 0.26797  0.72612  0.39661  Biso   1.000  Hf
  Hf10     1.0000 0.71885  0.76799  0.10385  Biso   1.000  Hf
  Hf11     1.0000 0.70643  0.97822  0.35728  Biso   1.000  Hf
  O17      1.0000 0.07056  0.66768  0.07819  Biso   1.000  O 
  O18      1.0000 0.06051  0.58148  0.32886  Biso   1.000  O 
  O19      1.0000 0.89780  0.91682  0.17441  Biso   1.000  O 
  O20      1.0000 0.92097  0.83040  0.42217  Biso   1.000  O 
  O21      1.0000 0.54549  0.62458  0.23957  Biso   1.000  O 
  O22      1.0000 0.54236  0.62038  0.49073  Biso   1.000  O 
  O23      1.0000 0.46303  0.87238  0.00194  Biso   1.000  O 
  O24      1.0000 0.44522  0.86133  0.26432  Biso   1.000  O 
  Hf12     1.0000 0.26828  0.52092  0.64658  Biso   1.000  Hf
  Hf13     1.0000 0.26753  0.72884  0.89575  Biso   1.000  Hf
  Hf14     1.0000 0.71158  0.77114  0.60454  Biso   1.000  Hf
  Hf15     1.0000 0.71084  0.97894  0.85466  Biso   1.000  Hf
  O25      1.0000 0.05835  0.66664  0.58128  Biso   1.000  O 
  O26      1.0000 0.05708  0.58202  0.82934  Biso   1.000  O 
  O27      1.0000 0.92039  0.91730  0.67100  Biso   1.000  O 
  O28      1.0000 0.92403  0.83320  0.92157  Biso   1.000  O 
  O29      1.0000 0.54059  0.62881  0.74034  Biso   1.000  O 
  O30      1.0000 0.53657  0.61856  0.99023  Biso   1.000  O 
  O31      1.0000 0.43718  0.87810  0.51152  Biso   1.000  O 
  O32      1.0000 0.43772  0.87117  0.75862  Biso   1.000  O 
