data_image0
_cell_length_a       10.1748
_cell_length_b       10.3198
_cell_length_c       10.5286
_cell_angle_alpha    90
_cell_angle_beta     80
_cell_angle_gamma    90

_symmetry_space_group_name_H-M    "P 1"
_symmetry_int_tables_number       1

loop_
  _symmetry_equiv_pos_as_xyz
  'x, y, z'

loop_
  _atom_site_label
  _atom_site_occupancy
  _atom_site_fract_x
  _atom_site_fract_y
  _atom_site_fract_z
  _atom_site_thermal_displace_type
  _atom_site_B_iso_or_equiv
  _atom_site_type_symbol
  Hf1      1.0000 0.13186  0.02017  0.14264  Biso   1.000  Hf
  Hf2      1.0000 0.14139  0.22696  0.39056  Biso   1.000  Hf
  Hf3      1.0000 0.34777  0.27308  0.09220  Biso   1.000  Hf
  Hf4      1.0000 0.36128  0.48460  0.35189  Biso   1.000  Hf
  O1       1.0000 0.03185  0.16793  0.07582  Biso   1.000  O 
  O2       1.0000 0.03133  0.08128  0.32877  Biso   1.000  O 
  O3       1.0000 0.45623  0.43610  0.15564  Biso   1.000  O 
  O4       1.0000 0.48943  0.37792  0.45634  Biso   1.000  O 
  O5       1.0000 0.26285  0.12147  0.23094  Biso   1.000  O 
  O6       1.0000 0.28461  0.11798  0.48417  Biso   1.000  O 
  O7       1.0000 0.21617  0.38269  0.00398  Biso   1.000  O 
  O8       1.0000 0.21323  0.37487  0.25406  Biso   1.000  O 
  Hf5      1.0000 0.14437  0.02116  0.64349  Biso   1.000  Hf
  Hf6      1.0000 0.13969  0.22899  0.89036  Biso   1.000  Hf
  Hf7      1.0000 0.36876  0.27959  0.60693  Biso   1.000  Hf
  Hf8      1.0000 0.36579  0.48041  0.85616  Biso   1.000  Hf
  O9       1.0000 0.04466  0.16837  0.57707  Biso   1.000  O 
  O10      1.0000 0.03801  0.08330  0.82505  Biso   1.000  O 
  O11      1.0000 0.47473  0.41121  0.68839  Biso   1.000  O 
  O12      1.0000 0.46943  0.33278  0.92182  Biso   1.000  O 
  O13      1.0000 0.27961  0.12968  0.73583  Biso   1.000  O 
  O14      1.0000 0.27686  0.12387  0.98228  Biso   1.000  O 
  O15      1.0000 0.23047  0.37640  0.50697  Biso   1.000  O 
  O16      1.0000 0.22938  0.37305  0.75728  Biso   1.000  O 
  Hf9      1.0000 0.13902  0.52344  0.14532  Biso   1.000  Hf
  Hf10     1.0000 0.13949  0.72840  0.39634  Biso   1.000  Hf
  Hf11     1.0000 0.35997  0.77313  0.10316  Biso   1.000  Hf
  Hf12     1.0000 0.36353  0.96471  0.35656  Biso   1.000  Hf
  O17      1.0000 0.03345  0.66853  0.07767  Biso   1.000  O 
  O18      1.0000 0.03626  0.58521  0.32718  Biso   1.000  O 
  O19      1.0000 0.46434  0.91784  0.17136  Biso   1.000  O 
  O20      1.0000 0.46148  0.81815  0.42146  Biso   1.000  O 
  O21      1.0000 0.27590  0.63102  0.24126  Biso   1.000  O 
  O22      1.0000 0.27607  0.62018  0.49056  Biso   1.000  O 
  O23      1.0000 0.22314  0.88043  0.00884  Biso   1.000  O 
  O24      1.0000 0.22300  0.86853  0.25961  Biso   1.000  O 
  Hf13     1.0000 0.14304  0.52200  0.64513  Biso   1.000  Hf
  Hf14     1.0000 0.14285  0.72915  0.89540  Biso   1.000  Hf
  Hf15     1.0000 0.36541  0.76872  0.60576  Biso   1.000  Hf
  Hf16     1.0000 0.36576  0.97975  0.85099  Biso   1.000  Hf
  O25      1.0000 0.03586  0.66564  0.57840  Biso   1.000  O 
  O26      1.0000 0.03938  0.58408  0.82728  Biso   1.000  O 
  O27      1.0000 0.46933  0.91695  0.66853  Biso   1.000  O 
  O28      1.0000 0.47054  0.83603  0.91933  Biso   1.000  O 
  O29      1.0000 0.28072  0.62745  0.74018  Biso   1.000  O 
  O30      1.0000 0.28172  0.62468  0.99049  Biso   1.000  O 
  O31      1.0000 0.22595  0.87559  0.51117  Biso   1.000  O 
  O32      1.0000 0.22865  0.87108  0.75924  Biso   1.000  O 
  Hf17     1.0000 0.64030  0.01620  0.14860  Biso   1.000  Hf
  Hf18     1.0000 0.66809  0.23586  0.41232  Biso   1.000  Hf
  Hf19     1.0000 0.85920  0.27329  0.10724  Biso   1.000  Hf
  Hf20     1.0000 0.86689  0.48095  0.35414  Biso   1.000  Hf
  O33      1.0000 0.52774  0.15806  0.07271  Biso   1.000  O 
  O34      1.0000 0.55113  0.04457  0.34500  Biso   1.000  O 
  O35      1.0000 0.96526  0.41983  0.16988  Biso   1.000  O 
  O36      1.0000 0.96774  0.33064  0.42127  Biso   1.000  O 
  O37      1.0000 0.77817  0.13030  0.24526  Biso   1.000  O 
  O38      1.0000 0.78937  0.11584  0.49864  Biso   1.000  O 
  O39      1.0000 0.72046  0.37789  0.01456  Biso   1.000  O 
  O40      1.0000 0.72825  0.37438  0.26527  Biso   1.000  O 
  Hf21     1.0000 0.64186  0.02130  0.64606  Biso   1.000  Hf
  Hf22     1.0000 0.64329  0.22726  0.89737  Biso   1.000  Hf
  Hf23     1.0000 0.87243  0.27085  0.61023  Biso   1.000  Hf
  Hf24     1.0000 0.86541  0.47936  0.85574  Biso   1.000  Hf
  O41      1.0000 0.54178  0.16939  0.57598  Biso   1.000  O 
  O42      1.0000 0.53745  0.08516  0.82414  Biso   1.000  O 
  O43      1.0000 0.97258  0.41698  0.67373  Biso   1.000  O 
  O44      1.0000 0.96736  0.33307  0.92084  Biso   1.000  O 
  O45      1.0000 0.78009  0.12927  0.74334  Biso   1.000  O 
  O46      1.0000 0.78065  0.12132  0.99273  Biso   1.000  O 
  O47      1.0000 0.73823  0.38047  0.51876  Biso   1.000  O 
  O48      1.0000 0.73099  0.37167  0.76425  Biso   1.000  O 
  Hf25     1.0000 0.63533  0.52485  0.14417  Biso   1.000  Hf
  Hf26     1.0000 0.64176  0.72508  0.39563  Biso   1.000  Hf
  Hf27     1.0000 0.85994  0.76934  0.10405  Biso   1.000  Hf
  Hf28     1.0000 0.86154  0.97552  0.35458  Biso   1.000  Hf
  O49      1.0000 0.53676  0.67555  0.07817  Biso   1.000  O 
  O50      1.0000 0.53439  0.58779  0.32219  Biso   1.000  O 
  O51      1.0000 0.96226  0.91483  0.17266  Biso   1.000  O 
  O52      1.0000 0.96678  0.83191  0.42228  Biso   1.000  O 
  O53      1.0000 0.77779  0.62754  0.24038  Biso   1.000  O 
  O54      1.0000 0.77805  0.62075  0.49008  Biso   1.000  O 
  O55      1.0000 0.72372  0.87931  0.01050  Biso   1.000  O 
  O56      1.0000 0.72586  0.86599  0.25856  Biso   1.000  O 
  Hf29     1.0000 0.64232  0.52196  0.64933  Biso   1.000  Hf
  Hf30     1.0000 0.64299  0.73107  0.89515  Biso   1.000  Hf
  Hf31     1.0000 0.86460  0.77243  0.60408  Biso   1.000  Hf
  Hf32     1.0000 0.86635  0.97902  0.85373  Biso   1.000  Hf
  O57      1.0000 0.53706  0.66329  0.57967  Biso   1.000  O 
  O58      1.0000 0.53869  0.58602  0.83073  Biso   1.000  O 
  O59      1.0000 0.96994  0.91744  0.67082  Biso   1.000  O 
  O60      1.0000 0.97091  0.83408  0.92062  Biso   1.000  O 
  O61      1.0000 0.77975  0.62951  0.73974  Biso   1.000  O 
  O62      1.0000 0.78068  0.62166  0.98889  Biso   1.000  O 
  O63      1.0000 0.72464  0.87668  0.50999  Biso   1.000  O 
  O64      1.0000 0.72867  0.87307  0.75958  Biso   1.000  O 
  Tl1      1.0000 0.45877  0.23421  0.29657  Biso   1.000  Tl
