data_image0
_cell_length_a       10.1566
_cell_length_b       5.25846
_cell_length_c       10.2597
_cell_angle_alpha    80
_cell_angle_beta     90
_cell_angle_gamma    90

_symmetry_space_group_name_H-M    "P 1"
_symmetry_int_tables_number       1

loop_
  _symmetry_equiv_pos_as_xyz
  'x, y, z'

loop_
  _atom_site_label
  _atom_site_occupancy
  _atom_site_fract_x
  _atom_site_fract_y
  _atom_site_fract_z
  _atom_site_thermal_displace_type
  _atom_site_B_iso_or_equiv
  _atom_site_type_symbol
  Hf1      1.0000 0.11907  0.94897  0.10926  Biso   1.000  Hf
  Hf2      1.0000 0.09550  0.43956  0.40456  Biso   1.000  Hf
  Hf3      1.0000 0.34004  0.47195  0.12917  Biso   1.000  Hf
  Hf4      1.0000 0.35477  0.93275  0.35900  Biso   1.000  Hf
  O1       1.0000 0.93430  0.36906  0.28604  Biso   1.000  O 
  O2       1.0000 0.03680  0.07084  0.45122  Biso   1.000  O 
  O3       1.0000 0.42570  0.81879  0.18505  Biso   1.000  O 
  O4       1.0000 0.44620  0.58092  0.44964  Biso   1.000  O 
  O5       1.0000 0.23784  0.14041  0.24040  Biso   1.000  O 
  O6       1.0000 0.25855  0.21421  0.49551  Biso   1.000  O 
  O7       1.0000 0.21695  0.71531  0.49302  Biso   1.000  O 
  O8       1.0000 0.19376  0.62938  0.24057  Biso   1.000  O 
  Hf5      1.0000 0.13459  0.92239  0.61704  Biso   1.000  Hf
  Hf6      1.0000 0.12046  0.28446  0.85146  Biso   1.000  Hf
  Hf7      1.0000 0.34600  0.42979  0.61811  Biso   1.000  Hf
  Hf8      1.0000 0.32897  0.79125  0.88235  Biso   1.000  Hf
  O9       1.0000 0.04400  0.26942  0.66334  Biso   1.000  O 
  O10      1.0000 0.02966  0.91735  0.93209  Biso   1.000  O 
  O11      1.0000 0.45730  0.68733  0.73067  Biso   1.000  O 
  O12      1.0000 0.42902  0.45370  0.97201  Biso   1.000  O 
  O13      1.0000 0.26114  0.08925  0.74821  Biso   1.000  O 
  O14      1.0000 0.25510  0.05777  0.00053  Biso   1.000  O 
  O15      1.0000 0.19061  0.56097  0.99505  Biso   1.000  O 
  O16      1.0000 0.21422  0.59889  0.74352  Biso   1.000  O 
  Hf9      1.0000 0.61860  0.05027  0.12667  Biso   1.000  Hf
  Hf10     1.0000 0.61249  0.40508  0.40891  Biso   1.000  Hf
  Hf11     1.0000 0.79378  0.57472  0.16340  Biso   1.000  Hf
  Hf12     1.0000 0.86773  0.97190  0.38138  Biso   1.000  Hf
  O17      1.0000 0.48453  0.27957  0.23565  Biso   1.000  O 
  O18      1.0000 0.52278  0.05467  0.47242  Biso   1.000  O 
  O19      1.0000 0.93708  0.88826  0.20855  Biso   1.000  O 
  O20      1.0000 0.94559  0.61733  0.47347  Biso   1.000  O 
  O21      1.0000 0.71812  0.21750  0.27030  Biso   1.000  O 
  O22      1.0000 0.76384  0.19972  0.51991  Biso   1.000  O 
  O23      1.0000 0.70662  0.68980  0.51814  Biso   1.000  O 
  O24      1.0000 0.67149  0.73562  0.27174  Biso   1.000  O 
  Hf13     1.0000 0.63715  0.91503  0.64172  Biso   1.000  Hf
  Hf14     1.0000 0.57291  0.33267  0.86377  Biso   1.000  Hf
  Hf15     1.0000 0.85690  0.44115  0.64956  Biso   1.000  Hf
  Hf16     1.0000 0.83853  0.78357  0.86943  Biso   1.000  Hf
  O25      1.0000 0.51433  0.22726  0.68848  Biso   1.000  O 
  O26      1.0000 0.50931  0.96843  0.94914  Biso   1.000  O 
  O27      1.0000 0.92757  0.80202  0.68195  Biso   1.000  O 
  O28      1.0000 0.93295  0.42772  0.85439  Biso   1.000  O 
  O29      1.0000 0.75091  0.08951  0.77412  Biso   1.000  O 
  O30      1.0000 0.70755  0.39871  0.02635  Biso   1.000  O 
  O31      1.0000 0.74458  0.89386  0.02270  Biso   1.000  O 
  O32      1.0000 0.70440  0.59159  0.76674  Biso   1.000  O 
  Tl1      1.0000 0.02497  0.42261  0.08186  Biso   1.000  Tl
