data_image0
_cell_length_a       10.1784
_cell_length_b       10.6692
_cell_length_c       5.15484
_cell_angle_alpha    90
_cell_angle_beta     80
_cell_angle_gamma    90

_symmetry_space_group_name_H-M    "P 1"
_symmetry_int_tables_number       1

loop_
  _symmetry_equiv_pos_as_xyz
  'x, y, z'

loop_
  _atom_site_label
  _atom_site_occupancy
  _atom_site_fract_x
  _atom_site_fract_y
  _atom_site_fract_z
  _atom_site_thermal_displace_type
  _atom_site_B_iso_or_equiv
  _atom_site_type_symbol
  Hf1      1.0000 0.12964  0.01302  0.26731  Biso   1.000  Hf
  Hf2      1.0000 0.11190  0.20100  0.79663  Biso   1.000  Hf
  Hf3      1.0000 0.35248  0.26985  0.27546  Biso   1.000  Hf
  Hf4      1.0000 0.36228  0.48499  0.78528  Biso   1.000  Hf
  O1       1.0000 0.00478  0.08004  0.60912  Biso   1.000  O 
  O2       1.0000 0.01130  0.12352  0.07363  Biso   1.000  O 
  O3       1.0000 0.48473  0.40415  0.45907  Biso   1.000  O 
  O4       1.0000 0.44952  0.32231  0.93772  Biso   1.000  O 
  O5       1.0000 0.25564  0.10421  0.50907  Biso   1.000  O 
  O6       1.0000 0.28040  0.12920  0.01467  Biso   1.000  O 
  O7       1.0000 0.27418  0.42326  0.09759  Biso   1.000  O 
  O8       1.0000 0.24904  0.34312  0.63332  Biso   1.000  O 
  Hf5      1.0000 0.14837  0.56516  0.24313  Biso   1.000  Hf
  Hf6      1.0000 0.14485  0.75328  0.73362  Biso   1.000  Hf
  Hf7      1.0000 0.41778  0.74001  0.24133  Biso   1.000  Hf
  Hf8      1.0000 0.37780  0.97347  0.72690  Biso   1.000  Hf
  O9       1.0000 0.05781  0.72066  0.39771  Biso   1.000  O 
  O10      1.0000 0.00190  0.61311  0.94854  Biso   1.000  O 
  O11      1.0000 0.50672  0.90560  0.39402  Biso   1.000  O 
  O12      1.0000 0.47183  0.82714  0.91943  Biso   1.000  O 
  O13      1.0000 0.27243  0.60890  0.50537  Biso   1.000  O 
  O14      1.0000 0.25297  0.65902  0.99161  Biso   1.000  O 
  O15      1.0000 0.21079  0.89938  0.95485  Biso   1.000  O 
  O16      1.0000 0.26742  0.85868  0.45925  Biso   1.000  O 
  Hf9      1.0000 0.60409  0.00746  0.15762  Biso   1.000  Hf
  Hf10     1.0000 0.58422  0.23418  0.66721  Biso   1.000  Hf
  Hf11     1.0000 0.83111  0.23369  0.12438  Biso   1.000  Hf
  Hf12     1.0000 0.86412  0.50003  0.79469  Biso   1.000  Hf
  O17      1.0000 0.50686  0.16567  0.35862  Biso   1.000  O 
  O18      1.0000 0.48985  0.06862  0.84934  Biso   1.000  O 
  O19      1.0000 0.97996  0.49846  0.44544  Biso   1.000  O 
  O20      1.0000 0.95611  0.33751  0.89825  Biso   1.000  O 
  O21      1.0000 0.73909  0.08450  0.36584  Biso   1.000  O 
  O22      1.0000 0.72148  0.13119  0.85913  Biso   1.000  O 
  O23      1.0000 0.70758  0.38903  0.97511  Biso   1.000  O 
  O24      1.0000 0.73105  0.33280  0.43544  Biso   1.000  O 
  Hf13     1.0000 0.64618  0.50076  0.27506  Biso   1.000  Hf
  Hf14     1.0000 0.63973  0.72297  0.75944  Biso   1.000  Hf
  Hf15     1.0000 0.91558  0.77050  0.16943  Biso   1.000  Hf
  Hf16     1.0000 0.86588  0.97397  0.64899  Biso   1.000  Hf
  O25      1.0000 0.52909  0.65787  0.47642  Biso   1.000  O 
  O26      1.0000 0.49268  0.58224  0.00773  Biso   1.000  O 
  O27      1.0000 0.98601  0.92661  0.30787  Biso   1.000  O 
  O28      1.0000 0.97082  0.84465  0.83703  Biso   1.000  O 
  O29      1.0000 0.73768  0.57056  0.56521  Biso   1.000  O 
  O30      1.0000 0.78486  0.63628  0.02975  Biso   1.000  O 
  O31      1.0000 0.72759  0.87818  0.97054  Biso   1.000  O 
  O32      1.0000 0.76827  0.82212  0.48507  Biso   1.000  O 
  Tl1      1.0000 0.04850  0.30114  0.35058  Biso   1.000  Tl
