data_image0
_cell_length_a       10.0574
_cell_length_b       10.2866
_cell_length_c       10.5227
_cell_angle_alpha    90
_cell_angle_beta     90
_cell_angle_gamma    90

_symmetry_space_group_name_H-M    "P 1"
_symmetry_int_tables_number       1

loop_
  _symmetry_equiv_pos_as_xyz
  'x, y, z'

loop_
  _atom_site_label
  _atom_site_occupancy
  _atom_site_fract_x
  _atom_site_fract_y
  _atom_site_fract_z
  _atom_site_thermal_displace_type
  _atom_site_B_iso_or_equiv
  _atom_site_type_symbol
  Hf1      1.0000 0.13267  0.01880  0.17231  Biso   1.000  Hf
  Hf2      1.0000 0.12808  0.22750  0.42808  Biso   1.000  Hf
  Hf3      1.0000 0.33627  0.26579  0.19059  Biso   1.000  Hf
  Hf4      1.0000 0.35558  0.47970  0.42243  Biso   1.000  Hf
  Hf5      1.0000 0.64050  0.01454  0.07489  Biso   1.000  Hf
  Hf6      1.0000 0.63027  0.22273  0.33204  Biso   1.000  Hf
  Hf7      1.0000 0.86004  0.27150  0.07482  Biso   1.000  Hf
  Hf8      1.0000 0.85501  0.47838  0.32740  Biso   1.000  Hf
  O1       1.0000 0.03272  0.16701  0.08536  Biso   1.000  O 
  O2       1.0000 0.02382  0.08606  0.33397  Biso   1.000  O 
  O3       1.0000 0.45435  0.45315  0.10459  Biso   1.000  O 
  O4       1.0000 0.45861  0.33310  0.33327  Biso   1.000  O 
  O5       1.0000 0.26115  0.12306  0.30348  Biso   1.000  O 
  O6       1.0000 0.27265  0.12002  0.04969  Biso   1.000  O 
  O7       1.0000 0.21041  0.37688  0.30369  Biso   1.000  O 
  O8       1.0000 0.22071  0.37618  0.05174  Biso   1.000  O 
  O9       1.0000 0.51014  0.12767  0.20253  Biso   1.000  O 
  O10      1.0000 0.52197  0.08981  0.43283  Biso   1.000  O 
  O11      1.0000 0.96169  0.41562  0.16770  Biso   1.000  O 
  O12      1.0000 0.96009  0.33626  0.41826  Biso   1.000  O 
  O13      1.0000 0.76804  0.12349  0.45342  Biso   1.000  O 
  O14      1.0000 0.76929  0.12815  0.20310  Biso   1.000  O 
  O15      1.0000 0.71699  0.37443  0.45370  Biso   1.000  O 
  O16      1.0000 0.71511  0.37777  0.20434  Biso   1.000  O 
  Hf9      1.0000 0.13082  0.02128  0.67397  Biso   1.000  Hf
  Hf10     1.0000 0.12736  0.22936  0.92404  Biso   1.000  Hf
  Hf11     1.0000 0.35331  0.27331  0.67379  Biso   1.000  Hf
  Hf12     1.0000 0.34674  0.48524  0.92548  Biso   1.000  Hf
  Hf13     1.0000 0.63145  0.01897  0.58023  Biso   1.000  Hf
  Hf14     1.0000 0.63940  0.22699  0.81297  Biso   1.000  Hf
  Hf15     1.0000 0.85430  0.27314  0.57611  Biso   1.000  Hf
  Hf16     1.0000 0.85501  0.48282  0.82688  Biso   1.000  Hf
  O17      1.0000 0.02314  0.16415  0.58485  Biso   1.000  O 
  O18      1.0000 0.02573  0.08365  0.83389  Biso   1.000  O 
  O19      1.0000 0.46149  0.41375  0.57875  Biso   1.000  O 
  O20      1.0000 0.46412  0.34626  0.82330  Biso   1.000  O 
  O21      1.0000 0.26836  0.12614  0.79731  Biso   1.000  O 
  O22      1.0000 0.26714  0.12520  0.54919  Biso   1.000  O 
  O23      1.0000 0.21559  0.37462  0.79924  Biso   1.000  O 
  O24      1.0000 0.21736  0.37566  0.54919  Biso   1.000  O 
  O25      1.0000 0.52522  0.16554  0.66648  Biso   1.000  O 
  O26      1.0000 0.52790  0.06368  0.89732  Biso   1.000  O 
  O27      1.0000 0.96083  0.41506  0.66662  Biso   1.000  O 
  O28      1.0000 0.95791  0.33475  0.91518  Biso   1.000  O 
  O29      1.0000 0.77356  0.12178  0.94683  Biso   1.000  O 
  O30      1.0000 0.77266  0.12344  0.69858  Biso   1.000  O 
  O31      1.0000 0.72492  0.39063  0.95055  Biso   1.000  O 
  O32      1.0000 0.71907  0.37550  0.70074  Biso   1.000  O 
  Hf17     1.0000 0.13421  0.52246  0.17208  Biso   1.000  Hf
  Hf18     1.0000 0.13198  0.72880  0.42128  Biso   1.000  Hf
  Hf19     1.0000 0.35855  0.77372  0.17297  Biso   1.000  Hf
  Hf20     1.0000 0.35551  0.97831  0.42653  Biso   1.000  Hf
  Hf21     1.0000 0.64073  0.53395  0.08077  Biso   1.000  Hf
  Hf22     1.0000 0.63429  0.73253  0.32993  Biso   1.000  Hf
  Hf23     1.0000 0.86240  0.77139  0.07877  Biso   1.000  Hf
  Hf24     1.0000 0.85597  0.98010  0.32881  Biso   1.000  Hf
  O33      1.0000 0.03224  0.66512  0.08274  Biso   1.000  O 
  O34      1.0000 0.02648  0.58578  0.33296  Biso   1.000  O 
  O35      1.0000 0.46789  0.91163  0.07894  Biso   1.000  O 
  O36      1.0000 0.46297  0.83846  0.33503  Biso   1.000  O 
  O37      1.0000 0.27116  0.62521  0.29434  Biso   1.000  O 
  O38      1.0000 0.27398  0.62868  0.04442  Biso   1.000  O 
  O39      1.0000 0.21952  0.87457  0.29682  Biso   1.000  O 
  O40      1.0000 0.22285  0.87516  0.04750  Biso   1.000  O 
  O41      1.0000 0.53665  0.67931  0.16549  Biso   1.000  O 
  O42      1.0000 0.52638  0.58656  0.41447  Biso   1.000  O 
  O43      1.0000 0.96296  0.91667  0.16717  Biso   1.000  O 
  O44      1.0000 0.96043  0.83481  0.41664  Biso   1.000  O 
  O45      1.0000 0.76980  0.62441  0.45425  Biso   1.000  O 
  O46      1.0000 0.77556  0.62914  0.20593  Biso   1.000  O 
  O47      1.0000 0.71806  0.87542  0.45639  Biso   1.000  O 
  O48      1.0000 0.72239  0.87679  0.20558  Biso   1.000  O 
  Hf25     1.0000 0.13113  0.52071  0.67216  Biso   1.000  Hf
  Hf26     1.0000 0.12650  0.73164  0.92204  Biso   1.000  Hf
  Hf27     1.0000 0.35251  0.76898  0.67210  Biso   1.000  Hf
  Hf28     1.0000 0.35003  0.97704  0.91996  Biso   1.000  Hf
  Hf29     1.0000 0.63135  0.52169  0.57557  Biso   1.000  Hf
  Hf30     1.0000 0.62780  0.72913  0.82652  Biso   1.000  Hf
  Hf31     1.0000 0.85550  0.77080  0.57870  Biso   1.000  Hf
  Hf32     1.0000 0.85355  0.97785  0.82863  Biso   1.000  Hf
  O49      1.0000 0.02637  0.66485  0.58299  Biso   1.000  O 
  O50      1.0000 0.02480  0.58680  0.83321  Biso   1.000  O 
  O51      1.0000 0.46054  0.91199  0.58599  Biso   1.000  O 
  O52      1.0000 0.45286  0.82726  0.83395  Biso   1.000  O 
  O53      1.0000 0.26601  0.62416  0.79567  Biso   1.000  O 
  O54      1.0000 0.26840  0.62466  0.54467  Biso   1.000  O 
  O55      1.0000 0.21356  0.87401  0.79560  Biso   1.000  O 
  O56      1.0000 0.21711  0.87539  0.54616  Biso   1.000  O 
  O57      1.0000 0.52399  0.66324  0.66541  Biso   1.000  O 
  O58      1.0000 0.52111  0.58595  0.91672  Biso   1.000  O 
  O59      1.0000 0.96074  0.91400  0.66670  Biso   1.000  O 
  O60      1.0000 0.95582  0.83647  0.91894  Biso   1.000  O 
  O61      1.0000 0.76397  0.63145  0.95315  Biso   1.000  O 
  O62      1.0000 0.76731  0.62544  0.70308  Biso   1.000  O 
  O63      1.0000 0.71251  0.87444  0.95595  Biso   1.000  O 
  O64      1.0000 0.71699  0.87403  0.70630  Biso   1.000  O 
  Tl1      1.0000 0.54234  0.26416  0.03398  Biso   1.000  Tl
