data_image0
_cell_length_a       10.0557
_cell_length_b       5.11872
_cell_length_c       10.3973
_cell_angle_alpha    90
_cell_angle_beta     80
_cell_angle_gamma    90

_symmetry_space_group_name_H-M    "P 1"
_symmetry_int_tables_number       1

loop_
  _symmetry_equiv_pos_as_xyz
  'x, y, z'

loop_
  _atom_site_label
  _atom_site_occupancy
  _atom_site_fract_x
  _atom_site_fract_y
  _atom_site_fract_z
  _atom_site_thermal_displace_type
  _atom_site_B_iso_or_equiv
  _atom_site_type_symbol
  V1       1.0000 0.13173  0.04948  0.14807  Biso   1.000  V 
  Hf1      1.0000 0.13823  0.45612  0.39260  Biso   1.000  Hf
  Hf2      1.0000 0.35494  0.54597  0.10591  Biso   1.000  Hf
  Hf3      1.0000 0.35805  0.95683  0.35183  Biso   1.000  Hf
  O1       1.0000 0.03904  0.32165  0.08496  Biso   1.000  O 
  O2       1.0000 0.03969  0.15317  0.32158  Biso   1.000  O 
  O3       1.0000 0.46474  0.83837  0.16859  Biso   1.000  O 
  O4       1.0000 0.46215  0.65940  0.41844  Biso   1.000  O 
  O5       1.0000 0.27094  0.25123  0.23715  Biso   1.000  O 
  O6       1.0000 0.27500  0.24183  0.48993  Biso   1.000  O 
  O7       1.0000 0.21700  0.77227  0.01502  Biso   1.000  O 
  O8       1.0000 0.22062  0.74319  0.25868  Biso   1.000  O 
  Hf4      1.0000 0.13541  0.04142  0.64612  Biso   1.000  Hf
  Hf5      1.0000 0.13571  0.45423  0.89848  Biso   1.000  Hf
  Hf6      1.0000 0.35829  0.54296  0.60460  Biso   1.000  Hf
  Hf7      1.0000 0.35361  0.95725  0.85859  Biso   1.000  Hf
  O9       1.0000 0.03153  0.33064  0.57672  Biso   1.000  O 
  O10      1.0000 0.03075  0.16161  0.83102  Biso   1.000  O 
  O11      1.0000 0.45878  0.84221  0.67000  Biso   1.000  O 
  O12      1.0000 0.45296  0.65188  0.91960  Biso   1.000  O 
  O13      1.0000 0.27303  0.25719  0.74210  Biso   1.000  O 
  O14      1.0000 0.26715  0.23867  0.99626  Biso   1.000  O 
  O15      1.0000 0.21998  0.75646  0.50912  Biso   1.000  O 
  O16      1.0000 0.21846  0.73928  0.76148  Biso   1.000  O 
  Hf8      1.0000 0.63721  0.04555  0.14569  Biso   1.000  Hf
  Hf9      1.0000 0.63777  0.45706  0.39576  Biso   1.000  Hf
  Hf10     1.0000 0.86525  0.54328  0.10487  Biso   1.000  Hf
  Hf11     1.0000 0.86252  0.95744  0.35286  Biso   1.000  Hf
  O17      1.0000 0.53468  0.34389  0.08255  Biso   1.000  O 
  O18      1.0000 0.53472  0.15890  0.33143  Biso   1.000  O 
  O19      1.0000 0.97702  0.84090  0.16596  Biso   1.000  O 
  O20      1.0000 0.96142  0.65480  0.41725  Biso   1.000  O 
  O21      1.0000 0.77766  0.25756  0.24065  Biso   1.000  O 
  O22      1.0000 0.77559  0.23818  0.49046  Biso   1.000  O 
  O23      1.0000 0.72483  0.75906  0.01001  Biso   1.000  O 
  O24      1.0000 0.72873  0.74203  0.25798  Biso   1.000  O 
  Hf12     1.0000 0.63416  0.03983  0.64732  Biso   1.000  Hf
  Hf13     1.0000 0.63190  0.45575  0.89853  Biso   1.000  Hf
  Hf14     1.0000 0.85732  0.53934  0.60473  Biso   1.000  Hf
  Hf15     1.0000 0.85710  0.95464  0.85587  Biso   1.000  Hf
  O25      1.0000 0.53476  0.34246  0.58223  Biso   1.000  O 
  O26      1.0000 0.53082  0.15398  0.83452  Biso   1.000  O 
  O27      1.0000 0.96152  0.83352  0.67081  Biso   1.000  O 
  O28      1.0000 0.95997  0.65538  0.92266  Biso   1.000  O 
  O29      1.0000 0.77211  0.25586  0.74234  Biso   1.000  O 
  O30      1.0000 0.77196  0.24161  0.99262  Biso   1.000  O 
  O31      1.0000 0.72119  0.75700  0.50968  Biso   1.000  O 
  O32      1.0000 0.71847  0.73944  0.76100  Biso   1.000  O 
