data_image0
_cell_length_a       9.93218
_cell_length_b       10.3529
_cell_length_c       9.97868
_cell_angle_alpha    90
_cell_angle_beta     90
_cell_angle_gamma    90

_symmetry_space_group_name_H-M    "P 1"
_symmetry_int_tables_number       1

loop_
  _symmetry_equiv_pos_as_xyz
  'x, y, z'

loop_
  _atom_site_label
  _atom_site_occupancy
  _atom_site_fract_x
  _atom_site_fract_y
  _atom_site_fract_z
  _atom_site_thermal_displace_type
  _atom_site_B_iso_or_equiv
  _atom_site_type_symbol
  V1       1.0000 0.12911  0.02307  0.12179  Biso   1.000  V 
  Hf1      1.0000 0.13411  0.23065  0.37323  Biso   1.000  Hf
  Hf2      1.0000 0.36535  0.26423  0.12529  Biso   1.000  Hf
  Hf3      1.0000 0.36702  0.48268  0.37617  Biso   1.000  Hf
  O1       1.0000 0.03852  0.17965  0.19013  Biso   1.000  O 
  O2       1.0000 0.03699  0.06584  0.44774  Biso   1.000  O 
  O3       1.0000 0.46334  0.43359  0.19316  Biso   1.000  O 
  O4       1.0000 0.46492  0.31550  0.44435  Biso   1.000  O 
  O5       1.0000 0.26293  0.11008  0.24326  Biso   1.000  O 
  O6       1.0000 0.27254  0.13198  0.49734  Biso   1.000  O 
  O7       1.0000 0.22960  0.38101  0.49954  Biso   1.000  O 
  O8       1.0000 0.23078  0.36510  0.24970  Biso   1.000  O 
  Hf4      1.0000 0.13619  0.01634  0.62700  Biso   1.000  Hf
  Hf5      1.0000 0.13618  0.23256  0.87839  Biso   1.000  Hf
  Hf6      1.0000 0.36659  0.26621  0.62585  Biso   1.000  Hf
  Hf7      1.0000 0.36723  0.48334  0.87612  Biso   1.000  Hf
  O9       1.0000 0.03583  0.18168  0.69965  Biso   1.000  O 
  O10      1.0000 0.03949  0.06331  0.95544  Biso   1.000  O 
  O11      1.0000 0.46394  0.43433  0.69354  Biso   1.000  O 
  O12      1.0000 0.46360  0.31373  0.94323  Biso   1.000  O 
  O13      1.0000 0.27256  0.11779  0.75048  Biso   1.000  O 
  O14      1.0000 0.26732  0.13086  0.00159  Biso   1.000  O 
  O15      1.0000 0.22861  0.38231  0.00018  Biso   1.000  O 
  O16      1.0000 0.22972  0.36710  0.75057  Biso   1.000  O 
  Hf8      1.0000 0.13452  0.51582  0.12659  Biso   1.000  Hf
  Hf9      1.0000 0.13568  0.73363  0.37652  Biso   1.000  Hf
  Hf10     1.0000 0.36292  0.76790  0.12776  Biso   1.000  Hf
  Hf11     1.0000 0.36352  0.98212  0.37380  Biso   1.000  Hf
  O17      1.0000 0.03694  0.68374  0.19409  Biso   1.000  O 
  O18      1.0000 0.03714  0.56462  0.44412  Biso   1.000  O 
  O19      1.0000 0.46647  0.93255  0.19579  Biso   1.000  O 
  O20      1.0000 0.46465  0.81573  0.44543  Biso   1.000  O 
  O21      1.0000 0.27081  0.61594  0.25035  Biso   1.000  O 
  O22      1.0000 0.27242  0.63156  0.50051  Biso   1.000  O 
  O23      1.0000 0.22968  0.88154  0.50239  Biso   1.000  O 
  O24      1.0000 0.23111  0.86548  0.25292  Biso   1.000  O 
  Hf12     1.0000 0.13537  0.51602  0.62598  Biso   1.000  Hf
  Hf13     1.0000 0.13518  0.73371  0.87786  Biso   1.000  Hf
  Hf14     1.0000 0.36685  0.76681  0.62742  Biso   1.000  Hf
  Hf15     1.0000 0.36314  0.98292  0.88053  Biso   1.000  Hf
  O25      1.0000 0.03779  0.68413  0.69414  Biso   1.000  O 
  O26      1.0000 0.03754  0.56462  0.94521  Biso   1.000  O 
  O27      1.0000 0.46344  0.93422  0.69656  Biso   1.000  O 
  O28      1.0000 0.46144  0.81502  0.94438  Biso   1.000  O 
  O29      1.0000 0.27165  0.61783  0.75082  Biso   1.000  O 
  O30      1.0000 0.26977  0.63309  0.00059  Biso   1.000  O 
  O31      1.0000 0.22174  0.88700  0.00765  Biso   1.000  O 
  O32      1.0000 0.22957  0.86802  0.75320  Biso   1.000  O 
  Hf16     1.0000 0.63470  0.01648  0.12545  Biso   1.000  Hf
  Hf17     1.0000 0.63469  0.23251  0.37649  Biso   1.000  Hf
  Hf18     1.0000 0.86644  0.26573  0.12511  Biso   1.000  Hf
  Hf19     1.0000 0.86653  0.48289  0.37602  Biso   1.000  Hf
  O33      1.0000 0.53522  0.18320  0.19581  Biso   1.000  O 
  O34      1.0000 0.53714  0.06466  0.44308  Biso   1.000  O 
  O35      1.0000 0.96529  0.43159  0.19492  Biso   1.000  O 
  O36      1.0000 0.96432  0.31351  0.44307  Biso   1.000  O 
  O37      1.0000 0.77287  0.11694  0.24835  Biso   1.000  O 
  O38      1.0000 0.77259  0.13106  0.49880  Biso   1.000  O 
  O39      1.0000 0.73043  0.38148  0.49999  Biso   1.000  O 
  O40      1.0000 0.72955  0.36680  0.24950  Biso   1.000  O 
  Hf20     1.0000 0.63370  0.01497  0.62504  Biso   1.000  Hf
  Hf21     1.0000 0.63492  0.23252  0.87513  Biso   1.000  Hf
  Hf22     1.0000 0.86724  0.26509  0.62601  Biso   1.000  Hf
  Hf23     1.0000 0.86709  0.48307  0.87546  Biso   1.000  Hf
  O41      1.0000 0.53807  0.18437  0.69269  Biso   1.000  O 
  O42      1.0000 0.53665  0.06543  0.94573  Biso   1.000  O 
  O43      1.0000 0.96439  0.43343  0.69319  Biso   1.000  O 
  O44      1.0000 0.96485  0.31441  0.94350  Biso   1.000  O 
  O45      1.0000 0.77113  0.11627  0.74914  Biso   1.000  O 
  O46      1.0000 0.77230  0.13175  0.99859  Biso   1.000  O 
  O47      1.0000 0.73097  0.38127  0.99967  Biso   1.000  O 
  O48      1.0000 0.73037  0.36698  0.74950  Biso   1.000  O 
  Hf24     1.0000 0.63367  0.51672  0.12648  Biso   1.000  Hf
  Hf25     1.0000 0.63502  0.73421  0.37441  Biso   1.000  Hf
  Hf26     1.0000 0.86944  0.76622  0.12311  Biso   1.000  Hf
  Hf27     1.0000 0.86836  0.98455  0.37523  Biso   1.000  Hf
  O49      1.0000 0.53655  0.68513  0.19380  Biso   1.000  O 
  O50      1.0000 0.53825  0.56560  0.44284  Biso   1.000  O 
  O51      1.0000 0.97939  0.93764  0.18738  Biso   1.000  O 
  O52      1.0000 0.96447  0.81608  0.44229  Biso   1.000  O 
  O53      1.0000 0.77202  0.61700  0.24914  Biso   1.000  O 
  O54      1.0000 0.77137  0.63247  0.49944  Biso   1.000  O 
  O55      1.0000 0.73097  0.88275  0.49818  Biso   1.000  O 
  O56      1.0000 0.73748  0.86793  0.24762  Biso   1.000  O 
  Hf28     1.0000 0.63505  0.51629  0.62557  Biso   1.000  Hf
  Hf29     1.0000 0.63407  0.73368  0.87621  Biso   1.000  Hf
  Hf30     1.0000 0.86715  0.76611  0.62569  Biso   1.000  Hf
  Hf31     1.0000 0.86775  0.98362  0.87580  Biso   1.000  Hf
  O57      1.0000 0.53751  0.68402  0.69428  Biso   1.000  O 
  O58      1.0000 0.53850  0.56450  0.94349  Biso   1.000  O 
  O59      1.0000 0.96508  0.93396  0.69472  Biso   1.000  O 
  O60      1.0000 0.96202  0.81360  0.93983  Biso   1.000  O 
  O61      1.0000 0.77165  0.61740  0.74984  Biso   1.000  O 
  O62      1.0000 0.77231  0.63236  0.99990  Biso   1.000  O 
  O63      1.0000 0.73047  0.88243  0.99855  Biso   1.000  O 
  O64      1.0000 0.73019  0.86710  0.74912  Biso   1.000  O 
