data_image0
_cell_length_a       10.1605
_cell_length_b       10.2426
_cell_length_c       10.547
_cell_angle_alpha    90
_cell_angle_beta     80
_cell_angle_gamma    90

_symmetry_space_group_name_H-M    "P 1"
_symmetry_int_tables_number       1

loop_
  _symmetry_equiv_pos_as_xyz
  'x, y, z'

loop_
  _atom_site_label
  _atom_site_occupancy
  _atom_site_fract_x
  _atom_site_fract_y
  _atom_site_fract_z
  _atom_site_thermal_displace_type
  _atom_site_B_iso_or_equiv
  _atom_site_type_symbol
  Hf1      1.0000 0.13657  0.02119  0.14492  Biso   1.000  Hf
  Hf2      1.0000 0.13100  0.22859  0.39760  Biso   1.000  Hf
  Hf3      1.0000 0.35873  0.26806  0.09158  Biso   1.000  Hf
  Hf4      1.0000 0.36059  0.49061  0.35734  Biso   1.000  Hf
  O1       1.0000 0.03278  0.16410  0.07440  Biso   1.000  O 
  O2       1.0000 0.03023  0.08600  0.32393  Biso   1.000  O 
  O3       1.0000 0.47688  0.39232  0.19013  Biso   1.000  O 
  O4       1.0000 0.47898  0.35841  0.43713  Biso   1.000  O 
  O5       1.0000 0.27646  0.12280  0.23392  Biso   1.000  O 
  O6       1.0000 0.28458  0.12981  0.47865  Biso   1.000  O 
  O7       1.0000 0.22091  0.38051  0.00708  Biso   1.000  O 
  O8       1.0000 0.23863  0.36398  0.26142  Biso   1.000  O 
  Hf5      1.0000 0.13771  0.02463  0.64551  Biso   1.000  Hf
  Hf6      1.0000 0.13607  0.23253  0.89297  Biso   1.000  Hf
  Hf7      1.0000 0.36152  0.27914  0.60603  Biso   1.000  Hf
  Hf8      1.0000 0.36109  0.48451  0.85434  Biso   1.000  Hf
  O9       1.0000 0.03393  0.16775  0.57845  Biso   1.000  O 
  O10      1.0000 0.03249  0.08786  0.82571  Biso   1.000  O 
  O11      1.0000 0.46830  0.41722  0.67949  Biso   1.000  O 
  O12      1.0000 0.47248  0.34795  0.92524  Biso   1.000  O 
  O13      1.0000 0.27433  0.13195  0.73603  Biso   1.000  O 
  O14      1.0000 0.27260  0.12545  0.98367  Biso   1.000  O 
  O15      1.0000 0.22368  0.38484  0.51377  Biso   1.000  O 
  O16      1.0000 0.22440  0.37617  0.76080  Biso   1.000  O 
  Hf9      1.0000 0.14037  0.52119  0.14637  Biso   1.000  Hf
  Hf10     1.0000 0.13577  0.73078  0.39699  Biso   1.000  Hf
  Hf11     1.0000 0.36196  0.77138  0.10337  Biso   1.000  Hf
  Hf12     1.0000 0.35973  0.97324  0.35212  Biso   1.000  Hf
  O17      1.0000 0.03469  0.66327  0.07751  Biso   1.000  O 
  O18      1.0000 0.03579  0.58604  0.32642  Biso   1.000  O 
  O19      1.0000 0.46963  0.91031  0.17637  Biso   1.000  O 
  O20      1.0000 0.46839  0.83863  0.42700  Biso   1.000  O 
  O21      1.0000 0.27695  0.62856  0.24000  Biso   1.000  O 
  O22      1.0000 0.27277  0.62951  0.49345  Biso   1.000  O 
  O23      1.0000 0.22500  0.87818  0.00971  Biso   1.000  O 
  O24      1.0000 0.22214  0.86860  0.25854  Biso   1.000  O 
  Hf13     1.0000 0.13793  0.52631  0.64734  Biso   1.000  Hf
  Hf14     1.0000 0.13895  0.73255  0.89669  Biso   1.000  Hf
  Hf15     1.0000 0.36208  0.77549  0.60505  Biso   1.000  Hf
  Hf16     1.0000 0.36260  0.98233  0.85259  Biso   1.000  Hf
  O25      1.0000 0.03082  0.66776  0.57720  Biso   1.000  O 
  O26      1.0000 0.03333  0.58945  0.82834  Biso   1.000  O 
  O27      1.0000 0.46839  0.91713  0.67487  Biso   1.000  O 
  O28      1.0000 0.46868  0.84269  0.92607  Biso   1.000  O 
  O29      1.0000 0.27603  0.63285  0.74106  Biso   1.000  O 
  O30      1.0000 0.27654  0.62720  0.99072  Biso   1.000  O 
  O31      1.0000 0.22367  0.88337  0.50997  Biso   1.000  O 
  O32      1.0000 0.22449  0.87537  0.76020  Biso   1.000  O 
  Hf17     1.0000 0.63912  0.02185  0.14488  Biso   1.000  Hf
  Hf18     1.0000 0.64158  0.23482  0.39953  Biso   1.000  Hf
  Hf19     1.0000 0.86239  0.27238  0.10564  Biso   1.000  Hf
  Hf20     1.0000 0.86189  0.48197  0.35572  Biso   1.000  Hf
  O33      1.0000 0.53036  0.15582  0.06964  Biso   1.000  O 
  O34      1.0000 0.52883  0.09172  0.32759  Biso   1.000  O 
  O35      1.0000 0.97078  0.41258  0.17636  Biso   1.000  O 
  O36      1.0000 0.96571  0.34192  0.42799  Biso   1.000  O 
  O37      1.0000 0.77397  0.12974  0.23931  Biso   1.000  O 
  O38      1.0000 0.77856  0.12439  0.49148  Biso   1.000  O 
  O39      1.0000 0.72452  0.37699  0.01215  Biso   1.000  O 
  O40      1.0000 0.72932  0.37465  0.26219  Biso   1.000  O 
  Hf21     1.0000 0.63794  0.02667  0.64575  Biso   1.000  Hf
  Hf22     1.0000 0.63960  0.23205  0.89620  Biso   1.000  Hf
  Hf23     1.0000 0.86089  0.27645  0.60721  Biso   1.000  Hf
  Hf24     1.0000 0.86084  0.48311  0.85587  Biso   1.000  Hf
  O41      1.0000 0.53293  0.16830  0.57556  Biso   1.000  O 
  O42      1.0000 0.53092  0.09344  0.82324  Biso   1.000  O 
  O43      1.0000 0.96681  0.41821  0.67634  Biso   1.000  O 
  O44      1.0000 0.96515  0.33951  0.92429  Biso   1.000  O 
  O45      1.0000 0.77543  0.13230  0.74107  Biso   1.000  O 
  O46      1.0000 0.77614  0.12538  0.99025  Biso   1.000  O 
  O47      1.0000 0.72617  0.38258  0.51377  Biso   1.000  O 
  O48      1.0000 0.72466  0.37608  0.76206  Biso   1.000  O 
  Hf25     1.0000 0.63753  0.51909  0.14848  Biso   1.000  Hf
  Hf26     1.0000 0.63943  0.73114  0.39649  Biso   1.000  Hf
  Hf27     1.0000 0.86190  0.77086  0.10496  Biso   1.000  Hf
  Hf28     1.0000 0.85964  0.98082  0.35435  Biso   1.000  Hf
  O49      1.0000 0.52973  0.65638  0.07332  Biso   1.000  O 
  O50      1.0000 0.53369  0.59419  0.32149  Biso   1.000  O 
  O51      1.0000 0.96576  0.91445  0.17367  Biso   1.000  O 
  O52      1.0000 0.96538  0.83819  0.42441  Biso   1.000  O 
  O53      1.0000 0.77693  0.62896  0.23958  Biso   1.000  O 
  O54      1.0000 0.77604  0.62530  0.49040  Biso   1.000  O 
  O55      1.0000 0.72433  0.87782  0.01172  Biso   1.000  O 
  O56      1.0000 0.72351  0.87321  0.26111  Biso   1.000  O 
  Hf29     1.0000 0.63859  0.52588  0.64729  Biso   1.000  Hf
  Hf30     1.0000 0.63866  0.73179  0.89688  Biso   1.000  Hf
  Hf31     1.0000 0.86036  0.77586  0.60542  Biso   1.000  Hf
  Hf32     1.0000 0.86164  0.98163  0.85491  Biso   1.000  Hf
  O57      1.0000 0.53215  0.66542  0.57496  Biso   1.000  O 
  O58      1.0000 0.53205  0.59433  0.82401  Biso   1.000  O 
  O59      1.0000 0.96752  0.91782  0.67463  Biso   1.000  O 
  O60      1.0000 0.96652  0.83854  0.92445  Biso   1.000  O 
  O61      1.0000 0.77583  0.63269  0.74084  Biso   1.000  O 
  O62      1.0000 0.77520  0.62569  0.99106  Biso   1.000  O 
  O63      1.0000 0.72353  0.88193  0.51122  Biso   1.000  O 
  O64      1.0000 0.72439  0.87586  0.76147  Biso   1.000  O 
  V1       1.0000 0.39147  0.24089  0.32268  Biso   1.000  V 
