data_image0
_cell_length_a       10.0175
_cell_length_b       10.4583
_cell_length_c       5.04216
_cell_angle_alpha    90
_cell_angle_beta     90
_cell_angle_gamma    90

_symmetry_space_group_name_H-M    "P 1"
_symmetry_int_tables_number       1

loop_
  _symmetry_equiv_pos_as_xyz
  'x, y, z'

loop_
  _atom_site_label
  _atom_site_occupancy
  _atom_site_fract_x
  _atom_site_fract_y
  _atom_site_fract_z
  _atom_site_thermal_displace_type
  _atom_site_B_iso_or_equiv
  _atom_site_type_symbol
  Hf1      1.0000 0.13175  0.01237  0.24881  Biso   1.000  Hf
  Hf2      1.0000 0.13494  0.22866  0.72497  Biso   1.000  Hf
  Hf3      1.0000 0.38249  0.27045  0.23998  Biso   1.000  Hf
  Hf4      1.0000 0.37386  0.48750  0.74309  Biso   1.000  Hf
  O1       1.0000 0.01118  0.16203  0.42086  Biso   1.000  O 
  O2       1.0000 0.03366  0.06232  0.89984  Biso   1.000  O 
  O3       1.0000 0.47608  0.43473  0.39510  Biso   1.000  O 
  O4       1.0000 0.47500  0.32242  0.89074  Biso   1.000  O 
  O5       1.0000 0.26809  0.10865  0.50525  Biso   1.000  O 
  O6       1.0000 0.25487  0.15150  0.02285  Biso   1.000  O 
  O7       1.0000 0.24079  0.39561  0.98818  Biso   1.000  O 
  O8       1.0000 0.23949  0.36557  0.48102  Biso   1.000  O 
  Hf5      1.0000 0.14278  0.52955  0.23960  Biso   1.000  Hf
  Hf6      1.0000 0.14027  0.73788  0.74459  Biso   1.000  Hf
  Hf7      1.0000 0.37607  0.76646  0.24659  Biso   1.000  Hf
  Hf8      1.0000 0.37738  0.98302  0.74589  Biso   1.000  Hf
  O9       1.0000 0.03694  0.68228  0.40253  Biso   1.000  O 
  O10      1.0000 0.03989  0.57138  0.89165  Biso   1.000  O 
  O11      1.0000 0.47491  0.93063  0.39855  Biso   1.000  O 
  O12      1.0000 0.47843  0.81962  0.89341  Biso   1.000  O 
  O13      1.0000 0.28073  0.62031  0.49288  Biso   1.000  O 
  O14      1.0000 0.27791  0.64314  0.98790  Biso   1.000  O 
  O15      1.0000 0.24317  0.88922  0.99357  Biso   1.000  O 
  O16      1.0000 0.23966  0.86398  0.49227  Biso   1.000  O 
  Hf9      1.0000 0.63368  0.01180  0.24995  Biso   1.000  Hf
  Hf10     1.0000 0.63664  0.23183  0.74976  Biso   1.000  Hf
  Hf11     1.0000 0.85570  0.26136  0.25117  Biso   1.000  Hf
  Hf12     1.0000 0.87621  0.48052  0.74953  Biso   1.000  Hf
  O17      1.0000 0.53619  0.17847  0.40486  Biso   1.000  O 
  O18      1.0000 0.52709  0.07325  0.90941  Biso   1.000  O 
  O19      1.0000 0.98272  0.41778  0.40222  Biso   1.000  O 
  O20      1.0000 0.97597  0.31770  0.91798  Biso   1.000  O 
  O21      1.0000 0.76331  0.10982  0.50056  Biso   1.000  O 
  O22      1.0000 0.76872  0.13111  0.99558  Biso   1.000  O 
  O23      1.0000 0.73590  0.38396  0.99736  Biso   1.000  O 
  O24      1.0000 0.73470  0.36669  0.50423  Biso   1.000  O 
  Hf13     1.0000 0.64113  0.51754  0.24845  Biso   1.000  Hf
  Hf14     1.0000 0.64279  0.73237  0.74919  Biso   1.000  Hf
  Hf15     1.0000 0.87226  0.76412  0.24905  Biso   1.000  Hf
  Hf16     1.0000 0.87752  0.98212  0.74712  Biso   1.000  Hf
  O25      1.0000 0.54403  0.68325  0.39177  Biso   1.000  O 
  O26      1.0000 0.53973  0.56977  0.89541  Biso   1.000  O 
  O27      1.0000 0.97374  0.92460  0.39825  Biso   1.000  O 
  O28      1.0000 0.97501  0.81734  0.90005  Biso   1.000  O 
  O29      1.0000 0.77904  0.61178  0.49632  Biso   1.000  O 
  O30      1.0000 0.77755  0.63247  0.99478  Biso   1.000  O 
  O31      1.0000 0.73961  0.88363  0.99452  Biso   1.000  O 
  O32      1.0000 0.73789  0.86241  0.49525  Biso   1.000  O 
  V1       1.0000 0.11390  0.28954  0.21034  Biso   1.000  V 
