data_image0
_cell_length_a       10.0798
_cell_length_b       10.2592
_cell_length_c       10.4206
_cell_angle_alpha    90
_cell_angle_beta     80
_cell_angle_gamma    90

_symmetry_space_group_name_H-M    "P 1"
_symmetry_int_tables_number       1

loop_
  _symmetry_equiv_pos_as_xyz
  'x, y, z'

loop_
  _atom_site_label
  _atom_site_occupancy
  _atom_site_fract_x
  _atom_site_fract_y
  _atom_site_fract_z
  _atom_site_thermal_displace_type
  _atom_site_B_iso_or_equiv
  _atom_site_type_symbol
  V1       1.0000 0.13116  0.02576  0.14819  Biso   1.000  V 
  Hf1      1.0000 0.13729  0.22768  0.39364  Biso   1.000  Hf
  Hf2      1.0000 0.35889  0.26905  0.10453  Biso   1.000  Hf
  Hf3      1.0000 0.35981  0.47870  0.35442  Biso   1.000  Hf
  O1       1.0000 0.03901  0.16153  0.08397  Biso   1.000  O 
  O2       1.0000 0.03862  0.07875  0.32100  Biso   1.000  O 
  O3       1.0000 0.46259  0.41989  0.16873  Biso   1.000  O 
  O4       1.0000 0.46158  0.32973  0.41958  Biso   1.000  O 
  O5       1.0000 0.27058  0.12480  0.23686  Biso   1.000  O 
  O6       1.0000 0.27414  0.12115  0.48978  Biso   1.000  O 
  O7       1.0000 0.22285  0.37908  0.00978  Biso   1.000  O 
  O8       1.0000 0.22268  0.36981  0.25953  Biso   1.000  O 
  Hf4      1.0000 0.13468  0.02095  0.64612  Biso   1.000  Hf
  Hf5      1.0000 0.13469  0.22622  0.89767  Biso   1.000  Hf
  Hf6      1.0000 0.35735  0.27142  0.60468  Biso   1.000  Hf
  Hf7      1.0000 0.35534  0.47839  0.85557  Biso   1.000  Hf
  O9       1.0000 0.03126  0.16605  0.57675  Biso   1.000  O 
  O10      1.0000 0.02972  0.08127  0.83005  Biso   1.000  O 
  O11      1.0000 0.45932  0.42063  0.66959  Biso   1.000  O 
  O12      1.0000 0.45633  0.32769  0.91948  Biso   1.000  O 
  O13      1.0000 0.27224  0.12871  0.74178  Biso   1.000  O 
  O14      1.0000 0.26722  0.11901  0.99556  Biso   1.000  O 
  O15      1.0000 0.21979  0.37869  0.50946  Biso   1.000  O 
  O16      1.0000 0.21845  0.36971  0.76058  Biso   1.000  O 
  Hf8      1.0000 0.13933  0.52139  0.14629  Biso   1.000  Hf
  Hf9      1.0000 0.13755  0.72924  0.39542  Biso   1.000  Hf
  Hf10     1.0000 0.35653  0.77550  0.10548  Biso   1.000  Hf
  Hf11     1.0000 0.35737  0.97830  0.35215  Biso   1.000  Hf
  O17      1.0000 0.03634  0.66926  0.08145  Biso   1.000  O 
  O18      1.0000 0.03481  0.57940  0.33142  Biso   1.000  O 
  O19      1.0000 0.46498  0.91930  0.16949  Biso   1.000  O 
  O20      1.0000 0.46207  0.83019  0.41866  Biso   1.000  O 
  O21      1.0000 0.27586  0.62986  0.24125  Biso   1.000  O 
  O22      1.0000 0.27472  0.62076  0.49126  Biso   1.000  O 
  O23      1.0000 0.21813  0.88539  0.01382  Biso   1.000  O 
  O24      1.0000 0.21957  0.87255  0.25881  Biso   1.000  O 
  Hf12     1.0000 0.13561  0.52138  0.64660  Biso   1.000  Hf
  Hf13     1.0000 0.13422  0.72971  0.89771  Biso   1.000  Hf
  Hf14     1.0000 0.35837  0.77161  0.60476  Biso   1.000  Hf
  Hf15     1.0000 0.35389  0.97894  0.85795  Biso   1.000  Hf
  O25      1.0000 0.03287  0.66935  0.58133  Biso   1.000  O 
  O26      1.0000 0.03187  0.57995  0.83247  Biso   1.000  O 
  O27      1.0000 0.45928  0.92039  0.67049  Biso   1.000  O 
  O28      1.0000 0.45517  0.82914  0.92060  Biso   1.000  O 
  O29      1.0000 0.27289  0.62926  0.74169  Biso   1.000  O 
  O30      1.0000 0.27066  0.62147  0.99221  Biso   1.000  O 
  O31      1.0000 0.22056  0.87899  0.50967  Biso   1.000  O 
  O32      1.0000 0.21856  0.87089  0.76089  Biso   1.000  O 
  Hf16     1.0000 0.63788  0.02183  0.14591  Biso   1.000  Hf
  Hf17     1.0000 0.63668  0.22786  0.39599  Biso   1.000  Hf
  Hf18     1.0000 0.86140  0.27046  0.10532  Biso   1.000  Hf
  Hf19     1.0000 0.85915  0.47846  0.35432  Biso   1.000  Hf
  O33      1.0000 0.53616  0.17068  0.08140  Biso   1.000  O 
  O34      1.0000 0.53339  0.08034  0.33048  Biso   1.000  O 
  O35      1.0000 0.96490  0.41776  0.16988  Biso   1.000  O 
  O36      1.0000 0.96113  0.32838  0.41845  Biso   1.000  O 
  O37      1.0000 0.77643  0.12846  0.24071  Biso   1.000  O 
  O38      1.0000 0.77492  0.11974  0.49013  Biso   1.000  O 
  O39      1.0000 0.72442  0.37916  0.00989  Biso   1.000  O 
  O40      1.0000 0.72241  0.37007  0.25912  Biso   1.000  O 
  Hf20     1.0000 0.63379  0.02040  0.64685  Biso   1.000  Hf
  Hf21     1.0000 0.63289  0.22832  0.89683  Biso   1.000  Hf
  Hf22     1.0000 0.85734  0.27069  0.60438  Biso   1.000  Hf
  Hf23     1.0000 0.85685  0.47783  0.85619  Biso   1.000  Hf
  O41      1.0000 0.53331  0.17042  0.58179  Biso   1.000  O 
  O42      1.0000 0.53035  0.07873  0.83324  Biso   1.000  O 
  O43      1.0000 0.96089  0.41767  0.67117  Biso   1.000  O 
  O44      1.0000 0.95966  0.32848  0.92338  Biso   1.000  O 
  O45      1.0000 0.77152  0.12880  0.74122  Biso   1.000  O 
  O46      1.0000 0.77104  0.12068  0.99183  Biso   1.000  O 
  O47      1.0000 0.72045  0.37884  0.51003  Biso   1.000  O 
  O48      1.0000 0.71878  0.37060  0.76067  Biso   1.000  O 
  Hf24     1.0000 0.63738  0.52255  0.14578  Biso   1.000  Hf
  Hf25     1.0000 0.63778  0.72939  0.39609  Biso   1.000  Hf
  Hf26     1.0000 0.86397  0.77287  0.10390  Biso   1.000  Hf
  Hf27     1.0000 0.86265  0.97907  0.35300  Biso   1.000  Hf
  O49      1.0000 0.53459  0.67126  0.08179  Biso   1.000  O 
  O50      1.0000 0.53563  0.57936  0.33196  Biso   1.000  O 
  O51      1.0000 0.97554  0.92244  0.16629  Biso   1.000  O 
  O52      1.0000 0.96196  0.83013  0.41936  Biso   1.000  O 
  O53      1.0000 0.77657  0.62972  0.24069  Biso   1.000  O 
  O54      1.0000 0.77460  0.62045  0.49143  Biso   1.000  O 
  O55      1.0000 0.72400  0.87962  0.00963  Biso   1.000  O 
  O56      1.0000 0.72842  0.87200  0.25838  Biso   1.000  O 
  Hf28     1.0000 0.63538  0.52114  0.64700  Biso   1.000  Hf
  Hf29     1.0000 0.63216  0.72839  0.89848  Biso   1.000  Hf
  Hf30     1.0000 0.85738  0.77068  0.60525  Biso   1.000  Hf
  Hf31     1.0000 0.85598  0.97840  0.85479  Biso   1.000  Hf
  O57      1.0000 0.53408  0.67075  0.58158  Biso   1.000  O 
  O58      1.0000 0.53133  0.57889  0.83262  Biso   1.000  O 
  O59      1.0000 0.96036  0.91905  0.67003  Biso   1.000  O 
  O60      1.0000 0.95827  0.82974  0.92010  Biso   1.000  O 
  O61      1.0000 0.77277  0.62850  0.74254  Biso   1.000  O 
  O62      1.0000 0.77142  0.62137  0.99261  Biso   1.000  O 
  O63      1.0000 0.72083  0.87901  0.50959  Biso   1.000  O 
  O64      1.0000 0.71824  0.87018  0.76059  Biso   1.000  O 
