data_image0
_cell_length_a       5.08486
_cell_length_b       10.0551
_cell_length_c       10.0429
_cell_angle_alpha    90
_cell_angle_beta     90
_cell_angle_gamma    90

_symmetry_space_group_name_H-M    "P 1"
_symmetry_int_tables_number       1

loop_
  _symmetry_equiv_pos_as_xyz
  'x, y, z'

loop_
  _atom_site_label
  _atom_site_occupancy
  _atom_site_fract_x
  _atom_site_fract_y
  _atom_site_fract_z
  _atom_site_thermal_displace_type
  _atom_site_B_iso_or_equiv
  _atom_site_type_symbol
  Hf1      1.0000 0.24982  0.98822  0.12488  Biso   1.000  Hf
  Hf2      1.0000 0.24984  0.25008  0.39243  Biso   1.000  Hf
  Hf3      1.0000 0.74982  0.25008  0.12488  Biso   1.000  Hf
  Hf4      1.0000 0.74865  0.00009  0.37265  Biso   1.000  Hf
  O1       1.0000 0.98512  0.12873  0.00583  Biso   1.000  O 
  O2       1.0000 0.03116  0.12522  0.25067  Biso   1.000  O 
  O3       1.0000 0.98512  0.37142  0.24393  Biso   1.000  O 
  O4       1.0000 0.03122  0.37493  0.99909  Biso   1.000  O 
  O5       1.0000 0.51452  0.12873  0.24392  Biso   1.000  O 
  O6       1.0000 0.46853  0.12522  0.99908  Biso   1.000  O 
  O7       1.0000 0.51452  0.37142  0.00582  Biso   1.000  O 
  O8       1.0000 0.46847  0.37492  0.25065  Biso   1.000  O 
  Hf5      1.0000 0.24985  0.00348  0.62488  Biso   1.000  Hf
  Hf6      1.0000 0.24985  0.25008  0.85732  Biso   1.000  Hf
  Hf7      1.0000 0.74985  0.25008  0.62488  Biso   1.000  Hf
  Hf8      1.0000 0.75104  0.00009  0.87710  Biso   1.000  Hf
  O9       1.0000 0.96417  0.12999  0.49979  Biso   1.000  O 
  O10      1.0000 0.02358  0.11215  0.75609  Biso   1.000  O 
  O11      1.0000 0.96418  0.37016  0.74997  Biso   1.000  O 
  O12      1.0000 0.02358  0.38801  0.49367  Biso   1.000  O 
  O13      1.0000 0.53552  0.12999  0.74997  Biso   1.000  O 
  O14      1.0000 0.47611  0.11215  0.49366  Biso   1.000  O 
  O15      1.0000 0.53551  0.37016  0.49977  Biso   1.000  O 
  O16      1.0000 0.47613  0.38801  0.75608  Biso   1.000  O 
  Hf9      1.0000 0.24983  0.51193  0.12488  Biso   1.000  Hf
  Hf10     1.0000 0.24983  0.75009  0.37988  Biso   1.000  Hf
  Hf11     1.0000 0.74983  0.75008  0.12487  Biso   1.000  Hf
  Hf12     1.0000 0.75104  0.50009  0.37266  Biso   1.000  Hf
  O17      1.0000 0.96560  0.62644  0.00610  Biso   1.000  O 
  O18      1.0000 0.03204  0.62357  0.25822  Biso   1.000  O 
  O19      1.0000 0.96562  0.87370  0.24366  Biso   1.000  O 
  O20      1.0000 0.03204  0.87658  0.99154  Biso   1.000  O 
  O21      1.0000 0.53408  0.62643  0.24364  Biso   1.000  O 
  O22      1.0000 0.46768  0.62357  0.99153  Biso   1.000  O 
  O23      1.0000 0.53404  0.87371  0.00610  Biso   1.000  O 
  O24      1.0000 0.46765  0.87658  0.25821  Biso   1.000  O 
  Hf13     1.0000 0.24985  0.49668  0.62487  Biso   1.000  Hf
  Hf14     1.0000 0.24986  0.75008  0.86988  Biso   1.000  Hf
  Hf15     1.0000 0.74985  0.75010  0.62488  Biso   1.000  Hf
  Hf16     1.0000 0.74866  0.50009  0.87709  Biso   1.000  Hf
  O25      1.0000 0.96064  0.63208  0.50264  Biso   1.000  O 
  O26      1.0000 0.03906  0.61488  0.75797  Biso   1.000  O 
  O27      1.0000 0.96066  0.86809  0.74712  Biso   1.000  O 
  O28      1.0000 0.03903  0.88528  0.49179  Biso   1.000  O 
  O29      1.0000 0.53904  0.63207  0.74710  Biso   1.000  O 
  O30      1.0000 0.46062  0.61487  0.49177  Biso   1.000  O 
  O31      1.0000 0.53901  0.86809  0.50263  Biso   1.000  O 
  O32      1.0000 0.46064  0.88528  0.75796  Biso   1.000  O 
  V1       1.0000 0.24982  0.25007  0.12487  Biso   1.000  V 
