data_image0
_cell_length_a       9.91666
_cell_length_b       5.19101
_cell_length_c       9.96877
_cell_angle_alpha    90
_cell_angle_beta     90
_cell_angle_gamma    90

_symmetry_space_group_name_H-M    "P 1"
_symmetry_int_tables_number       1

loop_
  _symmetry_equiv_pos_as_xyz
  'x, y, z'

loop_
  _atom_site_label
  _atom_site_occupancy
  _atom_site_fract_x
  _atom_site_fract_y
  _atom_site_fract_z
  _atom_site_thermal_displace_type
  _atom_site_B_iso_or_equiv
  _atom_site_type_symbol
  V1       1.0000 0.12221  0.05835  0.11508  Biso   1.000  V 
  Hf1      1.0000 0.13711  0.44465  0.37486  Biso   1.000  Hf
  Hf2      1.0000 0.36770  0.52013  0.12368  Biso   1.000  Hf
  Hf3      1.0000 0.36497  0.94636  0.37226  Biso   1.000  Hf
  O1       1.0000 0.03660  0.36136  0.19008  Biso   1.000  O 
  O2       1.0000 0.03918  0.11654  0.44975  Biso   1.000  O 
  O3       1.0000 0.46919  0.85626  0.19406  Biso   1.000  O 
  O4       1.0000 0.47212  0.62626  0.45189  Biso   1.000  O 
  O5       1.0000 0.25578  0.17948  0.24026  Biso   1.000  O 
  O6       1.0000 0.27815  0.24961  0.49674  Biso   1.000  O 
  O7       1.0000 0.23090  0.74830  0.50423  Biso   1.000  O 
  O8       1.0000 0.25071  0.67685  0.26224  Biso   1.000  O 
  Hf4      1.0000 0.14142  0.02048  0.62735  Biso   1.000  Hf
  Hf5      1.0000 0.13931  0.45704  0.87914  Biso   1.000  Hf
  Hf6      1.0000 0.36947  0.52205  0.62779  Biso   1.000  Hf
  Hf7      1.0000 0.36447  0.95122  0.88281  Biso   1.000  Hf
  O9       1.0000 0.04049  0.35327  0.69774  Biso   1.000  O 
  O10      1.0000 0.04094  0.11502  0.95128  Biso   1.000  O 
  O11      1.0000 0.46566  0.85513  0.69943  Biso   1.000  O 
  O12      1.0000 0.46459  0.61344  0.94161  Biso   1.000  O 
  O13      1.0000 0.27645  0.22366  0.75175  Biso   1.000  O 
  O14      1.0000 0.26173  0.27205  0.00052  Biso   1.000  O 
  O15      1.0000 0.21975  0.78111  0.01308  Biso   1.000  O 
  O16      1.0000 0.23177  0.72424  0.75557  Biso   1.000  O 
  Hf8      1.0000 0.63582  0.03198  0.12621  Biso   1.000  Hf
  Hf9      1.0000 0.63795  0.45767  0.37662  Biso   1.000  Hf
  Hf10     1.0000 0.86868  0.53050  0.12106  Biso   1.000  Hf
  Hf11     1.0000 0.86949  0.95973  0.37506  Biso   1.000  Hf
  O17      1.0000 0.53564  0.36082  0.19978  Biso   1.000  O 
  O18      1.0000 0.54126  0.11955  0.44121  Biso   1.000  O 
  O19      1.0000 0.98484  0.86837  0.18772  Biso   1.000  O 
  O20      1.0000 0.96694  0.61827  0.43945  Biso   1.000  O 
  O21      1.0000 0.77662  0.22607  0.24700  Biso   1.000  O 
  O22      1.0000 0.77522  0.25260  0.49781  Biso   1.000  O 
  O23      1.0000 0.73565  0.75480  0.49815  Biso   1.000  O 
  O24      1.0000 0.73865  0.72795  0.24697  Biso   1.000  O 
  Hf12     1.0000 0.63533  0.01565  0.62258  Biso   1.000  Hf
  Hf13     1.0000 0.63734  0.44867  0.87361  Biso   1.000  Hf
  Hf14     1.0000 0.87173  0.51741  0.62390  Biso   1.000  Hf
  Hf15     1.0000 0.86795  0.94979  0.87245  Biso   1.000  Hf
  O25      1.0000 0.54064  0.35285  0.69302  Biso   1.000  O 
  O26      1.0000 0.53857  0.11874  0.94965  Biso   1.000  O 
  O27      1.0000 0.96833  0.85307  0.69379  Biso   1.000  O 
  O28      1.0000 0.96518  0.61286  0.93923  Biso   1.000  O 
  O29      1.0000 0.77358  0.21585  0.74751  Biso   1.000  O 
  O30      1.0000 0.77626  0.24654  0.99729  Biso   1.000  O 
  O31      1.0000 0.73345  0.74519  0.99718  Biso   1.000  O 
  O32      1.0000 0.73332  0.71650  0.74738  Biso   1.000  O 
