data_image0
_cell_length_a       4.95787
_cell_length_b       10.3706
_cell_length_c       9.96959
_cell_angle_alpha    90
_cell_angle_beta     90
_cell_angle_gamma    90

_symmetry_space_group_name_H-M    "P 1"
_symmetry_int_tables_number       1

loop_
  _symmetry_equiv_pos_as_xyz
  'x, y, z'

loop_
  _atom_site_label
  _atom_site_occupancy
  _atom_site_fract_x
  _atom_site_fract_y
  _atom_site_fract_z
  _atom_site_thermal_displace_type
  _atom_site_B_iso_or_equiv
  _atom_site_type_symbol
  V1       1.0000 0.24647  0.02912  0.11509  Biso   1.000  V 
  Hf1      1.0000 0.27101  0.22575  0.37314  Biso   1.000  Hf
  Hf2      1.0000 0.72688  0.26252  0.12258  Biso   1.000  Hf
  Hf3      1.0000 0.73643  0.47845  0.37592  Biso   1.000  Hf
  O1       1.0000 0.06651  0.17897  0.19260  Biso   1.000  O 
  O2       1.0000 0.07936  0.06142  0.44646  Biso   1.000  O 
  O3       1.0000 0.92787  0.42880  0.19405  Biso   1.000  O 
  O4       1.0000 0.93452  0.31019  0.44294  Biso   1.000  O 
  O5       1.0000 0.52480  0.10191  0.23823  Biso   1.000  O 
  O6       1.0000 0.55309  0.12759  0.49393  Biso   1.000  O 
  O7       1.0000 0.46370  0.37677  0.49897  Biso   1.000  O 
  O8       1.0000 0.46033  0.35912  0.24829  Biso   1.000  O 
  Hf4      1.0000 0.27461  0.01062  0.62495  Biso   1.000  Hf
  Hf5      1.0000 0.27754  0.22895  0.87372  Biso   1.000  Hf
  Hf6      1.0000 0.73923  0.26079  0.62397  Biso   1.000  Hf
  Hf7      1.0000 0.74038  0.47849  0.87464  Biso   1.000  Hf
  O9       1.0000 0.07977  0.17881  0.69521  Biso   1.000  O 
  O10      1.0000 0.07974  0.06068  0.95416  Biso   1.000  O 
  O11      1.0000 0.93435  0.42884  0.69308  Biso   1.000  O 
  O12      1.0000 0.93541  0.30875  0.94217  Biso   1.000  O 
  O13      1.0000 0.54984  0.11156  0.74768  Biso   1.000  O 
  O14      1.0000 0.54349  0.12651  0.99661  Biso   1.000  O 
  O15      1.0000 0.46980  0.37575  0.99840  Biso   1.000  O 
  O16      1.0000 0.46621  0.36249  0.74867  Biso   1.000  O 
  Hf8      1.0000 0.26402  0.51397  0.12723  Biso   1.000  Hf
  Hf9      1.0000 0.27663  0.73049  0.37682  Biso   1.000  Hf
  Hf10     1.0000 0.73477  0.76209  0.12356  Biso   1.000  Hf
  Hf11     1.0000 0.72943  0.97956  0.37269  Biso   1.000  Hf
  O17      1.0000 0.07319  0.68338  0.19680  Biso   1.000  O 
  O18      1.0000 0.07838  0.56087  0.44399  Biso   1.000  O 
  O19      1.0000 0.97164  0.93579  0.18852  Biso   1.000  O 
  O20      1.0000 0.93945  0.81522  0.44833  Biso   1.000  O 
  O21      1.0000 0.54132  0.60718  0.24906  Biso   1.000  O 
  O22      1.0000 0.54928  0.62874  0.50053  Biso   1.000  O 
  O23      1.0000 0.46598  0.87941  0.50310  Biso   1.000  O 
  O24      1.0000 0.50296  0.85112  0.25861  Biso   1.000  O 
  Hf12     1.0000 0.27522  0.51244  0.62513  Biso   1.000  Hf
  Hf13     1.0000 0.27239  0.72933  0.87947  Biso   1.000  Hf
  Hf14     1.0000 0.73923  0.76343  0.62792  Biso   1.000  Hf
  Hf15     1.0000 0.72205  0.97754  0.88041  Biso   1.000  Hf
  O25      1.0000 0.07841  0.67907  0.69629  Biso   1.000  O 
  O26      1.0000 0.07776  0.56037  0.94755  Biso   1.000  O 
  O27      1.0000 0.92952  0.93024  0.69966  Biso   1.000  O 
  O28      1.0000 0.92249  0.80957  0.94025  Biso   1.000  O 
  O29      1.0000 0.54664  0.61330  0.75124  Biso   1.000  O 
  O30      1.0000 0.52992  0.63489  0.00058  Biso   1.000  O 
  O31      1.0000 0.43542  0.88998  0.01127  Biso   1.000  O 
  O32      1.0000 0.45970  0.86290  0.75423  Biso   1.000  O 
