data_image0
_cell_length_a       10.0356
_cell_length_b       10.2216
_cell_length_c       10.0356
_cell_angle_alpha    90
_cell_angle_beta     90
_cell_angle_gamma    90

_symmetry_space_group_name_H-M    "P 1"
_symmetry_int_tables_number       1

loop_
  _symmetry_equiv_pos_as_xyz
  'x, y, z'

loop_
  _atom_site_label
  _atom_site_occupancy
  _atom_site_fract_x
  _atom_site_fract_y
  _atom_site_fract_z
  _atom_site_thermal_displace_type
  _atom_site_B_iso_or_equiv
  _atom_site_type_symbol
  Hf1      1.0000 0.12312  0.97663  0.12061  Biso   1.000  Hf
  Hf2      1.0000 0.13043  0.25362  0.38810  Biso   1.000  Hf
  Hf3      1.0000 0.38930  0.25315  0.12780  Biso   1.000  Hf
  Hf4      1.0000 0.37549  0.00594  0.37340  Biso   1.000  Hf
  O1       1.0000 0.00516  0.14597  0.99933  Biso   1.000  O 
  O2       1.0000 0.01489  0.10253  0.24840  Biso   1.000  O 
  O3       1.0000 0.00847  0.34625  0.24477  Biso   1.000  O 
  O4       1.0000 0.00288  0.39883  0.99658  Biso   1.000  O 
  O5       1.0000 0.26499  0.15494  0.26324  Biso   1.000  O 
  O6       1.0000 0.24867  0.10209  0.01332  Biso   1.000  O 
  O7       1.0000 0.24546  0.34582  0.00646  Biso   1.000  O 
  O8       1.0000 0.25454  0.40126  0.25238  Biso   1.000  O 
  Hf5      1.0000 0.12850  0.99750  0.62472  Biso   1.000  Hf
  Hf6      1.0000 0.12595  0.25536  0.86612  Biso   1.000  Hf
  Hf7      1.0000 0.38024  0.24918  0.62783  Biso   1.000  Hf
  Hf8      1.0000 0.37471  0.00582  0.87906  Biso   1.000  Hf
  O9       1.0000 0.00021  0.14593  0.50087  Biso   1.000  O 
  O10      1.0000 0.00480  0.10547  0.74886  Biso   1.000  O 
  O11      1.0000 0.99935  0.35794  0.74487  Biso   1.000  O 
  O12      1.0000 0.00693  0.39942  0.49670  Biso   1.000  O 
  O13      1.0000 0.25849  0.14820  0.75679  Biso   1.000  O 
  O14      1.0000 0.25410  0.10517  0.50789  Biso   1.000  O 
  O15      1.0000 0.25822  0.35880  0.50695  Biso   1.000  O 
  O16      1.0000 0.24979  0.40030  0.75472  Biso   1.000  O 
  Hf9      1.0000 0.12604  0.50133  0.12441  Biso   1.000  Hf
  Hf10     1.0000 0.12910  0.74988  0.37589  Biso   1.000  Hf
  Hf11     1.0000 0.37801  0.74942  0.12560  Biso   1.000  Hf
  Hf12     1.0000 0.37973  0.49951  0.37669  Biso   1.000  Hf
  O17      1.0000 0.00191  0.64446  0.00069  Biso   1.000  O 
  O18      1.0000 0.99744  0.60105  0.24975  Biso   1.000  O 
  O19      1.0000 0.00047  0.84881  0.24836  Biso   1.000  O 
  O20      1.0000 0.00019  0.88998  0.99299  Biso   1.000  O 
  O21      1.0000 0.24616  0.64953  0.24359  Biso   1.000  O 
  O22      1.0000 0.25640  0.60239  0.99491  Biso   1.000  O 
  O23      1.0000 0.25549  0.85015  0.99747  Biso   1.000  O 
  O24      1.0000 0.25507  0.89646  0.25198  Biso   1.000  O 
  Hf13     1.0000 0.13030  0.50436  0.62391  Biso   1.000  Hf
  Hf14     1.0000 0.12916  0.74744  0.87178  Biso   1.000  Hf
  Hf15     1.0000 0.37999  0.75496  0.62424  Biso   1.000  Hf
  Hf16     1.0000 0.38116  0.50062  0.87424  Biso   1.000  Hf
  O25      1.0000 0.00392  0.64833  0.50116  Biso   1.000  O 
  O26      1.0000 0.00483  0.60534  0.75088  Biso   1.000  O 
  O27      1.0000 0.00780  0.85425  0.74511  Biso   1.000  O 
  O28      1.0000 0.00439  0.89839  0.49678  Biso   1.000  O 
  O29      1.0000 0.25387  0.64903  0.74381  Biso   1.000  O 
  O30      1.0000 0.25250  0.60634  0.49473  Biso   1.000  O 
  O31      1.0000 0.25286  0.85520  0.50028  Biso   1.000  O 
  O32      1.0000 0.25687  0.89975  0.75027  Biso   1.000  O 
  Hf17     1.0000 0.62729  0.99660  0.12315  Biso   1.000  Hf
  Hf18     1.0000 0.63040  0.24873  0.37628  Biso   1.000  Hf
  Hf19     1.0000 0.86728  0.25402  0.12067  Biso   1.000  Hf
  Hf20     1.0000 0.88114  0.00490  0.36981  Biso   1.000  Hf
  O33      1.0000 0.50669  0.14682  0.99714  Biso   1.000  O 
  O34      1.0000 0.50949  0.10471  0.25108  Biso   1.000  O 
  O35      1.0000 0.50905  0.35835  0.25473  Biso   1.000  O 
  O36      1.0000 0.49748  0.39854  0.00342  Biso   1.000  O 
  O37      1.0000 0.75849  0.14730  0.25401  Biso   1.000  O 
  O38      1.0000 0.74907  0.10413  0.00045  Biso   1.000  O 
  O39      1.0000 0.75107  0.35840  0.99452  Biso   1.000  O 
  O40      1.0000 0.75684  0.39938  0.24485  Biso   1.000  O 
  Hf21     1.0000 0.62962  0.99977  0.62427  Biso   1.000  Hf
  Hf22     1.0000 0.62865  0.25110  0.87268  Biso   1.000  Hf
  Hf23     1.0000 0.87662  0.25064  0.62333  Biso   1.000  Hf
  Hf24     1.0000 0.87911  0.00470  0.87424  Biso   1.000  Hf
  O41      1.0000 0.50358  0.15013  0.50051  Biso   1.000  O 
  O42      1.0000 0.50442  0.10263  0.75005  Biso   1.000  O 
  O43      1.0000 0.50093  0.35393  0.75341  Biso   1.000  O 
  O44      1.0000 0.50597  0.39911  0.50242  Biso   1.000  O 
  O45      1.0000 0.75444  0.14995  0.74999  Biso   1.000  O 
  O46      1.0000 0.75303  0.10218  0.50007  Biso   1.000  O 
  O47      1.0000 0.75684  0.35347  0.49607  Biso   1.000  O 
  O48      1.0000 0.75142  0.39971  0.74652  Biso   1.000  O 
  Hf25     1.0000 0.62556  0.50347  0.12588  Biso   1.000  Hf
  Hf26     1.0000 0.62775  0.75451  0.37510  Biso   1.000  Hf
  Hf27     1.0000 0.87387  0.74609  0.12292  Biso   1.000  Hf
  Hf28     1.0000 0.87727  0.49972  0.37536  Biso   1.000  Hf
  O49      1.0000 0.50794  0.64923  0.99990  Biso   1.000  O 
  O50      1.0000 0.49725  0.60590  0.24860  Biso   1.000  O 
  O51      1.0000 0.50328  0.85475  0.24848  Biso   1.000  O 
  O52      1.0000 0.50403  0.89929  0.99992  Biso   1.000  O 
  O53      1.0000 0.74642  0.64814  0.24852  Biso   1.000  O 
  O54      1.0000 0.75757  0.60579  0.99951  Biso   1.000  O 
  O55      1.0000 0.74674  0.85291  0.00205  Biso   1.000  O 
  O56      1.0000 0.75336  0.89885  0.25100  Biso   1.000  O 
  Hf29     1.0000 0.62849  0.50437  0.62407  Biso   1.000  Hf
  Hf30     1.0000 0.63013  0.75319  0.87451  Biso   1.000  Hf
  Hf31     1.0000 0.87940  0.75274  0.62385  Biso   1.000  Hf
  Hf32     1.0000 0.87825  0.50062  0.87246  Biso   1.000  Hf
  O57      1.0000 0.50456  0.65039  0.50055  Biso   1.000  O 
  O58      1.0000 0.50376  0.60385  0.75055  Biso   1.000  O 
  O59      1.0000 0.50731  0.85361  0.74801  Biso   1.000  O 
  O60      1.0000 0.50310  0.90114  0.49863  Biso   1.000  O 
  O61      1.0000 0.75390  0.65071  0.74851  Biso   1.000  O 
  O62      1.0000 0.75446  0.60340  0.49845  Biso   1.000  O 
  O63      1.0000 0.75241  0.85317  0.50154  Biso   1.000  O 
  O64      1.0000 0.75705  0.90096  0.75117  Biso   1.000  O 
  V1       1.0000 0.13044  0.22343  0.12930  Biso   1.000  V 
