data_image0
_cell_length_a       10.1131
_cell_length_b       5.14509
_cell_length_c       10.4859
_cell_angle_alpha    90
_cell_angle_beta     90
_cell_angle_gamma    90

_symmetry_space_group_name_H-M    "P 1"
_symmetry_int_tables_number       1

loop_
  _symmetry_equiv_pos_as_xyz
  'x, y, z'

loop_
  _atom_site_label
  _atom_site_occupancy
  _atom_site_fract_x
  _atom_site_fract_y
  _atom_site_fract_z
  _atom_site_thermal_displace_type
  _atom_site_B_iso_or_equiv
  _atom_site_type_symbol
  Hf1      1.0000 0.13762  0.04300  0.17206  Biso   1.000  Hf
  Hf2      1.0000 0.13005  0.46687  0.42358  Biso   1.000  Hf
  Hf3      1.0000 0.34783  0.54119  0.17776  Biso   1.000  Hf
  Hf4      1.0000 0.35731  0.96578  0.42571  Biso   1.000  Hf
  Hf5      1.0000 0.64084  0.06461  0.06765  Biso   1.000  Hf
  Hf6      1.0000 0.63112  0.47089  0.34150  Biso   1.000  Hf
  Hf7      1.0000 0.87636  0.54969  0.07413  Biso   1.000  Hf
  Hf8      1.0000 0.85917  0.96937  0.32986  Biso   1.000  Hf
  O1       1.0000 0.03898  0.32487  0.07872  Biso   1.000  O 
  O2       1.0000 0.02356  0.19076  0.32744  Biso   1.000  O 
  O3       1.0000 0.46951  0.81571  0.08312  Biso   1.000  O 
  O4       1.0000 0.45842  0.67472  0.33582  Biso   1.000  O 
  O5       1.0000 0.26609  0.25348  0.29862  Biso   1.000  O 
  O6       1.0000 0.27840  0.24363  0.04390  Biso   1.000  O 
  O7       1.0000 0.21696  0.75493  0.29889  Biso   1.000  O 
  O8       1.0000 0.22448  0.74810  0.04560  Biso   1.000  O 
  O9       1.0000 0.50852  0.29992  0.17228  Biso   1.000  O 
  O10      1.0000 0.52601  0.17522  0.42233  Biso   1.000  O 
  O11      1.0000 0.97007  0.83506  0.17004  Biso   1.000  O 
  O12      1.0000 0.96048  0.68680  0.41889  Biso   1.000  O 
  O13      1.0000 0.77311  0.25115  0.45584  Biso   1.000  O 
  O14      1.0000 0.75569  0.30811  0.19685  Biso   1.000  O 
  O15      1.0000 0.71888  0.75555  0.46095  Biso   1.000  O 
  O16      1.0000 0.72476  0.79390  0.20850  Biso   1.000  O 
  Hf9      1.0000 0.13066  0.04929  0.67014  Biso   1.000  Hf
  Hf10     1.0000 0.13290  0.46584  0.91814  Biso   1.000  Hf
  Hf11     1.0000 0.35721  0.54724  0.67225  Biso   1.000  Hf
  Hf12     1.0000 0.35121  0.96507  0.91833  Biso   1.000  Hf
  Hf13     1.0000 0.63219  0.05152  0.58232  Biso   1.000  Hf
  Hf14     1.0000 0.63209  0.46578  0.83298  Biso   1.000  Hf
  Hf15     1.0000 0.85433  0.55103  0.58159  Biso   1.000  Hf
  Hf16     1.0000 0.85675  0.97015  0.82770  Biso   1.000  Hf
  O17      1.0000 0.02517  0.33733  0.58148  Biso   1.000  O 
  O18      1.0000 0.02706  0.18200  0.82962  Biso   1.000  O 
  O19      1.0000 0.46128  0.84094  0.58772  Biso   1.000  O 
  O20      1.0000 0.45570  0.66492  0.83828  Biso   1.000  O 
  O21      1.0000 0.26884  0.25357  0.79360  Biso   1.000  O 
  O22      1.0000 0.26761  0.25988  0.54579  Biso   1.000  O 
  O23      1.0000 0.21765  0.75614  0.79423  Biso   1.000  O 
  O24      1.0000 0.21941  0.75881  0.54604  Biso   1.000  O 
  O25      1.0000 0.52783  0.34415  0.66573  Biso   1.000  O 
  O26      1.0000 0.52453  0.15275  0.90180  Biso   1.000  O 
  O27      1.0000 0.96196  0.83870  0.66505  Biso   1.000  O 
  O28      1.0000 0.96507  0.68632  0.91323  Biso   1.000  O 
  O29      1.0000 0.78103  0.25564  0.94796  Biso   1.000  O 
  O30      1.0000 0.76981  0.26053  0.70343  Biso   1.000  O 
  O31      1.0000 0.71758  0.76133  0.96174  Biso   1.000  O 
  O32      1.0000 0.71861  0.76126  0.71010  Biso   1.000  O 
  V1       1.0000 0.61394  0.56611  0.10317  Biso   1.000  V 
