data_image0
_cell_length_a       4.99695
_cell_length_b       10.1618
_cell_length_c       9.99334
_cell_angle_alpha    90
_cell_angle_beta     90
_cell_angle_gamma    90

_symmetry_space_group_name_H-M    "P 1"
_symmetry_int_tables_number       1

loop_
  _symmetry_equiv_pos_as_xyz
  'x, y, z'

loop_
  _atom_site_label
  _atom_site_occupancy
  _atom_site_fract_x
  _atom_site_fract_y
  _atom_site_fract_z
  _atom_site_thermal_displace_type
  _atom_site_B_iso_or_equiv
  _atom_site_type_symbol
  V1       1.0000 0.24982  0.00005  0.12491  Biso   1.000  V 
  Hf1      1.0000 0.25879  0.24915  0.37395  Biso   1.000  Hf
  Hf2      1.0000 0.74982  0.25218  0.12491  Biso   1.000  Hf
  Hf3      1.0000 0.74982  0.00005  0.37237  Biso   1.000  Hf
  O1       1.0000 0.95313  0.15202  0.98179  Biso   1.000  O 
  O2       1.0000 0.03605  0.09562  0.23483  Biso   1.000  O 
  O3       1.0000 0.00255  0.35002  0.25164  Biso   1.000  O 
  O4       1.0000 0.99758  0.39905  0.00217  Biso   1.000  O 
  O5       1.0000 0.54649  0.15202  0.26803  Biso   1.000  O 
  O6       1.0000 0.46358  0.09562  0.01499  Biso   1.000  O 
  O7       1.0000 0.49707  0.35002  0.99818  Biso   1.000  O 
  O8       1.0000 0.50206  0.39905  0.24765  Biso   1.000  O 
  Hf4      1.0000 0.24982  0.00005  0.62491  Biso   1.000  Hf
  Hf5      1.0000 0.24083  0.24915  0.87587  Biso   1.000  Hf
  Hf6      1.0000 0.74982  0.24772  0.62491  Biso   1.000  Hf
  Hf7      1.0000 0.74981  0.00005  0.87744  Biso   1.000  Hf
  O9       1.0000 0.98484  0.14518  0.48467  Biso   1.000  O 
  O10      1.0000 0.00391  0.10576  0.73967  Biso   1.000  O 
  O11      1.0000 0.99535  0.35498  0.75238  Biso   1.000  O 
  O12      1.0000 0.00165  0.39461  0.50254  Biso   1.000  O 
  O13      1.0000 0.51479  0.14518  0.76515  Biso   1.000  O 
  O14      1.0000 0.49571  0.10576  0.51015  Biso   1.000  O 
  O15      1.0000 0.50427  0.35498  0.49744  Biso   1.000  O 
  O16      1.0000 0.49798  0.39461  0.74728  Biso   1.000  O 
  Hf8      1.0000 0.24982  0.50005  0.12491  Biso   1.000  Hf
  Hf9      1.0000 0.24084  0.75095  0.37395  Biso   1.000  Hf
  Hf10     1.0000 0.74982  0.74792  0.12491  Biso   1.000  Hf
  Hf11     1.0000 0.74982  0.50005  0.37789  Biso   1.000  Hf
  O17      1.0000 0.00254  0.65008  0.99818  Biso   1.000  O 
  O18      1.0000 0.99758  0.60106  0.24765  Biso   1.000  O 
  O19      1.0000 0.95314  0.84808  0.26803  Biso   1.000  O 
  O20      1.0000 0.03606  0.90448  0.01499  Biso   1.000  O 
  O21      1.0000 0.49708  0.65008  0.25164  Biso   1.000  O 
  O22      1.0000 0.50206  0.60106  0.00217  Biso   1.000  O 
  O23      1.0000 0.54648  0.84808  0.98179  Biso   1.000  O 
  O24      1.0000 0.46358  0.90448  0.23483  Biso   1.000  O 
  Hf12     1.0000 0.24982  0.50005  0.62491  Biso   1.000  Hf
  Hf13     1.0000 0.25878  0.75095  0.87587  Biso   1.000  Hf
  Hf14     1.0000 0.74982  0.75239  0.62491  Biso   1.000  Hf
  Hf15     1.0000 0.74981  0.50005  0.87193  Biso   1.000  Hf
  O25      1.0000 0.99536  0.64513  0.49744  Biso   1.000  O 
  O26      1.0000 0.00164  0.60550  0.74728  Biso   1.000  O 
  O27      1.0000 0.98483  0.85493  0.76515  Biso   1.000  O 
  O28      1.0000 0.00393  0.89434  0.51015  Biso   1.000  O 
  O29      1.0000 0.50426  0.64512  0.75238  Biso   1.000  O 
  O30      1.0000 0.49799  0.60550  0.50254  Biso   1.000  O 
  O31      1.0000 0.51480  0.85492  0.48467  Biso   1.000  O 
  O32      1.0000 0.49570  0.89435  0.73967  Biso   1.000  O 
