data_image0
_cell_length_a       9.98974
_cell_length_b       10.4057
_cell_length_c       10.0465
_cell_angle_alpha    90
_cell_angle_beta     90
_cell_angle_gamma    90

_symmetry_space_group_name_H-M    "P 1"
_symmetry_int_tables_number       1

loop_
  _symmetry_equiv_pos_as_xyz
  'x, y, z'

loop_
  _atom_site_label
  _atom_site_occupancy
  _atom_site_fract_x
  _atom_site_fract_y
  _atom_site_fract_z
  _atom_site_thermal_displace_type
  _atom_site_B_iso_or_equiv
  _atom_site_type_symbol
  Hf1      1.0000 0.13034  0.01693  0.12448  Biso   1.000  Hf
  Hf2      1.0000 0.13524  0.22985  0.38095  Biso   1.000  Hf
  Hf3      1.0000 0.37730  0.26953  0.12313  Biso   1.000  Hf
  Hf4      1.0000 0.36855  0.48374  0.37393  Biso   1.000  Hf
  O1       1.0000 0.01280  0.16707  0.22051  Biso   1.000  O 
  O2       1.0000 0.03730  0.06225  0.45124  Biso   1.000  O 
  O3       1.0000 0.46900  0.43604  0.19721  Biso   1.000  O 
  O4       1.0000 0.46778  0.31759  0.44691  Biso   1.000  O 
  O5       1.0000 0.26648  0.11525  0.25154  Biso   1.000  O 
  O6       1.0000 0.27306  0.13131  0.50238  Biso   1.000  O 
  O7       1.0000 0.23293  0.38351  0.49756  Biso   1.000  O 
  O8       1.0000 0.23206  0.36510  0.24503  Biso   1.000  O 
  Hf5      1.0000 0.13437  0.01277  0.62642  Biso   1.000  Hf
  Hf6      1.0000 0.13485  0.23607  0.85902  Biso   1.000  Hf
  Hf7      1.0000 0.37102  0.26730  0.62346  Biso   1.000  Hf
  Hf8      1.0000 0.37064  0.48815  0.87314  Biso   1.000  Hf
  O9       1.0000 0.03324  0.17803  0.68906  Biso   1.000  O 
  O10      1.0000 0.03271  0.06674  0.94341  Biso   1.000  O 
  O11      1.0000 0.47040  0.43328  0.69529  Biso   1.000  O 
  O12      1.0000 0.46931  0.32081  0.94389  Biso   1.000  O 
  O13      1.0000 0.27134  0.11573  0.75080  Biso   1.000  O 
  O14      1.0000 0.24992  0.15423  0.00867  Biso   1.000  O 
  O15      1.0000 0.23627  0.39637  0.99582  Biso   1.000  O 
  O16      1.0000 0.23680  0.36926  0.74446  Biso   1.000  O 
  Hf9      1.0000 0.13886  0.53060  0.12123  Biso   1.000  Hf
  Hf10     1.0000 0.13740  0.73448  0.37646  Biso   1.000  Hf
  Hf11     1.0000 0.36979  0.76919  0.12552  Biso   1.000  Hf
  Hf12     1.0000 0.36882  0.98448  0.37600  Biso   1.000  Hf
  O17      1.0000 0.03313  0.68428  0.20235  Biso   1.000  O 
  O18      1.0000 0.03769  0.56699  0.44672  Biso   1.000  O 
  O19      1.0000 0.46680  0.93396  0.19709  Biso   1.000  O 
  O20      1.0000 0.46965  0.81681  0.44587  Biso   1.000  O 
  O21      1.0000 0.27712  0.62172  0.24934  Biso   1.000  O 
  O22      1.0000 0.27309  0.63239  0.49871  Biso   1.000  O 
  O23      1.0000 0.23517  0.88182  0.49915  Biso   1.000  O 
  O24      1.0000 0.23160  0.86742  0.24867  Biso   1.000  O 
  Hf13     1.0000 0.13647  0.51607  0.62440  Biso   1.000  Hf
  Hf14     1.0000 0.13556  0.73799  0.87199  Biso   1.000  Hf
  Hf15     1.0000 0.37120  0.76435  0.62361  Biso   1.000  Hf
  Hf16     1.0000 0.37327  0.98285  0.87223  Biso   1.000  Hf
  O25      1.0000 0.03867  0.68259  0.69395  Biso   1.000  O 
  O26      1.0000 0.03672  0.57221  0.94496  Biso   1.000  O 
  O27      1.0000 0.47070  0.93198  0.69693  Biso   1.000  O 
  O28      1.0000 0.47154  0.81986  0.94548  Biso   1.000  O 
  O29      1.0000 0.27258  0.61718  0.74691  Biso   1.000  O 
  O30      1.0000 0.27421  0.64448  0.99479  Biso   1.000  O 
  O31      1.0000 0.23664  0.89145  0.99765  Biso   1.000  O 
  O32      1.0000 0.23675  0.86552  0.74764  Biso   1.000  O 
  Hf17     1.0000 0.63173  0.01318  0.12660  Biso   1.000  Hf
  Hf18     1.0000 0.63448  0.23180  0.37778  Biso   1.000  Hf
  Hf19     1.0000 0.85297  0.26175  0.12788  Biso   1.000  Hf
  Hf20     1.0000 0.87164  0.48075  0.37430  Biso   1.000  Hf
  O33      1.0000 0.53580  0.18082  0.20101  Biso   1.000  O 
  O34      1.0000 0.53455  0.06652  0.44845  Biso   1.000  O 
  O35      1.0000 0.97555  0.42156  0.19645  Biso   1.000  O 
  O36      1.0000 0.96850  0.31839  0.45152  Biso   1.000  O 
  O37      1.0000 0.76235  0.11206  0.25153  Biso   1.000  O 
  O38      1.0000 0.77167  0.13303  0.49962  Biso   1.000  O 
  O39      1.0000 0.73380  0.38335  0.50044  Biso   1.000  O 
  O40      1.0000 0.72921  0.36857  0.25265  Biso   1.000  O 
  Hf21     1.0000 0.63596  0.01486  0.62458  Biso   1.000  Hf
  Hf22     1.0000 0.63482  0.23395  0.87416  Biso   1.000  Hf
  Hf23     1.0000 0.86618  0.26655  0.62547  Biso   1.000  Hf
  Hf24     1.0000 0.86941  0.48345  0.87812  Biso   1.000  Hf
  O41      1.0000 0.53697  0.18209  0.69651  Biso   1.000  O 
  O42      1.0000 0.52742  0.07328  0.95149  Biso   1.000  O 
  O43      1.0000 0.97206  0.42902  0.70376  Biso   1.000  O 
  O44      1.0000 0.97201  0.31776  0.95716  Biso   1.000  O 
  O45      1.0000 0.77065  0.11589  0.74903  Biso   1.000  O 
  O46      1.0000 0.76704  0.13121  0.99837  Biso   1.000  O 
  O47      1.0000 0.72981  0.38333  0.99992  Biso   1.000  O 
  O48      1.0000 0.73373  0.36720  0.75102  Biso   1.000  O 
  Hf25     1.0000 0.63632  0.51812  0.12616  Biso   1.000  Hf
  Hf26     1.0000 0.63737  0.73306  0.37556  Biso   1.000  Hf
  Hf27     1.0000 0.86730  0.76550  0.12646  Biso   1.000  Hf
  Hf28     1.0000 0.87321  0.98438  0.37394  Biso   1.000  Hf
  O49      1.0000 0.53965  0.68535  0.19470  Biso   1.000  O 
  O50      1.0000 0.53656  0.56673  0.44599  Biso   1.000  O 
  O51      1.0000 0.96539  0.93002  0.19451  Biso   1.000  O 
  O52      1.0000 0.96890  0.81694  0.44669  Biso   1.000  O 
  O53      1.0000 0.77398  0.61472  0.24911  Biso   1.000  O 
  O54      1.0000 0.77284  0.63245  0.49884  Biso   1.000  O 
  O55      1.0000 0.73558  0.88370  0.49811  Biso   1.000  O 
  O56      1.0000 0.73212  0.86503  0.24946  Biso   1.000  O 
  Hf29     1.0000 0.63805  0.51665  0.62510  Biso   1.000  Hf
  Hf30     1.0000 0.63859  0.73385  0.87537  Biso   1.000  Hf
  Hf31     1.0000 0.86974  0.76554  0.62420  Biso   1.000  Hf
  Hf32     1.0000 0.87063  0.98285  0.87562  Biso   1.000  Hf
  O57      1.0000 0.53941  0.68284  0.69620  Biso   1.000  O 
  O58      1.0000 0.53826  0.56957  0.94673  Biso   1.000  O 
  O59      1.0000 0.97064  0.92924  0.69860  Biso   1.000  O 
  O60      1.0000 0.96875  0.81730  0.94807  Biso   1.000  O 
  O61      1.0000 0.77489  0.61554  0.74969  Biso   1.000  O 
  O62      1.0000 0.77386  0.63309  0.99907  Biso   1.000  O 
  O63      1.0000 0.73246  0.88336  0.99872  Biso   1.000  O 
  O64      1.0000 0.73416  0.86567  0.74805  Biso   1.000  O 
  V1       1.0000 0.10904  0.29006  0.10582  Biso   1.000  V 
