data_image0
_cell_length_a       10.1787
_cell_length_b       10.2402
_cell_length_c       5.29875
_cell_angle_alpha    90
_cell_angle_beta     80
_cell_angle_gamma    90

_symmetry_space_group_name_H-M    "P 1"
_symmetry_int_tables_number       1

loop_
  _symmetry_equiv_pos_as_xyz
  'x, y, z'

loop_
  _atom_site_label
  _atom_site_occupancy
  _atom_site_fract_x
  _atom_site_fract_y
  _atom_site_fract_z
  _atom_site_thermal_displace_type
  _atom_site_B_iso_or_equiv
  _atom_site_type_symbol
  Hf1      1.0000 0.13576  0.02182  0.29314  Biso   1.000  Hf
  Hf2      1.0000 0.13003  0.23172  0.79177  Biso   1.000  Hf
  Hf3      1.0000 0.35838  0.27365  0.18142  Biso   1.000  Hf
  Hf4      1.0000 0.35838  0.49298  0.71381  Biso   1.000  Hf
  O1       1.0000 0.03348  0.16334  0.15163  Biso   1.000  O 
  O2       1.0000 0.03013  0.08750  0.64698  Biso   1.000  O 
  O3       1.0000 0.47592  0.39452  0.38286  Biso   1.000  O 
  O4       1.0000 0.48142  0.36265  0.86787  Biso   1.000  O 
  O5       1.0000 0.27702  0.12504  0.46011  Biso   1.000  O 
  O6       1.0000 0.28264  0.13012  0.94518  Biso   1.000  O 
  O7       1.0000 0.21602  0.38668  0.02386  Biso   1.000  O 
  O8       1.0000 0.23749  0.36671  0.52186  Biso   1.000  O 
  Hf5      1.0000 0.13777  0.52431  0.29680  Biso   1.000  Hf
  Hf6      1.0000 0.13416  0.73251  0.79700  Biso   1.000  Hf
  Hf7      1.0000 0.36116  0.77259  0.20897  Biso   1.000  Hf
  Hf8      1.0000 0.35964  0.97398  0.70294  Biso   1.000  Hf
  O9       1.0000 0.02956  0.66285  0.15494  Biso   1.000  O 
  O10      1.0000 0.03252  0.58997  0.65549  Biso   1.000  O 
  O11      1.0000 0.46965  0.91027  0.35544  Biso   1.000  O 
  O12      1.0000 0.46868  0.84237  0.85910  Biso   1.000  O 
  O13      1.0000 0.27487  0.63066  0.48286  Biso   1.000  O 
  O14      1.0000 0.27159  0.63228  0.98744  Biso   1.000  O 
  O15      1.0000 0.22349  0.88097  0.02126  Biso   1.000  O 
  O16      1.0000 0.22129  0.87037  0.51939  Biso   1.000  O 
  Hf9      1.0000 0.63900  0.02397  0.29009  Biso   1.000  Hf
  Hf10     1.0000 0.64144  0.23503  0.80000  Biso   1.000  Hf
  Hf11     1.0000 0.86212  0.27436  0.21763  Biso   1.000  Hf
  Hf12     1.0000 0.86028  0.48326  0.71564  Biso   1.000  Hf
  O17      1.0000 0.53065  0.15915  0.14286  Biso   1.000  O 
  O18      1.0000 0.52834  0.09422  0.65129  Biso   1.000  O 
  O19      1.0000 0.97013  0.41213  0.36300  Biso   1.000  O 
  O20      1.0000 0.96482  0.34494  0.86155  Biso   1.000  O 
  O21      1.0000 0.77398  0.13062  0.48175  Biso   1.000  O 
  O22      1.0000 0.77835  0.12510  0.98439  Biso   1.000  O 
  O23      1.0000 0.72588  0.37808  0.03137  Biso   1.000  O 
  O24      1.0000 0.72831  0.37601  0.52794  Biso   1.000  O 
  Hf13     1.0000 0.63616  0.52062  0.29889  Biso   1.000  Hf
  Hf14     1.0000 0.63754  0.73107  0.79497  Biso   1.000  Hf
  Hf15     1.0000 0.85912  0.77260  0.21367  Biso   1.000  Hf
  Hf16     1.0000 0.85840  0.98149  0.71162  Biso   1.000  Hf
  O25      1.0000 0.52693  0.65454  0.14328  Biso   1.000  O 
  O26      1.0000 0.53065  0.59875  0.63814  Biso   1.000  O 
  O27      1.0000 0.96571  0.91340  0.35424  Biso   1.000  O 
  O28      1.0000 0.96448  0.84088  0.85546  Biso   1.000  O 
  O29      1.0000 0.77476  0.63010  0.48176  Biso   1.000  O 
  O30      1.0000 0.77328  0.62638  0.98361  Biso   1.000  O 
  O31      1.0000 0.72222  0.87836  0.02603  Biso   1.000  O 
  O32      1.0000 0.72246  0.87469  0.52551  Biso   1.000  O 
  V1       1.0000 0.39120  0.24337  0.64064  Biso   1.000  V 
