data_image0
_cell_length_a       10.0623
_cell_length_b       10.1991
_cell_length_c       10.528
_cell_angle_alpha    90
_cell_angle_beta     90
_cell_angle_gamma    90

_symmetry_space_group_name_H-M    "P 1"
_symmetry_int_tables_number       1

loop_
  _symmetry_equiv_pos_as_xyz
  'x, y, z'

loop_
  _atom_site_label
  _atom_site_occupancy
  _atom_site_fract_x
  _atom_site_fract_y
  _atom_site_fract_z
  _atom_site_thermal_displace_type
  _atom_site_B_iso_or_equiv
  _atom_site_type_symbol
  Hf1      1.0000 0.13762  0.02070  0.17296  Biso   1.000  Hf
  Hf2      1.0000 0.13444  0.22830  0.42307  Biso   1.000  Hf
  Hf3      1.0000 0.35981  0.26613  0.17615  Biso   1.000  Hf
  Hf4      1.0000 0.35758  0.47809  0.42333  Biso   1.000  Hf
  Hf5      1.0000 0.63766  0.00531  0.07864  Biso   1.000  Hf
  Hf6      1.0000 0.63078  0.22703  0.33144  Biso   1.000  Hf
  Hf7      1.0000 0.87269  0.27416  0.07418  Biso   1.000  Hf
  Hf8      1.0000 0.85857  0.47790  0.32726  Biso   1.000  Hf
  O1       1.0000 0.03398  0.15873  0.07704  Biso   1.000  O 
  O2       1.0000 0.02433  0.09150  0.32716  Biso   1.000  O 
  O3       1.0000 0.47571  0.40332  0.07564  Biso   1.000  O 
  O4       1.0000 0.46513  0.34022  0.32994  Biso   1.000  O 
  O5       1.0000 0.26875  0.12319  0.29951  Biso   1.000  O 
  O6       1.0000 0.27482  0.12338  0.04764  Biso   1.000  O 
  O7       1.0000 0.22026  0.37342  0.29767  Biso   1.000  O 
  O8       1.0000 0.22651  0.37618  0.04534  Biso   1.000  O 
  O9       1.0000 0.51295  0.13101  0.19141  Biso   1.000  O 
  O10      1.0000 0.52235  0.09393  0.43331  Biso   1.000  O 
  O11      1.0000 0.96967  0.41415  0.17130  Biso   1.000  O 
  O12      1.0000 0.96516  0.33809  0.41934  Biso   1.000  O 
  O13      1.0000 0.77227  0.12165  0.45177  Biso   1.000  O 
  O14      1.0000 0.75887  0.13518  0.19264  Biso   1.000  O 
  O15      1.0000 0.72154  0.37429  0.45559  Biso   1.000  O 
  O16      1.0000 0.71846  0.37837  0.20183  Biso   1.000  O 
  Hf9      1.0000 0.13348  0.02061  0.67255  Biso   1.000  Hf
  Hf10     1.0000 0.13558  0.22633  0.92146  Biso   1.000  Hf
  Hf11     1.0000 0.35732  0.27013  0.67259  Biso   1.000  Hf
  Hf12     1.0000 0.35466  0.47733  0.92088  Biso   1.000  Hf
  Hf13     1.0000 0.63405  0.01941  0.57862  Biso   1.000  Hf
  Hf14     1.0000 0.63405  0.22841  0.82368  Biso   1.000  Hf
  Hf15     1.0000 0.85750  0.27069  0.57671  Biso   1.000  Hf
  Hf16     1.0000 0.85678  0.47768  0.82740  Biso   1.000  Hf
  O17      1.0000 0.02657  0.16086  0.57994  Biso   1.000  O 
  O18      1.0000 0.02636  0.08697  0.82979  Biso   1.000  O 
  O19      1.0000 0.46740  0.40584  0.57713  Biso   1.000  O 
  O20      1.0000 0.46632  0.34515  0.82406  Biso   1.000  O 
  O21      1.0000 0.27058  0.12370  0.79700  Biso   1.000  O 
  O22      1.0000 0.27038  0.12487  0.54752  Biso   1.000  O 
  O23      1.0000 0.21976  0.37267  0.79513  Biso   1.000  O 
  O24      1.0000 0.22034  0.37586  0.54662  Biso   1.000  O 
  O25      1.0000 0.52056  0.14929  0.68032  Biso   1.000  O 
  O26      1.0000 0.51611  0.11120  0.94461  Biso   1.000  O 
  O27      1.0000 0.96367  0.41245  0.66802  Biso   1.000  O 
  O28      1.0000 0.96621  0.33722  0.91561  Biso   1.000  O 
  O29      1.0000 0.76718  0.12086  0.94986  Biso   1.000  O 
  O30      1.0000 0.77157  0.12495  0.70064  Biso   1.000  O 
  O31      1.0000 0.71788  0.37274  0.95718  Biso   1.000  O 
  O32      1.0000 0.72050  0.37532  0.70436  Biso   1.000  O 
  Hf17     1.0000 0.14019  0.52021  0.17359  Biso   1.000  Hf
  Hf18     1.0000 0.13477  0.72847  0.42262  Biso   1.000  Hf
  Hf19     1.0000 0.35929  0.76962  0.17362  Biso   1.000  Hf
  Hf20     1.0000 0.35921  0.97805  0.42389  Biso   1.000  Hf
  Hf21     1.0000 0.64127  0.52888  0.07656  Biso   1.000  Hf
  Hf22     1.0000 0.63618  0.72782  0.32946  Biso   1.000  Hf
  Hf23     1.0000 0.86596  0.77021  0.07811  Biso   1.000  Hf
  Hf24     1.0000 0.85925  0.97901  0.32761  Biso   1.000  Hf
  O33      1.0000 0.03445  0.66234  0.08118  Biso   1.000  O 
  O34      1.0000 0.02861  0.58792  0.33150  Biso   1.000  O 
  O35      1.0000 0.47002  0.89738  0.07175  Biso   1.000  O 
  O36      1.0000 0.46919  0.84283  0.32641  Biso   1.000  O 
  O37      1.0000 0.27315  0.62384  0.29731  Biso   1.000  O 
  O38      1.0000 0.27760  0.62454  0.04667  Biso   1.000  O 
  O39      1.0000 0.22181  0.87240  0.29650  Biso   1.000  O 
  O40      1.0000 0.22480  0.87661  0.04617  Biso   1.000  O 
  O41      1.0000 0.52780  0.65688  0.17533  Biso   1.000  O 
  O42      1.0000 0.52628  0.59070  0.42344  Biso   1.000  O 
  O43      1.0000 0.96716  0.91412  0.16840  Biso   1.000  O 
  O44      1.0000 0.96465  0.83969  0.41872  Biso   1.000  O 
  O45      1.0000 0.77271  0.62299  0.45384  Biso   1.000  O 
  O46      1.0000 0.77628  0.62769  0.20386  Biso   1.000  O 
  O47      1.0000 0.72069  0.87335  0.45530  Biso   1.000  O 
  O48      1.0000 0.72743  0.87192  0.20729  Biso   1.000  O 
  Hf25     1.0000 0.13365  0.52087  0.67171  Biso   1.000  Hf
  Hf26     1.0000 0.13333  0.72771  0.92213  Biso   1.000  Hf
  Hf27     1.0000 0.35743  0.77143  0.67288  Biso   1.000  Hf
  Hf28     1.0000 0.35633  0.97886  0.92459  Biso   1.000  Hf
  Hf29     1.0000 0.63454  0.52011  0.57746  Biso   1.000  Hf
  Hf30     1.0000 0.63316  0.72758  0.82612  Biso   1.000  Hf
  Hf31     1.0000 0.85737  0.77119  0.57823  Biso   1.000  Hf
  Hf32     1.0000 0.85702  0.97847  0.82804  Biso   1.000  Hf
  O49      1.0000 0.02741  0.66277  0.58071  Biso   1.000  O 
  O50      1.0000 0.02619  0.58695  0.83021  Biso   1.000  O 
  O51      1.0000 0.46753  0.90409  0.57623  Biso   1.000  O 
  O52      1.0000 0.46903  0.84751  0.82446  Biso   1.000  O 
  O53      1.0000 0.27076  0.62310  0.79653  Biso   1.000  O 
  O54      1.0000 0.27126  0.62554  0.54651  Biso   1.000  O 
  O55      1.0000 0.22062  0.87290  0.79707  Biso   1.000  O 
  O56      1.0000 0.22087  0.87587  0.54656  Biso   1.000  O 
  O57      1.0000 0.52436  0.65693  0.67321  Biso   1.000  O 
  O58      1.0000 0.52227  0.59293  0.92296  Biso   1.000  O 
  O59      1.0000 0.96480  0.91163  0.66867  Biso   1.000  O 
  O60      1.0000 0.96374  0.83640  0.91910  Biso   1.000  O 
  O61      1.0000 0.77104  0.62287  0.95234  Biso   1.000  O 
  O62      1.0000 0.77104  0.62542  0.70341  Biso   1.000  O 
  O63      1.0000 0.71995  0.86970  0.95400  Biso   1.000  O 
  O64      1.0000 0.72107  0.87427  0.70506  Biso   1.000  O 
  V1       1.0000 0.61497  0.25500  0.08054  Biso   1.000  V 
