data_image0
_cell_length_a       10.0268
_cell_length_b       5.27457
_cell_length_c       10.1168
_cell_angle_alpha    90
_cell_angle_beta     90
_cell_angle_gamma    90

_symmetry_space_group_name_H-M    "P 1"
_symmetry_int_tables_number       1

loop_
  _symmetry_equiv_pos_as_xyz
  'x, y, z'

loop_
  _atom_site_label
  _atom_site_occupancy
  _atom_site_fract_x
  _atom_site_fract_y
  _atom_site_fract_z
  _atom_site_thermal_displace_type
  _atom_site_B_iso_or_equiv
  _atom_site_type_symbol
  Hf1      1.0000 0.12517  0.13643  0.11193  Biso   1.000  Hf
  Hf2      1.0000 0.14336  0.45997  0.38980  Biso   1.000  Hf
  Hf3      1.0000 0.38374  0.54233  0.12644  Biso   1.000  Hf
  Hf4      1.0000 0.37121  0.96576  0.37635  Biso   1.000  Hf
  O1       1.0000 0.01097  0.38533  0.23665  Biso   1.000  O 
  O2       1.0000 0.04797  0.12306  0.45000  Biso   1.000  O 
  O3       1.0000 0.47686  0.86106  0.20578  Biso   1.000  O 
  O4       1.0000 0.47647  0.63453  0.45161  Biso   1.000  O 
  O5       1.0000 0.27396  0.21538  0.25202  Biso   1.000  O 
  O6       1.0000 0.28414  0.26190  0.50492  Biso   1.000  O 
  O7       1.0000 0.24099  0.76529  0.50550  Biso   1.000  O 
  O8       1.0000 0.24633  0.69778  0.25927  Biso   1.000  O 
  Hf5      1.0000 0.14644  0.02949  0.62757  Biso   1.000  Hf
  Hf6      1.0000 0.13017  0.48084  0.84998  Biso   1.000  Hf
  Hf7      1.0000 0.37884  0.53518  0.62707  Biso   1.000  Hf
  Hf8      1.0000 0.39287  0.98995  0.86543  Biso   1.000  Hf
  O9       1.0000 0.04399  0.36863  0.67163  Biso   1.000  O 
  O10      1.0000 0.04608  0.15154  0.92128  Biso   1.000  O 
  O11      1.0000 0.48266  0.86360  0.69238  Biso   1.000  O 
  O12      1.0000 0.48867  0.67020  0.94416  Biso   1.000  O 
  O13      1.0000 0.27801  0.23904  0.75174  Biso   1.000  O 
  O14      1.0000 0.26624  0.41187  0.99658  Biso   1.000  O 
  O15      1.0000 0.25355  0.87229  0.01537  Biso   1.000  O 
  O16      1.0000 0.24927  0.74341  0.75386  Biso   1.000  O 
  Hf9      1.0000 0.63809  0.02877  0.12821  Biso   1.000  Hf
  Hf10     1.0000 0.63975  0.46918  0.37415  Biso   1.000  Hf
  Hf11     1.0000 0.85523  0.52632  0.12105  Biso   1.000  Hf
  Hf12     1.0000 0.87927  0.97357  0.37054  Biso   1.000  Hf
  O17      1.0000 0.54096  0.35999  0.20135  Biso   1.000  O 
  O18      1.0000 0.54164  0.13711  0.44821  Biso   1.000  O 
  O19      1.0000 0.97314  0.88188  0.19032  Biso   1.000  O 
  O20      1.0000 0.97649  0.65007  0.44922  Biso   1.000  O 
  O21      1.0000 0.76893  0.22234  0.24800  Biso   1.000  O 
  O22      1.0000 0.77839  0.27889  0.49463  Biso   1.000  O 
  O23      1.0000 0.74246  0.78017  0.49741  Biso   1.000  O 
  O24      1.0000 0.73638  0.73344  0.25148  Biso   1.000  O 
  Hf13     1.0000 0.64720  0.04178  0.61900  Biso   1.000  Hf
  Hf14     1.0000 0.64783  0.48317  0.87301  Biso   1.000  Hf
  Hf15     1.0000 0.87367  0.54682  0.61762  Biso   1.000  Hf
  Hf16     1.0000 0.87337  0.98483  0.86957  Biso   1.000  Hf
  O25      1.0000 0.54176  0.36054  0.70423  Biso   1.000  O 
  O26      1.0000 0.54251  0.17493  0.95815  Biso   1.000  O 
  O27      1.0000 0.97957  0.85945  0.70024  Biso   1.000  O 
  O28      1.0000 0.97937  0.67452  0.94907  Biso   1.000  O 
  O29      1.0000 0.78106  0.24566  0.74350  Biso   1.000  O 
  O30      1.0000 0.78555  0.28689  0.99396  Biso   1.000  O 
  O31      1.0000 0.74043  0.79114  0.99797  Biso   1.000  O 
  O32      1.0000 0.74172  0.74547  0.74717  Biso   1.000  O 
  W1       1.0000 0.11165  0.63108  0.10206  Biso   1.000  W 
