data_image0
_cell_length_a       10.0977
_cell_length_b       10.2621
_cell_length_c       10.4431
_cell_angle_alpha    90
_cell_angle_beta     80
_cell_angle_gamma    90

_symmetry_space_group_name_H-M    "P 1"
_symmetry_int_tables_number       1

loop_
  _symmetry_equiv_pos_as_xyz
  'x, y, z'

loop_
  _atom_site_label
  _atom_site_occupancy
  _atom_site_fract_x
  _atom_site_fract_y
  _atom_site_fract_z
  _atom_site_thermal_displace_type
  _atom_site_B_iso_or_equiv
  _atom_site_type_symbol
  W1       1.0000 0.14033  0.02300  0.14833  Biso   1.000  W 
  Hf1      1.0000 0.13926  0.22932  0.39554  Biso   1.000  Hf
  Hf2      1.0000 0.36051  0.27142  0.10477  Biso   1.000  Hf
  Hf3      1.0000 0.36114  0.47929  0.35418  Biso   1.000  Hf
  O1       1.0000 0.03717  0.16498  0.08096  Biso   1.000  O 
  O2       1.0000 0.04087  0.07855  0.32289  Biso   1.000  O 
  O3       1.0000 0.46374  0.42022  0.16913  Biso   1.000  O 
  O4       1.0000 0.46312  0.33072  0.41983  Biso   1.000  O 
  O5       1.0000 0.27780  0.12685  0.24098  Biso   1.000  O 
  O6       1.0000 0.27628  0.12129  0.49144  Biso   1.000  O 
  O7       1.0000 0.22314  0.37866  0.00980  Biso   1.000  O 
  O8       1.0000 0.22379  0.37096  0.25975  Biso   1.000  O 
  Hf4      1.0000 0.13669  0.02118  0.64593  Biso   1.000  Hf
  Hf5      1.0000 0.13567  0.22747  0.89665  Biso   1.000  Hf
  Hf6      1.0000 0.35958  0.27168  0.60475  Biso   1.000  Hf
  Hf7      1.0000 0.35812  0.47872  0.85504  Biso   1.000  Hf
  O9       1.0000 0.03326  0.16695  0.57721  Biso   1.000  O 
  O10      1.0000 0.03202  0.08155  0.82885  Biso   1.000  O 
  O11      1.0000 0.46221  0.42001  0.67011  Biso   1.000  O 
  O12      1.0000 0.45987  0.32927  0.92008  Biso   1.000  O 
  O13      1.0000 0.27440  0.12907  0.74213  Biso   1.000  O 
  O14      1.0000 0.27050  0.11891  0.99569  Biso   1.000  O 
  O15      1.0000 0.22172  0.37886  0.50947  Biso   1.000  O 
  O16      1.0000 0.22083  0.37064  0.76003  Biso   1.000  O 
  Hf8      1.0000 0.13941  0.52167  0.14593  Biso   1.000  Hf
  Hf9      1.0000 0.13850  0.72880  0.39598  Biso   1.000  Hf
  Hf10     1.0000 0.35858  0.77577  0.10473  Biso   1.000  Hf
  Hf11     1.0000 0.36129  0.97826  0.35417  Biso   1.000  Hf
  O17      1.0000 0.03613  0.66783  0.07982  Biso   1.000  O 
  O18      1.0000 0.03546  0.58043  0.33070  Biso   1.000  O 
  O19      1.0000 0.46616  0.91882  0.17176  Biso   1.000  O 
  O20      1.0000 0.46489  0.83054  0.42024  Biso   1.000  O 
  O21      1.0000 0.27621  0.63120  0.24092  Biso   1.000  O 
  O22      1.0000 0.27633  0.62095  0.49105  Biso   1.000  O 
  O23      1.0000 0.21628  0.88126  0.01014  Biso   1.000  O 
  O24      1.0000 0.21911  0.87410  0.25879  Biso   1.000  O 
  Hf12     1.0000 0.13729  0.52144  0.64633  Biso   1.000  Hf
  Hf13     1.0000 0.13659  0.72868  0.89636  Biso   1.000  Hf
  Hf14     1.0000 0.36045  0.77134  0.60450  Biso   1.000  Hf
  Hf15     1.0000 0.35798  0.97888  0.85540  Biso   1.000  Hf
  O25      1.0000 0.03446  0.66901  0.58016  Biso   1.000  O 
  O26      1.0000 0.03325  0.58050  0.83050  Biso   1.000  O 
  O27      1.0000 0.46256  0.91973  0.67065  Biso   1.000  O 
  O28      1.0000 0.45963  0.83159  0.92132  Biso   1.000  O 
  O29      1.0000 0.27497  0.62897  0.74098  Biso   1.000  O 
  O30      1.0000 0.27412  0.62175  0.99137  Biso   1.000  O 
  O31      1.0000 0.22316  0.87872  0.50935  Biso   1.000  O 
  O32      1.0000 0.22166  0.87090  0.75961  Biso   1.000  O 
  Hf16     1.0000 0.63863  0.02196  0.14625  Biso   1.000  Hf
  Hf17     1.0000 0.63835  0.22873  0.39588  Biso   1.000  Hf
  Hf18     1.0000 0.86215  0.27073  0.10424  Biso   1.000  Hf
  Hf19     1.0000 0.86056  0.47846  0.35371  Biso   1.000  Hf
  O33      1.0000 0.53571  0.16978  0.08096  Biso   1.000  O 
  O34      1.0000 0.53582  0.08048  0.33141  Biso   1.000  O 
  O35      1.0000 0.96503  0.41851  0.16978  Biso   1.000  O 
  O36      1.0000 0.96290  0.32903  0.41852  Biso   1.000  O 
  O37      1.0000 0.77759  0.12886  0.24072  Biso   1.000  O 
  O38      1.0000 0.77668  0.12018  0.48987  Biso   1.000  O 
  O39      1.0000 0.72373  0.37925  0.00948  Biso   1.000  O 
  O40      1.0000 0.72301  0.37070  0.25909  Biso   1.000  O 
  Hf20     1.0000 0.63632  0.02128  0.64640  Biso   1.000  Hf
  Hf21     1.0000 0.63582  0.22862  0.89646  Biso   1.000  Hf
  Hf22     1.0000 0.85925  0.27116  0.60401  Biso   1.000  Hf
  Hf23     1.0000 0.85847  0.47846  0.85495  Biso   1.000  Hf
  O41      1.0000 0.53509  0.17036  0.58117  Biso   1.000  O 
  O42      1.0000 0.53214  0.08050  0.83154  Biso   1.000  O 
  O43      1.0000 0.96276  0.41806  0.67023  Biso   1.000  O 
  O44      1.0000 0.96186  0.33001  0.92117  Biso   1.000  O 
  O45      1.0000 0.77372  0.12907  0.74060  Biso   1.000  O 
  O46      1.0000 0.77313  0.12130  0.99075  Biso   1.000  O 
  O47      1.0000 0.72233  0.37912  0.50973  Biso   1.000  O 
  O48      1.0000 0.72096  0.37096  0.76003  Biso   1.000  O 
  Hf24     1.0000 0.63874  0.52269  0.14546  Biso   1.000  Hf
  Hf25     1.0000 0.63953  0.72862  0.39602  Biso   1.000  Hf
  Hf26     1.0000 0.86360  0.77283  0.10358  Biso   1.000  Hf
  Hf27     1.0000 0.86189  0.97866  0.35313  Biso   1.000  Hf
  O49      1.0000 0.53448  0.67073  0.08119  Biso   1.000  O 
  O50      1.0000 0.53617  0.58048  0.33094  Biso   1.000  O 
  O51      1.0000 0.97300  0.91940  0.16728  Biso   1.000  O 
  O52      1.0000 0.96445  0.83211  0.42010  Biso   1.000  O 
  O53      1.0000 0.77711  0.62956  0.24028  Biso   1.000  O 
  O54      1.0000 0.77652  0.62089  0.49088  Biso   1.000  O 
  O55      1.0000 0.72327  0.87952  0.00970  Biso   1.000  O 
  O56      1.0000 0.72780  0.87180  0.25933  Biso   1.000  O 
  Hf28     1.0000 0.63755  0.52150  0.64667  Biso   1.000  Hf
  Hf29     1.0000 0.63552  0.72885  0.89770  Biso   1.000  Hf
  Hf30     1.0000 0.85963  0.77148  0.60475  Biso   1.000  Hf
  Hf31     1.0000 0.85888  0.97853  0.85461  Biso   1.000  Hf
  O57      1.0000 0.53566  0.66982  0.58090  Biso   1.000  O 
  O58      1.0000 0.53337  0.58052  0.83152  Biso   1.000  O 
  O59      1.0000 0.96307  0.91892  0.66997  Biso   1.000  O 
  O60      1.0000 0.96107  0.83004  0.91944  Biso   1.000  O 
  O61      1.0000 0.77483  0.62907  0.74156  Biso   1.000  O 
  O62      1.0000 0.77376  0.62159  0.99138  Biso   1.000  O 
  O63      1.0000 0.72295  0.87930  0.50939  Biso   1.000  O 
  O64      1.0000 0.72103  0.87092  0.76012  Biso   1.000  O 
