data_image0
_cell_length_a       10.0671
_cell_length_b       10.6228
_cell_length_c       5.05155
_cell_angle_alpha    90
_cell_angle_beta     90
_cell_angle_gamma    90

_symmetry_space_group_name_H-M    "P 1"
_symmetry_int_tables_number       1

loop_
  _symmetry_equiv_pos_as_xyz
  'x, y, z'

loop_
  _atom_site_label
  _atom_site_occupancy
  _atom_site_fract_x
  _atom_site_fract_y
  _atom_site_fract_z
  _atom_site_thermal_displace_type
  _atom_site_B_iso_or_equiv
  _atom_site_type_symbol
  Hf1      1.0000 0.13305  0.00682  0.24790  Biso   1.000  Hf
  Hf2      1.0000 0.12862  0.20988  0.73538  Biso   1.000  Hf
  Hf3      1.0000 0.38822  0.27559  0.24512  Biso   1.000  Hf
  Hf4      1.0000 0.37087  0.48996  0.74058  Biso   1.000  Hf
  O1       1.0000 0.00683  0.16315  0.41410  Biso   1.000  O 
  O2       1.0000 0.02693  0.05836  0.91273  Biso   1.000  O 
  O3       1.0000 0.48202  0.43306  0.40839  Biso   1.000  O 
  O4       1.0000 0.48146  0.32530  0.89940  Biso   1.000  O 
  O5       1.0000 0.25331  0.08547  0.53316  Biso   1.000  O 
  O6       1.0000 0.25037  0.16093  0.05385  Biso   1.000  O 
  O7       1.0000 0.26030  0.41742  0.04266  Biso   1.000  O 
  O8       1.0000 0.25865  0.34008  0.54801  Biso   1.000  O 
  Hf5      1.0000 0.12767  0.54529  0.21460  Biso   1.000  Hf
  Hf6      1.0000 0.13129  0.74314  0.73096  Biso   1.000  Hf
  Hf7      1.0000 0.37274  0.76009  0.23510  Biso   1.000  Hf
  Hf8      1.0000 0.38089  0.97465  0.73119  Biso   1.000  Hf
  O9       1.0000 0.02503  0.69001  0.39880  Biso   1.000  O 
  O10      1.0000 0.03452  0.57446  0.86478  Biso   1.000  O 
  O11      1.0000 0.47157  0.92425  0.38597  Biso   1.000  O 
  O12      1.0000 0.47667  0.81616  0.88779  Biso   1.000  O 
  O13      1.0000 0.27271  0.61142  0.47756  Biso   1.000  O 
  O14      1.0000 0.27026  0.65414  0.96692  Biso   1.000  O 
  O15      1.0000 0.24070  0.89630  0.98140  Biso   1.000  O 
  O16      1.0000 0.23726  0.85273  0.47365  Biso   1.000  O 
  Hf9      1.0000 0.63350  0.01241  0.24481  Biso   1.000  Hf
  Hf10     1.0000 0.63456  0.23201  0.74519  Biso   1.000  Hf
  Hf11     1.0000 0.85510  0.26146  0.23997  Biso   1.000  Hf
  Hf12     1.0000 0.87128  0.48029  0.74055  Biso   1.000  Hf
  O17      1.0000 0.52964  0.17114  0.41517  Biso   1.000  O 
  O18      1.0000 0.52572  0.07264  0.91123  Biso   1.000  O 
  O19      1.0000 0.97420  0.42853  0.39359  Biso   1.000  O 
  O20      1.0000 0.97637  0.32177  0.90919  Biso   1.000  O 
  O21      1.0000 0.76138  0.10786  0.49519  Biso   1.000  O 
  O22      1.0000 0.76531  0.13359  0.99093  Biso   1.000  O 
  O23      1.0000 0.73677  0.38640  0.99436  Biso   1.000  O 
  O24      1.0000 0.73500  0.36148  0.50030  Biso   1.000  O 
  Hf13     1.0000 0.63839  0.51676  0.24230  Biso   1.000  Hf
  Hf14     1.0000 0.63891  0.72935  0.74375  Biso   1.000  Hf
  Hf15     1.0000 0.86299  0.76730  0.24385  Biso   1.000  Hf
  Hf16     1.0000 0.86761  0.98221  0.74312  Biso   1.000  Hf
  O25      1.0000 0.53741  0.67986  0.39491  Biso   1.000  O 
  O26      1.0000 0.53519  0.57189  0.90345  Biso   1.000  O 
  O27      1.0000 0.96940  0.92518  0.40699  Biso   1.000  O 
  O28      1.0000 0.96969  0.81962  0.90316  Biso   1.000  O 
  O29      1.0000 0.77133  0.61041  0.49351  Biso   1.000  O 
  O30      1.0000 0.77397  0.63512  0.99210  Biso   1.000  O 
  O31      1.0000 0.73398  0.88586  0.99289  Biso   1.000  O 
  O32      1.0000 0.73164  0.86173  0.49414  Biso   1.000  O 
  W1       1.0000 0.11887  0.30648  0.22830  Biso   1.000  W 
