data_image0
_cell_length_a       9.94459
_cell_length_b       10.3353
_cell_length_c       4.98992
_cell_angle_alpha    90
_cell_angle_beta     90
_cell_angle_gamma    90

_symmetry_space_group_name_H-M    "P 1"
_symmetry_int_tables_number       1

loop_
  _symmetry_equiv_pos_as_xyz
  'x, y, z'

loop_
  _atom_site_label
  _atom_site_occupancy
  _atom_site_fract_x
  _atom_site_fract_y
  _atom_site_fract_z
  _atom_site_thermal_displace_type
  _atom_site_B_iso_or_equiv
  _atom_site_type_symbol
  W1       1.0000 0.13541  0.02158  0.25645  Biso   1.000  W 
  Hf1      1.0000 0.13402  0.23295  0.75661  Biso   1.000  Hf
  Hf2      1.0000 0.36645  0.26792  0.25033  Biso   1.000  Hf
  Hf3      1.0000 0.36590  0.48553  0.75159  Biso   1.000  Hf
  O1       1.0000 0.03501  0.18007  0.40592  Biso   1.000  O 
  O2       1.0000 0.03527  0.06730  0.92839  Biso   1.000  O 
  O3       1.0000 0.46294  0.43571  0.38600  Biso   1.000  O 
  O4       1.0000 0.46280  0.31660  0.88518  Biso   1.000  O 
  O5       1.0000 0.27171  0.11895  0.48930  Biso   1.000  O 
  O6       1.0000 0.27175  0.12964  0.99657  Biso   1.000  O 
  O7       1.0000 0.22921  0.38157  0.00097  Biso   1.000  O 
  O8       1.0000 0.22943  0.36813  0.50214  Biso   1.000  O 
  Hf4      1.0000 0.13412  0.51660  0.25303  Biso   1.000  Hf
  Hf5      1.0000 0.13370  0.73582  0.75136  Biso   1.000  Hf
  Hf6      1.0000 0.36496  0.76838  0.25137  Biso   1.000  Hf
  Hf7      1.0000 0.36465  0.98383  0.75151  Biso   1.000  Hf
  O9       1.0000 0.03670  0.68413  0.38650  Biso   1.000  O 
  O10      1.0000 0.03664  0.56714  0.88863  Biso   1.000  O 
  O11      1.0000 0.46424  0.93454  0.38869  Biso   1.000  O 
  O12      1.0000 0.46147  0.81682  0.88638  Biso   1.000  O 
  O13      1.0000 0.27095  0.62018  0.49961  Biso   1.000  O 
  O14      1.0000 0.27090  0.63426  0.99934  Biso   1.000  O 
  O15      1.0000 0.22281  0.88430  0.00229  Biso   1.000  O 
  O16      1.0000 0.22703  0.87188  0.49488  Biso   1.000  O 
  Hf8      1.0000 0.63425  0.01646  0.24899  Biso   1.000  Hf
  Hf9      1.0000 0.63380  0.23407  0.75089  Biso   1.000  Hf
  Hf10     1.0000 0.86549  0.26545  0.25350  Biso   1.000  Hf
  Hf11     1.0000 0.86619  0.48457  0.75254  Biso   1.000  Hf
  O17      1.0000 0.53699  0.18543  0.38527  Biso   1.000  O 
  O18      1.0000 0.53607  0.06664  0.88595  Biso   1.000  O 
  O19      1.0000 0.96459  0.43260  0.39125  Biso   1.000  O 
  O20      1.0000 0.96512  0.31686  0.89424  Biso   1.000  O 
  O21      1.0000 0.76997  0.11788  0.49797  Biso   1.000  O 
  O22      1.0000 0.77154  0.13390  0.99687  Biso   1.000  O 
  O23      1.0000 0.72924  0.38163  0.00047  Biso   1.000  O 
  O24      1.0000 0.72956  0.36857  0.49980  Biso   1.000  O 
  Hf12     1.0000 0.63438  0.51756  0.25139  Biso   1.000  Hf
  Hf13     1.0000 0.63463  0.73572  0.74908  Biso   1.000  Hf
  Hf14     1.0000 0.86783  0.76765  0.24826  Biso   1.000  Hf
  Hf15     1.0000 0.87007  0.98566  0.74845  Biso   1.000  Hf
  O25      1.0000 0.53653  0.68589  0.38615  Biso   1.000  O 
  O26      1.0000 0.53733  0.56721  0.88559  Biso   1.000  O 
  O27      1.0000 0.96948  0.93501  0.38367  Biso   1.000  O 
  O28      1.0000 0.96203  0.81658  0.88173  Biso   1.000  O 
  O29      1.0000 0.77105  0.61876  0.49908  Biso   1.000  O 
  O30      1.0000 0.77094  0.63419  0.99876  Biso   1.000  O 
  O31      1.0000 0.72955  0.88495  0.99323  Biso   1.000  O 
  O32      1.0000 0.73275  0.86943  0.49524  Biso   1.000  O 
