data_image0
_cell_length_a       10.0757
_cell_length_b       10.2736
_cell_length_c       10.4821
_cell_angle_alpha    90
_cell_angle_beta     90
_cell_angle_gamma    90

_symmetry_space_group_name_H-M    "P 1"
_symmetry_int_tables_number       1

loop_
  _symmetry_equiv_pos_as_xyz
  'x, y, z'

loop_
  _atom_site_label
  _atom_site_occupancy
  _atom_site_fract_x
  _atom_site_fract_y
  _atom_site_fract_z
  _atom_site_thermal_displace_type
  _atom_site_B_iso_or_equiv
  _atom_site_type_symbol
  Hf1      1.0000 0.13724  0.02056  0.17151  Biso   1.000  Hf
  Hf2      1.0000 0.13204  0.23206  0.42382  Biso   1.000  Hf
  Hf3      1.0000 0.34818  0.26916  0.17806  Biso   1.000  Hf
  Hf4      1.0000 0.35771  0.48258  0.42361  Biso   1.000  Hf
  Hf5      1.0000 0.63825  0.01341  0.06822  Biso   1.000  Hf
  Hf6      1.0000 0.63195  0.23306  0.34593  Biso   1.000  Hf
  Hf7      1.0000 0.87401  0.27098  0.07300  Biso   1.000  Hf
  Hf8      1.0000 0.86158  0.48277  0.32908  Biso   1.000  Hf
  O1       1.0000 0.03878  0.16387  0.07986  Biso   1.000  O 
  O2       1.0000 0.02353  0.09248  0.32872  Biso   1.000  O 
  O3       1.0000 0.46508  0.42192  0.08628  Biso   1.000  O 
  O4       1.0000 0.45743  0.33321  0.33938  Biso   1.000  O 
  O5       1.0000 0.26524  0.12598  0.29902  Biso   1.000  O 
  O6       1.0000 0.27569  0.12310  0.04317  Biso   1.000  O 
  O7       1.0000 0.21683  0.37774  0.29838  Biso   1.000  O 
  O8       1.0000 0.22340  0.37604  0.04377  Biso   1.000  O 
  O9       1.0000 0.50027  0.13255  0.17696  Biso   1.000  O 
  O10      1.0000 0.52714  0.08801  0.42574  Biso   1.000  O 
  O11      1.0000 0.96920  0.41596  0.16873  Biso   1.000  O 
  O12      1.0000 0.96262  0.33992  0.42035  Biso   1.000  O 
  O13      1.0000 0.77559  0.12402  0.45726  Biso   1.000  O 
  O14      1.0000 0.75170  0.14219  0.19760  Biso   1.000  O 
  O15      1.0000 0.72107  0.37670  0.46094  Biso   1.000  O 
  O16      1.0000 0.72355  0.39077  0.20836  Biso   1.000  O 
  Hf9      1.0000 0.13535  0.02410  0.67048  Biso   1.000  Hf
  Hf10     1.0000 0.13676  0.23149  0.91804  Biso   1.000  Hf
  Hf11     1.0000 0.36010  0.27360  0.67277  Biso   1.000  Hf
  Hf12     1.0000 0.35390  0.48408  0.91921  Biso   1.000  Hf
  Hf13     1.0000 0.63452  0.02410  0.58241  Biso   1.000  Hf
  Hf14     1.0000 0.63643  0.22835  0.83564  Biso   1.000  Hf
  Hf15     1.0000 0.85725  0.27375  0.58294  Biso   1.000  Hf
  Hf16     1.0000 0.85673  0.48452  0.82929  Biso   1.000  Hf
  O17      1.0000 0.02864  0.16840  0.58411  Biso   1.000  O 
  O18      1.0000 0.03225  0.08717  0.83098  Biso   1.000  O 
  O19      1.0000 0.46370  0.42003  0.58622  Biso   1.000  O 
  O20      1.0000 0.46160  0.33648  0.83898  Biso   1.000  O 
  O21      1.0000 0.27317  0.12712  0.79370  Biso   1.000  O 
  O22      1.0000 0.27160  0.12919  0.54586  Biso   1.000  O 
  O23      1.0000 0.22027  0.37762  0.79409  Biso   1.000  O 
  O24      1.0000 0.22066  0.37903  0.54635  Biso   1.000  O 
  O25      1.0000 0.53055  0.16999  0.66849  Biso   1.000  O 
  O26      1.0000 0.52810  0.07368  0.90318  Biso   1.000  O 
  O27      1.0000 0.96200  0.41981  0.66719  Biso   1.000  O 
  O28      1.0000 0.96448  0.33949  0.91240  Biso   1.000  O 
  O29      1.0000 0.78854  0.12051  0.94789  Biso   1.000  O 
  O30      1.0000 0.77292  0.12827  0.70411  Biso   1.000  O 
  O31      1.0000 0.71869  0.38317  0.96413  Biso   1.000  O 
  O32      1.0000 0.72017  0.37937  0.71130  Biso   1.000  O 
  Hf17     1.0000 0.13918  0.52248  0.17153  Biso   1.000  Hf
  Hf18     1.0000 0.13491  0.73221  0.42093  Biso   1.000  Hf
  Hf19     1.0000 0.35911  0.77294  0.17257  Biso   1.000  Hf
  Hf20     1.0000 0.35880  0.98134  0.42366  Biso   1.000  Hf
  Hf21     1.0000 0.64159  0.53790  0.07745  Biso   1.000  Hf
  Hf22     1.0000 0.63693  0.73340  0.32980  Biso   1.000  Hf
  Hf23     1.0000 0.86522  0.77415  0.07838  Biso   1.000  Hf
  Hf24     1.0000 0.85718  0.98262  0.32752  Biso   1.000  Hf
  O33      1.0000 0.03447  0.66564  0.08298  Biso   1.000  O 
  O34      1.0000 0.03060  0.58915  0.33182  Biso   1.000  O 
  O35      1.0000 0.46705  0.90573  0.07592  Biso   1.000  O 
  O36      1.0000 0.46513  0.83957  0.33313  Biso   1.000  O 
  O37      1.0000 0.27330  0.62638  0.29590  Biso   1.000  O 
  O38      1.0000 0.27817  0.62491  0.04488  Biso   1.000  O 
  O39      1.0000 0.22172  0.87609  0.29576  Biso   1.000  O 
  O40      1.0000 0.22206  0.87465  0.04598  Biso   1.000  O 
  O41      1.0000 0.53111  0.66920  0.17021  Biso   1.000  O 
  O42      1.0000 0.53076  0.58689  0.41697  Biso   1.000  O 
  O43      1.0000 0.96510  0.92020  0.16554  Biso   1.000  O 
  O44      1.0000 0.96262  0.83998  0.41400  Biso   1.000  O 
  O45      1.0000 0.77337  0.62656  0.45445  Biso   1.000  O 
  O46      1.0000 0.77789  0.63515  0.20517  Biso   1.000  O 
  O47      1.0000 0.72004  0.87724  0.45531  Biso   1.000  O 
  O48      1.0000 0.72513  0.87960  0.20517  Biso   1.000  O 
  Hf25     1.0000 0.13364  0.52395  0.67050  Biso   1.000  Hf
  Hf26     1.0000 0.13317  0.73271  0.92119  Biso   1.000  Hf
  Hf27     1.0000 0.35734  0.77317  0.67072  Biso   1.000  Hf
  Hf28     1.0000 0.35418  0.97931  0.91957  Biso   1.000  Hf
  Hf29     1.0000 0.63566  0.52417  0.57979  Biso   1.000  Hf
  Hf30     1.0000 0.63385  0.73380  0.82522  Biso   1.000  Hf
  Hf31     1.0000 0.85797  0.77491  0.57705  Biso   1.000  Hf
  Hf32     1.0000 0.86056  0.98139  0.82617  Biso   1.000  Hf
  O49      1.0000 0.02870  0.66824  0.58097  Biso   1.000  O 
  O50      1.0000 0.02795  0.58936  0.83195  Biso   1.000  O 
  O51      1.0000 0.46318  0.91742  0.58502  Biso   1.000  O 
  O52      1.0000 0.46031  0.83395  0.83122  Biso   1.000  O 
  O53      1.0000 0.27060  0.62649  0.79404  Biso   1.000  O 
  O54      1.0000 0.27102  0.62892  0.54466  Biso   1.000  O 
  O55      1.0000 0.21906  0.87609  0.79415  Biso   1.000  O 
  O56      1.0000 0.22103  0.87860  0.54414  Biso   1.000  O 
  O57      1.0000 0.52919  0.66872  0.66446  Biso   1.000  O 
  O58      1.0000 0.52713  0.59045  0.91495  Biso   1.000  O 
  O59      1.0000 0.96575  0.91767  0.66288  Biso   1.000  O 
  O60      1.0000 0.96454  0.83926  0.91670  Biso   1.000  O 
  O61      1.0000 0.77226  0.63206  0.95269  Biso   1.000  O 
  O62      1.0000 0.77251  0.62950  0.70379  Biso   1.000  O 
  O63      1.0000 0.72058  0.87506  0.95209  Biso   1.000  O 
  O64      1.0000 0.72136  0.87830  0.70379  Biso   1.000  O 
  W1       1.0000 0.60525  0.27243  0.10288  Biso   1.000  W 
