data_image0
_cell_length_a       10.0895
_cell_length_b       10.1082
_cell_length_c       5.18868
_cell_angle_alpha    90
_cell_angle_beta     90
_cell_angle_gamma    90

_symmetry_space_group_name_H-M    "P 1"
_symmetry_int_tables_number       1

loop_
  _symmetry_equiv_pos_as_xyz
  'x, y, z'

loop_
  _atom_site_label
  _atom_site_occupancy
  _atom_site_fract_x
  _atom_site_fract_y
  _atom_site_fract_z
  _atom_site_thermal_displace_type
  _atom_site_B_iso_or_equiv
  _atom_site_type_symbol
  Hf1      1.0000 0.09132  0.97738  0.23581  Biso   1.000  Hf
  Hf2      1.0000 0.11001  0.25259  0.67329  Biso   1.000  Hf
  Hf3      1.0000 0.39783  0.23948  0.27745  Biso   1.000  Hf
  Hf4      1.0000 0.36612  0.00729  0.80020  Biso   1.000  Hf
  O1       1.0000 0.01026  0.10303  0.91014  Biso   1.000  O 
  O2       1.0000 0.99588  0.13453  0.39239  Biso   1.000  O 
  O3       1.0000 0.99729  0.37637  0.41099  Biso   1.000  O 
  O4       1.0000 0.94715  0.33920  0.93046  Biso   1.000  O 
  O5       1.0000 0.23630  0.12547  0.44159  Biso   1.000  O 
  O6       1.0000 0.25275  0.16679  0.95688  Biso   1.000  O 
  O7       1.0000 0.18938  0.40597  0.91450  Biso   1.000  O 
  O8       1.0000 0.23774  0.36866  0.40935  Biso   1.000  O 
  Hf5      1.0000 0.12409  0.52665  0.23924  Biso   1.000  Hf
  Hf6      1.0000 0.09995  0.75023  0.73019  Biso   1.000  Hf
  Hf7      1.0000 0.37096  0.74930  0.30327  Biso   1.000  Hf
  Hf8      1.0000 0.35557  0.51202  0.79103  Biso   1.000  Hf
  O9       1.0000 0.99424  0.60192  0.92051  Biso   1.000  O 
  O10      1.0000 0.98991  0.64692  0.42571  Biso   1.000  O 
  O11      1.0000 0.96485  0.88772  0.52991  Biso   1.000  O 
  O12      1.0000 0.96410  0.84948  0.02818  Biso   1.000  O 
  O13      1.0000 0.23229  0.61843  0.54102  Biso   1.000  O 
  O14      1.0000 0.25224  0.65203  0.03325  Biso   1.000  O 
  O15      1.0000 0.18604  0.90812  0.92226  Biso   1.000  O 
  O16      1.0000 0.21184  0.85503  0.43381  Biso   1.000  O 
  Hf9      1.0000 0.63206  0.02491  0.25111  Biso   1.000  Hf
  Hf10     1.0000 0.62114  0.24055  0.71127  Biso   1.000  Hf
  Hf11     1.0000 0.84184  0.26175  0.25253  Biso   1.000  Hf
  Hf12     1.0000 0.83773  0.98720  0.78192  Biso   1.000  Hf
  O17      1.0000 0.49526  0.14203  0.98869  Biso   1.000  O 
  O18      1.0000 0.49164  0.09935  0.51672  Biso   1.000  O 
  O19      1.0000 0.47861  0.37124  0.59285  Biso   1.000  O 
  O20      1.0000 0.45336  0.40378  0.09257  Biso   1.000  O 
  O21      1.0000 0.76056  0.12142  0.52439  Biso   1.000  O 
  O22      1.0000 0.76551  0.12077  0.00499  Biso   1.000  O 
  O23      1.0000 0.69677  0.38070  0.99509  Biso   1.000  O 
  O24      1.0000 0.74830  0.38598  0.51393  Biso   1.000  O 
  Hf13     1.0000 0.60462  0.48488  0.28488  Biso   1.000  Hf
  Hf14     1.0000 0.60194  0.74169  0.77062  Biso   1.000  Hf
  Hf15     1.0000 0.83778  0.75881  0.29432  Biso   1.000  Hf
  Hf16     1.0000 0.83657  0.49972  0.80313  Biso   1.000  Hf
  O25      1.0000 0.50035  0.63728  0.01715  Biso   1.000  O 
  O26      1.0000 0.48544  0.61503  0.51025  Biso   1.000  O 
  O27      1.0000 0.44755  0.84831  0.63644  Biso   1.000  O 
  O28      1.0000 0.45374  0.90713  0.12418  Biso   1.000  O 
  O29      1.0000 0.73453  0.63169  0.56154  Biso   1.000  O 
  O30      1.0000 0.75142  0.61693  0.06026  Biso   1.000  O 
  O31      1.0000 0.71618  0.87606  0.00869  Biso   1.000  O 
  O32      1.0000 0.70774  0.87705  0.50503  Biso   1.000  O 
  W1       1.0000 0.11882  0.25186  0.17028  Biso   1.000  W 
