data_image0
_cell_length_a       10.2702
_cell_length_b       10.2632
_cell_length_c       5.30186
_cell_angle_alpha    90
_cell_angle_beta     80
_cell_angle_gamma    90

_symmetry_space_group_name_H-M    "P 1"
_symmetry_int_tables_number       1

loop_
  _symmetry_equiv_pos_as_xyz
  'x, y, z'

loop_
  _atom_site_label
  _atom_site_occupancy
  _atom_site_fract_x
  _atom_site_fract_y
  _atom_site_fract_z
  _atom_site_thermal_displace_type
  _atom_site_B_iso_or_equiv
  _atom_site_type_symbol
  Hf1      1.0000 0.14068  0.02160  0.28990  Biso   1.000  Hf
  Hf2      1.0000 0.13465  0.23019  0.78280  Biso   1.000  Hf
  Hf3      1.0000 0.36782  0.27439  0.22002  Biso   1.000  Hf
  Hf4      1.0000 0.36072  0.49749  0.69460  Biso   1.000  Hf
  O1       1.0000 0.03417  0.16303  0.14249  Biso   1.000  O 
  O2       1.0000 0.03493  0.08712  0.63448  Biso   1.000  O 
  O3       1.0000 0.48521  0.38622  0.41816  Biso   1.000  O 
  O4       1.0000 0.49544  0.38209  0.91063  Biso   1.000  O 
  O5       1.0000 0.28237  0.12626  0.50069  Biso   1.000  O 
  O6       1.0000 0.29337  0.11572  0.98520  Biso   1.000  O 
  O7       1.0000 0.25048  0.36832  0.97154  Biso   1.000  O 
  O8       1.0000 0.21408  0.37947  0.48677  Biso   1.000  O 
  Hf5      1.0000 0.13489  0.52134  0.28371  Biso   1.000  Hf
  Hf6      1.0000 0.13374  0.73009  0.78755  Biso   1.000  Hf
  Hf7      1.0000 0.35712  0.77130  0.20378  Biso   1.000  Hf
  Hf8      1.0000 0.35979  0.96707  0.70426  Biso   1.000  Hf
  O9       1.0000 0.01987  0.66007  0.13756  Biso   1.000  O 
  O10      1.0000 0.03172  0.59190  0.62978  Biso   1.000  O 
  O11      1.0000 0.46639  0.90538  0.35433  Biso   1.000  O 
  O12      1.0000 0.47304  0.83905  0.85500  Biso   1.000  O 
  O13      1.0000 0.27142  0.63096  0.47462  Biso   1.000  O 
  O14      1.0000 0.27303  0.62661  0.97998  Biso   1.000  O 
  O15      1.0000 0.21514  0.87427  0.01845  Biso   1.000  O 
  O16      1.0000 0.22033  0.87178  0.51288  Biso   1.000  O 
  Hf9      1.0000 0.64458  0.02031  0.28943  Biso   1.000  Hf
  Hf10     1.0000 0.64503  0.23473  0.80887  Biso   1.000  Hf
  Hf11     1.0000 0.85997  0.27094  0.21333  Biso   1.000  Hf
  Hf12     1.0000 0.86432  0.47900  0.70352  Biso   1.000  Hf
  O17      1.0000 0.53708  0.16001  0.16399  Biso   1.000  O 
  O18      1.0000 0.53646  0.08660  0.64477  Biso   1.000  O 
  O19      1.0000 0.96785  0.41266  0.34158  Biso   1.000  O 
  O20      1.0000 0.97321  0.34196  0.84393  Biso   1.000  O 
  O21      1.0000 0.77878  0.12765  0.47997  Biso   1.000  O 
  O22      1.0000 0.78957  0.12027  0.97915  Biso   1.000  O 
  O23      1.0000 0.72725  0.37694  0.03240  Biso   1.000  O 
  O24      1.0000 0.73055  0.37434  0.52632  Biso   1.000  O 
  Hf13     1.0000 0.63673  0.52111  0.29449  Biso   1.000  Hf
  Hf14     1.0000 0.64158  0.72720  0.78896  Biso   1.000  Hf
  Hf15     1.0000 0.85555  0.77244  0.20338  Biso   1.000  Hf
  Hf16     1.0000 0.85772  0.97979  0.70136  Biso   1.000  Hf
  O25      1.0000 0.52117  0.65039  0.13753  Biso   1.000  O 
  O26      1.0000 0.52986  0.60440  0.62467  Biso   1.000  O 
  O27      1.0000 0.96429  0.91293  0.34047  Biso   1.000  O 
  O28      1.0000 0.96767  0.84008  0.84129  Biso   1.000  O 
  O29      1.0000 0.77347  0.62734  0.47261  Biso   1.000  O 
  O30      1.0000 0.77823  0.62242  0.97123  Biso   1.000  O 
  O31      1.0000 0.71575  0.87571  0.01977  Biso   1.000  O 
  O32      1.0000 0.72313  0.87170  0.51844  Biso   1.000  O 
  W1       1.0000 0.40153  0.24582  0.72343  Biso   1.000  W 
