data_image0
_cell_length_a       10.0194
_cell_length_b       10.4529
_cell_length_c       10.0579
_cell_angle_alpha    90
_cell_angle_beta     90
_cell_angle_gamma    90

_symmetry_space_group_name_H-M    "P 1"
_symmetry_int_tables_number       1

loop_
  _symmetry_equiv_pos_as_xyz
  'x, y, z'

loop_
  _atom_site_label
  _atom_site_occupancy
  _atom_site_fract_x
  _atom_site_fract_y
  _atom_site_fract_z
  _atom_site_thermal_displace_type
  _atom_site_B_iso_or_equiv
  _atom_site_type_symbol
  Hf1      1.0000 0.13211  0.02116  0.12298  Biso   1.000  Hf
  Hf2      1.0000 0.13809  0.22797  0.38086  Biso   1.000  Hf
  Hf3      1.0000 0.38453  0.27011  0.12271  Biso   1.000  Hf
  Hf4      1.0000 0.36962  0.48252  0.37558  Biso   1.000  Hf
  O1       1.0000 0.00715  0.17176  0.22847  Biso   1.000  O 
  O2       1.0000 0.04121  0.05945  0.45095  Biso   1.000  O 
  O3       1.0000 0.47632  0.43378  0.20236  Biso   1.000  O 
  O4       1.0000 0.47202  0.31915  0.45275  Biso   1.000  O 
  O5       1.0000 0.26794  0.10744  0.25191  Biso   1.000  O 
  O6       1.0000 0.27787  0.13135  0.50348  Biso   1.000  O 
  O7       1.0000 0.23605  0.38421  0.50494  Biso   1.000  O 
  O8       1.0000 0.25007  0.35283  0.25988  Biso   1.000  O 
  Hf5      1.0000 0.13937  0.01215  0.62398  Biso   1.000  Hf
  Hf6      1.0000 0.13060  0.22894  0.85699  Biso   1.000  Hf
  Hf7      1.0000 0.37136  0.26893  0.62763  Biso   1.000  Hf
  Hf8      1.0000 0.37752  0.49568  0.87170  Biso   1.000  Hf
  O9       1.0000 0.03501  0.17726  0.68327  Biso   1.000  O 
  O10      1.0000 0.03620  0.06684  0.94025  Biso   1.000  O 
  O11      1.0000 0.47261  0.43427  0.69564  Biso   1.000  O 
  O12      1.0000 0.47701  0.32658  0.94240  Biso   1.000  O 
  O13      1.0000 0.27282  0.11462  0.75141  Biso   1.000  O 
  O14      1.0000 0.24874  0.16541  0.00863  Biso   1.000  O 
  O15      1.0000 0.25288  0.41413  0.01201  Biso   1.000  O 
  O16      1.0000 0.23815  0.36862  0.75543  Biso   1.000  O 
  Hf9      1.0000 0.13082  0.54603  0.11128  Biso   1.000  Hf
  Hf10     1.0000 0.13883  0.73458  0.37638  Biso   1.000  Hf
  Hf11     1.0000 0.36938  0.77018  0.12438  Biso   1.000  Hf
  Hf12     1.0000 0.37039  0.98419  0.37579  Biso   1.000  Hf
  O17      1.0000 0.02823  0.69093  0.20585  Biso   1.000  O 
  O18      1.0000 0.03961  0.56789  0.44755  Biso   1.000  O 
  O19      1.0000 0.46792  0.93249  0.19824  Biso   1.000  O 
  O20      1.0000 0.47194  0.81682  0.44560  Biso   1.000  O 
  O21      1.0000 0.27466  0.61795  0.24582  Biso   1.000  O 
  O22      1.0000 0.27565  0.63228  0.49679  Biso   1.000  O 
  O23      1.0000 0.23713  0.88114  0.49766  Biso   1.000  O 
  O24      1.0000 0.23134  0.86486  0.24655  Biso   1.000  O 
  Hf13     1.0000 0.13829  0.51616  0.62578  Biso   1.000  Hf
  Hf14     1.0000 0.13498  0.74648  0.86434  Biso   1.000  Hf
  Hf15     1.0000 0.37436  0.76310  0.62106  Biso   1.000  Hf
  Hf16     1.0000 0.38224  0.98437  0.86714  Biso   1.000  Hf
  O25      1.0000 0.04098  0.68539  0.68917  Biso   1.000  O 
  O26      1.0000 0.03867  0.57826  0.93578  Biso   1.000  O 
  O27      1.0000 0.47606  0.93077  0.69384  Biso   1.000  O 
  O28      1.0000 0.47782  0.82440  0.94521  Biso   1.000  O 
  O29      1.0000 0.27371  0.61806  0.74472  Biso   1.000  O 
  O30      1.0000 0.27349  0.66188  0.98901  Biso   1.000  O 
  O31      1.0000 0.24425  0.90594  0.99596  Biso   1.000  O 
  O32      1.0000 0.24332  0.86658  0.74439  Biso   1.000  O 
  Hf17     1.0000 0.63234  0.01283  0.12693  Biso   1.000  Hf
  Hf18     1.0000 0.63587  0.23393  0.37758  Biso   1.000  Hf
  Hf19     1.0000 0.85277  0.25980  0.12454  Biso   1.000  Hf
  Hf20     1.0000 0.87419  0.48249  0.37441  Biso   1.000  Hf
  O33      1.0000 0.53750  0.17939  0.20334  Biso   1.000  O 
  O34      1.0000 0.53793  0.06724  0.44793  Biso   1.000  O 
  O35      1.0000 0.97495  0.43044  0.19640  Biso   1.000  O 
  O36      1.0000 0.97266  0.32108  0.45111  Biso   1.000  O 
  O37      1.0000 0.76162  0.11115  0.25006  Biso   1.000  O 
  O38      1.0000 0.77460  0.13633  0.49739  Biso   1.000  O 
  O39      1.0000 0.73710  0.38589  0.49983  Biso   1.000  O 
  O40      1.0000 0.73372  0.36719  0.25243  Biso   1.000  O 
  Hf21     1.0000 0.64076  0.01723  0.62163  Biso   1.000  Hf
  Hf22     1.0000 0.63859  0.23669  0.87267  Biso   1.000  Hf
  Hf23     1.0000 0.86927  0.26955  0.62290  Biso   1.000  Hf
  Hf24     1.0000 0.86937  0.48741  0.87513  Biso   1.000  Hf
  O41      1.0000 0.53777  0.18114  0.69893  Biso   1.000  O 
  O42      1.0000 0.53027  0.07883  0.95483  Biso   1.000  O 
  O43      1.0000 0.97306  0.43104  0.70171  Biso   1.000  O 
  O44      1.0000 0.97392  0.32528  0.95238  Biso   1.000  O 
  O45      1.0000 0.77426  0.11771  0.74689  Biso   1.000  O 
  O46      1.0000 0.77140  0.13434  0.99633  Biso   1.000  O 
  O47      1.0000 0.73365  0.38779  0.99941  Biso   1.000  O 
  O48      1.0000 0.73605  0.36934  0.74983  Biso   1.000  O 
  Hf25     1.0000 0.63765  0.51843  0.12733  Biso   1.000  Hf
  Hf26     1.0000 0.63804  0.73356  0.37407  Biso   1.000  Hf
  Hf27     1.0000 0.86481  0.76817  0.12581  Biso   1.000  Hf
  Hf28     1.0000 0.87510  0.98720  0.37094  Biso   1.000  Hf
  O49      1.0000 0.53837  0.68523  0.19547  Biso   1.000  O 
  O50      1.0000 0.53811  0.56840  0.44704  Biso   1.000  O 
  O51      1.0000 0.96465  0.93423  0.19091  Biso   1.000  O 
  O52      1.0000 0.97040  0.81874  0.44484  Biso   1.000  O 
  O53      1.0000 0.77326  0.61524  0.24892  Biso   1.000  O 
  O54      1.0000 0.77365  0.63482  0.49783  Biso   1.000  O 
  O55      1.0000 0.73850  0.88653  0.49648  Biso   1.000  O 
  O56      1.0000 0.73239  0.86569  0.24858  Biso   1.000  O 
  Hf29     1.0000 0.63927  0.51801  0.62314  Biso   1.000  Hf
  Hf30     1.0000 0.64269  0.73653  0.87469  Biso   1.000  Hf
  Hf31     1.0000 0.87173  0.76770  0.62055  Biso   1.000  Hf
  Hf32     1.0000 0.87120  0.98452  0.87312  Biso   1.000  Hf
  O57      1.0000 0.53972  0.68210  0.69924  Biso   1.000  O 
  O58      1.0000 0.54177  0.57542  0.95072  Biso   1.000  O 
  O59      1.0000 0.97583  0.92813  0.70058  Biso   1.000  O 
  O60      1.0000 0.97160  0.82150  0.94854  Biso   1.000  O 
  O61      1.0000 0.77603  0.61797  0.74734  Biso   1.000  O 
  O62      1.0000 0.77883  0.63785  0.99802  Biso   1.000  O 
  O63      1.0000 0.73517  0.88743  0.99735  Biso   1.000  O 
  O64      1.0000 0.73762  0.86753  0.74632  Biso   1.000  O 
  W1       1.0000 0.11288  0.30340  0.10873  Biso   1.000  W 
