data_image0
_cell_length_a       9.93304
_cell_length_b       5.17355
_cell_length_c       9.9816
_cell_angle_alpha    90
_cell_angle_beta     90
_cell_angle_gamma    90

_symmetry_space_group_name_H-M    "P 1"
_symmetry_int_tables_number       1

loop_
  _symmetry_equiv_pos_as_xyz
  'x, y, z'

loop_
  _atom_site_label
  _atom_site_occupancy
  _atom_site_fract_x
  _atom_site_fract_y
  _atom_site_fract_z
  _atom_site_thermal_displace_type
  _atom_site_B_iso_or_equiv
  _atom_site_type_symbol
  W1       1.0000 0.13798  0.03982  0.12576  Biso   1.000  W 
  Hf1      1.0000 0.13329  0.46743  0.37495  Biso   1.000  Hf
  Hf2      1.0000 0.36592  0.53886  0.12607  Biso   1.000  Hf
  Hf3      1.0000 0.36558  0.96894  0.37523  Biso   1.000  Hf
  O1       1.0000 0.04027  0.36185  0.19107  Biso   1.000  O 
  O2       1.0000 0.03478  0.13691  0.44831  Biso   1.000  O 
  O3       1.0000 0.46449  0.87005  0.19416  Biso   1.000  O 
  O4       1.0000 0.46379  0.63377  0.44287  Biso   1.000  O 
  O5       1.0000 0.27137  0.24066  0.24714  Biso   1.000  O 
  O6       1.0000 0.27091  0.26598  0.49889  Biso   1.000  O 
  O7       1.0000 0.22934  0.76580  0.49961  Biso   1.000  O 
  O8       1.0000 0.22627  0.74493  0.24854  Biso   1.000  O 
  Hf4      1.0000 0.13455  0.03440  0.62663  Biso   1.000  Hf
  Hf5      1.0000 0.13417  0.46824  0.87806  Biso   1.000  Hf
  Hf6      1.0000 0.36620  0.53516  0.62568  Biso   1.000  Hf
  Hf7      1.0000 0.36555  0.96908  0.87666  Biso   1.000  Hf
  O9       1.0000 0.03488  0.36565  0.69942  Biso   1.000  O 
  O10      1.0000 0.03756  0.13027  0.95639  Biso   1.000  O 
  O11      1.0000 0.46304  0.87194  0.69364  Biso   1.000  O 
  O12      1.0000 0.46183  0.63231  0.94333  Biso   1.000  O 
  O13      1.0000 0.27134  0.23821  0.75049  Biso   1.000  O 
  O14      1.0000 0.26993  0.25932  0.00207  Biso   1.000  O 
  O15      1.0000 0.22400  0.76447  0.00147  Biso   1.000  O 
  O16      1.0000 0.22955  0.73595  0.75077  Biso   1.000  O 
  Hf8      1.0000 0.63532  0.03502  0.12565  Biso   1.000  Hf
  Hf9      1.0000 0.63529  0.46982  0.37477  Biso   1.000  Hf
  Hf10     1.0000 0.86908  0.53403  0.12450  Biso   1.000  Hf
  Hf11     1.0000 0.86823  0.96868  0.37491  Biso   1.000  Hf
  O17      1.0000 0.53765  0.37204  0.19256  Biso   1.000  O 
  O18      1.0000 0.53662  0.13427  0.44268  Biso   1.000  O 
  O19      1.0000 0.97337  0.86436  0.19246  Biso   1.000  O 
  O20      1.0000 0.96509  0.63409  0.44596  Biso   1.000  O 
  O21      1.0000 0.77304  0.23722  0.24914  Biso   1.000  O 
  O22      1.0000 0.77101  0.26658  0.49919  Biso   1.000  O 
  O23      1.0000 0.73012  0.76698  0.49871  Biso   1.000  O 
  O24      1.0000 0.73325  0.73870  0.24845  Biso   1.000  O 
  Hf12     1.0000 0.63407  0.03480  0.62506  Biso   1.000  Hf
  Hf13     1.0000 0.63445  0.46909  0.87574  Biso   1.000  Hf
  Hf14     1.0000 0.86632  0.53391  0.62651  Biso   1.000  Hf
  Hf15     1.0000 0.86726  0.96986  0.87624  Biso   1.000  Hf
  O25      1.0000 0.53704  0.37185  0.69329  Biso   1.000  O 
  O26      1.0000 0.53688  0.13286  0.94348  Biso   1.000  O 
  O27      1.0000 0.96462  0.86915  0.69541  Biso   1.000  O 
  O28      1.0000 0.96196  0.63082  0.94154  Biso   1.000  O 
  O29      1.0000 0.77037  0.23668  0.74963  Biso   1.000  O 
  O30      1.0000 0.77172  0.26723  0.99925  Biso   1.000  O 
  O31      1.0000 0.72973  0.76756  0.99905  Biso   1.000  O 
  O32      1.0000 0.72943  0.73792  0.74935  Biso   1.000  O 
