data_image0
_cell_length_a       10.0895
_cell_length_b       5.1887
_cell_length_c       10.1082
_cell_angle_alpha    90
_cell_angle_beta     90
_cell_angle_gamma    90

_symmetry_space_group_name_H-M    "P 1"
_symmetry_int_tables_number       1

loop_
  _symmetry_equiv_pos_as_xyz
  'x, y, z'

loop_
  _atom_site_label
  _atom_site_occupancy
  _atom_site_fract_x
  _atom_site_fract_y
  _atom_site_fract_z
  _atom_site_thermal_displace_type
  _atom_site_B_iso_or_equiv
  _atom_site_type_symbol
  Hf1      1.0000 0.11802  0.07786  0.12488  Biso   1.000  Hf
  Hf2      1.0000 0.11892  0.51933  0.39824  Biso   1.000  Hf
  Hf3      1.0000 0.38618  0.49849  0.11411  Biso   1.000  Hf
  Hf4      1.0000 0.35227  0.97230  0.39052  Biso   1.000  Hf
  O1       1.0000 0.99028  0.34010  0.00778  Biso   1.000  O 
  O2       1.0000 0.99172  0.31139  0.25109  Biso   1.000  O 
  O3       1.0000 0.95502  0.79475  0.21175  Biso   1.000  O 
  O4       1.0000 0.00062  0.84815  0.97223  Biso   1.000  O 
  O5       1.0000 0.23214  0.36047  0.24185  Biso   1.000  O 
  O6       1.0000 0.23074  0.33836  0.00009  Biso   1.000  O 
  O7       1.0000 0.26062  0.81867  0.03924  Biso   1.000  O 
  O8       1.0000 0.19752  0.84242  0.27533  Biso   1.000  O 
  Hf5      1.0000 0.11030  0.02826  0.62728  Biso   1.000  Hf
  Hf6      1.0000 0.08617  0.52246  0.84896  Biso   1.000  Hf
  Hf7      1.0000 0.37248  0.46398  0.61703  Biso   1.000  Hf
  Hf8      1.0000 0.35343  0.95818  0.87807  Biso   1.000  Hf
  O9       1.0000 0.99841  0.32310  0.52134  Biso   1.000  O 
  O10      1.0000 0.97796  0.21933  0.75835  Biso   1.000  O 
  O11      1.0000 0.95801  0.72660  0.72280  Biso   1.000  O 
  O12      1.0000 0.00396  0.83313  0.47012  Biso   1.000  O 
  O13      1.0000 0.22034  0.33425  0.72941  Biso   1.000  O 
  O14      1.0000 0.24542  0.22652  0.48902  Biso   1.000  O 
  O15      1.0000 0.24615  0.72879  0.52533  Biso   1.000  O 
  O16      1.0000 0.19577  0.83934  0.77632  Biso   1.000  O 
  Hf9      1.0000 0.60689  0.04008  0.13706  Biso   1.000  Hf
  Hf10     1.0000 0.59596  0.50334  0.35093  Biso   1.000  Hf
  Hf11     1.0000 0.83020  0.47387  0.13646  Biso   1.000  Hf
  Hf12     1.0000 0.84164  0.95374  0.37066  Biso   1.000  Hf
  O17      1.0000 0.46196  0.24980  0.99071  Biso   1.000  O 
  O18      1.0000 0.46748  0.22867  0.25547  Biso   1.000  O 
  O19      1.0000 0.46252  0.74807  0.25413  Biso   1.000  O 
  O20      1.0000 0.49322  0.76796  0.99783  Biso   1.000  O 
  O21      1.0000 0.73640  0.23664  0.27752  Biso   1.000  O 
  O22      1.0000 0.74943  0.15657  0.00592  Biso   1.000  O 
  O23      1.0000 0.75689  0.67088  0.97128  Biso   1.000  O 
  O24      1.0000 0.71251  0.76330  0.23665  Biso   1.000  O 
  Hf13     1.0000 0.58806  0.98719  0.63599  Biso   1.000  Hf
  Hf14     1.0000 0.60562  0.47743  0.89092  Biso   1.000  Hf
  Hf15     1.0000 0.83930  0.45518  0.62656  Biso   1.000  Hf
  Hf16     1.0000 0.83442  0.97011  0.86573  Biso   1.000  Hf
  O25      1.0000 0.50252  0.25155  0.49961  Biso   1.000  O 
  O26      1.0000 0.47572  0.19864  0.74518  Biso   1.000  O 
  O27      1.0000 0.45884  0.70012  0.75801  Biso   1.000  O 
  O28      1.0000 0.49408  0.74789  0.49870  Biso   1.000  O 
  O29      1.0000 0.72482  0.25017  0.76164  Biso   1.000  O 
  O30      1.0000 0.76271  0.12056  0.52885  Biso   1.000  O 
  O31      1.0000 0.75652  0.63194  0.46806  Biso   1.000  O 
  O32      1.0000 0.70991  0.74294  0.73750  Biso   1.000  O 
  W1       1.0000 0.10920  0.58086  0.12367  Biso   1.000  W 
