data_image0
_cell_length_a       10.0927
_cell_length_b       5.1205
_cell_length_c       10.4526
_cell_angle_alpha    90
_cell_angle_beta     80
_cell_angle_gamma    90

_symmetry_space_group_name_H-M    "P 1"
_symmetry_int_tables_number       1

loop_
  _symmetry_equiv_pos_as_xyz
  'x, y, z'

loop_
  _atom_site_label
  _atom_site_occupancy
  _atom_site_fract_x
  _atom_site_fract_y
  _atom_site_fract_z
  _atom_site_thermal_displace_type
  _atom_site_B_iso_or_equiv
  _atom_site_type_symbol
  W1       1.0000 0.14004  0.04426  0.14763  Biso   1.000  W 
  Hf1      1.0000 0.14085  0.45874  0.39534  Biso   1.000  Hf
  Hf2      1.0000 0.35845  0.55396  0.10471  Biso   1.000  Hf
  Hf3      1.0000 0.36419  0.95870  0.35354  Biso   1.000  Hf
  O1       1.0000 0.03891  0.32534  0.08031  Biso   1.000  O 
  O2       1.0000 0.04022  0.16001  0.32215  Biso   1.000  O 
  O3       1.0000 0.46886  0.83619  0.17256  Biso   1.000  O 
  O4       1.0000 0.46724  0.66419  0.42079  Biso   1.000  O 
  O5       1.0000 0.27695  0.25650  0.23892  Biso   1.000  O 
  O6       1.0000 0.27843  0.24359  0.49069  Biso   1.000  O 
  O7       1.0000 0.21440  0.75956  0.00981  Biso   1.000  O 
  O8       1.0000 0.22337  0.74735  0.25959  Biso   1.000  O 
  Hf4      1.0000 0.13864  0.04230  0.64584  Biso   1.000  Hf
  Hf5      1.0000 0.14045  0.45427  0.89632  Biso   1.000  Hf
  Hf6      1.0000 0.36276  0.54398  0.60434  Biso   1.000  Hf
  Hf7      1.0000 0.36076  0.95861  0.85549  Biso   1.000  Hf
  O9       1.0000 0.03467  0.33073  0.57556  Biso   1.000  O 
  O10      1.0000 0.03391  0.16497  0.82731  Biso   1.000  O 
  O11      1.0000 0.46590  0.83865  0.67119  Biso   1.000  O 
  O12      1.0000 0.46211  0.66344  0.92153  Biso   1.000  O 
  O13      1.0000 0.27733  0.25735  0.74114  Biso   1.000  O 
  O14      1.0000 0.27624  0.24046  0.99548  Biso   1.000  O 
  O15      1.0000 0.22498  0.75692  0.50864  Biso   1.000  O 
  O16      1.0000 0.22462  0.74159  0.75917  Biso   1.000  O 
  Hf8      1.0000 0.63887  0.04693  0.14551  Biso   1.000  Hf
  Hf9      1.0000 0.64154  0.45792  0.39544  Biso   1.000  Hf
  Hf10     1.0000 0.86537  0.54327  0.10316  Biso   1.000  Hf
  Hf11     1.0000 0.86406  0.95742  0.35289  Biso   1.000  Hf
  O17      1.0000 0.53434  0.34118  0.08096  Biso   1.000  O 
  O18      1.0000 0.53725  0.16417  0.33063  Biso   1.000  O 
  O19      1.0000 0.97863  0.82892  0.16858  Biso   1.000  O 
  O20      1.0000 0.96645  0.66318  0.41974  Biso   1.000  O 
  O21      1.0000 0.77948  0.25672  0.23966  Biso   1.000  O 
  O22      1.0000 0.77917  0.24080  0.48956  Biso   1.000  O 
  O23      1.0000 0.72381  0.75974  0.00976  Biso   1.000  O 
  O24      1.0000 0.73055  0.74304  0.25876  Biso   1.000  O 
  Hf12     1.0000 0.63846  0.04298  0.64678  Biso   1.000  Hf
  Hf13     1.0000 0.63851  0.45767  0.89741  Biso   1.000  Hf
  Hf14     1.0000 0.86150  0.54245  0.60428  Biso   1.000  Hf
  Hf15     1.0000 0.86274  0.95611  0.85446  Biso   1.000  Hf
  O25      1.0000 0.53785  0.33978  0.58002  Biso   1.000  O 
  O26      1.0000 0.53413  0.16336  0.83103  Biso   1.000  O 
  O27      1.0000 0.96699  0.83261  0.67059  Biso   1.000  O 
  O28      1.0000 0.96583  0.66015  0.92088  Biso   1.000  O 
  O29      1.0000 0.77623  0.25763  0.74068  Biso   1.000  O 
  O30      1.0000 0.77727  0.24442  0.99023  Biso   1.000  O 
  O31      1.0000 0.72544  0.75862  0.50935  Biso   1.000  O 
  O32      1.0000 0.72403  0.74218  0.76009  Biso   1.000  O 
