data_image0
_cell_length_a       10.0893
_cell_length_b       10.2439
_cell_length_c       5.30395
_cell_angle_alpha    90
_cell_angle_beta     90
_cell_angle_gamma    90

_symmetry_space_group_name_H-M    "P 1"
_symmetry_int_tables_number       1

loop_
  _symmetry_equiv_pos_as_xyz
  'x, y, z'

loop_
  _atom_site_label
  _atom_site_occupancy
  _atom_site_fract_x
  _atom_site_fract_y
  _atom_site_fract_z
  _atom_site_thermal_displace_type
  _atom_site_B_iso_or_equiv
  _atom_site_type_symbol
  Hf1      1.0000 0.13723  0.02193  0.34328  Biso   1.000  Hf
  Hf2      1.0000 0.12887  0.22814  0.84166  Biso   1.000  Hf
  Hf3      1.0000 0.35731  0.26632  0.36090  Biso   1.000  Hf
  Hf4      1.0000 0.34103  0.48030  0.84349  Biso   1.000  Hf
  Hf5      1.0000 0.64229  0.00348  0.15021  Biso   1.000  Hf
  Hf6      1.0000 0.62250  0.22636  0.67575  Biso   1.000  Hf
  Hf7      1.0000 0.86967  0.26797  0.13983  Biso   1.000  Hf
  Hf8      1.0000 0.84840  0.47898  0.65356  Biso   1.000  Hf
  O1       1.0000 0.03142  0.15561  0.14327  Biso   1.000  O 
  O2       1.0000 0.02099  0.09302  0.64116  Biso   1.000  O 
  O3       1.0000 0.46480  0.41365  0.15495  Biso   1.000  O 
  O4       1.0000 0.45172  0.34099  0.67683  Biso   1.000  O 
  O5       1.0000 0.26329  0.12482  0.60203  Biso   1.000  O 
  O6       1.0000 0.27279  0.12320  0.09739  Biso   1.000  O 
  O7       1.0000 0.20886  0.37557  0.59330  Biso   1.000  O 
  O8       1.0000 0.21920  0.37652  0.09268  Biso   1.000  O 
  O9       1.0000 0.50845  0.11934  0.40993  Biso   1.000  O 
  O10      1.0000 0.50362  0.11450  0.91590  Biso   1.000  O 
  O11      1.0000 0.95642  0.41305  0.33656  Biso   1.000  O 
  O12      1.0000 0.95572  0.33763  0.82743  Biso   1.000  O 
  O13      1.0000 0.77259  0.11334  0.87752  Biso   1.000  O 
  O14      1.0000 0.75501  0.13774  0.37621  Biso   1.000  O 
  O15      1.0000 0.70882  0.37742  0.93556  Biso   1.000  O 
  O16      1.0000 0.70243  0.38602  0.43082  Biso   1.000  O 
  Hf9      1.0000 0.12994  0.51889  0.34105  Biso   1.000  Hf
  Hf10     1.0000 0.12145  0.72799  0.84055  Biso   1.000  Hf
  Hf11     1.0000 0.34927  0.77256  0.34785  Biso   1.000  Hf
  Hf12     1.0000 0.34227  0.97874  0.85313  Biso   1.000  Hf
  Hf13     1.0000 0.63315  0.53429  0.15259  Biso   1.000  Hf
  Hf14     1.0000 0.62354  0.72934  0.65241  Biso   1.000  Hf
  Hf15     1.0000 0.85904  0.76985  0.15331  Biso   1.000  Hf
  Hf16     1.0000 0.84944  0.97622  0.64974  Biso   1.000  Hf
  O17      1.0000 0.02566  0.66037  0.15301  Biso   1.000  O 
  O18      1.0000 0.01681  0.58872  0.65306  Biso   1.000  O 
  O19      1.0000 0.46349  0.89387  0.13808  Biso   1.000  O 
  O20      1.0000 0.45933  0.85091  0.64597  Biso   1.000  O 
  O21      1.0000 0.26060  0.62547  0.58965  Biso   1.000  O 
  O22      1.0000 0.26830  0.62579  0.09147  Biso   1.000  O 
  O23      1.0000 0.21013  0.87357  0.59312  Biso   1.000  O 
  O24      1.0000 0.21693  0.87676  0.09188  Biso   1.000  O 
  O25      1.0000 0.51711  0.65940  0.35115  Biso   1.000  O 
  O26      1.0000 0.51031  0.59737  0.84685  Biso   1.000  O 
  O27      1.0000 0.95923  0.91234  0.33107  Biso   1.000  O 
  O28      1.0000 0.95275  0.83900  0.83528  Biso   1.000  O 
  O29      1.0000 0.75967  0.62412  0.89875  Biso   1.000  O 
  O30      1.0000 0.76766  0.63026  0.40265  Biso   1.000  O 
  O31      1.0000 0.70883  0.86931  0.90696  Biso   1.000  O 
  O32      1.0000 0.71847  0.87170  0.41131  Biso   1.000  O 
  W1       1.0000 0.60206  0.25688  0.19069  Biso   1.000  W 
