data_image0
_cell_length_a       10.0197
_cell_length_b       10.2131
_cell_length_c       10.0197
_cell_angle_alpha    90
_cell_angle_beta     90
_cell_angle_gamma    90

_symmetry_space_group_name_H-M    "P 1"
_symmetry_int_tables_number       1

loop_
  _symmetry_equiv_pos_as_xyz
  'x, y, z'

loop_
  _atom_site_label
  _atom_site_occupancy
  _atom_site_fract_x
  _atom_site_fract_y
  _atom_site_fract_z
  _atom_site_thermal_displace_type
  _atom_site_B_iso_or_equiv
  _atom_site_type_symbol
  Y1       1.0000 0.12491  0.00018  0.12491  Biso   1.000  Y 
  Hf1      1.0000 0.12394  0.25084  0.37413  Biso   1.000  Hf
  Hf2      1.0000 0.37413  0.25084  0.12395  Biso   1.000  Hf
  Hf3      1.0000 0.37437  0.00001  0.37438  Biso   1.000  Hf
  O1       1.0000 0.99763  0.14799  0.99765  Biso   1.000  O 
  O2       1.0000 0.99209  0.11407  0.25773  Biso   1.000  O 
  O3       1.0000 0.00282  0.35724  0.24699  Biso   1.000  O 
  O4       1.0000 0.99860  0.39587  0.99862  Biso   1.000  O 
  O5       1.0000 0.25217  0.14799  0.25217  Biso   1.000  O 
  O6       1.0000 0.25771  0.11407  0.99209  Biso   1.000  O 
  O7       1.0000 0.24699  0.35724  0.00282  Biso   1.000  O 
  O8       1.0000 0.25120  0.39587  0.25120  Biso   1.000  O 
  Hf4      1.0000 0.12490  0.00017  0.62491  Biso   1.000  Hf
  Hf5      1.0000 0.12585  0.25084  0.87569  Biso   1.000  Hf
  Hf6      1.0000 0.37465  0.25001  0.62470  Biso   1.000  Hf
  Hf7      1.0000 0.37437  0.00036  0.87543  Biso   1.000  Hf
  O9       1.0000 0.00484  0.14796  0.50576  Biso   1.000  O 
  O10      1.0000 0.99743  0.10252  0.75096  Biso   1.000  O 
  O11      1.0000 0.00131  0.35308  0.74759  Biso   1.000  O 
  O12      1.0000 0.99937  0.39769  0.49805  Biso   1.000  O 
  O13      1.0000 0.24496  0.14796  0.74406  Biso   1.000  O 
  O14      1.0000 0.25237  0.10252  0.49886  Biso   1.000  O 
  O15      1.0000 0.24849  0.35309  0.50223  Biso   1.000  O 
  O16      1.0000 0.25043  0.39769  0.75177  Biso   1.000  O 
  Hf8      1.0000 0.12491  0.50016  0.12491  Biso   1.000  Hf
  Hf9      1.0000 0.12586  0.74951  0.37412  Biso   1.000  Hf
  Hf10     1.0000 0.37411  0.74951  0.12587  Biso   1.000  Hf
  Hf11     1.0000 0.37461  0.49924  0.37462  Biso   1.000  Hf
  O17      1.0000 0.00281  0.64311  0.00281  Biso   1.000  O 
  O18      1.0000 0.99863  0.60448  0.25119  Biso   1.000  O 
  O19      1.0000 0.99765  0.85236  0.25217  Biso   1.000  O 
  O20      1.0000 0.99207  0.88628  0.99209  Biso   1.000  O 
  O21      1.0000 0.24701  0.64311  0.24701  Biso   1.000  O 
  O22      1.0000 0.25117  0.60448  0.99863  Biso   1.000  O 
  O23      1.0000 0.25215  0.85236  0.99765  Biso   1.000  O 
  O24      1.0000 0.25772  0.88628  0.25773  Biso   1.000  O 
  Hf12     1.0000 0.12490  0.50018  0.62491  Biso   1.000  Hf
  Hf13     1.0000 0.12393  0.74951  0.87570  Biso   1.000  Hf
  Hf14     1.0000 0.37464  0.75035  0.62512  Biso   1.000  Hf
  Hf15     1.0000 0.37460  0.50112  0.87520  Biso   1.000  Hf
  O25      1.0000 0.00131  0.64727  0.50222  Biso   1.000  O 
  O26      1.0000 0.99935  0.60266  0.75175  Biso   1.000  O 
  O27      1.0000 0.00486  0.85239  0.74406  Biso   1.000  O 
  O28      1.0000 0.99740  0.89783  0.49888  Biso   1.000  O 
  O29      1.0000 0.24849  0.64727  0.74760  Biso   1.000  O 
  O30      1.0000 0.25044  0.60266  0.49807  Biso   1.000  O 
  O31      1.0000 0.24494  0.85239  0.50576  Biso   1.000  O 
  O32      1.0000 0.25240  0.89783  0.75094  Biso   1.000  O 
  Hf16     1.0000 0.62491  0.00017  0.12491  Biso   1.000  Hf
  Hf17     1.0000 0.62469  0.25001  0.37466  Biso   1.000  Hf
  Hf18     1.0000 0.87569  0.25084  0.12587  Biso   1.000  Hf
  Hf19     1.0000 0.87542  0.00036  0.37439  Biso   1.000  Hf
  O33      1.0000 0.50576  0.14796  0.00485  Biso   1.000  O 
  O34      1.0000 0.49886  0.10252  0.25238  Biso   1.000  O 
  O35      1.0000 0.50223  0.35308  0.24850  Biso   1.000  O 
  O36      1.0000 0.49803  0.39769  0.99938  Biso   1.000  O 
  O37      1.0000 0.74406  0.14796  0.24497  Biso   1.000  O 
  O38      1.0000 0.75093  0.10252  0.99744  Biso   1.000  O 
  O39      1.0000 0.74759  0.35308  0.00132  Biso   1.000  O 
  O40      1.0000 0.75177  0.39769  0.25044  Biso   1.000  O 
  Hf20     1.0000 0.62490  0.00016  0.62491  Biso   1.000  Hf
  Hf21     1.0000 0.62510  0.25001  0.87515  Biso   1.000  Hf
  Hf22     1.0000 0.87514  0.25001  0.62512  Biso   1.000  Hf
  Hf23     1.0000 0.87542  0.00001  0.87544  Biso   1.000  Hf
  O41      1.0000 0.50348  0.14769  0.50350  Biso   1.000  O 
  O42      1.0000 0.49812  0.10307  0.75169  Biso   1.000  O 
  O43      1.0000 0.50096  0.35270  0.74885  Biso   1.000  O 
  O44      1.0000 0.49923  0.39754  0.49924  Biso   1.000  O 
  O45      1.0000 0.74631  0.14769  0.74632  Biso   1.000  O 
  O46      1.0000 0.75168  0.10307  0.49813  Biso   1.000  O 
  O47      1.0000 0.74884  0.35270  0.50097  Biso   1.000  O 
  O48      1.0000 0.75057  0.39754  0.75057  Biso   1.000  O 
  Hf24     1.0000 0.62491  0.50018  0.12491  Biso   1.000  Hf
  Hf25     1.0000 0.62511  0.75035  0.37465  Biso   1.000  Hf
  Hf26     1.0000 0.87570  0.74951  0.12395  Biso   1.000  Hf
  Hf27     1.0000 0.87519  0.50112  0.37462  Biso   1.000  Hf
  O49      1.0000 0.50222  0.64727  0.00132  Biso   1.000  O 
  O50      1.0000 0.49806  0.60266  0.25045  Biso   1.000  O 
  O51      1.0000 0.50576  0.85239  0.24495  Biso   1.000  O 
  O52      1.0000 0.49886  0.89783  0.99741  Biso   1.000  O 
  O53      1.0000 0.74760  0.64727  0.24850  Biso   1.000  O 
  O54      1.0000 0.75173  0.60266  0.99936  Biso   1.000  O 
  O55      1.0000 0.74406  0.85239  0.00487  Biso   1.000  O 
  O56      1.0000 0.75093  0.89783  0.25241  Biso   1.000  O 
  Hf28     1.0000 0.62490  0.50019  0.62491  Biso   1.000  Hf
  Hf29     1.0000 0.62468  0.75035  0.87516  Biso   1.000  Hf
  Hf30     1.0000 0.87516  0.75035  0.62470  Biso   1.000  Hf
  Hf31     1.0000 0.87517  0.49924  0.87520  Biso   1.000  Hf
  O57      1.0000 0.50097  0.64765  0.50098  Biso   1.000  O 
  O58      1.0000 0.49922  0.60281  0.75058  Biso   1.000  O 
  O59      1.0000 0.50351  0.85265  0.74629  Biso   1.000  O 
  O60      1.0000 0.49810  0.89728  0.49811  Biso   1.000  O 
  O61      1.0000 0.74883  0.64765  0.74884  Biso   1.000  O 
  O62      1.0000 0.75057  0.60281  0.49924  Biso   1.000  O 
  O63      1.0000 0.74628  0.85265  0.50352  Biso   1.000  O 
  O64      1.0000 0.75170  0.89728  0.75171  Biso   1.000  O 
