data_image0
_cell_length_a       10.2062
_cell_length_b       10.3315
_cell_length_c       5.32693
_cell_angle_alpha    90
_cell_angle_beta     80
_cell_angle_gamma    90

_symmetry_space_group_name_H-M    "P 1"
_symmetry_int_tables_number       1

loop_
  _symmetry_equiv_pos_as_xyz
  'x, y, z'

loop_
  _atom_site_label
  _atom_site_occupancy
  _atom_site_fract_x
  _atom_site_fract_y
  _atom_site_fract_z
  _atom_site_thermal_displace_type
  _atom_site_B_iso_or_equiv
  _atom_site_type_symbol
  Hf1      1.0000 0.13652  0.01944  0.29288  Biso   1.000  Hf
  Hf2      1.0000 0.13623  0.22809  0.77554  Biso   1.000  Hf
  Hf3      1.0000 0.34466  0.28147  0.15503  Biso   1.000  Hf
  Hf4      1.0000 0.36037  0.49566  0.70261  Biso   1.000  Hf
  O1       1.0000 0.03945  0.16541  0.14773  Biso   1.000  O 
  O2       1.0000 0.03552  0.08245  0.64982  Biso   1.000  O 
  O3       1.0000 0.46674  0.41857  0.35036  Biso   1.000  O 
  O4       1.0000 0.48388  0.36356  0.86251  Biso   1.000  O 
  O5       1.0000 0.27587  0.12290  0.45079  Biso   1.000  O 
  O6       1.0000 0.29595  0.13143  0.92500  Biso   1.000  O 
  O7       1.0000 0.20648  0.39121  0.00069  Biso   1.000  O 
  O8       1.0000 0.23339  0.36765  0.50336  Biso   1.000  O 
  Hf5      1.0000 0.13513  0.52483  0.29332  Biso   1.000  Hf
  Hf6      1.0000 0.13751  0.72953  0.79380  Biso   1.000  Hf
  Hf7      1.0000 0.35849  0.77171  0.20840  Biso   1.000  Hf
  Hf8      1.0000 0.36342  0.96385  0.70134  Biso   1.000  Hf
  O9       1.0000 0.02667  0.66331  0.15570  Biso   1.000  O 
  O10      1.0000 0.03479  0.58590  0.65468  Biso   1.000  O 
  O11      1.0000 0.46658  0.91165  0.34987  Biso   1.000  O 
  O12      1.0000 0.47046  0.82991  0.85244  Biso   1.000  O 
  O13      1.0000 0.27453  0.62852  0.47871  Biso   1.000  O 
  O14      1.0000 0.27841  0.63018  0.98182  Biso   1.000  O 
  O15      1.0000 0.21809  0.88215  0.02258  Biso   1.000  O 
  O16      1.0000 0.21946  0.86691  0.51605  Biso   1.000  O 
  Hf9      1.0000 0.64398  0.01843  0.30670  Biso   1.000  Hf
  Hf10     1.0000 0.65779  0.22631  0.82418  Biso   1.000  Hf
  Hf11     1.0000 0.86286  0.27057  0.22555  Biso   1.000  Hf
  Hf12     1.0000 0.86392  0.47742  0.71570  Biso   1.000  Hf
  O17      1.0000 0.52936  0.16897  0.16798  Biso   1.000  O 
  O18      1.0000 0.55332  0.06398  0.68118  Biso   1.000  O 
  O19      1.0000 0.96912  0.41229  0.35833  Biso   1.000  O 
  O20      1.0000 0.96830  0.33360  0.85093  Biso   1.000  O 
  O21      1.0000 0.78818  0.12708  0.49703  Biso   1.000  O 
  O22      1.0000 0.78061  0.11776  0.00689  Biso   1.000  O 
  O23      1.0000 0.72454  0.37691  0.04303  Biso   1.000  O 
  O24      1.0000 0.72719  0.37150  0.53612  Biso   1.000  O 
  Hf13     1.0000 0.63805  0.52386  0.29823  Biso   1.000  Hf
  Hf14     1.0000 0.64322  0.72689  0.79722  Biso   1.000  Hf
  Hf15     1.0000 0.85686  0.77141  0.21532  Biso   1.000  Hf
  Hf16     1.0000 0.85878  0.97625  0.71515  Biso   1.000  Hf
  O25      1.0000 0.52891  0.66227  0.15425  Biso   1.000  O 
  O26      1.0000 0.53394  0.59452  0.64462  Biso   1.000  O 
  O27      1.0000 0.96326  0.91109  0.35735  Biso   1.000  O 
  O28      1.0000 0.96968  0.83688  0.85496  Biso   1.000  O 
  O29      1.0000 0.77760  0.62687  0.48505  Biso   1.000  O 
  O30      1.0000 0.78091  0.62036  0.98235  Biso   1.000  O 
  O31      1.0000 0.71774  0.87564  0.02958  Biso   1.000  O 
  O32      1.0000 0.72398  0.86888  0.52393  Biso   1.000  O 
  Y1       1.0000 0.44428  0.23242  0.56422  Biso   1.000  Y 
