data_image0
_cell_length_a       10.1295
_cell_length_b       5.17388
_cell_length_c       10.6699
_cell_angle_alpha    90
_cell_angle_beta     80
_cell_angle_gamma    90

_symmetry_space_group_name_H-M    "P 1"
_symmetry_int_tables_number       1

loop_
  _symmetry_equiv_pos_as_xyz
  'x, y, z'

loop_
  _atom_site_label
  _atom_site_occupancy
  _atom_site_fract_x
  _atom_site_fract_y
  _atom_site_fract_z
  _atom_site_thermal_displace_type
  _atom_site_B_iso_or_equiv
  _atom_site_type_symbol
  Hf1      1.0000 0.13821  0.04898  0.14917  Biso   1.000  Hf
  Hf2      1.0000 0.14222  0.46672  0.39536  Biso   1.000  Hf
  Hf3      1.0000 0.33820  0.55440  0.08165  Biso   1.000  Hf
  Hf4      1.0000 0.35142  0.96754  0.35456  Biso   1.000  Hf
  O1       1.0000 0.02833  0.33417  0.07849  Biso   1.000  O 
  O2       1.0000 0.04037  0.16814  0.32867  Biso   1.000  O 
  O3       1.0000 0.44845  0.86460  0.16446  Biso   1.000  O 
  O4       1.0000 0.47576  0.68131  0.43774  Biso   1.000  O 
  O5       1.0000 0.28722  0.27599  0.24202  Biso   1.000  O 
  O6       1.0000 0.28460  0.25472  0.48919  Biso   1.000  O 
  O7       1.0000 0.20130  0.77401  0.00241  Biso   1.000  O 
  O8       1.0000 0.21043  0.74871  0.25349  Biso   1.000  O 
  Hf5      1.0000 0.15067  0.05039  0.64348  Biso   1.000  Hf
  Hf6      1.0000 0.14344  0.46161  0.89137  Biso   1.000  Hf
  Hf7      1.0000 0.36742  0.55122  0.60516  Biso   1.000  Hf
  Hf8      1.0000 0.36291  0.96700  0.84799  Biso   1.000  Hf
  O9       1.0000 0.04428  0.33869  0.57852  Biso   1.000  O 
  O10      1.0000 0.04490  0.17114  0.82464  Biso   1.000  O 
  O11      1.0000 0.47155  0.83327  0.67548  Biso   1.000  O 
  O12      1.0000 0.47404  0.67973  0.91346  Biso   1.000  O 
  O13      1.0000 0.28598  0.26055  0.73780  Biso   1.000  O 
  O14      1.0000 0.28503  0.25247  0.98324  Biso   1.000  O 
  O15      1.0000 0.22453  0.76419  0.50827  Biso   1.000  O 
  O16      1.0000 0.22786  0.74525  0.75456  Biso   1.000  O 
  Hf9      1.0000 0.64413  0.03514  0.14874  Biso   1.000  Hf
  Hf10     1.0000 0.65735  0.44827  0.42166  Biso   1.000  Hf
  Hf11     1.0000 0.85333  0.53595  0.10795  Biso   1.000  Hf
  Hf12     1.0000 0.85734  0.95370  0.35414  Biso   1.000  Hf
  O17      1.0000 0.51979  0.32134  0.06558  Biso   1.000  O 
  O18      1.0000 0.54711  0.13806  0.33885  Biso   1.000  O 
  O19      1.0000 0.95518  0.83454  0.17464  Biso   1.000  O 
  O20      1.0000 0.96722  0.66851  0.42482  Biso   1.000  O 
  O21      1.0000 0.78512  0.25396  0.24982  Biso   1.000  O 
  O22      1.0000 0.79425  0.22865  0.50091  Biso   1.000  O 
  O23      1.0000 0.71096  0.74796  0.01412  Biso   1.000  O 
  O24      1.0000 0.70833  0.72667  0.26128  Biso   1.000  O 
  Hf13     1.0000 0.65293  0.04138  0.65180  Biso   1.000  Hf
  Hf14     1.0000 0.64844  0.45714  0.89463  Biso   1.000  Hf
  Hf15     1.0000 0.87241  0.54675  0.60840  Biso   1.000  Hf
  Hf16     1.0000 0.86517  0.95797  0.85630  Biso   1.000  Hf
  O25      1.0000 0.54180  0.32864  0.58631  Biso   1.000  O 
  O26      1.0000 0.54431  0.17510  0.82430  Biso   1.000  O 
  O27      1.0000 0.97094  0.83723  0.67514  Biso   1.000  O 
  O28      1.0000 0.97156  0.66967  0.92126  Biso   1.000  O 
  O29      1.0000 0.78799  0.26312  0.74523  Biso   1.000  O 
  O30      1.0000 0.79132  0.24419  0.99151  Biso   1.000  O 
  O31      1.0000 0.73082  0.75589  0.51654  Biso   1.000  O 
  O32      1.0000 0.72986  0.74782  0.76198  Biso   1.000  O 
  Y1       1.0000 0.49777  0.50133  0.25166  Biso   1.000  Y 
