data_image0
_cell_length_a       5.08557
_cell_length_b       10.3171
_cell_length_c       10.6719
_cell_angle_alpha    90
_cell_angle_beta     80
_cell_angle_gamma    90

_symmetry_space_group_name_H-M    "P 1"
_symmetry_int_tables_number       1

loop_
  _symmetry_equiv_pos_as_xyz
  'x, y, z'

loop_
  _atom_site_label
  _atom_site_occupancy
  _atom_site_fract_x
  _atom_site_fract_y
  _atom_site_fract_z
  _atom_site_thermal_displace_type
  _atom_site_B_iso_or_equiv
  _atom_site_type_symbol
  Hf1      1.0000 0.29390  0.01638  0.15023  Biso   1.000  Hf
  Hf2      1.0000 0.33288  0.23097  0.41664  Biso   1.000  Hf
  Hf3      1.0000 0.66411  0.27061  0.08550  Biso   1.000  Hf
  Hf4      1.0000 0.70309  0.48519  0.35190  Biso   1.000  Hf
  O1       1.0000 0.02735  0.15582  0.06409  Biso   1.000  O 
  O2       1.0000 0.11306  0.07147  0.33931  Biso   1.000  O 
  O3       1.0000 0.88394  0.43011  0.16282  Biso   1.000  O 
  O4       1.0000 0.96964  0.34576  0.43804  Biso   1.000  O 
  O5       1.0000 0.59924  0.13241  0.24786  Biso   1.000  O 
  O6       1.0000 0.60617  0.11799  0.49671  Biso   1.000  O 
  O7       1.0000 0.39082  0.38359  0.00542  Biso   1.000  O 
  O8       1.0000 0.39778  0.36918  0.25428  Biso   1.000  O 
  Hf5      1.0000 0.31566  0.02068  0.64606  Biso   1.000  Hf
  Hf6      1.0000 0.29246  0.22853  0.88877  Biso   1.000  Hf
  Hf7      1.0000 0.75763  0.27654  0.60866  Biso   1.000  Hf
  Hf8      1.0000 0.73445  0.48438  0.85136  Biso   1.000  Hf
  O9       1.0000 0.10779  0.16967  0.58570  Biso   1.000  O 
  O10      1.0000 0.09671  0.08451  0.82003  Biso   1.000  O 
  O11      1.0000 0.95339  0.42056  0.67739  Biso   1.000  O 
  O12      1.0000 0.94231  0.33540  0.91172  Biso   1.000  O 
  O13      1.0000 0.58202  0.13071  0.74082  Biso   1.000  O 
  O14      1.0000 0.57435  0.12212  0.98257  Biso   1.000  O 
  O15      1.0000 0.47575  0.38294  0.51485  Biso   1.000  O 
  O16      1.0000 0.46808  0.37436  0.75660  Biso   1.000  O 
  Hf9      1.0000 0.25288  0.52718  0.14607  Biso   1.000  Hf
  Hf10     1.0000 0.26423  0.72806  0.39741  Biso   1.000  Hf
  Hf11     1.0000 0.69613  0.77335  0.10471  Biso   1.000  Hf
  Hf12     1.0000 0.70748  0.97424  0.35606  Biso   1.000  Hf
  O17      1.0000 0.03987  0.67064  0.07856  Biso   1.000  O 
  O18      1.0000 0.04840  0.58634  0.32564  Biso   1.000  O 
  O19      1.0000 0.91197  0.91508  0.17649  Biso   1.000  O 
  O20      1.0000 0.92050  0.83078  0.42357  Biso   1.000  O 
  O21      1.0000 0.53019  0.63110  0.24284  Biso   1.000  O 
  O22      1.0000 0.54376  0.62476  0.49072  Biso   1.000  O 
  O23      1.0000 0.41661  0.87666  0.01142  Biso   1.000  O 
  O24      1.0000 0.43018  0.87032  0.25928  Biso   1.000  O 
  Hf13     1.0000 0.29054  0.52619  0.64709  Biso   1.000  Hf
  Hf14     1.0000 0.28979  0.73204  0.89498  Biso   1.000  Hf
  Hf15     1.0000 0.72369  0.77287  0.60244  Biso   1.000  Hf
  Hf16     1.0000 0.72293  0.97871  0.85034  Biso   1.000  Hf
  O25      1.0000 0.06419  0.66475  0.57658  Biso   1.000  O 
  O26      1.0000 0.08195  0.58970  0.82606  Biso   1.000  O 
  O27      1.0000 0.93152  0.91520  0.67135  Biso   1.000  O 
  O28      1.0000 0.94928  0.84015  0.92083  Biso   1.000  O 
  O29      1.0000 0.56448  0.63170  0.73953  Biso   1.000  O 
  O30      1.0000 0.57505  0.62705  0.98826  Biso   1.000  O 
  O31      1.0000 0.43842  0.87785  0.50916  Biso   1.000  O 
  O32      1.0000 0.44899  0.87321  0.75789  Biso   1.000  O 
  Y1       1.0000 0.99850  0.25079  0.25106  Biso   1.000  Y 
