data_image0
_cell_length_a       10.0613
_cell_length_b       10.2366
_cell_length_c       10.4701
_cell_angle_alpha    90
_cell_angle_beta     90
_cell_angle_gamma    90

_symmetry_space_group_name_H-M    "P 1"
_symmetry_int_tables_number       1

loop_
  _symmetry_equiv_pos_as_xyz
  'x, y, z'

loop_
  _atom_site_label
  _atom_site_occupancy
  _atom_site_fract_x
  _atom_site_fract_y
  _atom_site_fract_z
  _atom_site_thermal_displace_type
  _atom_site_B_iso_or_equiv
  _atom_site_type_symbol
  Y1       1.0000 0.13945  0.01764  0.16991  Biso   1.000  Y 
  Hf1      1.0000 0.13881  0.22767  0.42213  Biso   1.000  Hf
  Hf2      1.0000 0.35954  0.26940  0.17186  Biso   1.000  Hf
  Hf3      1.0000 0.36033  0.47812  0.42144  Biso   1.000  Hf
  Hf4      1.0000 0.63942  0.02080  0.07899  Biso   1.000  Hf
  Hf5      1.0000 0.63862  0.22934  0.32805  Biso   1.000  Hf
  Hf6      1.0000 0.86075  0.27172  0.07670  Biso   1.000  Hf
  Hf7      1.0000 0.86076  0.47930  0.32793  Biso   1.000  Hf
  O1       1.0000 0.03063  0.17374  0.07951  Biso   1.000  O 
  O2       1.0000 0.02667  0.08785  0.34194  Biso   1.000  O 
  O3       1.0000 0.46735  0.41295  0.08235  Biso   1.000  O 
  O4       1.0000 0.46841  0.33716  0.33242  Biso   1.000  O 
  O5       1.0000 0.28122  0.12731  0.30140  Biso   1.000  O 
  O6       1.0000 0.28255  0.13154  0.03928  Biso   1.000  O 
  O7       1.0000 0.22266  0.37338  0.29533  Biso   1.000  O 
  O8       1.0000 0.22268  0.37714  0.04554  Biso   1.000  O 
  O9       1.0000 0.53248  0.16452  0.16705  Biso   1.000  O 
  O10      1.0000 0.53284  0.08549  0.41728  Biso   1.000  O 
  O11      1.0000 0.96550  0.41712  0.16597  Biso   1.000  O 
  O12      1.0000 0.96749  0.33700  0.41729  Biso   1.000  O 
  O13      1.0000 0.77406  0.12550  0.45603  Biso   1.000  O 
  O14      1.0000 0.77551  0.12664  0.20515  Biso   1.000  O 
  O15      1.0000 0.72365  0.37485  0.45395  Biso   1.000  O 
  O16      1.0000 0.72307  0.37664  0.20457  Biso   1.000  O 
  Hf8      1.0000 0.13918  0.02104  0.67211  Biso   1.000  Hf
  Hf9      1.0000 0.13831  0.23017  0.92184  Biso   1.000  Hf
  Hf10     1.0000 0.36038  0.27051  0.67194  Biso   1.000  Hf
  Hf11     1.0000 0.36022  0.47850  0.92230  Biso   1.000  Hf
  Hf12     1.0000 0.63913  0.02114  0.57840  Biso   1.000  Hf
  Hf13     1.0000 0.63892  0.22880  0.82802  Biso   1.000  Hf
  Hf14     1.0000 0.86091  0.27128  0.57781  Biso   1.000  Hf
  Hf15     1.0000 0.85993  0.47978  0.82698  Biso   1.000  Hf
  O17      1.0000 0.03305  0.16744  0.58709  Biso   1.000  O 
  O18      1.0000 0.03291  0.08435  0.83448  Biso   1.000  O 
  O19      1.0000 0.46781  0.41352  0.58265  Biso   1.000  O 
  O20      1.0000 0.46755  0.33543  0.83262  Biso   1.000  O 
  O21      1.0000 0.27545  0.12387  0.79410  Biso   1.000  O 
  O22      1.0000 0.27556  0.12524  0.54690  Biso   1.000  O 
  O23      1.0000 0.22419  0.37472  0.79512  Biso   1.000  O 
  O24      1.0000 0.22418  0.37613  0.54579  Biso   1.000  O 
  O25      1.0000 0.53205  0.16419  0.66683  Biso   1.000  O 
  O26      1.0000 0.53443  0.08449  0.91589  Biso   1.000  O 
  O27      1.0000 0.96655  0.41647  0.66514  Biso   1.000  O 
  O28      1.0000 0.96602  0.33741  0.91348  Biso   1.000  O 
  O29      1.0000 0.77638  0.12404  0.95450  Biso   1.000  O 
  O30      1.0000 0.77599  0.12605  0.70508  Biso   1.000  O 
  O31      1.0000 0.72244  0.37410  0.95327  Biso   1.000  O 
  O32      1.0000 0.72363  0.37593  0.70358  Biso   1.000  O 
  Hf16     1.0000 0.13857  0.52063  0.17173  Biso   1.000  Hf
  Hf17     1.0000 0.13945  0.72865  0.42196  Biso   1.000  Hf
  Hf18     1.0000 0.36202  0.76945  0.17180  Biso   1.000  Hf
  Hf19     1.0000 0.36020  0.97892  0.42168  Biso   1.000  Hf
  Hf20     1.0000 0.63814  0.51976  0.07778  Biso   1.000  Hf
  Hf21     1.0000 0.63887  0.72940  0.32809  Biso   1.000  Hf
  Hf22     1.0000 0.85848  0.76999  0.07830  Biso   1.000  Hf
  Hf23     1.0000 0.85958  0.97907  0.32883  Biso   1.000  Hf
  O33      1.0000 0.03195  0.66468  0.08278  Biso   1.000  O 
  O34      1.0000 0.03195  0.58604  0.33340  Biso   1.000  O 
  O35      1.0000 0.46805  0.91503  0.08361  Biso   1.000  O 
  O36      1.0000 0.46985  0.83645  0.33286  Biso   1.000  O 
  O37      1.0000 0.27637  0.62124  0.29526  Biso   1.000  O 
  O38      1.0000 0.27532  0.62304  0.04623  Biso   1.000  O 
  O39      1.0000 0.22924  0.86719  0.29951  Biso   1.000  O 
  O40      1.0000 0.23269  0.86809  0.03968  Biso   1.000  O 
  O41      1.0000 0.53200  0.66226  0.16758  Biso   1.000  O 
  O42      1.0000 0.53122  0.58609  0.41753  Biso   1.000  O 
  O43      1.0000 0.95549  0.91060  0.16967  Biso   1.000  O 
  O44      1.0000 0.96770  0.83523  0.41788  Biso   1.000  O 
  O45      1.0000 0.77560  0.62427  0.45431  Biso   1.000  O 
  O46      1.0000 0.77526  0.62599  0.20413  Biso   1.000  O 
  O47      1.0000 0.72402  0.87407  0.45543  Biso   1.000  O 
  O48      1.0000 0.71660  0.87558  0.20479  Biso   1.000  O 
  Hf24     1.0000 0.13853  0.52099  0.67181  Biso   1.000  Hf
  Hf25     1.0000 0.13930  0.72874  0.92194  Biso   1.000  Hf
  Hf26     1.0000 0.36005  0.77124  0.67182  Biso   1.000  Hf
  Hf27     1.0000 0.36093  0.97961  0.92144  Biso   1.000  Hf
  Hf28     1.0000 0.63829  0.52095  0.57735  Biso   1.000  Hf
  Hf29     1.0000 0.63799  0.72899  0.82759  Biso   1.000  Hf
  Hf30     1.0000 0.86108  0.77122  0.57820  Biso   1.000  Hf
  Hf31     1.0000 0.86045  0.97902  0.82884  Biso   1.000  Hf
  O49      1.0000 0.03226  0.66505  0.58419  Biso   1.000  O 
  O50      1.0000 0.03157  0.58537  0.83246  Biso   1.000  O 
  O51      1.0000 0.46752  0.91377  0.58302  Biso   1.000  O 
  O52      1.0000 0.46776  0.83606  0.83193  Biso   1.000  O 
  O53      1.0000 0.27556  0.62418  0.79570  Biso   1.000  O 
  O54      1.0000 0.27564  0.62587  0.54557  Biso   1.000  O 
  O55      1.0000 0.22342  0.87406  0.79408  Biso   1.000  O 
  O56      1.0000 0.22332  0.87613  0.54633  Biso   1.000  O 
  O57      1.0000 0.53115  0.66351  0.66721  Biso   1.000  O 
  O58      1.0000 0.53065  0.58629  0.91742  Biso   1.000  O 
  O59      1.0000 0.96635  0.91515  0.66704  Biso   1.000  O 
  O60      1.0000 0.96774  0.83577  0.91740  Biso   1.000  O 
  O61      1.0000 0.77400  0.62285  0.95320  Biso   1.000  O 
  O62      1.0000 0.77472  0.62653  0.70354  Biso   1.000  O 
  O63      1.0000 0.72349  0.87357  0.95429  Biso   1.000  O 
  O64      1.0000 0.72351  0.87598  0.70481  Biso   1.000  O 
