data_image0
_cell_length_a       10.0938
_cell_length_b       5.22987
_cell_length_c       10.1295
_cell_angle_alpha    90
_cell_angle_beta     90
_cell_angle_gamma    90

_symmetry_space_group_name_H-M    "P 1"
_symmetry_int_tables_number       1

loop_
  _symmetry_equiv_pos_as_xyz
  'x, y, z'

loop_
  _atom_site_label
  _atom_site_occupancy
  _atom_site_fract_x
  _atom_site_fract_y
  _atom_site_fract_z
  _atom_site_thermal_displace_type
  _atom_site_B_iso_or_equiv
  _atom_site_type_symbol
  Hf1      1.0000 0.13123  0.02335  0.12340  Biso   1.000  Hf
  Hf2      1.0000 0.13346  0.46371  0.39016  Biso   1.000  Hf
  Hf3      1.0000 0.38621  0.54533  0.11462  Biso   1.000  Hf
  Hf4      1.0000 0.36723  0.98182  0.37075  Biso   1.000  Hf
  O1       1.0000 0.99120  0.28918  0.24144  Biso   1.000  O 
  O2       1.0000 0.03642  0.13486  0.46322  Biso   1.000  O 
  O3       1.0000 0.46716  0.87903  0.19463  Biso   1.000  O 
  O4       1.0000 0.47187  0.65517  0.44628  Biso   1.000  O 
  O5       1.0000 0.25612  0.24839  0.24590  Biso   1.000  O 
  O6       1.0000 0.27682  0.27092  0.49881  Biso   1.000  O 
  O7       1.0000 0.23773  0.77457  0.49812  Biso   1.000  O 
  O8       1.0000 0.24076  0.73670  0.25176  Biso   1.000  O 
  Hf5      1.0000 0.13809  0.02824  0.62615  Biso   1.000  Hf
  Hf6      1.0000 0.13467  0.48785  0.84595  Biso   1.000  Hf
  Hf7      1.0000 0.37872  0.54588  0.61897  Biso   1.000  Hf
  Hf8      1.0000 0.37328  0.99368  0.87206  Biso   1.000  Hf
  O9       1.0000 0.03098  0.35461  0.69114  Biso   1.000  O 
  O10      1.0000 0.02904  0.16331  0.95695  Biso   1.000  O 
  O11      1.0000 0.47638  0.87917  0.69521  Biso   1.000  O 
  O12      1.0000 0.47812  0.66489  0.94212  Biso   1.000  O 
  O13      1.0000 0.27011  0.24201  0.74255  Biso   1.000  O 
  O14      1.0000 0.26879  0.30129  0.99005  Biso   1.000  O 
  O15      1.0000 0.24192  0.80024  0.99180  Biso   1.000  O 
  O16      1.0000 0.24763  0.74288  0.74367  Biso   1.000  O 
  Hf9      1.0000 0.62949  0.03059  0.12304  Biso   1.000  Hf
  Hf10     1.0000 0.63448  0.47353  0.37758  Biso   1.000  Hf
  Hf11     1.0000 0.84351  0.51640  0.12873  Biso   1.000  Hf
  Hf12     1.0000 0.88406  0.98633  0.36367  Biso   1.000  Hf
  O17      1.0000 0.53395  0.36635  0.20173  Biso   1.000  O 
  O18      1.0000 0.53272  0.14864  0.44839  Biso   1.000  O 
  O19      1.0000 0.97140  0.81511  0.19931  Biso   1.000  O 
  O20      1.0000 0.97295  0.65485  0.45530  Biso   1.000  O 
  O21      1.0000 0.75312  0.22177  0.24970  Biso   1.000  O 
  O22      1.0000 0.77223  0.28543  0.49645  Biso   1.000  O 
  O23      1.0000 0.74026  0.78580  0.49703  Biso   1.000  O 
  O24      1.0000 0.72692  0.73624  0.25012  Biso   1.000  O 
  Hf13     1.0000 0.63859  0.04035  0.62019  Biso   1.000  Hf
  Hf14     1.0000 0.63944  0.47815  0.86949  Biso   1.000  Hf
  Hf15     1.0000 0.86699  0.54442  0.62149  Biso   1.000  Hf
  Hf16     1.0000 0.87404  0.97346  0.87825  Biso   1.000  Hf
  O25      1.0000 0.54035  0.37724  0.69570  Biso   1.000  O 
  O26      1.0000 0.53126  0.16545  0.94908  Biso   1.000  O 
  O27      1.0000 0.98548  0.84895  0.71368  Biso   1.000  O 
  O28      1.0000 0.96824  0.64507  0.95075  Biso   1.000  O 
  O29      1.0000 0.77353  0.23626  0.74690  Biso   1.000  O 
  O30      1.0000 0.76676  0.27044  0.99617  Biso   1.000  O 
  O31      1.0000 0.73178  0.77659  0.99824  Biso   1.000  O 
  O32      1.0000 0.73952  0.74258  0.74767  Biso   1.000  O 
  Y1       1.0000 0.11505  0.51845  0.11178  Biso   1.000  Y 
