data_image0
_cell_length_a       10.1603
_cell_length_b       10.3051
_cell_length_c       10.5495
_cell_angle_alpha    90
_cell_angle_beta     80
_cell_angle_gamma    90

_symmetry_space_group_name_H-M    "P 1"
_symmetry_int_tables_number       1

loop_
  _symmetry_equiv_pos_as_xyz
  'x, y, z'

loop_
  _atom_site_label
  _atom_site_occupancy
  _atom_site_fract_x
  _atom_site_fract_y
  _atom_site_fract_z
  _atom_site_thermal_displace_type
  _atom_site_B_iso_or_equiv
  _atom_site_type_symbol
  Hf1      1.0000 0.13592  0.02079  0.14504  Biso   1.000  Hf
  Hf2      1.0000 0.13716  0.22763  0.39323  Biso   1.000  Hf
  Hf3      1.0000 0.34358  0.27326  0.07533  Biso   1.000  Hf
  Hf4      1.0000 0.36179  0.49234  0.35604  Biso   1.000  Hf
  O1       1.0000 0.03303  0.16686  0.07552  Biso   1.000  O 
  O2       1.0000 0.03544  0.08175  0.32755  Biso   1.000  O 
  O3       1.0000 0.46618  0.41879  0.17057  Biso   1.000  O 
  O4       1.0000 0.48284  0.35858  0.43698  Biso   1.000  O 
  O5       1.0000 0.27560  0.12060  0.23242  Biso   1.000  O 
  O6       1.0000 0.29602  0.13229  0.47232  Biso   1.000  O 
  O7       1.0000 0.21706  0.38898  0.99749  Biso   1.000  O 
  O8       1.0000 0.23513  0.36476  0.25520  Biso   1.000  O 
  Hf5      1.0000 0.14340  0.02168  0.64474  Biso   1.000  Hf
  Hf6      1.0000 0.13975  0.22971  0.88877  Biso   1.000  Hf
  Hf7      1.0000 0.36694  0.27808  0.60415  Biso   1.000  Hf
  Hf8      1.0000 0.36492  0.48514  0.84930  Biso   1.000  Hf
  O9       1.0000 0.04578  0.16918  0.57772  Biso   1.000  O 
  O10      1.0000 0.03828  0.08326  0.82517  Biso   1.000  O 
  O11      1.0000 0.47181  0.41955  0.67540  Biso   1.000  O 
  O12      1.0000 0.47283  0.33931  0.91408  Biso   1.000  O 
  O13      1.0000 0.28043  0.12968  0.73282  Biso   1.000  O 
  O14      1.0000 0.27754  0.12063  0.97980  Biso   1.000  O 
  O15      1.0000 0.22848  0.38325  0.50736  Biso   1.000  O 
  O16      1.0000 0.22914  0.37299  0.75474  Biso   1.000  O 
  Hf9      1.0000 0.13862  0.52185  0.14666  Biso   1.000  Hf
  Hf10     1.0000 0.13723  0.72906  0.39645  Biso   1.000  Hf
  Hf11     1.0000 0.35959  0.77148  0.10273  Biso   1.000  Hf
  Hf12     1.0000 0.36290  0.96615  0.35207  Biso   1.000  Hf
  O17      1.0000 0.03381  0.66547  0.07915  Biso   1.000  O 
  O18      1.0000 0.03651  0.58273  0.32876  Biso   1.000  O 
  O19      1.0000 0.46692  0.91389  0.17301  Biso   1.000  O 
  O20      1.0000 0.46739  0.82752  0.42442  Biso   1.000  O 
  O21      1.0000 0.27652  0.62836  0.24029  Biso   1.000  O 
  O22      1.0000 0.27589  0.62806  0.49266  Biso   1.000  O 
  O23      1.0000 0.22185  0.87874  0.00942  Biso   1.000  O 
  O24      1.0000 0.22130  0.86615  0.25799  Biso   1.000  O 
  Hf13     1.0000 0.14241  0.52379  0.64516  Biso   1.000  Hf
  Hf14     1.0000 0.14400  0.72983  0.89614  Biso   1.000  Hf
  Hf15     1.0000 0.36627  0.77282  0.60466  Biso   1.000  Hf
  Hf16     1.0000 0.36668  0.97798  0.85103  Biso   1.000  Hf
  O25      1.0000 0.03525  0.66720  0.57852  Biso   1.000  O 
  O26      1.0000 0.04026  0.58444  0.82828  Biso   1.000  O 
  O27      1.0000 0.47087  0.91789  0.67133  Biso   1.000  O 
  O28      1.0000 0.47265  0.83616  0.92093  Biso   1.000  O 
  O29      1.0000 0.28068  0.63033  0.73943  Biso   1.000  O 
  O30      1.0000 0.28454  0.62545  0.98933  Biso   1.000  O 
  O31      1.0000 0.22644  0.88249  0.50993  Biso   1.000  O 
  O32      1.0000 0.22828  0.87201  0.75882  Biso   1.000  O 
  Hf17     1.0000 0.64165  0.01941  0.14987  Biso   1.000  Hf
  Hf18     1.0000 0.65760  0.22792  0.41111  Biso   1.000  Hf
  Hf19     1.0000 0.85899  0.27127  0.10746  Biso   1.000  Hf
  Hf20     1.0000 0.86340  0.47862  0.35558  Biso   1.000  Hf
  O33      1.0000 0.52491  0.16661  0.08006  Biso   1.000  O 
  O34      1.0000 0.55155  0.06479  0.34049  Biso   1.000  O 
  O35      1.0000 0.96749  0.41435  0.17479  Biso   1.000  O 
  O36      1.0000 0.96831  0.33381  0.42447  Biso   1.000  O 
  O37      1.0000 0.78568  0.12786  0.24480  Biso   1.000  O 
  O38      1.0000 0.79068  0.11763  0.49962  Biso   1.000  O 
  O39      1.0000 0.71980  0.37816  0.01377  Biso   1.000  O 
  O40      1.0000 0.72535  0.37188  0.26486  Biso   1.000  O 
  Hf21     1.0000 0.64443  0.02275  0.64865  Biso   1.000  Hf
  Hf22     1.0000 0.64502  0.22964  0.89830  Biso   1.000  Hf
  Hf23     1.0000 0.86893  0.27268  0.60983  Biso   1.000  Hf
  Hf24     1.0000 0.86628  0.48000  0.85579  Biso   1.000  Hf
  O41      1.0000 0.54148  0.17032  0.58240  Biso   1.000  O 
  O42      1.0000 0.53892  0.08557  0.82877  Biso   1.000  O 
  O43      1.0000 0.97157  0.41809  0.67384  Biso   1.000  O 
  O44      1.0000 0.96724  0.33239  0.92022  Biso   1.000  O 
  O45      1.0000 0.78161  0.13063  0.74501  Biso   1.000  O 
  O46      1.0000 0.78195  0.12258  0.99345  Biso   1.000  O 
  O47      1.0000 0.73382  0.37975  0.51675  Biso   1.000  O 
  O48      1.0000 0.72968  0.37265  0.76310  Biso   1.000  O 
  Hf25     1.0000 0.63809  0.52297  0.14687  Biso   1.000  Hf
  Hf26     1.0000 0.64310  0.72804  0.39758  Biso   1.000  Hf
  Hf27     1.0000 0.86034  0.77037  0.10571  Biso   1.000  Hf
  Hf28     1.0000 0.85996  0.97763  0.35518  Biso   1.000  Hf
  O49      1.0000 0.53314  0.66703  0.07751  Biso   1.000  O 
  O50      1.0000 0.53600  0.59032  0.32486  Biso   1.000  O 
  O51      1.0000 0.96434  0.91403  0.17385  Biso   1.000  O 
  O52      1.0000 0.96699  0.83418  0.42382  Biso   1.000  O 
  O53      1.0000 0.77906  0.62722  0.24147  Biso   1.000  O 
  O54      1.0000 0.77927  0.62145  0.49130  Biso   1.000  O 
  O55      1.0000 0.72241  0.87783  0.01206  Biso   1.000  O 
  O56      1.0000 0.72494  0.86817  0.25992  Biso   1.000  O 
  Hf29     1.0000 0.64412  0.52376  0.64832  Biso   1.000  Hf
  Hf30     1.0000 0.64488  0.73000  0.89668  Biso   1.000  Hf
  Hf31     1.0000 0.86417  0.77362  0.60538  Biso   1.000  Hf
  Hf32     1.0000 0.86510  0.97887  0.85595  Biso   1.000  Hf
  O57      1.0000 0.53776  0.66605  0.57931  Biso   1.000  O 
  O58      1.0000 0.53918  0.58786  0.82754  Biso   1.000  O 
  O59      1.0000 0.96980  0.91744  0.67333  Biso   1.000  O 
  O60      1.0000 0.97242  0.83488  0.92242  Biso   1.000  O 
  O61      1.0000 0.78130  0.63071  0.74124  Biso   1.000  O 
  O62      1.0000 0.78339  0.62253  0.99009  Biso   1.000  O 
  O63      1.0000 0.72545  0.87813  0.51196  Biso   1.000  O 
  O64      1.0000 0.72839  0.87366  0.76121  Biso   1.000  O 
  Y1       1.0000 0.44368  0.23368  0.28256  Biso   1.000  Y 
