data_image0
_cell_length_a       5.00757
_cell_length_b       10.2203
_cell_length_c       10.0557
_cell_angle_alpha    90
_cell_angle_beta     90
_cell_angle_gamma    90

_symmetry_space_group_name_H-M    "P 1"
_symmetry_int_tables_number       1

loop_
  _symmetry_equiv_pos_as_xyz
  'x, y, z'

loop_
  _atom_site_label
  _atom_site_occupancy
  _atom_site_fract_x
  _atom_site_fract_y
  _atom_site_fract_z
  _atom_site_thermal_displace_type
  _atom_site_B_iso_or_equiv
  _atom_site_type_symbol
  Y1       1.0000 0.24982  0.00005  0.12491  Biso   1.000  Y 
  Hf1      1.0000 0.24778  0.25119  0.37510  Biso   1.000  Hf
  Hf2      1.0000 0.74982  0.25265  0.12491  Biso   1.000  Hf
  Hf3      1.0000 0.74982  0.00005  0.37496  Biso   1.000  Hf
  O1       1.0000 0.00316  0.14752  0.99994  Biso   1.000  O 
  O2       1.0000 0.98344  0.11469  0.25888  Biso   1.000  O 
  O3       1.0000 0.01246  0.35786  0.24551  Biso   1.000  O 
  O4       1.0000 0.99109  0.39518  0.99839  Biso   1.000  O 
  O5       1.0000 0.49649  0.14752  0.24988  Biso   1.000  O 
  O6       1.0000 0.51620  0.11469  0.99094  Biso   1.000  O 
  O7       1.0000 0.48717  0.35786  0.00431  Biso   1.000  O 
  O8       1.0000 0.50855  0.39518  0.25143  Biso   1.000  O 
  Hf4      1.0000 0.24983  0.00005  0.62491  Biso   1.000  Hf
  Hf5      1.0000 0.25187  0.25119  0.87472  Biso   1.000  Hf
  Hf6      1.0000 0.74983  0.24903  0.62491  Biso   1.000  Hf
  Hf7      1.0000 0.74983  0.00005  0.87486  Biso   1.000  Hf
  O9       1.0000 0.01375  0.14787  0.50738  Biso   1.000  O 
  O10      1.0000 0.99246  0.10268  0.75153  Biso   1.000  O 
  O11      1.0000 0.00327  0.35336  0.74632  Biso   1.000  O 
  O12      1.0000 0.99909  0.39716  0.49696  Biso   1.000  O 
  O13      1.0000 0.48590  0.14787  0.74244  Biso   1.000  O 
  O14      1.0000 0.50719  0.10268  0.49829  Biso   1.000  O 
  O15      1.0000 0.49638  0.35336  0.50350  Biso   1.000  O 
  O16      1.0000 0.50056  0.39716  0.75286  Biso   1.000  O 
  Hf8      1.0000 0.24982  0.50005  0.12491  Biso   1.000  Hf
  Hf9      1.0000 0.25187  0.74892  0.37510  Biso   1.000  Hf
  Hf10     1.0000 0.74982  0.74746  0.12491  Biso   1.000  Hf
  Hf11     1.0000 0.74983  0.50005  0.37495  Biso   1.000  Hf
  O17      1.0000 0.01246  0.64225  0.00431  Biso   1.000  O 
  O18      1.0000 0.99108  0.60492  0.25143  Biso   1.000  O 
  O19      1.0000 0.00316  0.85259  0.24988  Biso   1.000  O 
  O20      1.0000 0.98345  0.88542  0.99094  Biso   1.000  O 
  O21      1.0000 0.48717  0.64225  0.24551  Biso   1.000  O 
  O22      1.0000 0.50856  0.60492  0.99838  Biso   1.000  O 
  O23      1.0000 0.49650  0.85259  0.99994  Biso   1.000  O 
  O24      1.0000 0.51620  0.88542  0.25888  Biso   1.000  O 
  Hf12     1.0000 0.24983  0.50005  0.62491  Biso   1.000  Hf
  Hf13     1.0000 0.24779  0.74892  0.87472  Biso   1.000  Hf
  Hf14     1.0000 0.74983  0.75108  0.62491  Biso   1.000  Hf
  Hf15     1.0000 0.74983  0.50005  0.87487  Biso   1.000  Hf
  O25      1.0000 0.00328  0.64675  0.50350  Biso   1.000  O 
  O26      1.0000 0.99909  0.60295  0.75286  Biso   1.000  O 
  O27      1.0000 0.01375  0.85224  0.74244  Biso   1.000  O 
  O28      1.0000 0.99247  0.89743  0.49829  Biso   1.000  O 
  O29      1.0000 0.49638  0.64675  0.74632  Biso   1.000  O 
  O30      1.0000 0.50056  0.60295  0.49696  Biso   1.000  O 
  O31      1.0000 0.48590  0.85224  0.50737  Biso   1.000  O 
  O32      1.0000 0.50719  0.89743  0.75153  Biso   1.000  O 
