data_image0
_cell_length_a       10.1986
_cell_length_b       5.14355
_cell_length_c       10.4692
_cell_angle_alpha    90
_cell_angle_beta     80
_cell_angle_gamma    90

_symmetry_space_group_name_H-M    "P 1"
_symmetry_int_tables_number       1

loop_
  _symmetry_equiv_pos_as_xyz
  'x, y, z'

loop_
  _atom_site_label
  _atom_site_occupancy
  _atom_site_fract_x
  _atom_site_fract_y
  _atom_site_fract_z
  _atom_site_thermal_displace_type
  _atom_site_B_iso_or_equiv
  _atom_site_type_symbol
  Y1       1.0000 0.13831  0.03418  0.14435  Biso   1.000  Y 
  Hf1      1.0000 0.13895  0.45411  0.39656  Biso   1.000  Hf
  Hf2      1.0000 0.36073  0.53541  0.10389  Biso   1.000  Hf
  Hf3      1.0000 0.35717  0.95650  0.35363  Biso   1.000  Hf
  O1       1.0000 0.03328  0.35992  0.07729  Biso   1.000  O 
  O2       1.0000 0.02670  0.16976  0.33983  Biso   1.000  O 
  O3       1.0000 0.46395  0.83343  0.17024  Biso   1.000  O 
  O4       1.0000 0.46175  0.66351  0.42234  Biso   1.000  O 
  O5       1.0000 0.28070  0.25900  0.24582  Biso   1.000  O 
  O6       1.0000 0.27303  0.24020  0.49291  Biso   1.000  O 
  O7       1.0000 0.23211  0.74356  0.00154  Biso   1.000  O 
  O8       1.0000 0.22711  0.72995  0.26197  Biso   1.000  O 
  Hf4      1.0000 0.13747  0.04210  0.64671  Biso   1.000  Hf
  Hf5      1.0000 0.13661  0.46011  0.89649  Biso   1.000  Hf
  Hf6      1.0000 0.35717  0.54216  0.60455  Biso   1.000  Hf
  Hf7      1.0000 0.35769  0.95637  0.85466  Biso   1.000  Hf
  O9       1.0000 0.03305  0.34114  0.58405  Biso   1.000  O 
  O10      1.0000 0.03233  0.16056  0.83157  Biso   1.000  O 
  O11      1.0000 0.46306  0.83225  0.67131  Biso   1.000  O 
  O12      1.0000 0.46791  0.67084  0.92126  Biso   1.000  O 
  O13      1.0000 0.27285  0.25764  0.74033  Biso   1.000  O 
  O14      1.0000 0.27871  0.24605  0.98498  Biso   1.000  O 
  O15      1.0000 0.22078  0.75753  0.51056  Biso   1.000  O 
  O16      1.0000 0.22066  0.74446  0.75797  Biso   1.000  O 
  Hf8      1.0000 0.63841  0.03851  0.14639  Biso   1.000  Hf
  Hf9      1.0000 0.63483  0.45691  0.39642  Biso   1.000  Hf
  Hf10     1.0000 0.85711  0.54065  0.10352  Biso   1.000  Hf
  Hf11     1.0000 0.85565  0.95785  0.35501  Biso   1.000  Hf
  O17      1.0000 0.53567  0.33283  0.07856  Biso   1.000  O 
  O18      1.0000 0.53290  0.16266  0.32993  Biso   1.000  O 
  O19      1.0000 0.94724  0.83998  0.17263  Biso   1.000  O 
  O20      1.0000 0.96365  0.66638  0.42043  Biso   1.000  O 
  O21      1.0000 0.77269  0.25845  0.24143  Biso   1.000  O 
  O22      1.0000 0.77123  0.24486  0.49191  Biso   1.000  O 
  O23      1.0000 0.72293  0.75734  0.00825  Biso   1.000  O 
  O24      1.0000 0.71358  0.74069  0.26187  Biso   1.000  O 
  Hf12     1.0000 0.63699  0.04275  0.64607  Biso   1.000  Hf
  Hf13     1.0000 0.63665  0.45725  0.89599  Biso   1.000  Hf
  Hf14     1.0000 0.85837  0.54266  0.60368  Biso   1.000  Hf
  Hf15     1.0000 0.85628  0.95809  0.85404  Biso   1.000  Hf
  O25      1.0000 0.53026  0.33260  0.58048  Biso   1.000  O 
  O26      1.0000 0.53320  0.16545  0.82860  Biso   1.000  O 
  O27      1.0000 0.96111  0.83981  0.66876  Biso   1.000  O 
  O28      1.0000 0.96013  0.66495  0.91685  Biso   1.000  O 
  O29      1.0000 0.77393  0.25782  0.74003  Biso   1.000  O 
  O30      1.0000 0.77173  0.23927  0.99025  Biso   1.000  O 
  O31      1.0000 0.72111  0.75765  0.50997  Biso   1.000  O 
  O32      1.0000 0.72163  0.74183  0.75854  Biso   1.000  O 
