data_image0
_cell_length_a       10.0221
_cell_length_b       5.18012
_cell_length_c       10.0596
_cell_angle_alpha    90
_cell_angle_beta     90
_cell_angle_gamma    90

_symmetry_space_group_name_H-M    "P 1"
_symmetry_int_tables_number       1

loop_
  _symmetry_equiv_pos_as_xyz
  'x, y, z'

loop_
  _atom_site_label
  _atom_site_occupancy
  _atom_site_fract_x
  _atom_site_fract_y
  _atom_site_fract_z
  _atom_site_thermal_displace_type
  _atom_site_B_iso_or_equiv
  _atom_site_type_symbol
  Y1       1.0000 0.13029  0.02420  0.12263  Biso   1.000  Y 
  Hf1      1.0000 0.13279  0.46556  0.37650  Biso   1.000  Hf
  Hf2      1.0000 0.36424  0.52737  0.12573  Biso   1.000  Hf
  Hf3      1.0000 0.36129  0.96557  0.37433  Biso   1.000  Hf
  O1       1.0000 0.02887  0.38161  0.20195  Biso   1.000  O 
  O2       1.0000 0.03196  0.12957  0.44522  Biso   1.000  O 
  O3       1.0000 0.46273  0.86676  0.19434  Biso   1.000  O 
  O4       1.0000 0.46178  0.62958  0.44629  Biso   1.000  O 
  O5       1.0000 0.27423  0.24086  0.25297  Biso   1.000  O 
  O6       1.0000 0.26667  0.26134  0.50053  Biso   1.000  O 
  O7       1.0000 0.22668  0.76435  0.49962  Biso   1.000  O 
  O8       1.0000 0.23359  0.72278  0.25305  Biso   1.000  O 
  Hf4      1.0000 0.13038  0.03032  0.62568  Biso   1.000  Hf
  Hf5      1.0000 0.13256  0.46463  0.87381  Biso   1.000  Hf
  Hf6      1.0000 0.36254  0.52937  0.62487  Biso   1.000  Hf
  Hf7      1.0000 0.36192  0.96163  0.87523  Biso   1.000  Hf
  O9       1.0000 0.03428  0.37050  0.68979  Biso   1.000  O 
  O10      1.0000 0.02713  0.14240  0.93033  Biso   1.000  O 
  O11      1.0000 0.46172  0.86246  0.69516  Biso   1.000  O 
  O12      1.0000 0.46582  0.63107  0.94580  Biso   1.000  O 
  O13      1.0000 0.26737  0.23147  0.74778  Biso   1.000  O 
  O14      1.0000 0.27032  0.26078  0.99417  Biso   1.000  O 
  O15      1.0000 0.23244  0.74727  0.99367  Biso   1.000  O 
  O16      1.0000 0.22653  0.73344  0.74667  Biso   1.000  O 
  Hf8      1.0000 0.63279  0.02954  0.12549  Biso   1.000  Hf
  Hf9      1.0000 0.62988  0.46365  0.37663  Biso   1.000  Hf
  Hf10     1.0000 0.86104  0.53330  0.12890  Biso   1.000  Hf
  Hf11     1.0000 0.86113  0.96452  0.37803  Biso   1.000  Hf
  O17      1.0000 0.53502  0.36417  0.19419  Biso   1.000  O 
  O18      1.0000 0.53189  0.12840  0.44578  Biso   1.000  O 
  O19      1.0000 0.94902  0.86522  0.20166  Biso   1.000  O 
  O20      1.0000 0.96170  0.63206  0.44751  Biso   1.000  O 
  O21      1.0000 0.76595  0.23246  0.25084  Biso   1.000  O 
  O22      1.0000 0.76571  0.26378  0.50006  Biso   1.000  O 
  O23      1.0000 0.72572  0.76154  0.50060  Biso   1.000  O 
  O24      1.0000 0.72055  0.73159  0.25113  Biso   1.000  O 
  Hf12     1.0000 0.63022  0.02914  0.62567  Biso   1.000  Hf
  Hf13     1.0000 0.63108  0.46192  0.87539  Biso   1.000  Hf
  Hf14     1.0000 0.86289  0.52975  0.62511  Biso   1.000  Hf
  Hf15     1.0000 0.85991  0.96229  0.87501  Biso   1.000  Hf
  O25      1.0000 0.53183  0.36310  0.69509  Biso   1.000  O 
  O26      1.0000 0.53245  0.12735  0.94390  Biso   1.000  O 
  O27      1.0000 0.95982  0.86531  0.69491  Biso   1.000  O 
  O28      1.0000 0.96489  0.63895  0.95109  Biso   1.000  O 
  O29      1.0000 0.76707  0.23098  0.74857  Biso   1.000  O 
  O30      1.0000 0.76575  0.25912  0.99934  Biso   1.000  O 
  O31      1.0000 0.72519  0.75917  0.99974  Biso   1.000  O 
  O32      1.0000 0.72619  0.73025  0.74958  Biso   1.000  O 
