data_image0
_cell_length_a       10.0557
_cell_length_b       10.2203
_cell_length_c       5.00757
_cell_angle_alpha    90
_cell_angle_beta     90
_cell_angle_gamma    90

_symmetry_space_group_name_H-M    "P 1"
_symmetry_int_tables_number       1

loop_
  _symmetry_equiv_pos_as_xyz
  'x, y, z'

loop_
  _atom_site_label
  _atom_site_occupancy
  _atom_site_fract_x
  _atom_site_fract_y
  _atom_site_fract_z
  _atom_site_thermal_displace_type
  _atom_site_B_iso_or_equiv
  _atom_site_type_symbol
  Y1       1.0000 0.12491  0.00005  0.24982  Biso   1.000  Y 
  Hf1      1.0000 0.12491  0.25264  0.74982  Biso   1.000  Hf
  Hf2      1.0000 0.37510  0.25119  0.24777  Biso   1.000  Hf
  Hf3      1.0000 0.37495  0.00005  0.74982  Biso   1.000  Hf
  O1       1.0000 0.99993  0.14752  0.00316  Biso   1.000  O 
  O2       1.0000 0.99095  0.11469  0.51621  Biso   1.000  O 
  O3       1.0000 0.00431  0.35786  0.48716  Biso   1.000  O 
  O4       1.0000 0.99839  0.39518  0.99106  Biso   1.000  O 
  O5       1.0000 0.24989  0.14752  0.49647  Biso   1.000  O 
  O6       1.0000 0.25887  0.11469  0.98342  Biso   1.000  O 
  O7       1.0000 0.24551  0.35786  0.01247  Biso   1.000  O 
  O8       1.0000 0.25143  0.39518  0.50858  Biso   1.000  O 
  Hf4      1.0000 0.12491  0.50005  0.24982  Biso   1.000  Hf
  Hf5      1.0000 0.12491  0.74746  0.74982  Biso   1.000  Hf
  Hf6      1.0000 0.37510  0.74892  0.25186  Biso   1.000  Hf
  Hf7      1.0000 0.37495  0.50005  0.74982  Biso   1.000  Hf
  O9       1.0000 0.00431  0.64224  0.01248  Biso   1.000  O 
  O10      1.0000 0.99839  0.60493  0.50858  Biso   1.000  O 
  O11      1.0000 0.99993  0.85259  0.49647  Biso   1.000  O 
  O12      1.0000 0.99095  0.88542  0.98342  Biso   1.000  O 
  O13      1.0000 0.24551  0.64224  0.48716  Biso   1.000  O 
  O14      1.0000 0.25142  0.60493  0.99106  Biso   1.000  O 
  O15      1.0000 0.24989  0.85259  0.00316  Biso   1.000  O 
  O16      1.0000 0.25887  0.88542  0.51621  Biso   1.000  O 
  Hf8      1.0000 0.62491  0.00005  0.24982  Biso   1.000  Hf
  Hf9      1.0000 0.62491  0.24902  0.74982  Biso   1.000  Hf
  Hf10     1.0000 0.87472  0.25119  0.25186  Biso   1.000  Hf
  Hf11     1.0000 0.87486  0.00005  0.74982  Biso   1.000  Hf
  O17      1.0000 0.50737  0.14787  0.01374  Biso   1.000  O 
  O18      1.0000 0.49830  0.10267  0.50719  Biso   1.000  O 
  O19      1.0000 0.50349  0.35336  0.49637  Biso   1.000  O 
  O20      1.0000 0.49696  0.39716  0.99909  Biso   1.000  O 
  O21      1.0000 0.74245  0.14787  0.48590  Biso   1.000  O 
  O22      1.0000 0.75152  0.10267  0.99245  Biso   1.000  O 
  O23      1.0000 0.74632  0.35336  0.00326  Biso   1.000  O 
  O24      1.0000 0.75286  0.39716  0.50055  Biso   1.000  O 
  Hf12     1.0000 0.62491  0.50005  0.24982  Biso   1.000  Hf
  Hf13     1.0000 0.62491  0.75109  0.74982  Biso   1.000  Hf
  Hf14     1.0000 0.87472  0.74892  0.24778  Biso   1.000  Hf
  Hf15     1.0000 0.87487  0.50005  0.74982  Biso   1.000  Hf
  O25      1.0000 0.50350  0.64675  0.00326  Biso   1.000  O 
  O26      1.0000 0.49696  0.60295  0.50055  Biso   1.000  O 
  O27      1.0000 0.50737  0.85224  0.48590  Biso   1.000  O 
  O28      1.0000 0.49830  0.89743  0.99245  Biso   1.000  O 
  O29      1.0000 0.74632  0.64675  0.49637  Biso   1.000  O 
  O30      1.0000 0.75286  0.60295  0.99908  Biso   1.000  O 
  O31      1.0000 0.74245  0.85224  0.01374  Biso   1.000  O 
  O32      1.0000 0.75152  0.89743  0.50718  Biso   1.000  O 
