data_image0
_cell_length_a       9.9891
_cell_length_b       10.366
_cell_length_c       10.0252
_cell_angle_alpha    90
_cell_angle_beta     90
_cell_angle_gamma    90

_symmetry_space_group_name_H-M    "P 1"
_symmetry_int_tables_number       1

loop_
  _symmetry_equiv_pos_as_xyz
  'x, y, z'

loop_
  _atom_site_label
  _atom_site_occupancy
  _atom_site_fract_x
  _atom_site_fract_y
  _atom_site_fract_z
  _atom_site_thermal_displace_type
  _atom_site_B_iso_or_equiv
  _atom_site_type_symbol
  Y1       1.0000 0.13127  0.01261  0.12372  Biso   1.000  Y 
  Hf1      1.0000 0.13322  0.23313  0.37614  Biso   1.000  Hf
  Hf2      1.0000 0.36402  0.26518  0.12638  Biso   1.000  Hf
  Hf3      1.0000 0.36414  0.48293  0.37552  Biso   1.000  Hf
  O1       1.0000 0.03031  0.19040  0.20116  Biso   1.000  O 
  O2       1.0000 0.03400  0.06513  0.44413  Biso   1.000  O 
  O3       1.0000 0.46382  0.43293  0.19548  Biso   1.000  O 
  O4       1.0000 0.46243  0.31494  0.44452  Biso   1.000  O 
  O5       1.0000 0.27610  0.12389  0.25388  Biso   1.000  O 
  O6       1.0000 0.26842  0.13110  0.50089  Biso   1.000  O 
  O7       1.0000 0.22873  0.38244  0.49965  Biso   1.000  O 
  O8       1.0000 0.22720  0.36857  0.24939  Biso   1.000  O 
  Hf4      1.0000 0.13213  0.01590  0.62596  Biso   1.000  Hf
  Hf5      1.0000 0.13266  0.23305  0.87396  Biso   1.000  Hf
  Hf6      1.0000 0.36425  0.26518  0.62537  Biso   1.000  Hf
  Hf7      1.0000 0.36402  0.48197  0.87612  Biso   1.000  Hf
  O9       1.0000 0.03643  0.18636  0.68890  Biso   1.000  O 
  O10      1.0000 0.03153  0.06939  0.92937  Biso   1.000  O 
  O11      1.0000 0.46297  0.43286  0.69491  Biso   1.000  O 
  O12      1.0000 0.46357  0.31613  0.94452  Biso   1.000  O 
  O13      1.0000 0.26934  0.11667  0.74810  Biso   1.000  O 
  O14      1.0000 0.27247  0.13422  0.99455  Biso   1.000  O 
  O15      1.0000 0.22745  0.38142  0.99941  Biso   1.000  O 
  O16      1.0000 0.22875  0.36743  0.74875  Biso   1.000  O 
  Hf8      1.0000 0.13347  0.51580  0.12566  Biso   1.000  Hf
  Hf9      1.0000 0.13351  0.73334  0.37607  Biso   1.000  Hf
  Hf10     1.0000 0.36644  0.76497  0.12504  Biso   1.000  Hf
  Hf11     1.0000 0.36368  0.98376  0.37471  Biso   1.000  Hf
  O17      1.0000 0.03533  0.68424  0.19490  Biso   1.000  O 
  O18      1.0000 0.03447  0.56544  0.44551  Biso   1.000  O 
  O19      1.0000 0.46260  0.93499  0.19290  Biso   1.000  O 
  O20      1.0000 0.46348  0.81606  0.44623  Biso   1.000  O 
  O21      1.0000 0.26901  0.61503  0.24925  Biso   1.000  O 
  O22      1.0000 0.26904  0.63222  0.49953  Biso   1.000  O 
  O23      1.0000 0.22777  0.88251  0.49971  Biso   1.000  O 
  O24      1.0000 0.23602  0.86047  0.25344  Biso   1.000  O 
  Hf12     1.0000 0.13263  0.51590  0.62604  Biso   1.000  Hf
  Hf13     1.0000 0.13364  0.73288  0.87636  Biso   1.000  Hf
  Hf14     1.0000 0.36444  0.76622  0.62554  Biso   1.000  Hf
  Hf15     1.0000 0.36432  0.98268  0.87542  Biso   1.000  Hf
  O25      1.0000 0.03442  0.68348  0.69498  Biso   1.000  O 
  O26      1.0000 0.03353  0.56629  0.94439  Biso   1.000  O 
  O27      1.0000 0.46292  0.93315  0.69449  Biso   1.000  O 
  O28      1.0000 0.46672  0.81578  0.94531  Biso   1.000  O 
  O29      1.0000 0.26917  0.61694  0.74957  Biso   1.000  O 
  O30      1.0000 0.26879  0.62895  0.99968  Biso   1.000  O 
  O31      1.0000 0.23452  0.87448  0.99406  Biso   1.000  O 
  O32      1.0000 0.22754  0.86699  0.74776  Biso   1.000  O 
  Hf16     1.0000 0.63350  0.01564  0.12560  Biso   1.000  Hf
  Hf17     1.0000 0.63239  0.23310  0.37504  Biso   1.000  Hf
  Hf18     1.0000 0.86460  0.26650  0.12665  Biso   1.000  Hf
  Hf19     1.0000 0.86461  0.48361  0.37635  Biso   1.000  Hf
  O33      1.0000 0.53686  0.18461  0.19229  Biso   1.000  O 
  O34      1.0000 0.53450  0.06543  0.44442  Biso   1.000  O 
  O35      1.0000 0.96151  0.43706  0.19431  Biso   1.000  O 
  O36      1.0000 0.96280  0.31743  0.44573  Biso   1.000  O 
  O37      1.0000 0.76768  0.11685  0.25051  Biso   1.000  O 
  O38      1.0000 0.76779  0.13307  0.49988  Biso   1.000  O 
  O39      1.0000 0.72771  0.38228  0.49947  Biso   1.000  O 
  O40      1.0000 0.72865  0.36761  0.25004  Biso   1.000  O 
  Hf20     1.0000 0.63231  0.01603  0.62550  Biso   1.000  Hf
  Hf21     1.0000 0.63241  0.23266  0.87597  Biso   1.000  Hf
  Hf22     1.0000 0.86445  0.26628  0.62512  Biso   1.000  Hf
  Hf23     1.0000 0.86389  0.48257  0.87668  Biso   1.000  Hf
  O41      1.0000 0.53431  0.18340  0.69453  Biso   1.000  O 
  O42      1.0000 0.53558  0.06460  0.94288  Biso   1.000  O 
  O43      1.0000 0.96292  0.43389  0.69589  Biso   1.000  O 
  O44      1.0000 0.96296  0.31671  0.94630  Biso   1.000  O 
  O45      1.0000 0.76898  0.11705  0.74897  Biso   1.000  O 
  O46      1.0000 0.76900  0.13123  0.99970  Biso   1.000  O 
  O47      1.0000 0.72672  0.38169  0.99931  Biso   1.000  O 
  O48      1.0000 0.72830  0.36676  0.74970  Biso   1.000  O 
  Hf24     1.0000 0.63329  0.51564  0.12597  Biso   1.000  Hf
  Hf25     1.0000 0.63181  0.73274  0.37727  Biso   1.000  Hf
  Hf26     1.0000 0.86312  0.76657  0.12818  Biso   1.000  Hf
  Hf27     1.0000 0.86320  0.98232  0.37690  Biso   1.000  Hf
  O49      1.0000 0.53467  0.68190  0.19617  Biso   1.000  O 
  O50      1.0000 0.53370  0.56488  0.44572  Biso   1.000  O 
  O51      1.0000 0.95165  0.92977  0.20141  Biso   1.000  O 
  O52      1.0000 0.96291  0.81448  0.44642  Biso   1.000  O 
  O53      1.0000 0.76888  0.61741  0.25018  Biso   1.000  O 
  O54      1.0000 0.76867  0.63154  0.49990  Biso   1.000  O 
  O55      1.0000 0.72786  0.88127  0.50082  Biso   1.000  O 
  O56      1.0000 0.72144  0.86633  0.25094  Biso   1.000  O 
  Hf28     1.0000 0.63233  0.51524  0.62620  Biso   1.000  Hf
  Hf29     1.0000 0.63326  0.73229  0.87569  Biso   1.000  Hf
  Hf30     1.0000 0.86450  0.76518  0.62594  Biso   1.000  Hf
  Hf31     1.0000 0.86290  0.98234  0.87481  Biso   1.000  Hf
  O57      1.0000 0.53429  0.68292  0.69472  Biso   1.000  O 
  O58      1.0000 0.53334  0.56543  0.94528  Biso   1.000  O 
  O59      1.0000 0.96111  0.93320  0.69320  Biso   1.000  O 
  O60      1.0000 0.96520  0.81774  0.94874  Biso   1.000  O 
  O61      1.0000 0.76914  0.61620  0.74939  Biso   1.000  O 
  O62      1.0000 0.76794  0.63054  0.99946  Biso   1.000  O 
  O63      1.0000 0.73067  0.88146  0.00034  Biso   1.000  O 
  O64      1.0000 0.72772  0.86634  0.74971  Biso   1.000  O 
