data_image0
_cell_length_a       5.10116
_cell_length_b       10.4098
_cell_length_c       10.1193
_cell_angle_alpha    90
_cell_angle_beta     90
_cell_angle_gamma    90

_symmetry_space_group_name_H-M    "P 1"
_symmetry_int_tables_number       1

loop_
  _symmetry_equiv_pos_as_xyz
  'x, y, z'

loop_
  _atom_site_label
  _atom_site_occupancy
  _atom_site_fract_x
  _atom_site_fract_y
  _atom_site_fract_z
  _atom_site_thermal_displace_type
  _atom_site_B_iso_or_equiv
  _atom_site_type_symbol
  Hf1      1.0000 0.14492  0.97195  0.08143  Biso   1.000  Hf
  Hf2      1.0000 0.19308  0.23360  0.38826  Biso   1.000  Hf
  Hf3      1.0000 0.63917  0.26693  0.11762  Biso   1.000  Hf
  Hf4      1.0000 0.68110  0.48269  0.37038  Biso   1.000  Hf
  O1       1.0000 0.86951  0.18588  0.26447  Biso   1.000  O 
  O2       1.0000 0.01811  0.06802  0.46473  Biso   1.000  O 
  O3       1.0000 0.88354  0.42800  0.19665  Biso   1.000  O 
  O4       1.0000 0.89171  0.33346  0.47045  Biso   1.000  O 
  O5       1.0000 0.39650  0.11295  0.22914  Biso   1.000  O 
  O6       1.0000 0.49942  0.13297  0.48439  Biso   1.000  O 
  O7       1.0000 0.40895  0.38606  0.49660  Biso   1.000  O 
  O8       1.0000 0.39007  0.37094  0.24996  Biso   1.000  O 
  Hf5      1.0000 0.13573  0.97624  0.58860  Biso   1.000  Hf
  Hf6      1.0000 0.17253  0.24240  0.84092  Biso   1.000  Hf
  Hf7      1.0000 0.66014  0.26510  0.61811  Biso   1.000  Hf
  Hf8      1.0000 0.67201  0.48116  0.87944  Biso   1.000  Hf
  O9       1.0000 0.90327  0.15837  0.72624  Biso   1.000  O 
  O10      1.0000 0.98921  0.07753  0.97053  Biso   1.000  O 
  O11      1.0000 0.91698  0.40876  0.72021  Biso   1.000  O 
  O12      1.0000 0.85477  0.31822  0.95276  Biso   1.000  O 
  O13      1.0000 0.41664  0.11084  0.72881  Biso   1.000  O 
  O14      1.0000 0.45199  0.13894  0.97785  Biso   1.000  O 
  O15      1.0000 0.37643  0.39232  0.99610  Biso   1.000  O 
  O16      1.0000 0.42426  0.36631  0.74414  Biso   1.000  O 
  Hf9      1.0000 0.20695  0.53035  0.12698  Biso   1.000  Hf
  Hf10     1.0000 0.21661  0.73265  0.37673  Biso   1.000  Hf
  Hf11     1.0000 0.67468  0.76731  0.12663  Biso   1.000  Hf
  Hf12     1.0000 0.70749  0.01970  0.33578  Biso   1.000  Hf
  O17      1.0000 0.99183  0.67936  0.21344  Biso   1.000  O 
  O18      1.0000 0.00504  0.57060  0.45089  Biso   1.000  O 
  O19      1.0000 0.84183  0.93010  0.21143  Biso   1.000  O 
  O20      1.0000 0.95039  0.81862  0.49315  Biso   1.000  O 
  O21      1.0000 0.48486  0.62001  0.24925  Biso   1.000  O 
  O22      1.0000 0.48052  0.63256  0.49737  Biso   1.000  O 
  O23      1.0000 0.43477  0.88354  0.48111  Biso   1.000  O 
  O24      1.0000 0.36975  0.86286  0.23142  Biso   1.000  O 
  Hf13     1.0000 0.19857  0.51219  0.62236  Biso   1.000  Hf
  Hf14     1.0000 0.20437  0.72804  0.86952  Biso   1.000  Hf
  Hf15     1.0000 0.66990  0.76073  0.62708  Biso   1.000  Hf
  Hf16     1.0000 0.71242  0.01616  0.83811  Biso   1.000  Hf
  O25      1.0000 0.98207  0.66417  0.70916  Biso   1.000  O 
  O26      1.0000 0.99151  0.57234  0.95546  Biso   1.000  O 
  O27      1.0000 0.84805  0.91600  0.72198  Biso   1.000  O 
  O28      1.0000 0.94501  0.81934  0.98753  Biso   1.000  O 
  O29      1.0000 0.46856  0.60874  0.74700  Biso   1.000  O 
  O30      1.0000 0.47061  0.63729  0.99700  Biso   1.000  O 
  O31      1.0000 0.43399  0.88233  0.97818  Biso   1.000  O 
  O32      1.0000 0.36903  0.85766  0.73097  Biso   1.000  O 
  Yb1      1.0000 0.13994  0.24758  0.10970  Biso   1.000  Yb
