data_image0
_cell_length_a       4.98858
_cell_length_b       10.3752
_cell_length_c       10.0458
_cell_angle_alpha    90
_cell_angle_beta     90
_cell_angle_gamma    90

_symmetry_space_group_name_H-M    "P 1"
_symmetry_int_tables_number       1

loop_
  _symmetry_equiv_pos_as_xyz
  'x, y, z'

loop_
  _atom_site_label
  _atom_site_occupancy
  _atom_site_fract_x
  _atom_site_fract_y
  _atom_site_fract_z
  _atom_site_thermal_displace_type
  _atom_site_B_iso_or_equiv
  _atom_site_type_symbol
  Yb1      1.0000 0.25985  0.01428  0.11978  Biso   1.000  Yb
  Hf1      1.0000 0.26583  0.23245  0.37655  Biso   1.000  Hf
  Hf2      1.0000 0.72444  0.26633  0.12745  Biso   1.000  Hf
  Hf3      1.0000 0.72791  0.48305  0.37686  Biso   1.000  Hf
  O1       1.0000 0.06709  0.18907  0.19773  Biso   1.000  O 
  O2       1.0000 0.06736  0.06523  0.44459  Biso   1.000  O 
  O3       1.0000 0.92461  0.43433  0.19497  Biso   1.000  O 
  O4       1.0000 0.92431  0.31631  0.44486  Biso   1.000  O 
  O5       1.0000 0.54918  0.12307  0.25328  Biso   1.000  O 
  O6       1.0000 0.53505  0.13173  0.50128  Biso   1.000  O 
  O7       1.0000 0.45587  0.38219  0.49998  Biso   1.000  O 
  O8       1.0000 0.45274  0.36902  0.25028  Biso   1.000  O 
  Hf4      1.0000 0.26255  0.01612  0.62601  Biso   1.000  Hf
  Hf5      1.0000 0.26324  0.23365  0.87332  Biso   1.000  Hf
  Hf6      1.0000 0.72853  0.26602  0.62499  Biso   1.000  Hf
  Hf7      1.0000 0.72715  0.48165  0.87628  Biso   1.000  Hf
  O9       1.0000 0.07226  0.18613  0.68950  Biso   1.000  O 
  O10      1.0000 0.06731  0.06823  0.92925  Biso   1.000  O 
  O11      1.0000 0.92525  0.43338  0.69583  Biso   1.000  O 
  O12      1.0000 0.92326  0.31534  0.94542  Biso   1.000  O 
  O13      1.0000 0.53857  0.11725  0.74848  Biso   1.000  O 
  O14      1.0000 0.54356  0.13208  0.99581  Biso   1.000  O 
  O15      1.0000 0.45187  0.38049  0.99980  Biso   1.000  O 
  O16      1.0000 0.45661  0.36759  0.74913  Biso   1.000  O 
  Hf8      1.0000 0.26716  0.51589  0.12622  Biso   1.000  Hf
  Hf9      1.0000 0.26363  0.73322  0.37741  Biso   1.000  Hf
  Hf10     1.0000 0.72882  0.76480  0.12714  Biso   1.000  Hf
  Hf11     1.0000 0.72382  0.98328  0.37678  Biso   1.000  Hf
  O17      1.0000 0.07094  0.68275  0.19602  Biso   1.000  O 
  O18      1.0000 0.06762  0.56511  0.44577  Biso   1.000  O 
  O19      1.0000 0.90932  0.93150  0.20018  Biso   1.000  O 
  O20      1.0000 0.92497  0.81523  0.44706  Biso   1.000  O 
  O21      1.0000 0.53909  0.61555  0.24984  Biso   1.000  O 
  O22      1.0000 0.53653  0.63171  0.49991  Biso   1.000  O 
  O23      1.0000 0.45319  0.88175  0.50086  Biso   1.000  O 
  O24      1.0000 0.45986  0.86166  0.25259  Biso   1.000  O 
  Hf12     1.0000 0.26368  0.51567  0.62616  Biso   1.000  Hf
  Hf13     1.0000 0.26557  0.73126  0.87586  Biso   1.000  Hf
  Hf14     1.0000 0.72778  0.76541  0.62550  Biso   1.000  Hf
  Hf15     1.0000 0.72563  0.98137  0.87372  Biso   1.000  Hf
  O25      1.0000 0.06738  0.68304  0.69537  Biso   1.000  O 
  O26      1.0000 0.06575  0.56512  0.94526  Biso   1.000  O 
  O27      1.0000 0.92173  0.93284  0.69360  Biso   1.000  O 
  O28      1.0000 0.93520  0.81784  0.94947  Biso   1.000  O 
  O29      1.0000 0.53747  0.61634  0.74972  Biso   1.000  O 
  O30      1.0000 0.53601  0.62844  0.99981  Biso   1.000  O 
  O31      1.0000 0.46687  0.87439  0.99614  Biso   1.000  O 
  O32      1.0000 0.45348  0.86640  0.74890  Biso   1.000  O 
