data_image0
_cell_length_a       10.1155
_cell_length_b       10.4353
_cell_length_c       5.1012
_cell_angle_alpha    90
_cell_angle_beta     90
_cell_angle_gamma    90

_symmetry_space_group_name_H-M    "P 1"
_symmetry_int_tables_number       1

loop_
  _symmetry_equiv_pos_as_xyz
  'x, y, z'

loop_
  _atom_site_label
  _atom_site_occupancy
  _atom_site_fract_x
  _atom_site_fract_y
  _atom_site_fract_z
  _atom_site_thermal_displace_type
  _atom_site_B_iso_or_equiv
  _atom_site_type_symbol
  Hf1      1.0000 0.07487  0.96648  0.16768  Biso   1.000  Hf
  Hf2      1.0000 0.09679  0.23413  0.72393  Biso   1.000  Hf
  Hf3      1.0000 0.35230  0.26745  0.22569  Biso   1.000  Hf
  Hf4      1.0000 0.33768  0.48089  0.74363  Biso   1.000  Hf
  O1       1.0000 0.93773  0.17007  0.50019  Biso   1.000  O 
  O2       1.0000 0.00709  0.06955  0.94409  Biso   1.000  O 
  O3       1.0000 0.44311  0.42939  0.40065  Biso   1.000  O 
  O4       1.0000 0.44397  0.32846  0.90147  Biso   1.000  O 
  O5       1.0000 0.20626  0.10492  0.45483  Biso   1.000  O 
  O6       1.0000 0.24299  0.13433  0.96194  Biso   1.000  O 
  O7       1.0000 0.19990  0.38624  0.98829  Biso   1.000  O 
  O8       1.0000 0.21180  0.36154  0.48533  Biso   1.000  O 
  Hf5      1.0000 0.10383  0.52468  0.24450  Biso   1.000  Hf
  Hf6      1.0000 0.10687  0.72786  0.74193  Biso   1.000  Hf
  Hf7      1.0000 0.34057  0.76239  0.25163  Biso   1.000  Hf
  Hf8      1.0000 0.35577  0.01823  0.67349  Biso   1.000  Hf
  O9       1.0000 0.99400  0.67079  0.41983  Biso   1.000  O 
  O10      1.0000 0.00218  0.56691  0.90110  Biso   1.000  O 
  O11      1.0000 0.42278  0.92366  0.43251  Biso   1.000  O 
  O12      1.0000 0.47570  0.82030  0.97936  Biso   1.000  O 
  O13      1.0000 0.23972  0.61365  0.49477  Biso   1.000  O 
  O14      1.0000 0.23886  0.63315  0.99400  Biso   1.000  O 
  O15      1.0000 0.22070  0.87838  0.94945  Biso   1.000  O 
  O16      1.0000 0.18740  0.85652  0.45786  Biso   1.000  O 
  Hf9      1.0000 0.56852  0.97796  0.17459  Biso   1.000  Hf
  Hf10     1.0000 0.59886  0.22927  0.75053  Biso   1.000  Hf
  Hf11     1.0000 0.80898  0.26200  0.24216  Biso   1.000  Hf
  Hf12     1.0000 0.84099  0.47567  0.74935  Biso   1.000  Hf
  O17      1.0000 0.45522  0.17242  0.49416  Biso   1.000  O 
  O18      1.0000 0.50003  0.07684  0.94861  Biso   1.000  O 
  O19      1.0000 0.94986  0.41464  0.40867  Biso   1.000  O 
  O20      1.0000 0.93377  0.31877  0.92087  Biso   1.000  O 
  O21      1.0000 0.70411  0.10754  0.46479  Biso   1.000  O 
  O22      1.0000 0.74239  0.12758  0.96350  Biso   1.000  O 
  O23      1.0000 0.69601  0.38346  0.99567  Biso   1.000  O 
  O24      1.0000 0.69613  0.36492  0.50438  Biso   1.000  O 
  Hf13     1.0000 0.60109  0.51766  0.24898  Biso   1.000  Hf
  Hf14     1.0000 0.60806  0.72686  0.75070  Biso   1.000  Hf
  Hf15     1.0000 0.83425  0.76206  0.25553  Biso   1.000  Hf
  Hf16     1.0000 0.86016  0.01169  0.67957  Biso   1.000  Hf
  O25      1.0000 0.49763  0.67414  0.42228  Biso   1.000  O 
  O26      1.0000 0.49935  0.57142  0.90774  Biso   1.000  O 
  O27      1.0000 0.92569  0.92026  0.43311  Biso   1.000  O 
  O28      1.0000 0.97431  0.81342  0.97913  Biso   1.000  O 
  O29      1.0000 0.73956  0.61010  0.49494  Biso   1.000  O 
  O30      1.0000 0.74112  0.62944  0.99399  Biso   1.000  O 
  O31      1.0000 0.71858  0.87902  0.96828  Biso   1.000  O 
  O32      1.0000 0.68642  0.85885  0.47013  Biso   1.000  O 
  Yb1      1.0000 0.07992  0.24421  0.21774  Biso   1.000  Yb
