data_image0
_cell_length_a       10.0608
_cell_length_b       5.14641
_cell_length_c       10.6256
_cell_angle_alpha    90
_cell_angle_beta     90
_cell_angle_gamma    90

_symmetry_space_group_name_H-M    "P 1"
_symmetry_int_tables_number       1

loop_
  _symmetry_equiv_pos_as_xyz
  'x, y, z'

loop_
  _atom_site_label
  _atom_site_occupancy
  _atom_site_fract_x
  _atom_site_fract_y
  _atom_site_fract_z
  _atom_site_thermal_displace_type
  _atom_site_B_iso_or_equiv
  _atom_site_type_symbol
  Hf1      1.0000 0.13256  0.04272  0.17538  Biso   1.000  Hf
  Hf2      1.0000 0.12578  0.45065  0.42715  Biso   1.000  Hf
  Hf3      1.0000 0.34330  0.54819  0.19142  Biso   1.000  Hf
  Hf4      1.0000 0.34639  0.95436  0.42938  Biso   1.000  Hf
  Hf5      1.0000 0.64455  0.05550  0.08140  Biso   1.000  Hf
  Hf6      1.0000 0.62913  0.45175  0.33089  Biso   1.000  Hf
  Hf7      1.0000 0.86085  0.53819  0.07778  Biso   1.000  Hf
  Hf8      1.0000 0.84886  0.95288  0.32621  Biso   1.000  Hf
  O1       1.0000 0.03047  0.31857  0.08128  Biso   1.000  O 
  O2       1.0000 0.02184  0.17115  0.33399  Biso   1.000  O 
  O3       1.0000 0.44891  0.86083  0.09868  Biso   1.000  O 
  O4       1.0000 0.45644  0.66884  0.34138  Biso   1.000  O 
  O5       1.0000 0.26322  0.24777  0.30273  Biso   1.000  O 
  O6       1.0000 0.27732  0.26433  0.04776  Biso   1.000  O 
  O7       1.0000 0.20795  0.75142  0.30686  Biso   1.000  O 
  O8       1.0000 0.21437  0.75824  0.05292  Biso   1.000  O 
  O9       1.0000 0.51782  0.31320  0.18309  Biso   1.000  O 
  O10      1.0000 0.51940  0.16987  0.42125  Biso   1.000  O 
  O11      1.0000 0.95968  0.82410  0.17255  Biso   1.000  O 
  O12      1.0000 0.95764  0.67321  0.42169  Biso   1.000  O 
  O13      1.0000 0.76450  0.24575  0.45148  Biso   1.000  O 
  O14      1.0000 0.77898  0.24983  0.20701  Biso   1.000  O 
  O15      1.0000 0.71213  0.74587  0.45315  Biso   1.000  O 
  O16      1.0000 0.71144  0.73827  0.20176  Biso   1.000  O 
  Hf9      1.0000 0.12458  0.03984  0.67632  Biso   1.000  Hf
  Hf10     1.0000 0.11558  0.46227  0.92535  Biso   1.000  Hf
  Hf11     1.0000 0.34338  0.54260  0.67684  Biso   1.000  Hf
  Hf12     1.0000 0.33192  0.96783  0.92833  Biso   1.000  Hf
  Hf13     1.0000 0.62794  0.03436  0.57143  Biso   1.000  Hf
  Hf14     1.0000 0.63078  0.45073  0.79751  Biso   1.000  Hf
  Hf15     1.0000 0.85266  0.54212  0.57476  Biso   1.000  Hf
  Hf16     1.0000 0.84234  0.95881  0.83036  Biso   1.000  Hf
  O17      1.0000 0.01864  0.31982  0.58291  Biso   1.000  O 
  O18      1.0000 0.01413  0.17510  0.83271  Biso   1.000  O 
  O19      1.0000 0.45498  0.81666  0.58340  Biso   1.000  O 
  O20      1.0000 0.45262  0.67028  0.83141  Biso   1.000  O 
  O21      1.0000 0.25642  0.25256  0.79837  Biso   1.000  O 
  O22      1.0000 0.26252  0.24734  0.55007  Biso   1.000  O 
  O23      1.0000 0.20374  0.74774  0.80196  Biso   1.000  O 
  O24      1.0000 0.20913  0.74797  0.55354  Biso   1.000  O 
  O25      1.0000 0.51269  0.31192  0.66272  Biso   1.000  O 
  O26      1.0000 0.50853  0.17161  0.91969  Biso   1.000  O 
  O27      1.0000 0.95344  0.81895  0.67343  Biso   1.000  O 
  O28      1.0000 0.94486  0.67412  0.92134  Biso   1.000  O 
  O29      1.0000 0.74960  0.26246  0.94367  Biso   1.000  O 
  O30      1.0000 0.76738  0.23712  0.69313  Biso   1.000  O 
  O31      1.0000 0.70307  0.76126  0.95391  Biso   1.000  O 
  O32      1.0000 0.71170  0.74992  0.69905  Biso   1.000  O 
  Yb1      1.0000 0.55512  0.54667  0.01868  Biso   1.000  Yb
