data_image0
_cell_length_a       5.00841
_cell_length_b       10.1745
_cell_length_c       10.0415
_cell_angle_alpha    90
_cell_angle_beta     90
_cell_angle_gamma    90

_symmetry_space_group_name_H-M    "P 1"
_symmetry_int_tables_number       1

loop_
  _symmetry_equiv_pos_as_xyz
  'x, y, z'

loop_
  _atom_site_label
  _atom_site_occupancy
  _atom_site_fract_x
  _atom_site_fract_y
  _atom_site_fract_z
  _atom_site_thermal_displace_type
  _atom_site_B_iso_or_equiv
  _atom_site_type_symbol
  Yb1      1.0000 0.24981  0.00005  0.12491  Biso   1.000  Yb
  Hf1      1.0000 0.24834  0.25091  0.37517  Biso   1.000  Hf
  Hf2      1.0000 0.74982  0.25193  0.12491  Biso   1.000  Hf
  Hf3      1.0000 0.74982  0.00005  0.37455  Biso   1.000  Hf
  O1       1.0000 0.00271  0.14466  0.99996  Biso   1.000  O 
  O2       1.0000 0.98658  0.11444  0.25636  Biso   1.000  O 
  O3       1.0000 0.01308  0.35844  0.24525  Biso   1.000  O 
  O4       1.0000 0.99018  0.39348  0.99809  Biso   1.000  O 
  O5       1.0000 0.49692  0.14466  0.24986  Biso   1.000  O 
  O6       1.0000 0.51305  0.11444  0.99346  Biso   1.000  O 
  O7       1.0000 0.48655  0.35844  0.00457  Biso   1.000  O 
  O8       1.0000 0.50946  0.39348  0.25173  Biso   1.000  O 
  Hf4      1.0000 0.24982  0.00005  0.62491  Biso   1.000  Hf
  Hf5      1.0000 0.25129  0.25092  0.87464  Biso   1.000  Hf
  Hf6      1.0000 0.74982  0.24908  0.62491  Biso   1.000  Hf
  Hf7      1.0000 0.74982  0.00005  0.87527  Biso   1.000  Hf
  O9       1.0000 0.00988  0.14688  0.50517  Biso   1.000  O 
  O10      1.0000 0.99421  0.10339  0.75124  Biso   1.000  O 
  O11      1.0000 0.00423  0.35389  0.74609  Biso   1.000  O 
  O12      1.0000 0.99852  0.39636  0.49690  Biso   1.000  O 
  O13      1.0000 0.48975  0.14688  0.74465  Biso   1.000  O 
  O14      1.0000 0.50543  0.10339  0.49857  Biso   1.000  O 
  O15      1.0000 0.49540  0.35389  0.50373  Biso   1.000  O 
  O16      1.0000 0.50111  0.39636  0.75292  Biso   1.000  O 
  Hf8      1.0000 0.24982  0.50005  0.12491  Biso   1.000  Hf
  Hf9      1.0000 0.25129  0.74919  0.37517  Biso   1.000  Hf
  Hf10     1.0000 0.74982  0.74818  0.12491  Biso   1.000  Hf
  Hf11     1.0000 0.74982  0.50005  0.37523  Biso   1.000  Hf
  O17      1.0000 0.01308  0.64167  0.00457  Biso   1.000  O 
  O18      1.0000 0.99018  0.60663  0.25173  Biso   1.000  O 
  O19      1.0000 0.00271  0.85545  0.24986  Biso   1.000  O 
  O20      1.0000 0.98658  0.88567  0.99346  Biso   1.000  O 
  O21      1.0000 0.48655  0.64167  0.24525  Biso   1.000  O 
  O22      1.0000 0.50945  0.60663  0.99809  Biso   1.000  O 
  O23      1.0000 0.49692  0.85545  0.99996  Biso   1.000  O 
  O24      1.0000 0.51305  0.88567  0.25635  Biso   1.000  O 
  Hf12     1.0000 0.24982  0.50005  0.62491  Biso   1.000  Hf
  Hf13     1.0000 0.24834  0.74919  0.87464  Biso   1.000  Hf
  Hf14     1.0000 0.74982  0.75103  0.62491  Biso   1.000  Hf
  Hf15     1.0000 0.74982  0.50005  0.87459  Biso   1.000  Hf
  O25      1.0000 0.00423  0.64622  0.50373  Biso   1.000  O 
  O26      1.0000 0.99852  0.60375  0.75292  Biso   1.000  O 
  O27      1.0000 0.00988  0.85323  0.74465  Biso   1.000  O 
  O28      1.0000 0.99421  0.89671  0.49857  Biso   1.000  O 
  O29      1.0000 0.49540  0.64621  0.74609  Biso   1.000  O 
  O30      1.0000 0.50111  0.60375  0.49690  Biso   1.000  O 
  O31      1.0000 0.48975  0.85323  0.50517  Biso   1.000  O 
  O32      1.0000 0.50542  0.89671  0.75124  Biso   1.000  O 
