data_image0
_cell_length_a       10.1659
_cell_length_b       5.14071
_cell_length_c       10.4665
_cell_angle_alpha    90
_cell_angle_beta     80
_cell_angle_gamma    90

_symmetry_space_group_name_H-M    "P 1"
_symmetry_int_tables_number       1

loop_
  _symmetry_equiv_pos_as_xyz
  'x, y, z'

loop_
  _atom_site_label
  _atom_site_occupancy
  _atom_site_fract_x
  _atom_site_fract_y
  _atom_site_fract_z
  _atom_site_thermal_displace_type
  _atom_site_B_iso_or_equiv
  _atom_site_type_symbol
  Yb1      1.0000 0.13704  0.03534  0.14810  Biso   1.000  Yb
  Hf1      1.0000 0.13847  0.45572  0.39692  Biso   1.000  Hf
  Hf2      1.0000 0.36082  0.53861  0.10313  Biso   1.000  Hf
  Hf3      1.0000 0.35916  0.95666  0.35406  Biso   1.000  Hf
  O1       1.0000 0.03421  0.35420  0.07873  Biso   1.000  O 
  O2       1.0000 0.02858  0.16774  0.33772  Biso   1.000  O 
  O3       1.0000 0.46383  0.83621  0.17017  Biso   1.000  O 
  O4       1.0000 0.46232  0.66183  0.42148  Biso   1.000  O 
  O5       1.0000 0.28001  0.26178  0.24570  Biso   1.000  O 
  O6       1.0000 0.27370  0.24033  0.49273  Biso   1.000  O 
  O7       1.0000 0.22991  0.75031  0.00358  Biso   1.000  O 
  O8       1.0000 0.22638  0.73354  0.26102  Biso   1.000  O 
  Hf4      1.0000 0.13712  0.04178  0.64686  Biso   1.000  Hf
  Hf5      1.0000 0.13644  0.45883  0.89672  Biso   1.000  Hf
  Hf6      1.0000 0.35817  0.54272  0.60484  Biso   1.000  Hf
  Hf7      1.0000 0.35793  0.95732  0.85514  Biso   1.000  Hf
  O9       1.0000 0.03262  0.33823  0.58180  Biso   1.000  O 
  O10      1.0000 0.03166  0.16263  0.83076  Biso   1.000  O 
  O11      1.0000 0.46226  0.83580  0.67079  Biso   1.000  O 
  O12      1.0000 0.46536  0.66752  0.92072  Biso   1.000  O 
  O13      1.0000 0.27292  0.25780  0.74049  Biso   1.000  O 
  O14      1.0000 0.27743  0.24833  0.98639  Biso   1.000  O 
  O15      1.0000 0.22132  0.75737  0.51025  Biso   1.000  O 
  O16      1.0000 0.22064  0.74331  0.75872  Biso   1.000  O 
  Hf8      1.0000 0.63712  0.03987  0.14563  Biso   1.000  Hf
  Hf9      1.0000 0.63534  0.45605  0.39646  Biso   1.000  Hf
  Hf10     1.0000 0.85693  0.53904  0.10302  Biso   1.000  Hf
  Hf11     1.0000 0.85669  0.95700  0.35516  Biso   1.000  Hf
  O17      1.0000 0.53632  0.33628  0.07912  Biso   1.000  O 
  O18      1.0000 0.53398  0.16082  0.33020  Biso   1.000  O 
  O19      1.0000 0.95333  0.83619  0.17085  Biso   1.000  O 
  O20      1.0000 0.96359  0.66603  0.42042  Biso   1.000  O 
  O21      1.0000 0.77394  0.25630  0.24089  Biso   1.000  O 
  O22      1.0000 0.77271  0.24291  0.49125  Biso   1.000  O 
  O23      1.0000 0.72320  0.75795  0.00832  Biso   1.000  O 
  O24      1.0000 0.71753  0.74008  0.26079  Biso   1.000  O 
  Hf12     1.0000 0.63578  0.04257  0.64656  Biso   1.000  Hf
  Hf13     1.0000 0.63523  0.45715  0.89562  Biso   1.000  Hf
  Hf14     1.0000 0.85831  0.54295  0.60390  Biso   1.000  Hf
  Hf15     1.0000 0.85720  0.95745  0.85410  Biso   1.000  Hf
  O25      1.0000 0.53214  0.33599  0.58051  Biso   1.000  O 
  O26      1.0000 0.53315  0.16294  0.82939  Biso   1.000  O 
  O27      1.0000 0.96226  0.83695  0.67009  Biso   1.000  O 
  O28      1.0000 0.96033  0.66443  0.91939  Biso   1.000  O 
  O29      1.0000 0.77387  0.25781  0.73995  Biso   1.000  O 
  O30      1.0000 0.77172  0.23995  0.99028  Biso   1.000  O 
  O31      1.0000 0.72130  0.75757  0.50967  Biso   1.000  O 
  O32      1.0000 0.72158  0.74171  0.75879  Biso   1.000  O 
