data_image0
_cell_length_a       10.0487
_cell_length_b       10.2539
_cell_length_c       10.5378
_cell_angle_alpha    90
_cell_angle_beta     90
_cell_angle_gamma    90

_symmetry_space_group_name_H-M    "P 1"
_symmetry_int_tables_number       1

loop_
  _symmetry_equiv_pos_as_xyz
  'x, y, z'

loop_
  _atom_site_label
  _atom_site_occupancy
  _atom_site_fract_x
  _atom_site_fract_y
  _atom_site_fract_z
  _atom_site_thermal_displace_type
  _atom_site_B_iso_or_equiv
  _atom_site_type_symbol
  Hf1      1.0000 0.13761  0.02066  0.17334  Biso   1.000  Hf
  Hf2      1.0000 0.13317  0.22676  0.42624  Biso   1.000  Hf
  Hf3      1.0000 0.34756  0.27297  0.18946  Biso   1.000  Hf
  Hf4      1.0000 0.35524  0.47888  0.42567  Biso   1.000  Hf
  Hf5      1.0000 0.63985  0.01005  0.08053  Biso   1.000  Hf
  Hf6      1.0000 0.63370  0.22373  0.32927  Biso   1.000  Hf
  Hf7      1.0000 0.86509  0.27052  0.07685  Biso   1.000  Hf
  Hf8      1.0000 0.85492  0.47799  0.32609  Biso   1.000  Hf
  O1       1.0000 0.03393  0.16258  0.08292  Biso   1.000  O 
  O2       1.0000 0.02793  0.08646  0.33247  Biso   1.000  O 
  O3       1.0000 0.45246  0.43219  0.09715  Biso   1.000  O 
  O4       1.0000 0.46136  0.33228  0.34025  Biso   1.000  O 
  O5       1.0000 0.26871  0.12272  0.30200  Biso   1.000  O 
  O6       1.0000 0.27990  0.12853  0.04773  Biso   1.000  O 
  O7       1.0000 0.21240  0.37693  0.30516  Biso   1.000  O 
  O8       1.0000 0.21860  0.37725  0.04952  Biso   1.000  O 
  O9       1.0000 0.51968  0.14418  0.18396  Biso   1.000  O 
  O10      1.0000 0.52635  0.08373  0.42190  Biso   1.000  O 
  O11      1.0000 0.96329  0.41423  0.17038  Biso   1.000  O 
  O12      1.0000 0.96299  0.33636  0.41782  Biso   1.000  O 
  O13      1.0000 0.77086  0.12296  0.45181  Biso   1.000  O 
  O14      1.0000 0.77564  0.12531  0.20326  Biso   1.000  O 
  O15      1.0000 0.71795  0.37414  0.45100  Biso   1.000  O 
  O16      1.0000 0.71088  0.37118  0.19627  Biso   1.000  O 
  Hf9      1.0000 0.13159  0.02044  0.67464  Biso   1.000  Hf
  Hf10     1.0000 0.13047  0.22906  0.92404  Biso   1.000  Hf
  Hf11     1.0000 0.35344  0.27116  0.67491  Biso   1.000  Hf
  Hf12     1.0000 0.34751  0.48277  0.92495  Biso   1.000  Hf
  Hf13     1.0000 0.63410  0.01588  0.57457  Biso   1.000  Hf
  Hf14     1.0000 0.64248  0.22583  0.79990  Biso   1.000  Hf
  Hf15     1.0000 0.85792  0.27254  0.57304  Biso   1.000  Hf
  Hf16     1.0000 0.85315  0.47907  0.82898  Biso   1.000  Hf
  O17      1.0000 0.02562  0.16201  0.58242  Biso   1.000  O 
  O18      1.0000 0.02371  0.08642  0.83346  Biso   1.000  O 
  O19      1.0000 0.46205  0.41411  0.58553  Biso   1.000  O 
  O20      1.0000 0.46162  0.33294  0.83686  Biso   1.000  O 
  O21      1.0000 0.26763  0.12409  0.79736  Biso   1.000  O 
  O22      1.0000 0.27025  0.12489  0.54938  Biso   1.000  O 
  O23      1.0000 0.21532  0.37331  0.79925  Biso   1.000  O 
  O24      1.0000 0.21798  0.37476  0.55069  Biso   1.000  O 
  O25      1.0000 0.52287  0.15960  0.66122  Biso   1.000  O 
  O26      1.0000 0.52267  0.08322  0.91608  Biso   1.000  O 
  O27      1.0000 0.96168  0.41209  0.66971  Biso   1.000  O 
  O28      1.0000 0.95907  0.33505  0.91909  Biso   1.000  O 
  O29      1.0000 0.75793  0.12925  0.95164  Biso   1.000  O 
  O30      1.0000 0.77790  0.11890  0.69453  Biso   1.000  O 
  O31      1.0000 0.71665  0.37948  0.95064  Biso   1.000  O 
  O32      1.0000 0.71989  0.37804  0.69779  Biso   1.000  O 
  Hf17     1.0000 0.13582  0.52159  0.17409  Biso   1.000  Hf
  Hf18     1.0000 0.13132  0.72780  0.42343  Biso   1.000  Hf
  Hf19     1.0000 0.35602  0.77162  0.17475  Biso   1.000  Hf
  Hf20     1.0000 0.35377  0.97694  0.42555  Biso   1.000  Hf
  Hf21     1.0000 0.63814  0.53360  0.07706  Biso   1.000  Hf
  Hf22     1.0000 0.63341  0.72927  0.32963  Biso   1.000  Hf
  Hf23     1.0000 0.86207  0.77075  0.07861  Biso   1.000  Hf
  Hf24     1.0000 0.85681  0.97898  0.32822  Biso   1.000  Hf
  O33      1.0000 0.03091  0.66343  0.08308  Biso   1.000  O 
  O34      1.0000 0.02465  0.58624  0.33365  Biso   1.000  O 
  O35      1.0000 0.46489  0.90834  0.08025  Biso   1.000  O 
  O36      1.0000 0.46265  0.83702  0.33389  Biso   1.000  O 
  O37      1.0000 0.26947  0.62486  0.29760  Biso   1.000  O 
  O38      1.0000 0.27338  0.62853  0.04614  Biso   1.000  O 
  O39      1.0000 0.21829  0.87361  0.29799  Biso   1.000  O 
  O40      1.0000 0.22055  0.87786  0.04785  Biso   1.000  O 
  O41      1.0000 0.52960  0.66939  0.17000  Biso   1.000  O 
  O42      1.0000 0.52545  0.58628  0.41786  Biso   1.000  O 
  O43      1.0000 0.96502  0.91435  0.16871  Biso   1.000  O 
  O44      1.0000 0.96191  0.83658  0.42022  Biso   1.000  O 
  O45      1.0000 0.77009  0.62384  0.45389  Biso   1.000  O 
  O46      1.0000 0.77401  0.62534  0.20510  Biso   1.000  O 
  O47      1.0000 0.71826  0.87299  0.45539  Biso   1.000  O 
  O48      1.0000 0.72404  0.87153  0.20684  Biso   1.000  O 
  Hf25     1.0000 0.13098  0.52018  0.67384  Biso   1.000  Hf
  Hf26     1.0000 0.12671  0.72979  0.92279  Biso   1.000  Hf
  Hf27     1.0000 0.35218  0.77045  0.67365  Biso   1.000  Hf
  Hf28     1.0000 0.34971  0.97781  0.92321  Biso   1.000  Hf
  Hf29     1.0000 0.63183  0.52282  0.57613  Biso   1.000  Hf
  Hf30     1.0000 0.62892  0.72934  0.82611  Biso   1.000  Hf
  Hf31     1.0000 0.85553  0.77018  0.57971  Biso   1.000  Hf
  Hf32     1.0000 0.85090  0.97947  0.82983  Biso   1.000  Hf
  O49      1.0000 0.02523  0.66240  0.58342  Biso   1.000  O 
  O50      1.0000 0.02358  0.58566  0.83368  Biso   1.000  O 
  O51      1.0000 0.46079  0.90971  0.58233  Biso   1.000  O 
  O52      1.0000 0.45748  0.83592  0.83159  Biso   1.000  O 
  O53      1.0000 0.26601  0.62488  0.79641  Biso   1.000  O 
  O54      1.0000 0.26842  0.62489  0.54685  Biso   1.000  O 
  O55      1.0000 0.21358  0.87359  0.79753  Biso   1.000  O 
  O56      1.0000 0.21562  0.87516  0.54825  Biso   1.000  O 
  O57      1.0000 0.52378  0.66334  0.66748  Biso   1.000  O 
  O58      1.0000 0.51975  0.58770  0.91789  Biso   1.000  O 
  O59      1.0000 0.96008  0.91114  0.67165  Biso   1.000  O 
  O60      1.0000 0.95641  0.83679  0.91969  Biso   1.000  O 
  O61      1.0000 0.76601  0.62812  0.95129  Biso   1.000  O 
  O62      1.0000 0.76825  0.62561  0.70346  Biso   1.000  O 
  O63      1.0000 0.71294  0.87379  0.95519  Biso   1.000  O 
  O64      1.0000 0.71570  0.87434  0.70561  Biso   1.000  O 
  Yb1      1.0000 0.55906  0.26802  0.02305  Biso   1.000  Yb
