data_image0
_cell_length_a       5.10604
_cell_length_b       10.3129
_cell_length_c       10.6187
_cell_angle_alpha    90
_cell_angle_beta     80
_cell_angle_gamma    90

_symmetry_space_group_name_H-M    "P 1"
_symmetry_int_tables_number       1

loop_
  _symmetry_equiv_pos_as_xyz
  'x, y, z'

loop_
  _atom_site_label
  _atom_site_occupancy
  _atom_site_fract_x
  _atom_site_fract_y
  _atom_site_fract_z
  _atom_site_thermal_displace_type
  _atom_site_B_iso_or_equiv
  _atom_site_type_symbol
  Hf1      1.0000 0.29292  0.01820  0.15105  Biso   1.000  Hf
  Hf2      1.0000 0.34152  0.23204  0.40763  Biso   1.000  Hf
  Hf3      1.0000 0.66873  0.27398  0.08690  Biso   1.000  Hf
  Hf4      1.0000 0.70522  0.48530  0.35385  Biso   1.000  Hf
  O1       1.0000 0.04390  0.16495  0.07272  Biso   1.000  O 
  O2       1.0000 0.11653  0.06632  0.33938  Biso   1.000  O 
  O3       1.0000 0.89043  0.42204  0.17006  Biso   1.000  O 
  O4       1.0000 0.96735  0.35394  0.43789  Biso   1.000  O 
  O5       1.0000 0.59300  0.12767  0.24284  Biso   1.000  O 
  O6       1.0000 0.61552  0.12155  0.49008  Biso   1.000  O 
  O7       1.0000 0.40246  0.38449  0.00439  Biso   1.000  O 
  O8       1.0000 0.39204  0.36800  0.25075  Biso   1.000  O 
  Hf5      1.0000 0.31640  0.02393  0.64413  Biso   1.000  Hf
  Hf6      1.0000 0.29781  0.23090  0.88962  Biso   1.000  Hf
  Hf7      1.0000 0.76096  0.27805  0.60602  Biso   1.000  Hf
  Hf8      1.0000 0.73857  0.48609  0.85040  Biso   1.000  Hf
  O9       1.0000 0.11395  0.17143  0.58084  Biso   1.000  O 
  O10      1.0000 0.09963  0.08721  0.82159  Biso   1.000  O 
  O11      1.0000 0.95785  0.41916  0.67856  Biso   1.000  O 
  O12      1.0000 0.95180  0.33915  0.91486  Biso   1.000  O 
  O13      1.0000 0.58496  0.13144  0.73931  Biso   1.000  O 
  O14      1.0000 0.58321  0.12504  0.98377  Biso   1.000  O 
  O15      1.0000 0.46914  0.38353  0.51405  Biso   1.000  O 
  O16      1.0000 0.47301  0.37516  0.75623  Biso   1.000  O 
  Hf9      1.0000 0.25035  0.52493  0.14727  Biso   1.000  Hf
  Hf10     1.0000 0.26500  0.72698  0.39747  Biso   1.000  Hf
  Hf11     1.0000 0.69431  0.77217  0.10413  Biso   1.000  Hf
  Hf12     1.0000 0.70856  0.96916  0.35480  Biso   1.000  Hf
  O17      1.0000 0.03503  0.66704  0.07791  Biso   1.000  O 
  O18      1.0000 0.04821  0.58822  0.32533  Biso   1.000  O 
  O19      1.0000 0.91220  0.91378  0.17502  Biso   1.000  O 
  O20      1.0000 0.92200  0.82960  0.42423  Biso   1.000  O 
  O21      1.0000 0.52995  0.62824  0.24220  Biso   1.000  O 
  O22      1.0000 0.54438  0.62634  0.49149  Biso   1.000  O 
  O23      1.0000 0.41520  0.87806  0.01148  Biso   1.000  O 
  O24      1.0000 0.42857  0.86753  0.25831  Biso   1.000  O 
  Hf13     1.0000 0.29213  0.52668  0.64687  Biso   1.000  Hf
  Hf14     1.0000 0.29126  0.73310  0.89524  Biso   1.000  Hf
  Hf15     1.0000 0.72552  0.77388  0.60350  Biso   1.000  Hf
  Hf16     1.0000 0.72633  0.98006  0.84988  Biso   1.000  Hf
  O25      1.0000 0.06429  0.66466  0.57742  Biso   1.000  O 
  O26      1.0000 0.08389  0.59117  0.82569  Biso   1.000  O 
  O27      1.0000 0.93543  0.91706  0.67133  Biso   1.000  O 
  O28      1.0000 0.95030  0.84074  0.92015  Biso   1.000  O 
  O29      1.0000 0.56629  0.63217  0.74015  Biso   1.000  O 
  O30      1.0000 0.57409  0.62795  0.98857  Biso   1.000  O 
  O31      1.0000 0.44046  0.87911  0.50970  Biso   1.000  O 
  O32      1.0000 0.45265  0.87445  0.75779  Biso   1.000  O 
  Yb1      1.0000 0.95323  0.23897  0.27152  Biso   1.000  Yb
