data_image0
_cell_length_a       10.1732
_cell_length_b       10.2847
_cell_length_c       5.23303
_cell_angle_alpha    90
_cell_angle_beta     80
_cell_angle_gamma    90

_symmetry_space_group_name_H-M    "P 1"
_symmetry_int_tables_number       1

loop_
  _symmetry_equiv_pos_as_xyz
  'x, y, z'

loop_
  _atom_site_label
  _atom_site_occupancy
  _atom_site_fract_x
  _atom_site_fract_y
  _atom_site_fract_z
  _atom_site_thermal_displace_type
  _atom_site_B_iso_or_equiv
  _atom_site_type_symbol
  Yb1      1.0000 0.13758  0.01655  0.29868  Biso   1.000  Yb
  Hf1      1.0000 0.13881  0.22954  0.79376  Biso   1.000  Hf
  Hf2      1.0000 0.35941  0.26947  0.20864  Biso   1.000  Hf
  Hf3      1.0000 0.35960  0.47762  0.70749  Biso   1.000  Hf
  O1       1.0000 0.03300  0.17406  0.15543  Biso   1.000  O 
  O2       1.0000 0.02813  0.08621  0.67301  Biso   1.000  O 
  O3       1.0000 0.46386  0.41703  0.34164  Biso   1.000  O 
  O4       1.0000 0.46396  0.33269  0.84217  Biso   1.000  O 
  O5       1.0000 0.28011  0.13179  0.49119  Biso   1.000  O 
  O6       1.0000 0.27916  0.12499  0.97563  Biso   1.000  O 
  O7       1.0000 0.22381  0.37964  0.01870  Biso   1.000  O 
  O8       1.0000 0.22158  0.37192  0.51814  Biso   1.000  O 
  Hf4      1.0000 0.13869  0.52148  0.29115  Biso   1.000  Hf
  Hf5      1.0000 0.13846  0.72789  0.79255  Biso   1.000  Hf
  Hf6      1.0000 0.36186  0.77124  0.20791  Biso   1.000  Hf
  Hf7      1.0000 0.35986  0.97911  0.71022  Biso   1.000  Hf
  O9       1.0000 0.03335  0.66721  0.15711  Biso   1.000  O 
  O10      1.0000 0.03225  0.58393  0.65565  Biso   1.000  O 
  O11      1.0000 0.46468  0.91845  0.34089  Biso   1.000  O 
  O12      1.0000 0.46632  0.83277  0.84299  Biso   1.000  O 
  O13      1.0000 0.27511  0.62684  0.47981  Biso   1.000  O 
  O14      1.0000 0.27417  0.61995  0.98109  Biso   1.000  O 
  O15      1.0000 0.22957  0.87427  0.00999  Biso   1.000  O 
  O16      1.0000 0.22825  0.86599  0.52252  Biso   1.000  O 
  Hf8      1.0000 0.63789  0.02146  0.29218  Biso   1.000  Hf
  Hf9      1.0000 0.63632  0.22883  0.79207  Biso   1.000  Hf
  Hf10     1.0000 0.85895  0.27196  0.20610  Biso   1.000  Hf
  Hf11     1.0000 0.85931  0.47876  0.70704  Biso   1.000  Hf
  O17      1.0000 0.53506  0.16867  0.15958  Biso   1.000  O 
  O18      1.0000 0.53599  0.08091  0.65982  Biso   1.000  O 
  O19      1.0000 0.96422  0.41768  0.34083  Biso   1.000  O 
  O20      1.0000 0.96377  0.33557  0.84155  Biso   1.000  O 
  O21      1.0000 0.77532  0.12911  0.48077  Biso   1.000  O 
  O22      1.0000 0.77297  0.12145  0.98177  Biso   1.000  O 
  O23      1.0000 0.72295  0.37921  0.01732  Biso   1.000  O 
  O24      1.0000 0.72251  0.37120  0.51846  Biso   1.000  O 
  Hf12     1.0000 0.63677  0.52016  0.29115  Biso   1.000  Hf
  Hf13     1.0000 0.63621  0.72750  0.79087  Biso   1.000  Hf
  Hf14     1.0000 0.85774  0.76949  0.20661  Biso   1.000  Hf
  Hf15     1.0000 0.85625  0.97843  0.71017  Biso   1.000  Hf
  O25      1.0000 0.53502  0.66713  0.15798  Biso   1.000  O 
  O26      1.0000 0.53288  0.58160  0.65758  Biso   1.000  O 
  O27      1.0000 0.95529  0.91473  0.34674  Biso   1.000  O 
  O28      1.0000 0.96453  0.83413  0.84314  Biso   1.000  O 
  O29      1.0000 0.77407  0.62796  0.47880  Biso   1.000  O 
  O30      1.0000 0.77354  0.62027  0.97892  Biso   1.000  O 
  O31      1.0000 0.72344  0.87855  0.01817  Biso   1.000  O 
  O32      1.0000 0.71869  0.87006  0.52032  Biso   1.000  O 
