data_image0
_cell_length_a       10.115
_cell_length_b       5.3045
_cell_length_c       10.132
_cell_angle_alpha    80
_cell_angle_beta     90
_cell_angle_gamma    90

_symmetry_space_group_name_H-M    "P 1"
_symmetry_int_tables_number       1

loop_
  _symmetry_equiv_pos_as_xyz
  'x, y, z'

loop_
  _atom_site_label
  _atom_site_occupancy
  _atom_site_fract_x
  _atom_site_fract_y
  _atom_site_fract_z
  _atom_site_thermal_displace_type
  _atom_site_B_iso_or_equiv
  _atom_site_type_symbol
  Hf1      1.0000 0.15375  0.10110  0.13333  Biso   1.000  Hf
  Hf2      1.0000 0.14349  0.41163  0.38774  Biso   1.000  Hf
  Hf3      1.0000 0.37744  0.55122  0.11716  Biso   1.000  Hf
  Hf4      1.0000 0.36637  0.89627  0.38452  Biso   1.000  Hf
  O1       1.0000 0.02974  0.35857  0.20869  Biso   1.000  O 
  O2       1.0000 0.04971  0.05394  0.44513  Biso   1.000  O 
  O3       1.0000 0.48882  0.78135  0.22935  Biso   1.000  O 
  O4       1.0000 0.46121  0.54729  0.46630  Biso   1.000  O 
  O5       1.0000 0.28945  0.22558  0.26118  Biso   1.000  O 
  O6       1.0000 0.27496  0.17535  0.51476  Biso   1.000  O 
  O7       1.0000 0.22896  0.67261  0.51116  Biso   1.000  O 
  O8       1.0000 0.23049  0.71480  0.25031  Biso   1.000  O 
  Hf5      1.0000 0.13714  0.91074  0.63441  Biso   1.000  Hf
  Hf6      1.0000 0.10481  0.28844  0.84672  Biso   1.000  Hf
  Hf7      1.0000 0.36396  0.41901  0.64416  Biso   1.000  Hf
  Hf8      1.0000 0.40734  0.84868  0.85898  Biso   1.000  Hf
  O9       1.0000 0.02237  0.22056  0.67281  Biso   1.000  O 
  O10      1.0000 0.04324  0.94235  0.95031  Biso   1.000  O 
  O11      1.0000 0.47488  0.73206  0.68684  Biso   1.000  O 
  O12      1.0000 0.48092  0.49024  0.94687  Biso   1.000  O 
  O13      1.0000 0.25836  0.09030  0.76286  Biso   1.000  O 
  O14      1.0000 0.24187  0.38997  0.00151  Biso   1.000  O 
  O15      1.0000 0.29437  0.90144  0.01838  Biso   1.000  O 
  O16      1.0000 0.23729  0.59269  0.76797  Biso   1.000  O 
  Hf9      1.0000 0.64229  0.99887  0.14006  Biso   1.000  Hf
  Hf10     1.0000 0.60250  0.41820  0.35861  Biso   1.000  Hf
  Hf11     1.0000 0.84710  0.49353  0.13304  Biso   1.000  Hf
  Hf12     1.0000 0.90039  0.90581  0.35825  Biso   1.000  Hf
  O17      1.0000 0.53773  0.31595  0.18305  Biso   1.000  O 
  O18      1.0000 0.53055  0.05398  0.44470  Biso   1.000  O 
  O19      1.0000 0.97184  0.85464  0.18245  Biso   1.000  O 
  O20      1.0000 0.97220  0.55173  0.44799  Biso   1.000  O 
  O21      1.0000 0.76500  0.18329  0.26790  Biso   1.000  O 
  O22      1.0000 0.71859  0.30433  0.52006  Biso   1.000  O 
  O23      1.0000 0.77711  0.79931  0.51715  Biso   1.000  O 
  O24      1.0000 0.74172  0.68166  0.26571  Biso   1.000  O 
  Hf13     1.0000 0.64085  0.95463  0.62244  Biso   1.000  Hf
  Hf14     1.0000 0.64122  0.31279  0.88784  Biso   1.000  Hf
  Hf15     1.0000 0.85831  0.45555  0.62593  Biso   1.000  Hf
  Hf16     1.0000 0.86829  0.80890  0.88130  Biso   1.000  Hf
  O25      1.0000 0.51414  0.19348  0.73453  Biso   1.000  O 
  O26      1.0000 0.54341  0.97488  0.97216  Biso   1.000  O 
  O27      1.0000 0.97839  0.71251  0.71543  Biso   1.000  O 
  O28      1.0000 0.94253  0.44094  0.94137  Biso   1.000  O 
  O29      1.0000 0.76742  0.11377  0.75960  Biso   1.000  O 
  O30      1.0000 0.77016  0.24686  0.01127  Biso   1.000  O 
  O31      1.0000 0.72831  0.75587  0.00928  Biso   1.000  O 
  O32      1.0000 0.72759  0.61669  0.75851  Biso   1.000  O 
  Yb1      1.0000 0.10534  0.68795  0.04685  Biso   1.000  Yb
