data_image0
_cell_length_a       10.0415
_cell_length_b       10.1745
_cell_length_c       5.00841
_cell_angle_alpha    90
_cell_angle_beta     90
_cell_angle_gamma    90

_symmetry_space_group_name_H-M    "P 1"
_symmetry_int_tables_number       1

loop_
  _symmetry_equiv_pos_as_xyz
  'x, y, z'

loop_
  _atom_site_label
  _atom_site_occupancy
  _atom_site_fract_x
  _atom_site_fract_y
  _atom_site_fract_z
  _atom_site_thermal_displace_type
  _atom_site_B_iso_or_equiv
  _atom_site_type_symbol
  Yb1      1.0000 0.12491  0.00005  0.24982  Biso   1.000  Yb
  Hf1      1.0000 0.12491  0.25193  0.74982  Biso   1.000  Hf
  Hf2      1.0000 0.37517  0.25092  0.24834  Biso   1.000  Hf
  Hf3      1.0000 0.37455  0.00005  0.74982  Biso   1.000  Hf
  O1       1.0000 0.99996  0.14466  0.00272  Biso   1.000  O 
  O2       1.0000 0.99346  0.11444  0.51306  Biso   1.000  O 
  O3       1.0000 0.00457  0.35844  0.48654  Biso   1.000  O 
  O4       1.0000 0.99809  0.39348  0.99017  Biso   1.000  O 
  O5       1.0000 0.24986  0.14466  0.49691  Biso   1.000  O 
  O6       1.0000 0.25635  0.11444  0.98657  Biso   1.000  O 
  O7       1.0000 0.24524  0.35844  0.01309  Biso   1.000  O 
  O8       1.0000 0.25173  0.39348  0.50946  Biso   1.000  O 
  Hf4      1.0000 0.12491  0.50005  0.24982  Biso   1.000  Hf
  Hf5      1.0000 0.12491  0.74818  0.74982  Biso   1.000  Hf
  Hf6      1.0000 0.37517  0.74919  0.25129  Biso   1.000  Hf
  Hf7      1.0000 0.37524  0.50005  0.74982  Biso   1.000  Hf
  O9       1.0000 0.00457  0.64167  0.01309  Biso   1.000  O 
  O10      1.0000 0.99809  0.60663  0.50946  Biso   1.000  O 
  O11      1.0000 0.99996  0.85545  0.49691  Biso   1.000  O 
  O12      1.0000 0.99346  0.88567  0.98657  Biso   1.000  O 
  O13      1.0000 0.24525  0.64167  0.48654  Biso   1.000  O 
  O14      1.0000 0.25173  0.60663  0.99017  Biso   1.000  O 
  O15      1.0000 0.24986  0.85545  0.00272  Biso   1.000  O 
  O16      1.0000 0.25635  0.88567  0.51306  Biso   1.000  O 
  Hf8      1.0000 0.62491  0.00005  0.24982  Biso   1.000  Hf
  Hf9      1.0000 0.62491  0.24908  0.74982  Biso   1.000  Hf
  Hf10     1.0000 0.87465  0.25092  0.25129  Biso   1.000  Hf
  Hf11     1.0000 0.87527  0.00005  0.74982  Biso   1.000  Hf
  O17      1.0000 0.50517  0.14688  0.00989  Biso   1.000  O 
  O18      1.0000 0.49858  0.10339  0.50544  Biso   1.000  O 
  O19      1.0000 0.50373  0.35389  0.49540  Biso   1.000  O 
  O20      1.0000 0.49690  0.39636  0.99852  Biso   1.000  O 
  O21      1.0000 0.74465  0.14688  0.48974  Biso   1.000  O 
  O22      1.0000 0.75124  0.10339  0.99420  Biso   1.000  O 
  O23      1.0000 0.74609  0.35389  0.00423  Biso   1.000  O 
  O24      1.0000 0.75292  0.39636  0.50111  Biso   1.000  O 
  Hf12     1.0000 0.62491  0.50005  0.24982  Biso   1.000  Hf
  Hf13     1.0000 0.62491  0.75103  0.74982  Biso   1.000  Hf
  Hf14     1.0000 0.87465  0.74919  0.24834  Biso   1.000  Hf
  Hf15     1.0000 0.87458  0.50005  0.74982  Biso   1.000  Hf
  O25      1.0000 0.50373  0.64622  0.00423  Biso   1.000  O 
  O26      1.0000 0.49690  0.60375  0.50112  Biso   1.000  O 
  O27      1.0000 0.50517  0.85323  0.48974  Biso   1.000  O 
  O28      1.0000 0.49858  0.89671  0.99420  Biso   1.000  O 
  O29      1.0000 0.74609  0.64621  0.49540  Biso   1.000  O 
  O30      1.0000 0.75292  0.60375  0.99852  Biso   1.000  O 
  O31      1.0000 0.74465  0.85323  0.00989  Biso   1.000  O 
  O32      1.0000 0.75124  0.89671  0.50544  Biso   1.000  O 
