data_image0
_cell_length_a       9.99128
_cell_length_b       10.3775
_cell_length_c       5.01418
_cell_angle_alpha    90
_cell_angle_beta     90
_cell_angle_gamma    90

_symmetry_space_group_name_H-M    "P 1"
_symmetry_int_tables_number       1

loop_
  _symmetry_equiv_pos_as_xyz
  'x, y, z'

loop_
  _atom_site_label
  _atom_site_occupancy
  _atom_site_fract_x
  _atom_site_fract_y
  _atom_site_fract_z
  _atom_site_thermal_displace_type
  _atom_site_B_iso_or_equiv
  _atom_site_type_symbol
  Yb1      1.0000 0.12948  0.01534  0.24322  Biso   1.000  Yb
  Hf1      1.0000 0.13371  0.23450  0.74935  Biso   1.000  Hf
  Hf2      1.0000 0.36544  0.26630  0.25407  Biso   1.000  Hf
  Hf3      1.0000 0.36474  0.48271  0.75247  Biso   1.000  Hf
  O1       1.0000 0.03453  0.19301  0.38826  Biso   1.000  O 
  O2       1.0000 0.03345  0.06901  0.86118  Biso   1.000  O 
  O3       1.0000 0.46378  0.43353  0.39076  Biso   1.000  O 
  O4       1.0000 0.46280  0.31501  0.88793  Biso   1.000  O 
  O5       1.0000 0.27699  0.12422  0.50619  Biso   1.000  O 
  O6       1.0000 0.27233  0.13256  0.99602  Biso   1.000  O 
  O7       1.0000 0.23013  0.38240  0.00000  Biso   1.000  O 
  O8       1.0000 0.22811  0.36970  0.49860  Biso   1.000  O 
  Hf4      1.0000 0.13444  0.51647  0.25168  Biso   1.000  Hf
  Hf5      1.0000 0.13396  0.73305  0.75336  Biso   1.000  Hf
  Hf6      1.0000 0.36625  0.76579  0.25200  Biso   1.000  Hf
  Hf7      1.0000 0.36511  0.98265  0.74822  Biso   1.000  Hf
  O9       1.0000 0.03531  0.68380  0.39110  Biso   1.000  O 
  O10      1.0000 0.03448  0.56564  0.89036  Biso   1.000  O 
  O11      1.0000 0.46378  0.93418  0.38758  Biso   1.000  O 
  O12      1.0000 0.46604  0.81572  0.89226  Biso   1.000  O 
  O13      1.0000 0.27002  0.61601  0.49938  Biso   1.000  O 
  O14      1.0000 0.26949  0.63042  0.99998  Biso   1.000  O 
  O15      1.0000 0.23378  0.87709  0.99477  Biso   1.000  O 
  O16      1.0000 0.23404  0.86223  0.50495  Biso   1.000  O 
  Hf8      1.0000 0.63288  0.01602  0.25025  Biso   1.000  Hf
  Hf9      1.0000 0.63226  0.23248  0.75028  Biso   1.000  Hf
  Hf10     1.0000 0.86275  0.26683  0.25063  Biso   1.000  Hf
  Hf11     1.0000 0.86486  0.48287  0.75406  Biso   1.000  Hf
  O17      1.0000 0.53787  0.18488  0.38409  Biso   1.000  O 
  O18      1.0000 0.53631  0.06449  0.88530  Biso   1.000  O 
  O19      1.0000 0.96310  0.43519  0.38975  Biso   1.000  O 
  O20      1.0000 0.96269  0.31685  0.89116  Biso   1.000  O 
  O21      1.0000 0.76934  0.11696  0.49875  Biso   1.000  O 
  O22      1.0000 0.76890  0.13184  0.99897  Biso   1.000  O 
  O23      1.0000 0.72730  0.38173  0.99936  Biso   1.000  O 
  O24      1.0000 0.72883  0.36763  0.50048  Biso   1.000  O 
  Hf12     1.0000 0.63310  0.51571  0.25292  Biso   1.000  Hf
  Hf13     1.0000 0.63259  0.73203  0.75340  Biso   1.000  Hf
  Hf14     1.0000 0.86421  0.76511  0.25370  Biso   1.000  Hf
  Hf15     1.0000 0.86268  0.98180  0.75304  Biso   1.000  Hf
  O25      1.0000 0.53609  0.68274  0.39108  Biso   1.000  O 
  O26      1.0000 0.53442  0.56476  0.89118  Biso   1.000  O 
  O27      1.0000 0.95412  0.93092  0.39835  Biso   1.000  O 
  O28      1.0000 0.96549  0.81708  0.89846  Biso   1.000  O 
  O29      1.0000 0.77015  0.61645  0.49977  Biso   1.000  O 
  O30      1.0000 0.76884  0.63054  0.99947  Biso   1.000  O 
  O31      1.0000 0.72972  0.88065  0.00220  Biso   1.000  O 
  O32      1.0000 0.72528  0.86640  0.50121  Biso   1.000  O 
