data_image0
_cell_length_a       10.0184
_cell_length_b       10.4074
_cell_length_c       10.0758
_cell_angle_alpha    90
_cell_angle_beta     90
_cell_angle_gamma    90

_symmetry_space_group_name_H-M    "P 1"
_symmetry_int_tables_number       1

loop_
  _symmetry_equiv_pos_as_xyz
  'x, y, z'

loop_
  _atom_site_label
  _atom_site_occupancy
  _atom_site_fract_x
  _atom_site_fract_y
  _atom_site_fract_z
  _atom_site_thermal_displace_type
  _atom_site_B_iso_or_equiv
  _atom_site_type_symbol
  Hf1      1.0000 0.13436  0.99570  0.11795  Biso   1.000  Hf
  Hf2      1.0000 0.13087  0.22980  0.39423  Biso   1.000  Hf
  Hf3      1.0000 0.37650  0.27291  0.11791  Biso   1.000  Hf
  Hf4      1.0000 0.36678  0.48545  0.37464  Biso   1.000  Hf
  O1       1.0000 0.98287  0.16537  0.25227  Biso   1.000  O 
  O2       1.0000 0.03736  0.06343  0.46321  Biso   1.000  O 
  O3       1.0000 0.46695  0.43833  0.19630  Biso   1.000  O 
  O4       1.0000 0.46775  0.32217  0.44830  Biso   1.000  O 
  O5       1.0000 0.24502  0.11660  0.24466  Biso   1.000  O 
  O6       1.0000 0.27764  0.13330  0.49900  Biso   1.000  O 
  O7       1.0000 0.23378  0.38502  0.50167  Biso   1.000  O 
  O8       1.0000 0.23209  0.36774  0.25407  Biso   1.000  O 
  Hf5      1.0000 0.13885  0.01105  0.62762  Biso   1.000  Hf
  Hf6      1.0000 0.13398  0.23665  0.85165  Biso   1.000  Hf
  Hf7      1.0000 0.37365  0.27070  0.62394  Biso   1.000  Hf
  Hf8      1.0000 0.37004  0.49201  0.87272  Biso   1.000  Hf
  O9       1.0000 0.03515  0.18018  0.68858  Biso   1.000  O 
  O10      1.0000 0.03251  0.07319  0.95159  Biso   1.000  O 
  O11      1.0000 0.47029  0.43750  0.69466  Biso   1.000  O 
  O12      1.0000 0.46940  0.32465  0.93955  Biso   1.000  O 
  O13      1.0000 0.27287  0.11846  0.74494  Biso   1.000  O 
  O14      1.0000 0.26587  0.14320  0.99487  Biso   1.000  O 
  O15      1.0000 0.23777  0.40095  0.99940  Biso   1.000  O 
  O16      1.0000 0.23798  0.37132  0.74683  Biso   1.000  O 
  Hf9      1.0000 0.13648  0.53204  0.12492  Biso   1.000  Hf
  Hf10     1.0000 0.13470  0.73623  0.37758  Biso   1.000  Hf
  Hf11     1.0000 0.37169  0.76475  0.12314  Biso   1.000  Hf
  Hf12     1.0000 0.36490  0.98914  0.37029  Biso   1.000  Hf
  O17      1.0000 0.03298  0.68584  0.20053  Biso   1.000  O 
  O18      1.0000 0.03646  0.56999  0.44532  Biso   1.000  O 
  O19      1.0000 0.45905  0.93542  0.19225  Biso   1.000  O 
  O20      1.0000 0.46808  0.82269  0.44342  Biso   1.000  O 
  O21      1.0000 0.27529  0.62095  0.24836  Biso   1.000  O 
  O22      1.0000 0.27157  0.63552  0.49827  Biso   1.000  O 
  O23      1.0000 0.23446  0.88534  0.49631  Biso   1.000  O 
  O24      1.0000 0.23246  0.86222  0.24673  Biso   1.000  O 
  Hf13     1.0000 0.13510  0.51856  0.62356  Biso   1.000  Hf
  Hf14     1.0000 0.13312  0.73827  0.86947  Biso   1.000  Hf
  Hf15     1.0000 0.37209  0.76873  0.62156  Biso   1.000  Hf
  Hf16     1.0000 0.37040  0.98907  0.87297  Biso   1.000  Hf
  O25      1.0000 0.03689  0.68536  0.69208  Biso   1.000  O 
  O26      1.0000 0.03546  0.57492  0.94646  Biso   1.000  O 
  O27      1.0000 0.46990  0.93623  0.69588  Biso   1.000  O 
  O28      1.0000 0.47231  0.82483  0.94583  Biso   1.000  O 
  O29      1.0000 0.27089  0.61917  0.74621  Biso   1.000  O 
  O30      1.0000 0.27063  0.64503  0.99560  Biso   1.000  O 
  O31      1.0000 0.23727  0.88616  0.99352  Biso   1.000  O 
  O32      1.0000 0.23782  0.86682  0.74692  Biso   1.000  O 
  Hf17     1.0000 0.62834  0.01241  0.12258  Biso   1.000  Hf
  Hf18     1.0000 0.63004  0.23283  0.37669  Biso   1.000  Hf
  Hf19     1.0000 0.84212  0.26204  0.12734  Biso   1.000  Hf
  Hf20     1.0000 0.86946  0.48344  0.37308  Biso   1.000  Hf
  O33      1.0000 0.52520  0.17761  0.20503  Biso   1.000  O 
  O34      1.0000 0.53290  0.06868  0.44942  Biso   1.000  O 
  O35      1.0000 0.96987  0.42563  0.19069  Biso   1.000  O 
  O36      1.0000 0.97019  0.32687  0.45855  Biso   1.000  O 
  O37      1.0000 0.74863  0.11132  0.24908  Biso   1.000  O 
  O38      1.0000 0.77179  0.14003  0.49643  Biso   1.000  O 
  O39      1.0000 0.73414  0.38767  0.50054  Biso   1.000  O 
  O40      1.0000 0.72429  0.37206  0.25431  Biso   1.000  O 
  Hf21     1.0000 0.63796  0.01765  0.62225  Biso   1.000  Hf
  Hf22     1.0000 0.63587  0.23719  0.87224  Biso   1.000  Hf
  Hf23     1.0000 0.86443  0.27095  0.62602  Biso   1.000  Hf
  Hf24     1.0000 0.86927  0.48531  0.87804  Biso   1.000  Hf
  O41      1.0000 0.53984  0.18621  0.69472  Biso   1.000  O 
  O42      1.0000 0.53254  0.07587  0.94669  Biso   1.000  O 
  O43      1.0000 0.97264  0.43226  0.70417  Biso   1.000  O 
  O44      1.0000 0.96631  0.31665  0.94562  Biso   1.000  O 
  O45      1.0000 0.77362  0.11918  0.74714  Biso   1.000  O 
  O46      1.0000 0.76805  0.13294  0.99632  Biso   1.000  O 
  O47      1.0000 0.72617  0.38871  0.99848  Biso   1.000  O 
  O48      1.0000 0.73320  0.37141  0.74993  Biso   1.000  O 
  Hf25     1.0000 0.63457  0.51971  0.12639  Biso   1.000  Hf
  Hf26     1.0000 0.63730  0.73820  0.37615  Biso   1.000  Hf
  Hf27     1.0000 0.86325  0.76508  0.12589  Biso   1.000  Hf
  Hf28     1.0000 0.87591  0.99761  0.36554  Biso   1.000  Hf
  O49      1.0000 0.53982  0.68736  0.19572  Biso   1.000  O 
  O50      1.0000 0.53599  0.57174  0.44561  Biso   1.000  O 
  O51      1.0000 0.96404  0.92939  0.19333  Biso   1.000  O 
  O52      1.0000 0.96874  0.82331  0.44514  Biso   1.000  O 
  O53      1.0000 0.77262  0.61732  0.24863  Biso   1.000  O 
  O54      1.0000 0.77286  0.63698  0.49765  Biso   1.000  O 
  O55      1.0000 0.73619  0.89002  0.49590  Biso   1.000  O 
  O56      1.0000 0.73012  0.86696  0.24675  Biso   1.000  O 
  Hf29     1.0000 0.63761  0.52066  0.62359  Biso   1.000  Hf
  Hf30     1.0000 0.63799  0.73753  0.87360  Biso   1.000  Hf
  Hf31     1.0000 0.86889  0.77153  0.62138  Biso   1.000  Hf
  Hf32     1.0000 0.86801  0.98689  0.87627  Biso   1.000  Hf
  O57      1.0000 0.53839  0.68686  0.69551  Biso   1.000  O 
  O58      1.0000 0.53517  0.57570  0.94832  Biso   1.000  O 
  O59      1.0000 0.97317  0.93054  0.70478  Biso   1.000  O 
  O60      1.0000 0.97140  0.82313  0.95159  Biso   1.000  O 
  O61      1.0000 0.77396  0.61910  0.74856  Biso   1.000  O 
  O62      1.0000 0.77218  0.63697  0.99828  Biso   1.000  O 
  O63      1.0000 0.73251  0.88560  0.99755  Biso   1.000  O 
  O64      1.0000 0.73415  0.86972  0.74686  Biso   1.000  O 
  Yb1      1.0000 0.10567  0.26140  0.11475  Biso   1.000  Yb
