data_image0
_cell_length_a       10.1541
_cell_length_b       10.2989
_cell_length_c       10.5367
_cell_angle_alpha    90
_cell_angle_beta     80
_cell_angle_gamma    90

_symmetry_space_group_name_H-M    "P 1"
_symmetry_int_tables_number       1

loop_
  _symmetry_equiv_pos_as_xyz
  'x, y, z'

loop_
  _atom_site_label
  _atom_site_occupancy
  _atom_site_fract_x
  _atom_site_fract_y
  _atom_site_fract_z
  _atom_site_thermal_displace_type
  _atom_site_B_iso_or_equiv
  _atom_site_type_symbol
  Hf1      1.0000 0.13614  0.02074  0.14577  Biso   1.000  Hf
  Hf2      1.0000 0.13627  0.22854  0.39445  Biso   1.000  Hf
  Hf3      1.0000 0.34444  0.27315  0.07877  Biso   1.000  Hf
  Hf4      1.0000 0.36103  0.49057  0.35589  Biso   1.000  Hf
  O1       1.0000 0.03418  0.16765  0.07598  Biso   1.000  O 
  O2       1.0000 0.03324  0.08347  0.32764  Biso   1.000  O 
  O3       1.0000 0.46379  0.41817  0.17028  Biso   1.000  O 
  O4       1.0000 0.48044  0.35743  0.43746  Biso   1.000  O 
  O5       1.0000 0.27412  0.12351  0.23411  Biso   1.000  O 
  O6       1.0000 0.29182  0.13021  0.47704  Biso   1.000  O 
  O7       1.0000 0.21056  0.38670  0.00087  Biso   1.000  O 
  O8       1.0000 0.23123  0.36573  0.25680  Biso   1.000  O 
  Hf5      1.0000 0.14351  0.02316  0.64373  Biso   1.000  Hf
  Hf6      1.0000 0.13870  0.23017  0.88906  Biso   1.000  Hf
  Hf7      1.0000 0.36547  0.27839  0.60368  Biso   1.000  Hf
  Hf8      1.0000 0.36378  0.48528  0.85018  Biso   1.000  Hf
  O9       1.0000 0.04378  0.17092  0.57890  Biso   1.000  O 
  O10      1.0000 0.03804  0.08353  0.82568  Biso   1.000  O 
  O11      1.0000 0.47025  0.42018  0.67604  Biso   1.000  O 
  O12      1.0000 0.47093  0.33867  0.91523  Biso   1.000  O 
  O13      1.0000 0.27991  0.13020  0.73492  Biso   1.000  O 
  O14      1.0000 0.27727  0.12205  0.98204  Biso   1.000  O 
  O15      1.0000 0.22557  0.38293  0.50759  Biso   1.000  O 
  O16      1.0000 0.22763  0.37350  0.75575  Biso   1.000  O 
  Hf9      1.0000 0.13781  0.52241  0.14737  Biso   1.000  Hf
  Hf10     1.0000 0.13668  0.72966  0.39652  Biso   1.000  Hf
  Hf11     1.0000 0.35894  0.77170  0.10287  Biso   1.000  Hf
  Hf12     1.0000 0.36177  0.96888  0.35242  Biso   1.000  Hf
  O17      1.0000 0.03334  0.66612  0.07963  Biso   1.000  O 
  O18      1.0000 0.03505  0.58247  0.32966  Biso   1.000  O 
  O19      1.0000 0.46551  0.91501  0.17248  Biso   1.000  O 
  O20      1.0000 0.46599  0.82863  0.42381  Biso   1.000  O 
  O21      1.0000 0.27514  0.62944  0.24079  Biso   1.000  O 
  O22      1.0000 0.27492  0.62762  0.49276  Biso   1.000  O 
  O23      1.0000 0.22115  0.87885  0.00908  Biso   1.000  O 
  O24      1.0000 0.22025  0.86800  0.25794  Biso   1.000  O 
  Hf13     1.0000 0.14120  0.52421  0.64525  Biso   1.000  Hf
  Hf14     1.0000 0.14229  0.73069  0.89614  Biso   1.000  Hf
  Hf15     1.0000 0.36448  0.77322  0.60461  Biso   1.000  Hf
  Hf16     1.0000 0.36493  0.97912  0.85134  Biso   1.000  Hf
  O25      1.0000 0.03455  0.66846  0.57878  Biso   1.000  O 
  O26      1.0000 0.03861  0.58509  0.82865  Biso   1.000  O 
  O27      1.0000 0.46913  0.91866  0.67137  Biso   1.000  O 
  O28      1.0000 0.47008  0.83619  0.92096  Biso   1.000  O 
  O29      1.0000 0.27939  0.63080  0.74000  Biso   1.000  O 
  O30      1.0000 0.28197  0.62616  0.99012  Biso   1.000  O 
  O31      1.0000 0.22523  0.88211  0.50990  Biso   1.000  O 
  O32      1.0000 0.22676  0.87252  0.75877  Biso   1.000  O 
  Hf17     1.0000 0.64082  0.01843  0.14842  Biso   1.000  Hf
  Hf18     1.0000 0.65463  0.22844  0.41268  Biso   1.000  Hf
  Hf19     1.0000 0.86006  0.27109  0.10694  Biso   1.000  Hf
  Hf20     1.0000 0.86131  0.47915  0.35506  Biso   1.000  Hf
  O33      1.0000 0.52991  0.16846  0.08200  Biso   1.000  O 
  O34      1.0000 0.55011  0.06734  0.33908  Biso   1.000  O 
  O35      1.0000 0.96555  0.41591  0.17392  Biso   1.000  O 
  O36      1.0000 0.96554  0.33311  0.42300  Biso   1.000  O 
  O37      1.0000 0.78032  0.12888  0.24271  Biso   1.000  O 
  O38      1.0000 0.79006  0.11779  0.49984  Biso   1.000  O 
  O39      1.0000 0.72159  0.37804  0.01320  Biso   1.000  O 
  O40      1.0000 0.72180  0.36976  0.26324  Biso   1.000  O 
  Hf21     1.0000 0.64352  0.02286  0.64863  Biso   1.000  Hf
  Hf22     1.0000 0.64390  0.23020  0.89818  Biso   1.000  Hf
  Hf23     1.0000 0.86682  0.27346  0.60911  Biso   1.000  Hf
  Hf24     1.0000 0.86482  0.48103  0.85556  Biso   1.000  Hf
  O41      1.0000 0.54039  0.17119  0.58430  Biso   1.000  O 
  O42      1.0000 0.53813  0.08531  0.83019  Biso   1.000  O 
  O43      1.0000 0.96971  0.41943  0.67329  Biso   1.000  O 
  O44      1.0000 0.96680  0.33333  0.91997  Biso   1.000  O 
  O45      1.0000 0.78062  0.13126  0.74509  Biso   1.000  O 
  O46      1.0000 0.78164  0.12319  0.99268  Biso   1.000  O 
  O47      1.0000 0.73130  0.38153  0.51625  Biso   1.000  O 
  O48      1.0000 0.72825  0.37327  0.76326  Biso   1.000  O 
  Hf25     1.0000 0.63681  0.52224  0.14675  Biso   1.000  Hf
  Hf26     1.0000 0.64135  0.72862  0.39747  Biso   1.000  Hf
  Hf27     1.0000 0.85983  0.77057  0.10556  Biso   1.000  Hf
  Hf28     1.0000 0.85892  0.97832  0.35510  Biso   1.000  Hf
  O49      1.0000 0.53244  0.66697  0.07783  Biso   1.000  O 
  O50      1.0000 0.53524  0.58951  0.32499  Biso   1.000  O 
  O51      1.0000 0.96330  0.91549  0.17328  Biso   1.000  O 
  O52      1.0000 0.96553  0.83430  0.42279  Biso   1.000  O 
  O53      1.0000 0.77773  0.62729  0.24117  Biso   1.000  O 
  O54      1.0000 0.77814  0.62220  0.49103  Biso   1.000  O 
  O55      1.0000 0.72182  0.87728  0.01123  Biso   1.000  O 
  O56      1.0000 0.72386  0.86886  0.25993  Biso   1.000  O 
  Hf29     1.0000 0.64240  0.52455  0.64835  Biso   1.000  Hf
  Hf30     1.0000 0.64285  0.73068  0.89684  Biso   1.000  Hf
  Hf31     1.0000 0.86319  0.77424  0.60518  Biso   1.000  Hf
  Hf32     1.0000 0.86411  0.97982  0.85517  Biso   1.000  Hf
  O57      1.0000 0.53650  0.66711  0.57948  Biso   1.000  O 
  O58      1.0000 0.53762  0.58796  0.82836  Biso   1.000  O 
  O59      1.0000 0.96861  0.91902  0.67227  Biso   1.000  O 
  O60      1.0000 0.96994  0.83521  0.92231  Biso   1.000  O 
  O61      1.0000 0.77978  0.63137  0.74138  Biso   1.000  O 
  O62      1.0000 0.78087  0.62318  0.99058  Biso   1.000  O 
  O63      1.0000 0.72439  0.87834  0.51174  Biso   1.000  O 
  O64      1.0000 0.72730  0.87391  0.76109  Biso   1.000  O 
  Yb1      1.0000 0.44447  0.23362  0.28257  Biso   1.000  Yb
