data_image0
_cell_length_a       10.0136
_cell_length_b       5.21599
_cell_length_c       10.0779
_cell_angle_alpha    90
_cell_angle_beta     90
_cell_angle_gamma    90

_symmetry_space_group_name_H-M    "P 1"
_symmetry_int_tables_number       1

loop_
  _symmetry_equiv_pos_as_xyz
  'x, y, z'

loop_
  _atom_site_label
  _atom_site_occupancy
  _atom_site_fract_x
  _atom_site_fract_y
  _atom_site_fract_z
  _atom_site_thermal_displace_type
  _atom_site_B_iso_or_equiv
  _atom_site_type_symbol
  Hf1      1.0000 0.13122  0.10393  0.11419  Biso   1.000  Hf
  Hf2      1.0000 0.14489  0.45103  0.39709  Biso   1.000  Hf
  Hf3      1.0000 0.37419  0.52922  0.12394  Biso   1.000  Hf
  Hf4      1.0000 0.37319  0.96057  0.37806  Biso   1.000  Hf
  O1       1.0000 0.99934  0.30670  0.24679  Biso   1.000  O 
  O2       1.0000 0.04900  0.12123  0.46330  Biso   1.000  O 
  O3       1.0000 0.46578  0.86343  0.19735  Biso   1.000  O 
  O4       1.0000 0.47564  0.63246  0.44666  Biso   1.000  O 
  O5       1.0000 0.26995  0.22955  0.25238  Biso   1.000  O 
  O6       1.0000 0.28727  0.25434  0.50548  Biso   1.000  O 
  O7       1.0000 0.24261  0.75781  0.50791  Biso   1.000  O 
  O8       1.0000 0.23688  0.70962  0.26154  Biso   1.000  O 
  Hf5      1.0000 0.14989  0.02711  0.63540  Biso   1.000  Hf
  Hf6      1.0000 0.15014  0.46759  0.87453  Biso   1.000  Hf
  Hf7      1.0000 0.38249  0.53154  0.62897  Biso   1.000  Hf
  Hf8      1.0000 0.38767  0.96851  0.87406  Biso   1.000  Hf
  O9       1.0000 0.05330  0.37252  0.69053  Biso   1.000  O 
  O10      1.0000 0.05396  0.12619  0.93319  Biso   1.000  O 
  O11      1.0000 0.48175  0.86524  0.69248  Biso   1.000  O 
  O12      1.0000 0.48577  0.63295  0.94373  Biso   1.000  O 
  O13      1.0000 0.28658  0.23571  0.75140  Biso   1.000  O 
  O14      1.0000 0.30419  0.26520  0.99125  Biso   1.000  O 
  O15      1.0000 0.23395  0.79334  0.00565  Biso   1.000  O 
  O16      1.0000 0.24938  0.73469  0.75556  Biso   1.000  O 
  Hf9      1.0000 0.63184  0.02297  0.12324  Biso   1.000  Hf
  Hf10     1.0000 0.64286  0.46587  0.37460  Biso   1.000  Hf
  Hf11     1.0000 0.85389  0.51634  0.11872  Biso   1.000  Hf
  Hf12     1.0000 0.88707  0.98366  0.36558  Biso   1.000  Hf
  O17      1.0000 0.53739  0.36471  0.19443  Biso   1.000  O 
  O18      1.0000 0.54456  0.13116  0.44297  Biso   1.000  O 
  O19      1.0000 0.97456  0.84652  0.17902  Biso   1.000  O 
  O20      1.0000 0.97887  0.64543  0.44579  Biso   1.000  O 
  O21      1.0000 0.76196  0.21773  0.24412  Biso   1.000  O 
  O22      1.0000 0.78381  0.27227  0.49198  Biso   1.000  O 
  O23      1.0000 0.74548  0.77290  0.49330  Biso   1.000  O 
  O24      1.0000 0.73737  0.72642  0.24598  Biso   1.000  O 
  Hf13     1.0000 0.65015  0.02949  0.61864  Biso   1.000  Hf
  Hf14     1.0000 0.65184  0.45969  0.87024  Biso   1.000  Hf
  Hf15     1.0000 0.88149  0.53562  0.62088  Biso   1.000  Hf
  Hf16     1.0000 0.87954  0.95742  0.86992  Biso   1.000  Hf
  O25      1.0000 0.55133  0.36319  0.69369  Biso   1.000  O 
  O26      1.0000 0.55801  0.12891  0.94354  Biso   1.000  O 
  O27      1.0000 0.97904  0.86336  0.69567  Biso   1.000  O 
  O28      1.0000 0.96927  0.62317  0.92969  Biso   1.000  O 
  O29      1.0000 0.78621  0.23064  0.74301  Biso   1.000  O 
  O30      1.0000 0.78830  0.25067  0.99475  Biso   1.000  O 
  O31      1.0000 0.74380  0.75077  0.99787  Biso   1.000  O 
  O32      1.0000 0.74349  0.73271  0.74466  Biso   1.000  O 
  Zn1      1.0000 0.10641  0.59661  0.12791  Biso   1.000  Zn
