data_image0
_cell_length_a       10.2346
_cell_length_b       10.2953
_cell_length_c       5.27433
_cell_angle_alpha    90
_cell_angle_beta     80
_cell_angle_gamma    90

_symmetry_space_group_name_H-M    "P 1"
_symmetry_int_tables_number       1

loop_
  _symmetry_equiv_pos_as_xyz
  'x, y, z'

loop_
  _atom_site_label
  _atom_site_occupancy
  _atom_site_fract_x
  _atom_site_fract_y
  _atom_site_fract_z
  _atom_site_thermal_displace_type
  _atom_site_B_iso_or_equiv
  _atom_site_type_symbol
  Hf1      1.0000 0.13461  0.02018  0.28114  Biso   1.000  Hf
  Hf2      1.0000 0.14886  0.22933  0.77481  Biso   1.000  Hf
  Hf3      1.0000 0.35896  0.27436  0.22022  Biso   1.000  Hf
  Hf4      1.0000 0.36522  0.47428  0.69482  Biso   1.000  Hf
  O1       1.0000 0.03772  0.16692  0.14587  Biso   1.000  O 
  O2       1.0000 0.03612  0.08353  0.64829  Biso   1.000  O 
  O3       1.0000 0.46645  0.42899  0.33333  Biso   1.000  O 
  O4       1.0000 0.49404  0.34648  0.87664  Biso   1.000  O 
  O5       1.0000 0.26919  0.11297  0.45941  Biso   1.000  O 
  O6       1.0000 0.28932  0.11816  0.96160  Biso   1.000  O 
  O7       1.0000 0.22363  0.37922  0.00990  Biso   1.000  O 
  O8       1.0000 0.20937  0.37671  0.49995  Biso   1.000  O 
  Hf5      1.0000 0.14091  0.52235  0.28262  Biso   1.000  Hf
  Hf6      1.0000 0.14327  0.72305  0.78940  Biso   1.000  Hf
  Hf7      1.0000 0.36209  0.76889  0.20786  Biso   1.000  Hf
  Hf8      1.0000 0.36193  0.96448  0.70486  Biso   1.000  Hf
  O9       1.0000 0.03012  0.66493  0.15058  Biso   1.000  O 
  O10      1.0000 0.03685  0.58590  0.64692  Biso   1.000  O 
  O11      1.0000 0.47000  0.91329  0.34913  Biso   1.000  O 
  O12      1.0000 0.47295  0.83127  0.84498  Biso   1.000  O 
  O13      1.0000 0.27925  0.62508  0.47772  Biso   1.000  O 
  O14      1.0000 0.28331  0.61991  0.97534  Biso   1.000  O 
  O15      1.0000 0.22195  0.87630  0.01868  Biso   1.000  O 
  O16      1.0000 0.22716  0.86440  0.51670  Biso   1.000  O 
  Hf9      1.0000 0.64262  0.01938  0.29979  Biso   1.000  Hf
  Hf10     1.0000 0.66133  0.22949  0.81666  Biso   1.000  Hf
  Hf11     1.0000 0.86711  0.27228  0.21649  Biso   1.000  Hf
  Hf12     1.0000 0.86979  0.47747  0.70819  Biso   1.000  Hf
  O17      1.0000 0.53615  0.16602  0.17138  Biso   1.000  O 
  O18      1.0000 0.53961  0.08301  0.67011  Biso   1.000  O 
  O19      1.0000 0.96671  0.41880  0.34134  Biso   1.000  O 
  O20      1.0000 0.97315  0.33236  0.84191  Biso   1.000  O 
  O21      1.0000 0.78012  0.12798  0.49128  Biso   1.000  O 
  O22      1.0000 0.78897  0.11667  0.99232  Biso   1.000  O 
  O23      1.0000 0.72917  0.37785  0.03584  Biso   1.000  O 
  O24      1.0000 0.72981  0.37035  0.53117  Biso   1.000  O 
  Hf13     1.0000 0.63995  0.52387  0.29769  Biso   1.000  Hf
  Hf14     1.0000 0.64519  0.72527  0.79246  Biso   1.000  Hf
  Hf15     1.0000 0.86029  0.77060  0.20842  Biso   1.000  Hf
  Hf16     1.0000 0.86903  0.97497  0.70900  Biso   1.000  Hf
  O25      1.0000 0.53605  0.66962  0.15921  Biso   1.000  O 
  O26      1.0000 0.53812  0.58415  0.65686  Biso   1.000  O 
  O27      1.0000 0.96570  0.91238  0.34757  Biso   1.000  O 
  O28      1.0000 0.97380  0.83297  0.84519  Biso   1.000  O 
  O29      1.0000 0.77924  0.62913  0.48213  Biso   1.000  O 
  O30      1.0000 0.78304  0.61875  0.97858  Biso   1.000  O 
  O31      1.0000 0.72293  0.87913  0.02432  Biso   1.000  O 
  O32      1.0000 0.72612  0.87162  0.52446  Biso   1.000  O 
  Zn1      1.0000 0.42432  0.22633  0.65073  Biso   1.000  Zn
