data_image0
_cell_length_a       4.97334
_cell_length_b       10.3382
_cell_length_c       10.0204
_cell_angle_alpha    90
_cell_angle_beta     90
_cell_angle_gamma    90

_symmetry_space_group_name_H-M    "P 1"
_symmetry_int_tables_number       1

loop_
  _symmetry_equiv_pos_as_xyz
  'x, y, z'

loop_
  _atom_site_label
  _atom_site_occupancy
  _atom_site_fract_x
  _atom_site_fract_y
  _atom_site_fract_z
  _atom_site_thermal_displace_type
  _atom_site_B_iso_or_equiv
  _atom_site_type_symbol
  Zn1      1.0000 0.24203  0.02257  0.10430  Biso   1.000  Zn
  Hf1      1.0000 0.27867  0.01344  0.62755  Biso   1.000  Hf
  Hf2      1.0000 0.27216  0.51514  0.12757  Biso   1.000  Hf
  Hf3      1.0000 0.28063  0.51444  0.62648  Biso   1.000  Hf
  Hf4      1.0000 0.28109  0.22651  0.37343  Biso   1.000  Hf
  Hf5      1.0000 0.28229  0.22969  0.87503  Biso   1.000  Hf
  Hf6      1.0000 0.28101  0.73307  0.37695  Biso   1.000  Hf
  Hf7      1.0000 0.28222  0.73066  0.87948  Biso   1.000  Hf
  Hf8      1.0000 0.72621  0.26220  0.12657  Biso   1.000  Hf
  Hf9      1.0000 0.74356  0.26385  0.62458  Biso   1.000  Hf
  Hf10     1.0000 0.73587  0.76647  0.12554  Biso   1.000  Hf
  Hf11     1.0000 0.74326  0.76477  0.62695  Biso   1.000  Hf
  Hf12     1.0000 0.73904  0.48063  0.37690  Biso   1.000  Hf
  Hf13     1.0000 0.74679  0.48024  0.87575  Biso   1.000  Hf
  Hf14     1.0000 0.73677  0.98206  0.37195  Biso   1.000  Hf
  Hf15     1.0000 0.73353  0.97924  0.87771  Biso   1.000  Hf
  O1       1.0000 0.08174  0.18284  0.18989  Biso   1.000  O 
  O2       1.0000 0.09041  0.18522  0.68966  Biso   1.000  O 
  O3       1.0000 0.07551  0.68215  0.19723  Biso   1.000  O 
  O4       1.0000 0.08315  0.68111  0.69689  Biso   1.000  O 
  O5       1.0000 0.08290  0.06298  0.44615  Biso   1.000  O 
  O6       1.0000 0.08545  0.06264  0.92462  Biso   1.000  O 
  O7       1.0000 0.08143  0.56261  0.44538  Biso   1.000  O 
  O8       1.0000 0.08780  0.56122  0.94738  Biso   1.000  O 
  O9       1.0000 0.93442  0.42807  0.19571  Biso   1.000  O 
  O10      1.0000 0.93934  0.43205  0.69399  Biso   1.000  O 
  O11      1.0000 0.94904  0.93380  0.19391  Biso   1.000  O 
  O12      1.0000 0.93181  0.93217  0.69322  Biso   1.000  O 
  O13      1.0000 0.93850  0.31268  0.44244  Biso   1.000  O 
  O14      1.0000 0.94016  0.31102  0.94245  Biso   1.000  O 
  O15      1.0000 0.94305  0.81423  0.44845  Biso   1.000  O 
  O16      1.0000 0.93393  0.81134  0.94121  Biso   1.000  O 
  O17      1.0000 0.56485  0.12169  0.25375  Biso   1.000  O 
  O18      1.0000 0.55892  0.11619  0.74964  Biso   1.000  O 
  O19      1.0000 0.54886  0.61118  0.24891  Biso   1.000  O 
  O20      1.0000 0.55278  0.61545  0.75121  Biso   1.000  O 
  O21      1.0000 0.55231  0.12875  0.50101  Biso   1.000  O 
  O22      1.0000 0.53203  0.13111  0.00013  Biso   1.000  O 
  O23      1.0000 0.55185  0.63007  0.50028  Biso   1.000  O 
  O24      1.0000 0.53662  0.63245  0.00070  Biso   1.000  O 
  O25      1.0000 0.46906  0.37898  0.49960  Biso   1.000  O 
  O26      1.0000 0.45428  0.38180  0.00004  Biso   1.000  O 
  O27      1.0000 0.46838  0.88068  0.50289  Biso   1.000  O 
  O28      1.0000 0.44393  0.88205  0.00691  Biso   1.000  O 
  O29      1.0000 0.46025  0.36678  0.24972  Biso   1.000  O 
  O30      1.0000 0.47130  0.36594  0.74942  Biso   1.000  O 
  O31      1.0000 0.49665  0.85584  0.25854  Biso   1.000  O 
  O32      1.0000 0.46516  0.86482  0.75220  Biso   1.000  O 
