data_image0
_cell_length_a       10.2053
_cell_length_b       10.3546
_cell_length_c       10.2053
_cell_angle_alpha    90
_cell_angle_beta     80
_cell_angle_gamma    90

_symmetry_space_group_name_H-M    "P 1"
_symmetry_int_tables_number       1

loop_
  _symmetry_equiv_pos_as_xyz
  'x, y, z'

loop_
  _atom_site_label
  _atom_site_occupancy
  _atom_site_fract_x
  _atom_site_fract_y
  _atom_site_fract_z
  _atom_site_thermal_displace_type
  _atom_site_B_iso_or_equiv
  _atom_site_type_symbol
  Hf1      1.0000 0.04960  0.95994  0.16059  Biso   1.000  Hf
  Hf2      1.0000 0.04889  0.23353  0.33337  Biso   1.000  Hf
  Hf3      1.0000 0.29955  0.25475  0.09468  Biso   1.000  Hf
  Hf4      1.0000 0.27760  0.94894  0.40374  Biso   1.000  Hf
  O1       1.0000 0.89973  0.07776  0.97305  Biso   1.000  O 
  O2       1.0000 0.98047  0.06000  0.24447  Biso   1.000  O 
  O3       1.0000 0.90539  0.32962  0.22910  Biso   1.000  O 
  O4       1.0000 0.87978  0.31602  0.97833  Biso   1.000  O 
  O5       1.0000 0.22438  0.12765  0.25477  Biso   1.000  O 
  O6       1.0000 0.23490  0.08155  0.00216  Biso   1.000  O 
  O7       1.0000 0.14004  0.26482  0.95796  Biso   1.000  O 
  O8       1.0000 0.17680  0.39153  0.23330  Biso   1.000  O 
  Hf5      1.0000 0.01360  0.92403  0.65489  Biso   1.000  Hf
  Hf6      1.0000 0.01249  0.19271  0.82458  Biso   1.000  Hf
  Hf7      1.0000 0.27685  0.20881  0.58670  Biso   1.000  Hf
  Hf8      1.0000 0.24936  0.90257  0.90647  Biso   1.000  Hf
  O9       1.0000 0.94432  0.11973  0.48390  Biso   1.000  O 
  O10      1.0000 0.94855  0.01915  0.74669  Biso   1.000  O 
  O11      1.0000 0.89268  0.28575  0.71759  Biso   1.000  O 
  O12      1.0000 0.90867  0.36347  0.47591  Biso   1.000  O 
  O13      1.0000 0.17916  0.09811  0.73981  Biso   1.000  O 
  O14      1.0000 0.21414  0.04014  0.50427  Biso   1.000  O 
  O15      1.0000 0.16078  0.30668  0.47236  Biso   1.000  O 
  O16      1.0000 0.14295  0.34210  0.72370  Biso   1.000  O 
  Hf9      1.0000 0.05125  0.47657  0.10826  Biso   1.000  Hf
  Hf10     1.0000 0.03274  0.71461  0.38312  Biso   1.000  Hf
  Hf11     1.0000 0.29637  0.73693  0.13207  Biso   1.000  Hf
  Hf12     1.0000 0.29025  0.46506  0.36315  Biso   1.000  Hf
  O17      1.0000 0.96720  0.65114  0.03771  Biso   1.000  O 
  O18      1.0000 0.95843  0.56140  0.28228  Biso   1.000  O 
  O19      1.0000 0.91756  0.81420  0.26674  Biso   1.000  O 
  O20      1.0000 0.92164  0.89675  0.01635  Biso   1.000  O 
  O21      1.0000 0.20769  0.63172  0.29329  Biso   1.000  O 
  O22      1.0000 0.21809  0.58338  0.03499  Biso   1.000  O 
  O23      1.0000 0.17718  0.83618  0.01948  Biso   1.000  O 
  O24      1.0000 0.16326  0.86545  0.27183  Biso   1.000  O 
  Hf13     1.0000 0.02084  0.43990  0.60629  Biso   1.000  Hf
  Hf14     1.0000 0.00225  0.67302  0.88504  Biso   1.000  Hf
  Hf15     1.0000 0.26671  0.69661  0.63392  Biso   1.000  Hf
  Hf16     1.0000 0.25710  0.41712  0.85951  Biso   1.000  Hf
  O25      1.0000 0.93843  0.60887  0.54050  Biso   1.000  O 
  O26      1.0000 0.92773  0.51816  0.78403  Biso   1.000  O 
  O27      1.0000 0.88428  0.77044  0.76858  Biso   1.000  O 
  O28      1.0000 0.89504  0.84985  0.51774  Biso   1.000  O 
  O29      1.0000 0.17615  0.58789  0.79363  Biso   1.000  O 
  O30      1.0000 0.18942  0.54256  0.53620  Biso   1.000  O 
  O31      1.0000 0.14925  0.79349  0.52071  Biso   1.000  O 
  O32      1.0000 0.12889  0.82848  0.77269  Biso   1.000  O 
  Hf17     1.0000 0.54163  0.96872  0.15206  Biso   1.000  Hf
  Hf18     1.0000 0.53904  0.23100  0.33702  Biso   1.000  Hf
  Hf19     1.0000 0.78908  0.25844  0.08504  Biso   1.000  Hf
  Hf20     1.0000 0.77864  0.94737  0.40243  Biso   1.000  Hf
  O33      1.0000 0.41164  0.07462  0.99120  Biso   1.000  O 
  O34      1.0000 0.47995  0.06264  0.25116  Biso   1.000  O 
  O35      1.0000 0.42210  0.32880  0.22351  Biso   1.000  O 
  O36      1.0000 0.37887  0.31862  0.98046  Biso   1.000  O 
  O37      1.0000 0.70709  0.14279  0.23706  Biso   1.000  O 
  O38      1.0000 0.68092  0.99649  0.00158  Biso   1.000  O 
  O39      1.0000 0.62598  0.26317  0.97160  Biso   1.000  O 
  O40      1.0000 0.66635  0.38641  0.22527  Biso   1.000  O 
  Hf21     1.0000 0.51191  0.92755  0.65249  Biso   1.000  Hf
  Hf22     1.0000 0.50769  0.18647  0.83810  Biso   1.000  Hf
  Hf23     1.0000 0.77623  0.20921  0.58233  Biso   1.000  Hf
  Hf24     1.0000 0.74594  0.89686  0.89990  Biso   1.000  Hf
  O41      1.0000 0.44505  0.12019  0.49048  Biso   1.000  O 
  O42      1.0000 0.44656  0.01933  0.75164  Biso   1.000  O 
  O43      1.0000 0.39258  0.28417  0.72324  Biso   1.000  O 
  O44      1.0000 0.40949  0.36262  0.47951  Biso   1.000  O 
  O45      1.0000 0.67741  0.09968  0.73723  Biso   1.000  O 
  O46      1.0000 0.71292  0.04188  0.49798  Biso   1.000  O 
  O47      1.0000 0.65876  0.30670  0.46977  Biso   1.000  O 
  O48      1.0000 0.64350  0.34141  0.72794  Biso   1.000  O 
  Hf25     1.0000 0.54674  0.48441  0.10549  Biso   1.000  Hf
  Hf26     1.0000 0.53233  0.71909  0.38097  Biso   1.000  Hf
  Hf27     1.0000 0.79620  0.74023  0.12895  Biso   1.000  Hf
  Hf28     1.0000 0.78547  0.46185  0.35633  Biso   1.000  Hf
  O49      1.0000 0.46789  0.65370  0.03632  Biso   1.000  O 
  O50      1.0000 0.45738  0.56523  0.28105  Biso   1.000  O 
  O51      1.0000 0.41669  0.81612  0.26603  Biso   1.000  O 
  O52      1.0000 0.42132  0.89441  0.01656  Biso   1.000  O 
  O53      1.0000 0.70627  0.63278  0.28879  Biso   1.000  O 
  O54      1.0000 0.71795  0.58504  0.03150  Biso   1.000  O 
  O55      1.0000 0.67733  0.83757  0.01334  Biso   1.000  O 
  O56      1.0000 0.66175  0.87358  0.26524  Biso   1.000  O 
  Hf29     1.0000 0.52302  0.43969  0.60981  Biso   1.000  Hf
  Hf30     1.0000 0.50201  0.67378  0.88214  Biso   1.000  Hf
  Hf31     1.0000 0.76622  0.69615  0.63053  Biso   1.000  Hf
  Hf32     1.0000 0.75787  0.41880  0.85919  Biso   1.000  Hf
  O57      1.0000 0.43830  0.60948  0.53802  Biso   1.000  O 
  O58      1.0000 0.42821  0.51991  0.78331  Biso   1.000  O 
  O59      1.0000 0.38521  0.77340  0.76870  Biso   1.000  O 
  O60      1.0000 0.39444  0.85163  0.51809  Biso   1.000  O 
  O61      1.0000 0.67667  0.58820  0.79112  Biso   1.000  O 
  O62      1.0000 0.68995  0.54207  0.53404  Biso   1.000  O 
  O63      1.0000 0.65000  0.79582  0.51654  Biso   1.000  O 
  O64      1.0000 0.62885  0.82818  0.76673  Biso   1.000  O 
  Zn1      1.0000 0.06196  0.19391  0.08801  Biso   1.000  Zn
