data_image0
_cell_length_a       10.1331
_cell_length_b       10.2508
_cell_length_c       10.4493
_cell_angle_alpha    90
_cell_angle_beta     80
_cell_angle_gamma    90

_symmetry_space_group_name_H-M    "P 1"
_symmetry_int_tables_number       1

loop_
  _symmetry_equiv_pos_as_xyz
  'x, y, z'

loop_
  _atom_site_label
  _atom_site_occupancy
  _atom_site_fract_x
  _atom_site_fract_y
  _atom_site_fract_z
  _atom_site_thermal_displace_type
  _atom_site_B_iso_or_equiv
  _atom_site_type_symbol
  Zn1      1.0000 0.12708  0.01195  0.15370  Biso   1.000  Zn
  Hf1      1.0000 0.13586  0.01976  0.64485  Biso   1.000  Hf
  Hf2      1.0000 0.14021  0.52146  0.14520  Biso   1.000  Hf
  Hf3      1.0000 0.13782  0.52019  0.64719  Biso   1.000  Hf
  Hf4      1.0000 0.63863  0.02154  0.14628  Biso   1.000  Hf
  Hf5      1.0000 0.63575  0.02042  0.64670  Biso   1.000  Hf
  Hf6      1.0000 0.63830  0.51942  0.14561  Biso   1.000  Hf
  Hf7      1.0000 0.63663  0.52026  0.64671  Biso   1.000  Hf
  Hf8      1.0000 0.13857  0.22665  0.39213  Biso   1.000  Hf
  Hf9      1.0000 0.13683  0.22398  0.89877  Biso   1.000  Hf
  Hf10     1.0000 0.13928  0.72724  0.39563  Biso   1.000  Hf
  Hf11     1.0000 0.13751  0.73089  0.89773  Biso   1.000  Hf
  Hf12     1.0000 0.63741  0.22785  0.39572  Biso   1.000  Hf
  Hf13     1.0000 0.63573  0.22844  0.89743  Biso   1.000  Hf
  Hf14     1.0000 0.63729  0.72818  0.39608  Biso   1.000  Hf
  Hf15     1.0000 0.63481  0.72747  0.89756  Biso   1.000  Hf
  Hf16     1.0000 0.35685  0.26602  0.10357  Biso   1.000  Hf
  Hf17     1.0000 0.35745  0.27014  0.60427  Biso   1.000  Hf
  Hf18     1.0000 0.35846  0.77446  0.10525  Biso   1.000  Hf
  Hf19     1.0000 0.35928  0.77147  0.60478  Biso   1.000  Hf
  Hf20     1.0000 0.86618  0.26762  0.10401  Biso   1.000  Hf
  Hf21     1.0000 0.85789  0.27058  0.60392  Biso   1.000  Hf
  Hf22     1.0000 0.86119  0.77130  0.10446  Biso   1.000  Hf
  Hf23     1.0000 0.85898  0.76926  0.60491  Biso   1.000  Hf
  Hf24     1.0000 0.35954  0.47728  0.35333  Biso   1.000  Hf
  Hf25     1.0000 0.35720  0.47736  0.85542  Biso   1.000  Hf
  Hf26     1.0000 0.35713  0.97853  0.35134  Biso   1.000  Hf
  Hf27     1.0000 0.35731  0.98032  0.85686  Biso   1.000  Hf
  Hf28     1.0000 0.85961  0.47811  0.35400  Biso   1.000  Hf
  Hf29     1.0000 0.85886  0.47691  0.85576  Biso   1.000  Hf
  Hf30     1.0000 0.86084  0.97720  0.35477  Biso   1.000  Hf
  Hf31     1.0000 0.85774  0.97749  0.85475  Biso   1.000  Hf
  O1       1.0000 0.03941  0.16717  0.07948  Biso   1.000  O 
  O2       1.0000 0.03151  0.16604  0.57767  Biso   1.000  O 
  O3       1.0000 0.03568  0.66869  0.07981  Biso   1.000  O 
  O4       1.0000 0.03323  0.66640  0.58137  Biso   1.000  O 
  O5       1.0000 0.53562  0.16807  0.07930  Biso   1.000  O 
  O6       1.0000 0.53172  0.16672  0.57966  Biso   1.000  O 
  O7       1.0000 0.53435  0.66697  0.07933  Biso   1.000  O 
  O8       1.0000 0.53286  0.66682  0.57983  Biso   1.000  O 
  O9       1.0000 0.03186  0.07886  0.33755  Biso   1.000  O 
  O10      1.0000 0.02999  0.08154  0.82796  Biso   1.000  O 
  O11      1.0000 0.03423  0.58113  0.32953  Biso   1.000  O 
  O12      1.0000 0.03265  0.58151  0.83132  Biso   1.000  O 
  O13      1.0000 0.53190  0.08266  0.32897  Biso   1.000  O 
  O14      1.0000 0.53364  0.08091  0.82986  Biso   1.000  O 
  O15      1.0000 0.53372  0.58117  0.32954  Biso   1.000  O 
  O16      1.0000 0.53104  0.58228  0.82928  Biso   1.000  O 
  O17      1.0000 0.46506  0.41494  0.17109  Biso   1.000  O 
  O18      1.0000 0.46263  0.41646  0.67128  Biso   1.000  O 
  O19      1.0000 0.46803  0.91653  0.17086  Biso   1.000  O 
  O20      1.0000 0.46363  0.91692  0.67161  Biso   1.000  O 
  O21      1.0000 0.96534  0.41846  0.17016  Biso   1.000  O 
  O22      1.0000 0.96375  0.41577  0.67152  Biso   1.000  O 
  O23      1.0000 0.95981  0.91752  0.17255  Biso   1.000  O 
  O24      1.0000 0.96258  0.91660  0.67063  Biso   1.000  O 
  O25      1.0000 0.46384  0.33202  0.42147  Biso   1.000  O 
  O26      1.0000 0.46449  0.33465  0.92214  Biso   1.000  O 
  O27      1.0000 0.46410  0.83241  0.42131  Biso   1.000  O 
  O28      1.0000 0.46200  0.83250  0.92218  Biso   1.000  O 
  O29      1.0000 0.96310  0.33136  0.41995  Biso   1.000  O 
  O30      1.0000 0.96275  0.33070  0.92186  Biso   1.000  O 
  O31      1.0000 0.96360  0.82888  0.42112  Biso   1.000  O 
  O32      1.0000 0.96133  0.83075  0.92117  Biso   1.000  O 
  O33      1.0000 0.27520  0.12664  0.24036  Biso   1.000  O 
  O34      1.0000 0.27191  0.12626  0.73742  Biso   1.000  O 
  O35      1.0000 0.27673  0.62580  0.23985  Biso   1.000  O 
  O36      1.0000 0.27398  0.62883  0.74146  Biso   1.000  O 
  O37      1.0000 0.77498  0.12784  0.24156  Biso   1.000  O 
  O38      1.0000 0.77399  0.12829  0.74075  Biso   1.000  O 
  O39      1.0000 0.77551  0.62814  0.24051  Biso   1.000  O 
  O40      1.0000 0.77366  0.62734  0.74149  Biso   1.000  O 
  O41      1.0000 0.27375  0.12091  0.48961  Biso   1.000  O 
  O42      1.0000 0.28524  0.13034  0.97875  Biso   1.000  O 
  O43      1.0000 0.27542  0.61999  0.49109  Biso   1.000  O 
  O44      1.0000 0.27263  0.62131  0.99122  Biso   1.000  O 
  O45      1.0000 0.77310  0.12066  0.49142  Biso   1.000  O 
  O46      1.0000 0.77262  0.11925  0.99142  Biso   1.000  O 
  O47      1.0000 0.77440  0.61994  0.49112  Biso   1.000  O 
  O48      1.0000 0.77183  0.61916  0.99123  Biso   1.000  O 
  O49      1.0000 0.22460  0.38124  0.00896  Biso   1.000  O 
  O50      1.0000 0.22122  0.37786  0.50918  Biso   1.000  O 
  O51      1.0000 0.22615  0.88309  0.00966  Biso   1.000  O 
  O52      1.0000 0.22194  0.87776  0.51034  Biso   1.000  O 
  O53      1.0000 0.72641  0.37844  0.00966  Biso   1.000  O 
  O54      1.0000 0.72138  0.37813  0.51014  Biso   1.000  O 
  O55      1.0000 0.72469  0.87896  0.00943  Biso   1.000  O 
  O56      1.0000 0.72233  0.87752  0.51029  Biso   1.000  O 
  O57      1.0000 0.22228  0.37020  0.25852  Biso   1.000  O 
  O58      1.0000 0.22160  0.36952  0.76025  Biso   1.000  O 
  O59      1.0000 0.22678  0.86476  0.26220  Biso   1.000  O 
  O60      1.0000 0.22107  0.87116  0.75975  Biso   1.000  O 
  O61      1.0000 0.72384  0.37012  0.26000  Biso   1.000  O 
  O62      1.0000 0.72147  0.37059  0.75999  Biso   1.000  O 
  O63      1.0000 0.72161  0.87021  0.26036  Biso   1.000  O 
  O64      1.0000 0.72126  0.86971  0.76038  Biso   1.000  O 
