data_image0
_cell_length_a       5.03334
_cell_length_b       10.3814
_cell_length_c       10.0762
_cell_angle_alpha    90
_cell_angle_beta     90
_cell_angle_gamma    90

_symmetry_space_group_name_H-M    "P 1"
_symmetry_int_tables_number       1

loop_
  _symmetry_equiv_pos_as_xyz
  'x, y, z'

loop_
  _atom_site_label
  _atom_site_occupancy
  _atom_site_fract_x
  _atom_site_fract_y
  _atom_site_fract_z
  _atom_site_thermal_displace_type
  _atom_site_B_iso_or_equiv
  _atom_site_type_symbol
  Hf1      1.0000 0.27780  0.00455  0.10640  Biso   1.000  Hf
  Hf2      1.0000 0.25141  0.23713  0.39665  Biso   1.000  Hf
  Hf3      1.0000 0.63916  0.26042  0.12635  Biso   1.000  Hf
  Hf4      1.0000 0.73206  0.49010  0.37527  Biso   1.000  Hf
  O1       1.0000 0.92384  0.18432  0.25933  Biso   1.000  O 
  O2       1.0000 0.07037  0.07259  0.46390  Biso   1.000  O 
  O3       1.0000 0.91271  0.42958  0.18741  Biso   1.000  O 
  O4       1.0000 0.94156  0.33806  0.46350  Biso   1.000  O 
  O5       1.0000 0.45705  0.11331  0.25451  Biso   1.000  O 
  O6       1.0000 0.55163  0.14563  0.50080  Biso   1.000  O 
  O7       1.0000 0.46769  0.39279  0.50213  Biso   1.000  O 
  O8       1.0000 0.41715  0.37443  0.25735  Biso   1.000  O 
  Hf5      1.0000 0.28966  0.02322  0.62826  Biso   1.000  Hf
  Hf6      1.0000 0.27450  0.24224  0.87285  Biso   1.000  Hf
  Hf7      1.0000 0.74045  0.27767  0.63200  Biso   1.000  Hf
  Hf8      1.0000 0.73571  0.49723  0.87591  Biso   1.000  Hf
  O9       1.0000 0.08332  0.19369  0.69409  Biso   1.000  O 
  O10      1.0000 0.10636  0.06710  0.92507  Biso   1.000  O 
  O11      1.0000 0.93806  0.44411  0.70402  Biso   1.000  O 
  O12      1.0000 0.91818  0.32402  0.94401  Biso   1.000  O 
  O13      1.0000 0.55477  0.12726  0.74963  Biso   1.000  O 
  O14      1.0000 0.58514  0.13026  0.99442  Biso   1.000  O 
  O15      1.0000 0.45687  0.40714  0.99626  Biso   1.000  O 
  O16      1.0000 0.46593  0.37778  0.75036  Biso   1.000  O 
  Hf9      1.0000 0.25590  0.52892  0.12626  Biso   1.000  Hf
  Hf10     1.0000 0.26472  0.74548  0.37565  Biso   1.000  Hf
  Hf11     1.0000 0.72443  0.76665  0.12364  Biso   1.000  Hf
  Hf12     1.0000 0.73119  0.00472  0.36199  Biso   1.000  Hf
  O17      1.0000 0.06359  0.68867  0.19699  Biso   1.000  O 
  O18      1.0000 0.06221  0.57847  0.44412  Biso   1.000  O 
  O19      1.0000 0.91274  0.94195  0.18446  Biso   1.000  O 
  O20      1.0000 0.92277  0.82965  0.43576  Biso   1.000  O 
  O21      1.0000 0.53667  0.62118  0.24782  Biso   1.000  O 
  O22      1.0000 0.53449  0.64193  0.49577  Biso   1.000  O 
  O23      1.0000 0.45814  0.89645  0.49338  Biso   1.000  O 
  O24      1.0000 0.45594  0.86839  0.24228  Biso   1.000  O 
  Hf13     1.0000 0.26613  0.52429  0.62405  Biso   1.000  Hf
  Hf14     1.0000 0.26545  0.74421  0.86880  Biso   1.000  Hf
  Hf15     1.0000 0.73437  0.77688  0.61561  Biso   1.000  Hf
  Hf16     1.0000 0.73575  0.98997  0.86851  Biso   1.000  Hf
  O25      1.0000 0.06780  0.69296  0.69054  Biso   1.000  O 
  O26      1.0000 0.06536  0.58304  0.94774  Biso   1.000  O 
  O27      1.0000 0.93214  0.93797  0.69305  Biso   1.000  O 
  O28      1.0000 0.93597  0.82788  0.94726  Biso   1.000  O 
  O29      1.0000 0.53600  0.62558  0.74653  Biso   1.000  O 
  O30      1.0000 0.53374  0.64883  0.99799  Biso   1.000  O 
  O31      1.0000 0.46251  0.88918  0.99174  Biso   1.000  O 
  O32      1.0000 0.46601  0.87437  0.74358  Biso   1.000  O 
  Zn1      1.0000 0.13249  0.26150  0.11968  Biso   1.000  Zn
