data_image0
_cell_length_a       10.016
_cell_length_b       10.2031
_cell_length_c       5.03124
_cell_angle_alpha    90
_cell_angle_beta     90
_cell_angle_gamma    90

_symmetry_space_group_name_H-M    "P 1"
_symmetry_int_tables_number       1

loop_
  _symmetry_equiv_pos_as_xyz
  'x, y, z'

loop_
  _atom_site_label
  _atom_site_occupancy
  _atom_site_fract_x
  _atom_site_fract_y
  _atom_site_fract_z
  _atom_site_thermal_displace_type
  _atom_site_B_iso_or_equiv
  _atom_site_type_symbol
  Zn1      1.0000 0.12183  0.02450  0.27267  Biso   1.000  Zn
  Hf1      1.0000 0.12362  0.48482  0.26456  Biso   1.000  Hf
  Hf2      1.0000 0.58734  0.98055  0.27049  Biso   1.000  Hf
  Hf3      1.0000 0.61505  0.49182  0.27921  Biso   1.000  Hf
  Hf4      1.0000 0.11126  0.25042  0.75360  Biso   1.000  Hf
  Hf5      1.0000 0.10366  0.73613  0.71217  Biso   1.000  Hf
  Hf6      1.0000 0.62319  0.25430  0.77689  Biso   1.000  Hf
  Hf7      1.0000 0.58918  0.73877  0.76273  Biso   1.000  Hf
  Hf8      1.0000 0.37162  0.23651  0.23775  Biso   1.000  Hf
  Hf9      1.0000 0.33116  0.76252  0.21821  Biso   1.000  Hf
  Hf10     1.0000 0.85194  0.23609  0.28004  Biso   1.000  Hf
  Hf11     1.0000 0.84867  0.75815  0.27315  Biso   1.000  Hf
  Hf12     1.0000 0.32099  0.99331  0.73246  Biso   1.000  Hf
  Hf13     1.0000 0.35415  0.49832  0.78353  Biso   1.000  Hf
  Hf14     1.0000 0.86919  0.99500  0.78428  Biso   1.000  Hf
  Hf15     1.0000 0.85224  0.51581  0.77785  Biso   1.000  Hf
  O1       1.0000 0.95941  0.16807  0.95828  Biso   1.000  O 
  O2       1.0000 0.96039  0.67111  0.97975  Biso   1.000  O 
  O3       1.0000 0.46444  0.14968  0.91162  Biso   1.000  O 
  O4       1.0000 0.47201  0.64544  0.04144  Biso   1.000  O 
  O5       1.0000 0.97889  0.09247  0.49171  Biso   1.000  O 
  O6       1.0000 0.98453  0.59554  0.47513  Biso   1.000  O 
  O7       1.0000 0.46349  0.07284  0.41061  Biso   1.000  O 
  O8       1.0000 0.50032  0.57505  0.55959  Biso   1.000  O 
  O9       1.0000 0.01218  0.33309  0.42692  Biso   1.000  O 
  O10      1.0000 0.94424  0.84274  0.59266  Biso   1.000  O 
  O11      1.0000 0.51618  0.32246  0.45870  Biso   1.000  O 
  O12      1.0000 0.45987  0.83127  0.49977  Biso   1.000  O 
  O13      1.0000 0.01171  0.42026  0.92745  Biso   1.000  O 
  O14      1.0000 0.95466  0.92626  0.09146  Biso   1.000  O 
  O15      1.0000 0.49562  0.39207  0.98790  Biso   1.000  O 
  O16      1.0000 0.46118  0.89105  0.98477  Biso   1.000  O 
  O17      1.0000 0.23221  0.14060  0.48840  Biso   1.000  O 
  O18      1.0000 0.24218  0.63108  0.48907  Biso   1.000  O 
  O19      1.0000 0.72930  0.13195  0.52870  Biso   1.000  O 
  O20      1.0000 0.73365  0.64231  0.52436  Biso   1.000  O 
  O21      1.0000 0.22085  0.09847  0.97865  Biso   1.000  O 
  O22      1.0000 0.21396  0.60333  0.98964  Biso   1.000  O 
  O23      1.0000 0.72644  0.10846  0.02761  Biso   1.000  O 
  O24      1.0000 0.72408  0.60915  0.02426  Biso   1.000  O 
  O25      1.0000 0.24745  0.35554  0.00854  Biso   1.000  O 
  O26      1.0000 0.21888  0.84856  0.94109  Biso   1.000  O 
  O27      1.0000 0.75487  0.36401  0.02285  Biso   1.000  O 
  O28      1.0000 0.71804  0.85472  0.02070  Biso   1.000  O 
  O29      1.0000 0.25677  0.38442  0.50719  Biso   1.000  O 
  O30      1.0000 0.19830  0.88316  0.45343  Biso   1.000  O 
  O31      1.0000 0.75370  0.38837  0.52239  Biso   1.000  O 
  O32      1.0000 0.70516  0.88581  0.52735  Biso   1.000  O 
