data_image0
_cell_length_a       10.0702
_cell_length_b       5.14364
_cell_length_c       10.515
_cell_angle_alpha    90
_cell_angle_beta     90
_cell_angle_gamma    90

_symmetry_space_group_name_H-M    "P 1"
_symmetry_int_tables_number       1

loop_
  _symmetry_equiv_pos_as_xyz
  'x, y, z'

loop_
  _atom_site_label
  _atom_site_occupancy
  _atom_site_fract_x
  _atom_site_fract_y
  _atom_site_fract_z
  _atom_site_thermal_displace_type
  _atom_site_B_iso_or_equiv
  _atom_site_type_symbol
  Hf1      1.0000 0.12809  0.04205  0.17251  Biso   1.000  Hf
  Hf2      1.0000 0.12417  0.45539  0.42570  Biso   1.000  Hf
  Hf3      1.0000 0.34207  0.54048  0.18501  Biso   1.000  Hf
  Hf4      1.0000 0.35082  0.95751  0.42775  Biso   1.000  Hf
  Hf5      1.0000 0.64620  0.07535  0.06822  Biso   1.000  Hf
  Hf6      1.0000 0.62904  0.45576  0.33480  Biso   1.000  Hf
  Hf7      1.0000 0.85711  0.54336  0.07386  Biso   1.000  Hf
  Hf8      1.0000 0.85069  0.95624  0.32765  Biso   1.000  Hf
  O1       1.0000 0.03306  0.33576  0.08526  Biso   1.000  O 
  O2       1.0000 0.02176  0.16536  0.33519  Biso   1.000  O 
  O3       1.0000 0.46541  0.83279  0.08876  Biso   1.000  O 
  O4       1.0000 0.45665  0.67301  0.33748  Biso   1.000  O 
  O5       1.0000 0.26146  0.24917  0.29992  Biso   1.000  O 
  O6       1.0000 0.27645  0.24893  0.04809  Biso   1.000  O 
  O7       1.0000 0.21130  0.74968  0.30131  Biso   1.000  O 
  O8       1.0000 0.22257  0.75273  0.05100  Biso   1.000  O 
  O9       1.0000 0.51143  0.30748  0.18485  Biso   1.000  O 
  O10      1.0000 0.51970  0.17505  0.42391  Biso   1.000  O 
  O11      1.0000 0.95792  0.83467  0.16641  Biso   1.000  O 
  O12      1.0000 0.95411  0.66530  0.41588  Biso   1.000  O 
  O13      1.0000 0.76408  0.24563  0.45474  Biso   1.000  O 
  O14      1.0000 0.77093  0.26072  0.20725  Biso   1.000  O 
  O15      1.0000 0.71198  0.74841  0.45550  Biso   1.000  O 
  O16      1.0000 0.71295  0.75575  0.20402  Biso   1.000  O 
  Hf9      1.0000 0.12686  0.04110  0.67217  Biso   1.000  Hf
  Hf10     1.0000 0.11881  0.46091  0.92328  Biso   1.000  Hf
  Hf11     1.0000 0.34938  0.53939  0.67587  Biso   1.000  Hf
  Hf12     1.0000 0.33904  0.96107  0.92252  Biso   1.000  Hf
  Hf13     1.0000 0.62644  0.04219  0.58063  Biso   1.000  Hf
  Hf14     1.0000 0.62744  0.45892  0.82681  Biso   1.000  Hf
  Hf15     1.0000 0.84895  0.54225  0.57855  Biso   1.000  Hf
  Hf16     1.0000 0.85158  0.96214  0.82386  Biso   1.000  Hf
  O17      1.0000 0.02010  0.32940  0.58485  Biso   1.000  O 
  O18      1.0000 0.02322  0.16733  0.83335  Biso   1.000  O 
  O19      1.0000 0.45519  0.82974  0.58764  Biso   1.000  O 
  O20      1.0000 0.44986  0.66197  0.83962  Biso   1.000  O 
  O21      1.0000 0.26201  0.24899  0.79655  Biso   1.000  O 
  O22      1.0000 0.26319  0.25004  0.54811  Biso   1.000  O 
  O23      1.0000 0.20904  0.74802  0.79811  Biso   1.000  O 
  O24      1.0000 0.21315  0.74883  0.54848  Biso   1.000  O 
  O25      1.0000 0.51987  0.33053  0.66805  Biso   1.000  O 
  O26      1.0000 0.51417  0.14748  0.90627  Biso   1.000  O 
  O27      1.0000 0.95712  0.82914  0.66282  Biso   1.000  O 
  O28      1.0000 0.95155  0.67076  0.91534  Biso   1.000  O 
  O29      1.0000 0.77414  0.25127  0.94349  Biso   1.000  O 
  O30      1.0000 0.76434  0.25017  0.70035  Biso   1.000  O 
  O31      1.0000 0.71751  0.78654  0.94813  Biso   1.000  O 
  O32      1.0000 0.71215  0.74915  0.70342  Biso   1.000  O 
  Zn1      1.0000 0.58015  0.55507  0.05525  Biso   1.000  Zn
