data_image0
_cell_length_a       9.99351
_cell_length_b       10.3781
_cell_length_c       10.0465
_cell_angle_alpha    90
_cell_angle_beta     90
_cell_angle_gamma    90

_symmetry_space_group_name_H-M    "P 1"
_symmetry_int_tables_number       1

loop_
  _symmetry_equiv_pos_as_xyz
  'x, y, z'

loop_
  _atom_site_label
  _atom_site_occupancy
  _atom_site_fract_x
  _atom_site_fract_y
  _atom_site_fract_z
  _atom_site_thermal_displace_type
  _atom_site_B_iso_or_equiv
  _atom_site_type_symbol
  Hf1      1.0000 0.13635  0.02061  0.11791  Biso   1.000  Hf
  Hf2      1.0000 0.13648  0.22827  0.39776  Biso   1.000  Hf
  Hf3      1.0000 0.36679  0.26565  0.12133  Biso   1.000  Hf
  Hf4      1.0000 0.37017  0.48469  0.37710  Biso   1.000  Hf
  O1       1.0000 0.99357  0.16432  0.25228  Biso   1.000  O 
  O2       1.0000 0.04111  0.06397  0.46566  Biso   1.000  O 
  O3       1.0000 0.46260  0.43402  0.19550  Biso   1.000  O 
  O4       1.0000 0.46569  0.31785  0.44544  Biso   1.000  O 
  O5       1.0000 0.26275  0.12079  0.25507  Biso   1.000  O 
  O6       1.0000 0.27896  0.13051  0.50703  Biso   1.000  O 
  O7       1.0000 0.23541  0.38320  0.50324  Biso   1.000  O 
  O8       1.0000 0.22373  0.36816  0.25309  Biso   1.000  O 
  Hf5      1.0000 0.14166  0.01672  0.63626  Biso   1.000  Hf
  Hf6      1.0000 0.14241  0.23402  0.87998  Biso   1.000  Hf
  Hf7      1.0000 0.37170  0.26928  0.63028  Biso   1.000  Hf
  Hf8      1.0000 0.37508  0.49005  0.87165  Biso   1.000  Hf
  O9       1.0000 0.04227  0.18631  0.69686  Biso   1.000  O 
  O10      1.0000 0.04718  0.06137  0.93591  Biso   1.000  O 
  O11      1.0000 0.47055  0.43661  0.69300  Biso   1.000  O 
  O12      1.0000 0.47019  0.31818  0.93988  Biso   1.000  O 
  O13      1.0000 0.27839  0.12119  0.75303  Biso   1.000  O 
  O14      1.0000 0.29694  0.12532  0.99505  Biso   1.000  O 
  O15      1.0000 0.24378  0.39695  0.99790  Biso   1.000  O 
  O16      1.0000 0.23493  0.37085  0.75160  Biso   1.000  O 
  Hf9      1.0000 0.13828  0.53180  0.12348  Biso   1.000  Hf
  Hf10     1.0000 0.13735  0.73709  0.37832  Biso   1.000  Hf
  Hf11     1.0000 0.36669  0.76897  0.12673  Biso   1.000  Hf
  Hf12     1.0000 0.36588  0.98491  0.37689  Biso   1.000  Hf
  O17      1.0000 0.03546  0.68471  0.19702  Biso   1.000  O 
  O18      1.0000 0.03902  0.56874  0.44296  Biso   1.000  O 
  O19      1.0000 0.46153  0.93594  0.19554  Biso   1.000  O 
  O20      1.0000 0.46806  0.81781  0.44288  Biso   1.000  O 
  O21      1.0000 0.27472  0.62119  0.24969  Biso   1.000  O 
  O22      1.0000 0.27417  0.63320  0.49905  Biso   1.000  O 
  O23      1.0000 0.23321  0.88334  0.50228  Biso   1.000  O 
  O24      1.0000 0.23035  0.86942  0.25079  Biso   1.000  O 
  Hf13     1.0000 0.13726  0.51756  0.62622  Biso   1.000  Hf
  Hf14     1.0000 0.13775  0.73802  0.87256  Biso   1.000  Hf
  Hf15     1.0000 0.37251  0.76712  0.62363  Biso   1.000  Hf
  Hf16     1.0000 0.37606  0.98275  0.87412  Biso   1.000  Hf
  O25      1.0000 0.04187  0.68762  0.69024  Biso   1.000  O 
  O26      1.0000 0.04156  0.57055  0.94485  Biso   1.000  O 
  O27      1.0000 0.47154  0.93488  0.69055  Biso   1.000  O 
  O28      1.0000 0.47410  0.81911  0.94791  Biso   1.000  O 
  O29      1.0000 0.27411  0.61972  0.74820  Biso   1.000  O 
  O30      1.0000 0.27610  0.64139  0.99788  Biso   1.000  O 
  O31      1.0000 0.22940  0.88152  0.00007  Biso   1.000  O 
  O32      1.0000 0.23978  0.86804  0.75079  Biso   1.000  O 
  Hf17     1.0000 0.62989  0.01166  0.12129  Biso   1.000  Hf
  Hf18     1.0000 0.63253  0.23309  0.37601  Biso   1.000  Hf
  Hf19     1.0000 0.84544  0.26218  0.12262  Biso   1.000  Hf
  Hf20     1.0000 0.87017  0.48371  0.37599  Biso   1.000  Hf
  O33      1.0000 0.53227  0.18369  0.19172  Biso   1.000  O 
  O34      1.0000 0.53793  0.06711  0.44345  Biso   1.000  O 
  O35      1.0000 0.97034  0.42346  0.18518  Biso   1.000  O 
  O36      1.0000 0.97229  0.32529  0.45578  Biso   1.000  O 
  O37      1.0000 0.75495  0.11410  0.24520  Biso   1.000  O 
  O38      1.0000 0.77578  0.13922  0.49468  Biso   1.000  O 
  O39      1.0000 0.73392  0.38554  0.49835  Biso   1.000  O 
  O40      1.0000 0.72940  0.36870  0.25082  Biso   1.000  O 
  Hf21     1.0000 0.64168  0.01757  0.62090  Biso   1.000  Hf
  Hf22     1.0000 0.63833  0.23445  0.87106  Biso   1.000  Hf
  Hf23     1.0000 0.87190  0.26900  0.62835  Biso   1.000  Hf
  Hf24     1.0000 0.87136  0.48509  0.87588  Biso   1.000  Hf
  O41      1.0000 0.54356  0.18639  0.69090  Biso   1.000  O 
  O42      1.0000 0.54873  0.06524  0.93763  Biso   1.000  O 
  O43      1.0000 0.96781  0.43872  0.69626  Biso   1.000  O 
  O44      1.0000 0.95887  0.31571  0.93390  Biso   1.000  O 
  O45      1.0000 0.77717  0.11816  0.74610  Biso   1.000  O 
  O46      1.0000 0.77647  0.13158  0.99595  Biso   1.000  O 
  O47      1.0000 0.72264  0.38019  0.00079  Biso   1.000  O 
  O48      1.0000 0.73348  0.37115  0.74876  Biso   1.000  O 
  Hf25     1.0000 0.63165  0.51871  0.12693  Biso   1.000  Hf
  Hf26     1.0000 0.63916  0.73746  0.37447  Biso   1.000  Hf
  Hf27     1.0000 0.86518  0.76597  0.12383  Biso   1.000  Hf
  Hf28     1.0000 0.87974  0.99641  0.36385  Biso   1.000  Hf
  O49      1.0000 0.53811  0.68626  0.19504  Biso   1.000  O 
  O50      1.0000 0.53884  0.56858  0.44409  Biso   1.000  O 
  O51      1.0000 0.96586  0.93281  0.18450  Biso   1.000  O 
  O52      1.0000 0.96751  0.82181  0.43870  Biso   1.000  O 
  O53      1.0000 0.77348  0.61566  0.24824  Biso   1.000  O 
  O54      1.0000 0.77472  0.63466  0.49700  Biso   1.000  O 
  O55      1.0000 0.73716  0.88829  0.49444  Biso   1.000  O 
  O56      1.0000 0.73227  0.86737  0.24587  Biso   1.000  O 
  Hf29     1.0000 0.64063  0.51896  0.62433  Biso   1.000  Hf
  Hf30     1.0000 0.64204  0.73542  0.87424  Biso   1.000  Hf
  Hf31     1.0000 0.87155  0.77062  0.62038  Biso   1.000  Hf
  Hf32     1.0000 0.87180  0.98373  0.87287  Biso   1.000  Hf
  O57      1.0000 0.54017  0.68461  0.69604  Biso   1.000  O 
  O58      1.0000 0.54188  0.57019  0.94686  Biso   1.000  O 
  O59      1.0000 0.97135  0.93159  0.69792  Biso   1.000  O 
  O60      1.0000 0.96803  0.81575  0.94266  Biso   1.000  O 
  O61      1.0000 0.77617  0.62047  0.74761  Biso   1.000  O 
  O62      1.0000 0.77562  0.63337  0.99919  Biso   1.000  O 
  O63      1.0000 0.73632  0.88270  0.99703  Biso   1.000  O 
  O64      1.0000 0.73546  0.86916  0.74610  Biso   1.000  O 
  Zn1      1.0000 0.09818  0.27539  0.13100  Biso   1.000  Zn
