data_image0
_cell_length_a       10.057
_cell_length_b       10.3314
_cell_length_c       5.10135
_cell_angle_alpha    90
_cell_angle_beta     90
_cell_angle_gamma    90

_symmetry_space_group_name_H-M    "P 1"
_symmetry_int_tables_number       1

loop_
  _symmetry_equiv_pos_as_xyz
  'x, y, z'

loop_
  _atom_site_label
  _atom_site_occupancy
  _atom_site_fract_x
  _atom_site_fract_y
  _atom_site_fract_z
  _atom_site_thermal_displace_type
  _atom_site_B_iso_or_equiv
  _atom_site_type_symbol
  Hf1      1.0000 0.14107  0.96322  0.30445  Biso   1.000  Hf
  Hf2      1.0000 0.11750  0.25030  0.60010  Biso   1.000  Hf
  Hf3      1.0000 0.38191  0.23774  0.22788  Biso   1.000  Hf
  Hf4      1.0000 0.40238  0.00270  0.74908  Biso   1.000  Hf
  O1       1.0000 0.99834  0.15955  0.88795  Biso   1.000  O 
  O2       1.0000 0.99265  0.09235  0.43284  Biso   1.000  O 
  O3       1.0000 0.96551  0.36831  0.48097  Biso   1.000  O 
  O4       1.0000 0.99014  0.40604  0.99182  Biso   1.000  O 
  O5       1.0000 0.25981  0.11348  0.53117  Biso   1.000  O 
  O6       1.0000 0.27390  0.06391  0.05031  Biso   1.000  O 
  O7       1.0000 0.26772  0.30488  0.88287  Biso   1.000  O 
  O8       1.0000 0.24377  0.39487  0.43148  Biso   1.000  O 
  Hf5      1.0000 0.09441  0.51152  0.26399  Biso   1.000  Hf
  Hf6      1.0000 0.12891  0.73144  0.78621  Biso   1.000  Hf
  Hf7      1.0000 0.38618  0.74915  0.31862  Biso   1.000  Hf
  Hf8      1.0000 0.35595  0.47972  0.73305  Biso   1.000  Hf
  O9       1.0000 0.98497  0.65795  0.05140  Biso   1.000  O 
  O10      1.0000 0.00268  0.60401  0.56001  Biso   1.000  O 
  O11      1.0000 0.00549  0.84563  0.52825  Biso   1.000  O 
  O12      1.0000 0.00150  0.90708  0.02036  Biso   1.000  O 
  O13      1.0000 0.24897  0.63323  0.50192  Biso   1.000  O 
  O14      1.0000 0.22123  0.56332  0.96626  Biso   1.000  O 
  O15      1.0000 0.23068  0.81112  0.10035  Biso   1.000  O 
  O16      1.0000 0.25795  0.87296  0.58941  Biso   1.000  O 
  Hf9      1.0000 0.64343  0.01836  0.22414  Biso   1.000  Hf
  Hf10     1.0000 0.63272  0.26223  0.72606  Biso   1.000  Hf
  Hf11     1.0000 0.88216  0.25141  0.18812  Biso   1.000  Hf
  Hf12     1.0000 0.89059  0.99317  0.74960  Biso   1.000  Hf
  O17      1.0000 0.51531  0.14308  0.97006  Biso   1.000  O 
  O18      1.0000 0.50376  0.10427  0.46740  Biso   1.000  O 
  O19      1.0000 0.48724  0.34877  0.49374  Biso   1.000  O 
  O20      1.0000 0.48369  0.39346  0.00276  Biso   1.000  O 
  O21      1.0000 0.73857  0.18158  0.43532  Biso   1.000  O 
  O22      1.0000 0.76196  0.10941  0.94919  Biso   1.000  O 
  O23      1.0000 0.73604  0.36462  0.02236  Biso   1.000  O 
  O24      1.0000 0.71643  0.43167  0.55652  Biso   1.000  O 
  Hf13     1.0000 0.60156  0.49466  0.25221  Biso   1.000  Hf
  Hf14     1.0000 0.61062  0.74134  0.80922  Biso   1.000  Hf
  Hf15     1.0000 0.85859  0.76982  0.27198  Biso   1.000  Hf
  Hf16     1.0000 0.85934  0.51531  0.77573  Biso   1.000  Hf
  O25      1.0000 0.48061  0.63975  0.04331  Biso   1.000  O 
  O26      1.0000 0.50063  0.60356  0.54112  Biso   1.000  O 
  O27      1.0000 0.51117  0.85687  0.54755  Biso   1.000  O 
  O28      1.0000 0.49249  0.89339  0.04290  Biso   1.000  O 
  O29      1.0000 0.76107  0.68064  0.56997  Biso   1.000  O 
  O30      1.0000 0.73330  0.61633  0.05885  Biso   1.000  O 
  O31      1.0000 0.75106  0.86131  0.98383  Biso   1.000  O 
  O32      1.0000 0.76627  0.92991  0.45869  Biso   1.000  O 
  Zn1      1.0000 0.13980  0.21336  0.10160  Biso   1.000  Zn
