data_image0
_cell_length_a       10.0459
_cell_length_b       10.2571
_cell_length_c       10.488
_cell_angle_alpha    90
_cell_angle_beta     90
_cell_angle_gamma    90

_symmetry_space_group_name_H-M    "P 1"
_symmetry_int_tables_number       1

loop_
  _symmetry_equiv_pos_as_xyz
  'x, y, z'

loop_
  _atom_site_label
  _atom_site_occupancy
  _atom_site_fract_x
  _atom_site_fract_y
  _atom_site_fract_z
  _atom_site_thermal_displace_type
  _atom_site_B_iso_or_equiv
  _atom_site_type_symbol
  Hf1      1.0000 0.13422  0.02142  0.17232  Biso   1.000  Hf
  Hf2      1.0000 0.12968  0.22867  0.42658  Biso   1.000  Hf
  Hf3      1.0000 0.34308  0.27016  0.18428  Biso   1.000  Hf
  Hf4      1.0000 0.35583  0.48103  0.42447  Biso   1.000  Hf
  Hf5      1.0000 0.64053  0.02397  0.07046  Biso   1.000  Hf
  Hf6      1.0000 0.63193  0.22703  0.33476  Biso   1.000  Hf
  Hf7      1.0000 0.85604  0.26900  0.07325  Biso   1.000  Hf
  Hf8      1.0000 0.85622  0.47803  0.32762  Biso   1.000  Hf
  O1       1.0000 0.03330  0.16760  0.08504  Biso   1.000  O 
  O2       1.0000 0.02666  0.08472  0.33514  Biso   1.000  O 
  O3       1.0000 0.46674  0.41431  0.08864  Biso   1.000  O 
  O4       1.0000 0.45951  0.33625  0.33635  Biso   1.000  O 
  O5       1.0000 0.26567  0.12528  0.30071  Biso   1.000  O 
  O6       1.0000 0.27689  0.12588  0.04750  Biso   1.000  O 
  O7       1.0000 0.21361  0.37542  0.30031  Biso   1.000  O 
  O8       1.0000 0.22318  0.37739  0.04885  Biso   1.000  O 
  O9       1.0000 0.51088  0.15087  0.18654  Biso   1.000  O 
  O10      1.0000 0.52512  0.08720  0.42410  Biso   1.000  O 
  O11      1.0000 0.95998  0.41575  0.16599  Biso   1.000  O 
  O12      1.0000 0.95951  0.33481  0.41764  Biso   1.000  O 
  O13      1.0000 0.76938  0.12430  0.45605  Biso   1.000  O 
  O14      1.0000 0.76968  0.12840  0.20756  Biso   1.000  O 
  O15      1.0000 0.71673  0.37437  0.45454  Biso   1.000  O 
  O16      1.0000 0.71323  0.37812  0.20351  Biso   1.000  O 
  Hf9      1.0000 0.13271  0.02169  0.67260  Biso   1.000  Hf
  Hf10     1.0000 0.12716  0.22969  0.92238  Biso   1.000  Hf
  Hf11     1.0000 0.35606  0.27154  0.67500  Biso   1.000  Hf
  Hf12     1.0000 0.34871  0.48163  0.92229  Biso   1.000  Hf
  Hf13     1.0000 0.63219  0.02169  0.58132  Biso   1.000  Hf
  Hf14     1.0000 0.63646  0.22877  0.82754  Biso   1.000  Hf
  Hf15     1.0000 0.85381  0.27217  0.57961  Biso   1.000  Hf
  Hf16     1.0000 0.85682  0.48401  0.82527  Biso   1.000  Hf
  O17      1.0000 0.02561  0.16639  0.58607  Biso   1.000  O 
  O18      1.0000 0.02866  0.08263  0.83365  Biso   1.000  O 
  O19      1.0000 0.46087  0.41716  0.58575  Biso   1.000  O 
  O20      1.0000 0.46026  0.33553  0.83879  Biso   1.000  O 
  O21      1.0000 0.26930  0.12567  0.79646  Biso   1.000  O 
  O22      1.0000 0.26968  0.12627  0.54792  Biso   1.000  O 
  O23      1.0000 0.21667  0.37535  0.79760  Biso   1.000  O 
  O24      1.0000 0.21837  0.37631  0.54807  Biso   1.000  O 
  O25      1.0000 0.52708  0.16744  0.66740  Biso   1.000  O 
  O26      1.0000 0.52675  0.07062  0.90211  Biso   1.000  O 
  O27      1.0000 0.96148  0.41676  0.66523  Biso   1.000  O 
  O28      1.0000 0.95890  0.33526  0.91377  Biso   1.000  O 
  O29      1.0000 0.78364  0.11855  0.94663  Biso   1.000  O 
  O30      1.0000 0.77187  0.12514  0.70212  Biso   1.000  O 
  O31      1.0000 0.72612  0.39369  0.94869  Biso   1.000  O 
  O32      1.0000 0.71790  0.37683  0.70330  Biso   1.000  O 
  Hf17     1.0000 0.13249  0.52208  0.17167  Biso   1.000  Hf
  Hf18     1.0000 0.13249  0.72938  0.42105  Biso   1.000  Hf
  Hf19     1.0000 0.35914  0.77371  0.17269  Biso   1.000  Hf
  Hf20     1.0000 0.35562  0.97859  0.42490  Biso   1.000  Hf
  Hf21     1.0000 0.64392  0.53281  0.07732  Biso   1.000  Hf
  Hf22     1.0000 0.63528  0.73151  0.32883  Biso   1.000  Hf
  Hf23     1.0000 0.86185  0.77459  0.07857  Biso   1.000  Hf
  Hf24     1.0000 0.85524  0.98044  0.32855  Biso   1.000  Hf
  O33      1.0000 0.03310  0.66711  0.08419  Biso   1.000  O 
  O34      1.0000 0.02726  0.58395  0.33378  Biso   1.000  O 
  O35      1.0000 0.46788  0.91453  0.08246  Biso   1.000  O 
  O36      1.0000 0.46368  0.83720  0.33426  Biso   1.000  O 
  O37      1.0000 0.27084  0.62456  0.29507  Biso   1.000  O 
  O38      1.0000 0.27691  0.62537  0.04591  Biso   1.000  O 
  O39      1.0000 0.22026  0.87492  0.29630  Biso   1.000  O 
  O40      1.0000 0.22285  0.87620  0.04725  Biso   1.000  O 
  O41      1.0000 0.53080  0.66663  0.16768  Biso   1.000  O 
  O42      1.0000 0.52692  0.58725  0.41728  Biso   1.000  O 
  O43      1.0000 0.96391  0.91884  0.16644  Biso   1.000  O 
  O44      1.0000 0.96055  0.83354  0.41427  Biso   1.000  O 
  O45      1.0000 0.77065  0.62410  0.45360  Biso   1.000  O 
  O46      1.0000 0.77566  0.62923  0.20433  Biso   1.000  O 
  O47      1.0000 0.71802  0.87556  0.45562  Biso   1.000  O 
  O48      1.0000 0.72218  0.87699  0.20478  Biso   1.000  O 
  Hf25     1.0000 0.13277  0.52168  0.67136  Biso   1.000  Hf
  Hf26     1.0000 0.12986  0.73162  0.92250  Biso   1.000  Hf
  Hf27     1.0000 0.35386  0.77087  0.67243  Biso   1.000  Hf
  Hf28     1.0000 0.35152  0.97929  0.92171  Biso   1.000  Hf
  Hf29     1.0000 0.63247  0.52234  0.57813  Biso   1.000  Hf
  Hf30     1.0000 0.62902  0.73151  0.82735  Biso   1.000  Hf
  Hf31     1.0000 0.85569  0.77163  0.57731  Biso   1.000  Hf
  Hf32     1.0000 0.85553  0.97755  0.82632  Biso   1.000  Hf
  O49      1.0000 0.02701  0.66559  0.58278  Biso   1.000  O 
  O50      1.0000 0.02771  0.58709  0.83372  Biso   1.000  O 
  O51      1.0000 0.46051  0.91486  0.58557  Biso   1.000  O 
  O52      1.0000 0.45518  0.83081  0.83479  Biso   1.000  O 
  O53      1.0000 0.26888  0.62433  0.79537  Biso   1.000  O 
  O54      1.0000 0.26937  0.62660  0.54554  Biso   1.000  O 
  O55      1.0000 0.21519  0.87418  0.79556  Biso   1.000  O 
  O56      1.0000 0.21759  0.87600  0.54535  Biso   1.000  O 
  O57      1.0000 0.52543  0.66532  0.66675  Biso   1.000  O 
  O58      1.0000 0.52135  0.58733  0.91868  Biso   1.000  O 
  O59      1.0000 0.96195  0.91510  0.66356  Biso   1.000  O 
  O60      1.0000 0.95852  0.83571  0.91741  Biso   1.000  O 
  O61      1.0000 0.76590  0.63310  0.95363  Biso   1.000  O 
  O62      1.0000 0.76887  0.62771  0.70340  Biso   1.000  O 
  O63      1.0000 0.71388  0.87668  0.95453  Biso   1.000  O 
  O64      1.0000 0.71682  0.87540  0.70464  Biso   1.000  O 
  Zn1      1.0000 0.57790  0.26892  0.05464  Biso   1.000  Zn
