data_image0
_cell_length_a       10.1418
_cell_length_b       10.238
_cell_length_c       5.22161
_cell_angle_alpha    90
_cell_angle_beta     80
_cell_angle_gamma    90

_symmetry_space_group_name_H-M    "P 1"
_symmetry_int_tables_number       1

loop_
  _symmetry_equiv_pos_as_xyz
  'x, y, z'

loop_
  _atom_site_label
  _atom_site_occupancy
  _atom_site_fract_x
  _atom_site_fract_y
  _atom_site_fract_z
  _atom_site_thermal_displace_type
  _atom_site_B_iso_or_equiv
  _atom_site_type_symbol
  Zn1      1.0000 0.12544  0.00814  0.31362  Biso   1.000  Zn
  Hf1      1.0000 0.14221  0.52132  0.29242  Biso   1.000  Hf
  Hf2      1.0000 0.63782  0.02161  0.29285  Biso   1.000  Hf
  Hf3      1.0000 0.63948  0.51907  0.29206  Biso   1.000  Hf
  Hf4      1.0000 0.14089  0.22363  0.78434  Biso   1.000  Hf
  Hf5      1.0000 0.14100  0.72847  0.79628  Biso   1.000  Hf
  Hf6      1.0000 0.63858  0.22731  0.79238  Biso   1.000  Hf
  Hf7      1.0000 0.63752  0.72616  0.79528  Biso   1.000  Hf
  Hf8      1.0000 0.35803  0.26701  0.20408  Biso   1.000  Hf
  Hf9      1.0000 0.36084  0.77495  0.21318  Biso   1.000  Hf
  Hf10     1.0000 0.86586  0.26751  0.20619  Biso   1.000  Hf
  Hf11     1.0000 0.86260  0.76924  0.21036  Biso   1.000  Hf
  Hf12     1.0000 0.36051  0.47675  0.70777  Biso   1.000  Hf
  Hf13     1.0000 0.36024  0.97912  0.70713  Biso   1.000  Hf
  Hf14     1.0000 0.86243  0.47575  0.70985  Biso   1.000  Hf
  Hf15     1.0000 0.86087  0.97465  0.71158  Biso   1.000  Hf
  O1       1.0000 0.03862  0.15930  0.14159  Biso   1.000  O 
  O2       1.0000 0.03663  0.66666  0.16200  Biso   1.000  O 
  O3       1.0000 0.53514  0.16750  0.15680  Biso   1.000  O 
  O4       1.0000 0.53593  0.66670  0.15894  Biso   1.000  O 
  O5       1.0000 0.03100  0.07806  0.66588  Biso   1.000  O 
  O6       1.0000 0.03578  0.58151  0.66036  Biso   1.000  O 
  O7       1.0000 0.53455  0.08185  0.65653  Biso   1.000  O 
  O8       1.0000 0.53442  0.58114  0.65780  Biso   1.000  O 
  O9       1.0000 0.46672  0.41414  0.34279  Biso   1.000  O 
  O10      1.0000 0.47081  0.91610  0.34356  Biso   1.000  O 
  O11      1.0000 0.96991  0.41271  0.34453  Biso   1.000  O 
  O12      1.0000 0.96195  0.91505  0.34893  Biso   1.000  O 
  O13      1.0000 0.46835  0.33522  0.84535  Biso   1.000  O 
  O14      1.0000 0.46482  0.83159  0.84499  Biso   1.000  O 
  O15      1.0000 0.96615  0.33054  0.84394  Biso   1.000  O 
  O16      1.0000 0.96520  0.82900  0.84691  Biso   1.000  O 
  O17      1.0000 0.27041  0.12168  0.46460  Biso   1.000  O 
  O18      1.0000 0.27814  0.62567  0.48137  Biso   1.000  O 
  O19      1.0000 0.77658  0.12724  0.48163  Biso   1.000  O 
  O20      1.0000 0.77706  0.62642  0.48252  Biso   1.000  O 
  O21      1.0000 0.28961  0.13349  0.94364  Biso   1.000  O 
  O22      1.0000 0.27641  0.62066  0.98325  Biso   1.000  O 
  O23      1.0000 0.77356  0.11796  0.98261  Biso   1.000  O 
  O24      1.0000 0.77502  0.61720  0.98262  Biso   1.000  O 
  O25      1.0000 0.22508  0.38181  0.01522  Biso   1.000  O 
  O26      1.0000 0.22805  0.88706  0.02726  Biso   1.000  O 
  O27      1.0000 0.72805  0.37815  0.02012  Biso   1.000  O 
  O28      1.0000 0.72641  0.87818  0.02078  Biso   1.000  O 
  O29      1.0000 0.22552  0.36845  0.51594  Biso   1.000  O 
  O30      1.0000 0.22920  0.86435  0.52923  Biso   1.000  O 
  O31      1.0000 0.72614  0.36956  0.51924  Biso   1.000  O 
  O32      1.0000 0.72373  0.86908  0.52271  Biso   1.000  O 
