data_image0
_cell_length_a       10.0566
_cell_length_b       10.1951
_cell_length_c       5.21536
_cell_angle_alpha    90
_cell_angle_beta     90
_cell_angle_gamma    90

_symmetry_space_group_name_H-M    "P 1"
_symmetry_int_tables_number       1

loop_
  _symmetry_equiv_pos_as_xyz
  'x, y, z'

loop_
  _atom_site_label
  _atom_site_occupancy
  _atom_site_fract_x
  _atom_site_fract_y
  _atom_site_fract_z
  _atom_site_thermal_displace_type
  _atom_site_B_iso_or_equiv
  _atom_site_type_symbol
  Zn1      1.0000 0.12511  0.01086  0.36480  Biso   1.000  Zn
  Hf1      1.0000 0.14152  0.52243  0.34614  Biso   1.000  Hf
  Hf2      1.0000 0.14203  0.22752  0.84239  Biso   1.000  Hf
  Hf3      1.0000 0.14079  0.73320  0.84504  Biso   1.000  Hf
  Hf4      1.0000 0.35785  0.26862  0.34071  Biso   1.000  Hf
  Hf5      1.0000 0.36101  0.77574  0.33951  Biso   1.000  Hf
  Hf6      1.0000 0.35952  0.47964  0.84499  Biso   1.000  Hf
  Hf7      1.0000 0.35924  0.98220  0.83942  Biso   1.000  Hf
  Hf8      1.0000 0.63762  0.02145  0.15454  Biso   1.000  Hf
  Hf9      1.0000 0.64117  0.51989  0.15729  Biso   1.000  Hf
  Hf10     1.0000 0.63795  0.23019  0.65630  Biso   1.000  Hf
  Hf11     1.0000 0.63869  0.72930  0.65482  Biso   1.000  Hf
  Hf12     1.0000 0.86622  0.26730  0.15978  Biso   1.000  Hf
  Hf13     1.0000 0.86388  0.77071  0.15837  Biso   1.000  Hf
  Hf14     1.0000 0.86253  0.47880  0.66042  Biso   1.000  Hf
  Hf15     1.0000 0.86127  0.97903  0.65820  Biso   1.000  Hf
  O1       1.0000 0.03859  0.15570  0.16232  Biso   1.000  O 
  O2       1.0000 0.03491  0.66427  0.16719  Biso   1.000  O 
  O3       1.0000 0.02488  0.08839  0.68269  Biso   1.000  O 
  O4       1.0000 0.03256  0.58752  0.66779  Biso   1.000  O 
  O5       1.0000 0.46908  0.41466  0.16808  Biso   1.000  O 
  O6       1.0000 0.47323  0.91496  0.16329  Biso   1.000  O 
  O7       1.0000 0.46771  0.33636  0.66719  Biso   1.000  O 
  O8       1.0000 0.46879  0.83712  0.66354  Biso   1.000  O 
  O9       1.0000 0.27119  0.12271  0.57674  Biso   1.000  O 
  O10      1.0000 0.27714  0.62561  0.59151  Biso   1.000  O 
  O11      1.0000 0.29498  0.14045  0.05883  Biso   1.000  O 
  O12      1.0000 0.27901  0.62738  0.09190  Biso   1.000  O 
  O13      1.0000 0.22475  0.37511  0.59325  Biso   1.000  O 
  O14      1.0000 0.22472  0.87388  0.58657  Biso   1.000  O 
  O15      1.0000 0.22317  0.37994  0.09287  Biso   1.000  O 
  O16      1.0000 0.23101  0.87853  0.08339  Biso   1.000  O 
  O17      1.0000 0.53345  0.16668  0.33010  Biso   1.000  O 
  O18      1.0000 0.53363  0.66485  0.33097  Biso   1.000  O 
  O19      1.0000 0.53232  0.08356  0.82491  Biso   1.000  O 
  O20      1.0000 0.53178  0.58545  0.83221  Biso   1.000  O 
  O21      1.0000 0.97166  0.41083  0.34141  Biso   1.000  O 
  O22      1.0000 0.96427  0.91369  0.33829  Biso   1.000  O 
  O23      1.0000 0.96896  0.33741  0.84316  Biso   1.000  O 
  O24      1.0000 0.96770  0.83607  0.83647  Biso   1.000  O 
  O25      1.0000 0.77330  0.12494  0.91140  Biso   1.000  O 
  O26      1.0000 0.77494  0.62357  0.90962  Biso   1.000  O 
  O27      1.0000 0.77531  0.12610  0.40994  Biso   1.000  O 
  O28      1.0000 0.77750  0.62554  0.41006  Biso   1.000  O 
  O29      1.0000 0.72456  0.37373  0.91198  Biso   1.000  O 
  O30      1.0000 0.72435  0.87378  0.90886  Biso   1.000  O 
  O31      1.0000 0.72716  0.37578  0.41042  Biso   1.000  O 
  O32      1.0000 0.72383  0.87592  0.40972  Biso   1.000  O 
