data_image0
_cell_length_a       5.11722
_cell_length_b       10.2826
_cell_length_c       10.5378
_cell_angle_alpha    90
_cell_angle_beta     80
_cell_angle_gamma    90

_symmetry_space_group_name_H-M    "P 1"
_symmetry_int_tables_number       1

loop_
  _symmetry_equiv_pos_as_xyz
  'x, y, z'

loop_
  _atom_site_label
  _atom_site_occupancy
  _atom_site_fract_x
  _atom_site_fract_y
  _atom_site_fract_z
  _atom_site_thermal_displace_type
  _atom_site_B_iso_or_equiv
  _atom_site_type_symbol
  Hf1      1.0000 0.27217  0.01945  0.14301  Biso   1.000  Hf
  Hf2      1.0000 0.33739  0.23223  0.40007  Biso   1.000  Hf
  Hf3      1.0000 0.70228  0.27333  0.10461  Biso   1.000  Hf
  Hf4      1.0000 0.72970  0.47601  0.34534  Biso   1.000  Hf
  O1       1.0000 0.05776  0.16873  0.08314  Biso   1.000  O 
  O2       1.0000 0.07415  0.08289  0.33200  Biso   1.000  O 
  O3       1.0000 0.91297  0.43314  0.15700  Biso   1.000  O 
  O4       1.0000 0.99437  0.34884  0.43851  Biso   1.000  O 
  O5       1.0000 0.53762  0.11308  0.23634  Biso   1.000  O 
  O6       1.0000 0.59281  0.11480  0.49135  Biso   1.000  O 
  O7       1.0000 0.43348  0.38159  0.00709  Biso   1.000  O 
  O8       1.0000 0.40988  0.37425  0.25228  Biso   1.000  O 
  Hf5      1.0000 0.30314  0.01821  0.64658  Biso   1.000  Hf
  Hf6      1.0000 0.30182  0.22731  0.89467  Biso   1.000  Hf
  Hf7      1.0000 0.76206  0.27066  0.60949  Biso   1.000  Hf
  Hf8      1.0000 0.75084  0.47581  0.85455  Biso   1.000  Hf
  O9       1.0000 0.10729  0.16407  0.57725  Biso   1.000  O 
  O10      1.0000 0.09598  0.08071  0.82688  Biso   1.000  O 
  O11      1.0000 0.96579  0.41109  0.67911  Biso   1.000  O 
  O12      1.0000 0.95553  0.32893  0.92034  Biso   1.000  O 
  O13      1.0000 0.57911  0.12625  0.73962  Biso   1.000  O 
  O14      1.0000 0.57519  0.11941  0.98654  Biso   1.000  O 
  O15      1.0000 0.49058  0.37440  0.51227  Biso   1.000  O 
  O16      1.0000 0.47932  0.36917  0.75880  Biso   1.000  O 
  Hf9      1.0000 0.26950  0.52372  0.14305  Biso   1.000  Hf
  Hf10     1.0000 0.28347  0.72111  0.39589  Biso   1.000  Hf
  Hf11     1.0000 0.71526  0.77047  0.10370  Biso   1.000  Hf
  Hf12     1.0000 0.72104  0.96506  0.35483  Biso   1.000  Hf
  O17      1.0000 0.06461  0.67364  0.07751  Biso   1.000  O 
  O18      1.0000 0.06565  0.58522  0.32427  Biso   1.000  O 
  O19      1.0000 0.92684  0.91288  0.17564  Biso   1.000  O 
  O20      1.0000 0.94167  0.83001  0.42328  Biso   1.000  O 
  O21      1.0000 0.55086  0.62650  0.24047  Biso   1.000  O 
  O22      1.0000 0.56043  0.61749  0.48870  Biso   1.000  O 
  O23      1.0000 0.44302  0.87989  0.00999  Biso   1.000  O 
  O24      1.0000 0.44375  0.86558  0.26068  Biso   1.000  O 
  Hf13     1.0000 0.30355  0.51940  0.64592  Biso   1.000  Hf
  Hf14     1.0000 0.30255  0.72677  0.89411  Biso   1.000  Hf
  Hf15     1.0000 0.74156  0.76796  0.60359  Biso   1.000  Hf
  Hf16     1.0000 0.74784  0.97617  0.85176  Biso   1.000  Hf
  O25      1.0000 0.07995  0.65938  0.57747  Biso   1.000  O 
  O26      1.0000 0.09546  0.58248  0.82683  Biso   1.000  O 
  O27      1.0000 0.95398  0.91261  0.67099  Biso   1.000  O 
  O28      1.0000 0.96044  0.83323  0.92005  Biso   1.000  O 
  O29      1.0000 0.57625  0.62514  0.73843  Biso   1.000  O 
  O30      1.0000 0.58166  0.62035  0.98739  Biso   1.000  O 
  O31      1.0000 0.45801  0.87335  0.51002  Biso   1.000  O 
  O32      1.0000 0.47357  0.86885  0.75835  Biso   1.000  O 
  Zn1      1.0000 0.87345  0.23298  0.31317  Biso   1.000  Zn
