data_image0
_cell_length_a       10.1502
_cell_length_b       5.16071
_cell_length_c       10.6318
_cell_angle_alpha    90
_cell_angle_beta     80
_cell_angle_gamma    90

_symmetry_space_group_name_H-M    "P 1"
_symmetry_int_tables_number       1

loop_
  _symmetry_equiv_pos_as_xyz
  'x, y, z'

loop_
  _atom_site_label
  _atom_site_occupancy
  _atom_site_fract_x
  _atom_site_fract_y
  _atom_site_fract_z
  _atom_site_thermal_displace_type
  _atom_site_B_iso_or_equiv
  _atom_site_type_symbol
  Hf1      1.0000 0.13553  0.04872  0.14699  Biso   1.000  Hf
  Hf2      1.0000 0.14688  0.46207  0.39457  Biso   1.000  Hf
  Hf3      1.0000 0.33740  0.55572  0.08680  Biso   1.000  Hf
  Hf4      1.0000 0.35088  0.95374  0.35167  Biso   1.000  Hf
  O1       1.0000 0.02675  0.33768  0.07939  Biso   1.000  O 
  O2       1.0000 0.04352  0.16215  0.32966  Biso   1.000  O 
  O3       1.0000 0.45276  0.85697  0.16392  Biso   1.000  O 
  O4       1.0000 0.47905  0.67204  0.43363  Biso   1.000  O 
  O5       1.0000 0.28987  0.26887  0.24173  Biso   1.000  O 
  O6       1.0000 0.28646  0.24362  0.48915  Biso   1.000  O 
  O7       1.0000 0.20157  0.77493  0.00265  Biso   1.000  O 
  O8       1.0000 0.20557  0.75003  0.25120  Biso   1.000  O 
  Hf5      1.0000 0.15359  0.04213  0.64301  Biso   1.000  Hf
  Hf6      1.0000 0.14593  0.45388  0.89145  Biso   1.000  Hf
  Hf7      1.0000 0.37046  0.54008  0.60414  Biso   1.000  Hf
  Hf8      1.0000 0.36514  0.95745  0.84785  Biso   1.000  Hf
  O9       1.0000 0.04695  0.33128  0.57821  Biso   1.000  O 
  O10      1.0000 0.04833  0.16126  0.82477  Biso   1.000  O 
  O11      1.0000 0.47309  0.82548  0.67365  Biso   1.000  O 
  O12      1.0000 0.47583  0.66999  0.91380  Biso   1.000  O 
  O13      1.0000 0.28899  0.25247  0.73751  Biso   1.000  O 
  O14      1.0000 0.28775  0.24463  0.98331  Biso   1.000  O 
  O15      1.0000 0.22715  0.75362  0.50734  Biso   1.000  O 
  O16      1.0000 0.23027  0.73641  0.75357  Biso   1.000  O 
  Hf9      1.0000 0.64538  0.04322  0.15125  Biso   1.000  Hf
  Hf10     1.0000 0.65885  0.44122  0.41611  Biso   1.000  Hf
  Hf11     1.0000 0.84937  0.53489  0.10833  Biso   1.000  Hf
  Hf12     1.0000 0.86071  0.94823  0.35592  Biso   1.000  Hf
  O17      1.0000 0.51720  0.32490  0.06927  Biso   1.000  O 
  O18      1.0000 0.54350  0.13996  0.33899  Biso   1.000  O 
  O19      1.0000 0.95274  0.83480  0.17324  Biso   1.000  O 
  O20      1.0000 0.96950  0.65927  0.42352  Biso   1.000  O 
  O21      1.0000 0.79069  0.24691  0.25170  Biso   1.000  O 
  O22      1.0000 0.79468  0.22202  0.50026  Biso   1.000  O 
  O23      1.0000 0.70979  0.75334  0.01375  Biso   1.000  O 
  O24      1.0000 0.70641  0.72810  0.26118  Biso   1.000  O 
  Hf13     1.0000 0.65548  0.03388  0.65076  Biso   1.000  Hf
  Hf14     1.0000 0.65017  0.45125  0.89447  Biso   1.000  Hf
  Hf15     1.0000 0.87469  0.53744  0.60714  Biso   1.000  Hf
  Hf16     1.0000 0.86703  0.94918  0.85559  Biso   1.000  Hf
  O25      1.0000 0.54479  0.32134  0.58480  Biso   1.000  O 
  O26      1.0000 0.54752  0.16584  0.82495  Biso   1.000  O 
  O27      1.0000 0.97229  0.83006  0.67383  Biso   1.000  O 
  O28      1.0000 0.97367  0.66004  0.92039  Biso   1.000  O 
  O29      1.0000 0.79035  0.25492  0.74504  Biso   1.000  O 
  O30      1.0000 0.79347  0.23770  0.99126  Biso   1.000  O 
  O31      1.0000 0.73287  0.74669  0.51530  Biso   1.000  O 
  O32      1.0000 0.73162  0.73886  0.76109  Biso   1.000  O 
  Zr1      1.0000 0.49812  0.49845  0.25145  Biso   1.000  Zr
