data_image0
_cell_length_a       5.10543
_cell_length_b       10.2774
_cell_length_c       10.1178
_cell_angle_alpha    90
_cell_angle_beta     90
_cell_angle_gamma    90

_symmetry_space_group_name_H-M    "P 1"
_symmetry_int_tables_number       1

loop_
  _symmetry_equiv_pos_as_xyz
  'x, y, z'

loop_
  _atom_site_label
  _atom_site_occupancy
  _atom_site_fract_x
  _atom_site_fract_y
  _atom_site_fract_z
  _atom_site_thermal_displace_type
  _atom_site_B_iso_or_equiv
  _atom_site_type_symbol
  Hf1      1.0000 0.19875  0.98580  0.09251  Biso   1.000  Hf
  Hf2      1.0000 0.21393  0.24358  0.39133  Biso   1.000  Hf
  Hf3      1.0000 0.66686  0.26731  0.12341  Biso   1.000  Hf
  Hf4      1.0000 0.69059  0.49461  0.36555  Biso   1.000  Hf
  O1       1.0000 0.89403  0.18115  0.26790  Biso   1.000  O 
  O2       1.0000 0.03098  0.08263  0.47440  Biso   1.000  O 
  O3       1.0000 0.90454  0.43002  0.20349  Biso   1.000  O 
  O4       1.0000 0.92356  0.35034  0.47909  Biso   1.000  O 
  O5       1.0000 0.41405  0.12102  0.24290  Biso   1.000  O 
  O6       1.0000 0.51792  0.14992  0.49736  Biso   1.000  O 
  O7       1.0000 0.43507  0.39889  0.49613  Biso   1.000  O 
  O8       1.0000 0.41177  0.37830  0.24779  Biso   1.000  O 
  Hf5      1.0000 0.26910  0.02154  0.61863  Biso   1.000  Hf
  Hf6      1.0000 0.16874  0.27606  0.85048  Biso   1.000  Hf
  Hf7      1.0000 0.68454  0.28334  0.62751  Biso   1.000  Hf
  Hf8      1.0000 0.65591  0.51826  0.87582  Biso   1.000  Hf
  O9       1.0000 0.95925  0.16463  0.71851  Biso   1.000  O 
  O10      1.0000 0.92812  0.13536  0.98580  Biso   1.000  O 
  O11      1.0000 0.92557  0.42851  0.72605  Biso   1.000  O 
  O12      1.0000 0.85263  0.36704  0.96093  Biso   1.000  O 
  O13      1.0000 0.46460  0.13794  0.75048  Biso   1.000  O 
  O14      1.0000 0.39909  0.18071  0.99580  Biso   1.000  O 
  O15      1.0000 0.36586  0.42697  0.99248  Biso   1.000  O 
  O16      1.0000 0.43099  0.38935  0.74284  Biso   1.000  O 
  Hf9      1.0000 0.22698  0.53448  0.11790  Biso   1.000  Hf
  Hf10     1.0000 0.20555  0.75284  0.36858  Biso   1.000  Hf
  Hf11     1.0000 0.69359  0.77337  0.11862  Biso   1.000  Hf
  Hf12     1.0000 0.73050  0.01284  0.35490  Biso   1.000  Hf
  O17      1.0000 0.01539  0.68850  0.19911  Biso   1.000  O 
  O18      1.0000 0.00330  0.58989  0.44527  Biso   1.000  O 
  O19      1.0000 0.88193  0.93575  0.20486  Biso   1.000  O 
  O20      1.0000 0.87890  0.84051  0.44668  Biso   1.000  O 
  O21      1.0000 0.50112  0.62742  0.23997  Biso   1.000  O 
  O22      1.0000 0.47396  0.64856  0.48714  Biso   1.000  O 
  O23      1.0000 0.39957  0.90124  0.48514  Biso   1.000  O 
  O24      1.0000 0.41564  0.87026  0.23359  Biso   1.000  O 
  Hf13     1.0000 0.20371  0.52590  0.61349  Biso   1.000  Hf
  Hf14     1.0000 0.18202  0.77037  0.85136  Biso   1.000  Hf
  Hf15     1.0000 0.67685  0.77542  0.60761  Biso   1.000  Hf
  Hf16     1.0000 0.69011  0.02049  0.85081  Biso   1.000  Hf
  O25      1.0000 0.99302  0.68423  0.68913  Biso   1.000  O 
  O26      1.0000 0.97293  0.62034  0.94498  Biso   1.000  O 
  O27      1.0000 0.93243  0.91716  0.72433  Biso   1.000  O 
  O28      1.0000 0.92144  0.87694  0.97028  Biso   1.000  O 
  O29      1.0000 0.46387  0.63357  0.73475  Biso   1.000  O 
  O30      1.0000 0.45498  0.67771  0.98391  Biso   1.000  O 
  O31      1.0000 0.42338  0.92540  0.97502  Biso   1.000  O 
  O32      1.0000 0.44133  0.88423  0.73072  Biso   1.000  O 
  Zr1      1.0000 0.16772  0.25665  0.11707  Biso   1.000  Zr
