data_image0
_cell_length_a       10.2214
_cell_length_b       10.3028
_cell_length_c       5.32117
_cell_angle_alpha    90
_cell_angle_beta     80
_cell_angle_gamma    90

_symmetry_space_group_name_H-M    "P 1"
_symmetry_int_tables_number       1

loop_
  _symmetry_equiv_pos_as_xyz
  'x, y, z'

loop_
  _atom_site_label
  _atom_site_occupancy
  _atom_site_fract_x
  _atom_site_fract_y
  _atom_site_fract_z
  _atom_site_thermal_displace_type
  _atom_site_B_iso_or_equiv
  _atom_site_type_symbol
  Hf1      1.0000 0.13230  0.01646  0.29638  Biso   1.000  Hf
  Hf2      1.0000 0.13851  0.22492  0.77270  Biso   1.000  Hf
  Hf3      1.0000 0.35137  0.27832  0.15596  Biso   1.000  Hf
  Hf4      1.0000 0.36813  0.49299  0.69724  Biso   1.000  Hf
  O1       1.0000 0.04049  0.16230  0.14416  Biso   1.000  O 
  O2       1.0000 0.03362  0.08103  0.65042  Biso   1.000  O 
  O3       1.0000 0.47752  0.41144  0.35278  Biso   1.000  O 
  O4       1.0000 0.48994  0.35724  0.85202  Biso   1.000  O 
  O5       1.0000 0.27593  0.11858  0.43907  Biso   1.000  O 
  O6       1.0000 0.29832  0.13144  0.91149  Biso   1.000  O 
  O7       1.0000 0.22601  0.38854  0.99136  Biso   1.000  O 
  O8       1.0000 0.24510  0.36217  0.50218  Biso   1.000  O 
  Hf5      1.0000 0.14179  0.52356  0.28861  Biso   1.000  Hf
  Hf6      1.0000 0.14464  0.72732  0.79444  Biso   1.000  Hf
  Hf7      1.0000 0.36693  0.77076  0.20837  Biso   1.000  Hf
  Hf8      1.0000 0.37422  0.96149  0.70165  Biso   1.000  Hf
  O9       1.0000 0.03310  0.66155  0.15385  Biso   1.000  O 
  O10      1.0000 0.04295  0.58540  0.65082  Biso   1.000  O 
  O11      1.0000 0.47688  0.90981  0.35165  Biso   1.000  O 
  O12      1.0000 0.47932  0.82729  0.85422  Biso   1.000  O 
  O13      1.0000 0.28212  0.62602  0.47551  Biso   1.000  O 
  O14      1.0000 0.28593  0.62787  0.97972  Biso   1.000  O 
  O15      1.0000 0.22701  0.88286  0.02298  Biso   1.000  O 
  O16      1.0000 0.22969  0.86389  0.51891  Biso   1.000  O 
  Hf9      1.0000 0.63967  0.02467  0.31034  Biso   1.000  Hf
  Hf10     1.0000 0.65578  0.22827  0.81065  Biso   1.000  Hf
  Hf11     1.0000 0.86508  0.27044  0.22405  Biso   1.000  Hf
  Hf12     1.0000 0.87230  0.47683  0.71596  Biso   1.000  Hf
  O17      1.0000 0.52336  0.16822  0.17430  Biso   1.000  O 
  O18      1.0000 0.54840  0.06595  0.68982  Biso   1.000  O 
  O19      1.0000 0.97867  0.40842  0.35891  Biso   1.000  O 
  O20      1.0000 0.97456  0.33498  0.85638  Biso   1.000  O 
  O21      1.0000 0.78758  0.12608  0.49555  Biso   1.000  O 
  O22      1.0000 0.77757  0.12063  0.00587  Biso   1.000  O 
  O23      1.0000 0.72914  0.37732  0.03966  Biso   1.000  O 
  O24      1.0000 0.73956  0.37325  0.53572  Biso   1.000  O 
  Hf13     1.0000 0.64517  0.52122  0.29963  Biso   1.000  Hf
  Hf14     1.0000 0.65166  0.72492  0.79845  Biso   1.000  Hf
  Hf15     1.0000 0.86263  0.77165  0.21774  Biso   1.000  Hf
  Hf16     1.0000 0.86586  0.97525  0.72005  Biso   1.000  Hf
  O25      1.0000 0.53603  0.65983  0.15454  Biso   1.000  O 
  O26      1.0000 0.54208  0.59193  0.64632  Biso   1.000  O 
  O27      1.0000 0.97167  0.90696  0.36376  Biso   1.000  O 
  O28      1.0000 0.97761  0.83612  0.85938  Biso   1.000  O 
  O29      1.0000 0.78500  0.62694  0.48622  Biso   1.000  O 
  O30      1.0000 0.78860  0.61884  0.98419  Biso   1.000  O 
  O31      1.0000 0.72524  0.87835  0.03408  Biso   1.000  O 
  O32      1.0000 0.73132  0.86964  0.52871  Biso   1.000  O 
  Zr1      1.0000 0.42880  0.22838  0.57929  Biso   1.000  Zr
