data_image0
_cell_length_a       5.11931
_cell_length_b       10.0934
_cell_length_c       10.0934
_cell_angle_alpha    90
_cell_angle_beta     90
_cell_angle_gamma    90

_symmetry_space_group_name_H-M    "P 1"
_symmetry_int_tables_number       1

loop_
  _symmetry_equiv_pos_as_xyz
  'x, y, z'

loop_
  _atom_site_label
  _atom_site_occupancy
  _atom_site_fract_x
  _atom_site_fract_y
  _atom_site_fract_z
  _atom_site_thermal_displace_type
  _atom_site_B_iso_or_equiv
  _atom_site_type_symbol
  Hf1      1.0000 0.24982  0.98168  0.12491  Biso   1.000  Hf
  Hf2      1.0000 0.24982  0.25005  0.39328  Biso   1.000  Hf
  Hf3      1.0000 0.74982  0.25005  0.12491  Biso   1.000  Hf
  Hf4      1.0000 0.74918  0.00299  0.37197  Biso   1.000  Hf
  O1       1.0000 0.97630  0.12793  0.00279  Biso   1.000  O 
  O2       1.0000 0.02714  0.11754  0.25743  Biso   1.000  O 
  O3       1.0000 0.97630  0.37217  0.24702  Biso   1.000  O 
  O4       1.0000 0.02714  0.38257  0.99239  Biso   1.000  O 
  O5       1.0000 0.52334  0.12793  0.24702  Biso   1.000  O 
  O6       1.0000 0.47249  0.11754  0.99239  Biso   1.000  O 
  O7       1.0000 0.52334  0.37217  0.00279  Biso   1.000  O 
  O8       1.0000 0.47249  0.38257  0.25743  Biso   1.000  O 
  Hf5      1.0000 0.24981  0.99583  0.62491  Biso   1.000  Hf
  Hf6      1.0000 0.24982  0.25005  0.85654  Biso   1.000  Hf
  Hf7      1.0000 0.74982  0.25005  0.62491  Biso   1.000  Hf
  Hf8      1.0000 0.75045  0.00299  0.87784  Biso   1.000  Hf
  O9       1.0000 0.96522  0.13189  0.50422  Biso   1.000  O 
  O10      1.0000 0.03082  0.11317  0.75304  Biso   1.000  O 
  O11      1.0000 0.96522  0.36821  0.74559  Biso   1.000  O 
  O12      1.0000 0.03082  0.38693  0.49678  Biso   1.000  O 
  O13      1.0000 0.53442  0.13189  0.74559  Biso   1.000  O 
  O14      1.0000 0.46882  0.11317  0.49678  Biso   1.000  O 
  O15      1.0000 0.53442  0.36821  0.50422  Biso   1.000  O 
  O16      1.0000 0.46881  0.38693  0.75304  Biso   1.000  O 
  Hf9      1.0000 0.24982  0.51843  0.12491  Biso   1.000  Hf
  Hf10     1.0000 0.24982  0.75005  0.37912  Biso   1.000  Hf
  Hf11     1.0000 0.74982  0.75005  0.12491  Biso   1.000  Hf
  Hf12     1.0000 0.75046  0.49711  0.37197  Biso   1.000  Hf
  O17      1.0000 0.96521  0.62936  0.00675  Biso   1.000  O 
  O18      1.0000 0.03082  0.62193  0.26179  Biso   1.000  O 
  O19      1.0000 0.96521  0.87075  0.24306  Biso   1.000  O 
  O20      1.0000 0.03082  0.87818  0.98803  Biso   1.000  O 
  O21      1.0000 0.53442  0.62936  0.24306  Biso   1.000  O 
  O22      1.0000 0.46880  0.62193  0.98803  Biso   1.000  O 
  O23      1.0000 0.53442  0.87075  0.00675  Biso   1.000  O 
  O24      1.0000 0.46881  0.87818  0.26179  Biso   1.000  O 
  Hf13     1.0000 0.24982  0.50427  0.62491  Biso   1.000  Hf
  Hf14     1.0000 0.24980  0.75005  0.87069  Biso   1.000  Hf
  Hf15     1.0000 0.74982  0.75005  0.62491  Biso   1.000  Hf
  Hf16     1.0000 0.74918  0.49711  0.87784  Biso   1.000  Hf
  O25      1.0000 0.96290  0.63159  0.50644  Biso   1.000  O 
  O26      1.0000 0.03936  0.61493  0.76004  Biso   1.000  O 
  O27      1.0000 0.96289  0.86852  0.74337  Biso   1.000  O 
  O28      1.0000 0.03936  0.88518  0.48978  Biso   1.000  O 
  O29      1.0000 0.53674  0.63159  0.74337  Biso   1.000  O 
  O30      1.0000 0.46027  0.61493  0.48978  Biso   1.000  O 
  O31      1.0000 0.53674  0.86852  0.50644  Biso   1.000  O 
  O32      1.0000 0.46026  0.88518  0.76004  Biso   1.000  O 
  Zr1      1.0000 0.24982  0.25005  0.12491  Biso   1.000  Zr
