data_image0
_cell_length_a       9.96078
_cell_length_b       10.368
_cell_length_c       5.00016
_cell_angle_alpha    90
_cell_angle_beta     90
_cell_angle_gamma    90

_symmetry_space_group_name_H-M    "P 1"
_symmetry_int_tables_number       1

loop_
  _symmetry_equiv_pos_as_xyz
  'x, y, z'

loop_
  _atom_site_label
  _atom_site_occupancy
  _atom_site_fract_x
  _atom_site_fract_y
  _atom_site_fract_z
  _atom_site_thermal_displace_type
  _atom_site_B_iso_or_equiv
  _atom_site_type_symbol
  Zr1      1.0000 0.13338  0.01587  0.25234  Biso   1.000  Zr
  Hf1      1.0000 0.13384  0.23373  0.75181  Biso   1.000  Hf
  Hf2      1.0000 0.36586  0.26633  0.25184  Biso   1.000  Hf
  Hf3      1.0000 0.36578  0.48336  0.75202  Biso   1.000  Hf
  O1       1.0000 0.03626  0.18539  0.38766  Biso   1.000  O 
  O2       1.0000 0.03613  0.06590  0.88449  Biso   1.000  O 
  O3       1.0000 0.46346  0.43424  0.38827  Biso   1.000  O 
  O4       1.0000 0.46339  0.31553  0.88812  Biso   1.000  O 
  O5       1.0000 0.27105  0.11812  0.49986  Biso   1.000  O 
  O6       1.0000 0.27078  0.13243  0.99860  Biso   1.000  O 
  O7       1.0000 0.22911  0.38224  0.99967  Biso   1.000  O 
  O8       1.0000 0.22920  0.36773  0.49944  Biso   1.000  O 
  Hf4      1.0000 0.13385  0.51638  0.25209  Biso   1.000  Hf
  Hf5      1.0000 0.13384  0.73323  0.75235  Biso   1.000  Hf
  Hf6      1.0000 0.36615  0.76619  0.25189  Biso   1.000  Hf
  Hf7      1.0000 0.36601  0.98340  0.75180  Biso   1.000  Hf
  O9       1.0000 0.03636  0.68461  0.38833  Biso   1.000  O 
  O10      1.0000 0.03613  0.56561  0.88832  Biso   1.000  O 
  O11      1.0000 0.46343  0.93437  0.38798  Biso   1.000  O 
  O12      1.0000 0.46378  0.81556  0.88859  Biso   1.000  O 
  O13      1.0000 0.27043  0.61740  0.49968  Biso   1.000  O 
  O14      1.0000 0.27039  0.63196  0.99979  Biso   1.000  O 
  O15      1.0000 0.22997  0.88159  0.99875  Biso   1.000  O 
  O16      1.0000 0.23001  0.86684  0.50047  Biso   1.000  O 
  Hf8      1.0000 0.63389  0.01644  0.25231  Biso   1.000  Hf
  Hf9      1.0000 0.63375  0.23347  0.75205  Biso   1.000  Hf
  Hf10     1.0000 0.86572  0.26669  0.25210  Biso   1.000  Hf
  Hf11     1.0000 0.86577  0.48341  0.75223  Biso   1.000  Hf
  O17      1.0000 0.53645  0.18437  0.38800  Biso   1.000  O 
  O18      1.0000 0.53650  0.06542  0.88804  Biso   1.000  O 
  O19      1.0000 0.96323  0.43474  0.38830  Biso   1.000  O 
  O20      1.0000 0.96330  0.31574  0.88851  Biso   1.000  O 
  O21      1.0000 0.77052  0.11771  0.49997  Biso   1.000  O 
  O22      1.0000 0.77068  0.13230  0.00002  Biso   1.000  O 
  O23      1.0000 0.72901  0.38215  0.99975  Biso   1.000  O 
  O24      1.0000 0.72914  0.36771  0.49990  Biso   1.000  O 
  Hf12     1.0000 0.63379  0.51627  0.25217  Biso   1.000  Hf
  Hf13     1.0000 0.63373  0.73330  0.75239  Biso   1.000  Hf
  Hf14     1.0000 0.86553  0.76610  0.25250  Biso   1.000  Hf
  Hf15     1.0000 0.86512  0.98337  0.75284  Biso   1.000  Hf
  O25      1.0000 0.53639  0.68416  0.38847  Biso   1.000  O 
  O26      1.0000 0.53614  0.56544  0.88846  Biso   1.000  O 
  O27      1.0000 0.96211  0.93438  0.38912  Biso   1.000  O 
  O28      1.0000 0.96369  0.81590  0.88956  Biso   1.000  O 
  O29      1.0000 0.77046  0.61760  0.49985  Biso   1.000  O 
  O30      1.0000 0.77036  0.63202  0.99983  Biso   1.000  O 
  O31      1.0000 0.72934  0.88206  0.00060  Biso   1.000  O 
  O32      1.0000 0.72881  0.86755  0.50045  Biso   1.000  O 
