data_image0
_cell_length_a       10.1742
_cell_length_b       10.2946
_cell_length_c       10.5335
_cell_angle_alpha    90
_cell_angle_beta     80
_cell_angle_gamma    90

_symmetry_space_group_name_H-M    "P 1"
_symmetry_int_tables_number       1

loop_
  _symmetry_equiv_pos_as_xyz
  'x, y, z'

loop_
  _atom_site_label
  _atom_site_occupancy
  _atom_site_fract_x
  _atom_site_fract_y
  _atom_site_fract_z
  _atom_site_thermal_displace_type
  _atom_site_B_iso_or_equiv
  _atom_site_type_symbol
  Hf1      1.0000 0.13485  0.01982  0.14418  Biso   1.000  Hf
  Hf2      1.0000 0.14037  0.22534  0.39227  Biso   1.000  Hf
  Hf3      1.0000 0.34674  0.27224  0.07615  Biso   1.000  Hf
  Hf4      1.0000 0.36538  0.48977  0.35411  Biso   1.000  Hf
  O1       1.0000 0.03310  0.16649  0.07517  Biso   1.000  O 
  O2       1.0000 0.03595  0.08046  0.32731  Biso   1.000  O 
  O3       1.0000 0.47395  0.41081  0.17529  Biso   1.000  O 
  O4       1.0000 0.48478  0.35280  0.43224  Biso   1.000  O 
  O5       1.0000 0.27566  0.11646  0.22982  Biso   1.000  O 
  O6       1.0000 0.30024  0.13178  0.46891  Biso   1.000  O 
  O7       1.0000 0.22179  0.38605  0.99630  Biso   1.000  O 
  O8       1.0000 0.24186  0.36167  0.25286  Biso   1.000  O 
  Hf5      1.0000 0.14162  0.01829  0.64611  Biso   1.000  Hf
  Hf6      1.0000 0.14060  0.22763  0.88785  Biso   1.000  Hf
  Hf7      1.0000 0.36920  0.27493  0.60449  Biso   1.000  Hf
  Hf8      1.0000 0.36768  0.48317  0.84836  Biso   1.000  Hf
  O9       1.0000 0.04726  0.16610  0.57674  Biso   1.000  O 
  O10      1.0000 0.03782  0.08103  0.82612  Biso   1.000  O 
  O11      1.0000 0.47359  0.41855  0.67268  Biso   1.000  O 
  O12      1.0000 0.47603  0.33851  0.91420  Biso   1.000  O 
  O13      1.0000 0.28023  0.12725  0.73140  Biso   1.000  O 
  O14      1.0000 0.27735  0.11975  0.97762  Biso   1.000  O 
  O15      1.0000 0.23255  0.38170  0.50701  Biso   1.000  O 
  O16      1.0000 0.23178  0.37057  0.75450  Biso   1.000  O 
  Hf9      1.0000 0.14091  0.52258  0.14492  Biso   1.000  Hf
  Hf10     1.0000 0.14128  0.72803  0.39653  Biso   1.000  Hf
  Hf11     1.0000 0.36291  0.77084  0.10267  Biso   1.000  Hf
  Hf12     1.0000 0.36734  0.96396  0.35126  Biso   1.000  Hf
  O17      1.0000 0.03585  0.66577  0.07850  Biso   1.000  O 
  O18      1.0000 0.04156  0.58240  0.32772  Biso   1.000  O 
  O19      1.0000 0.47147  0.91182  0.17365  Biso   1.000  O 
  O20      1.0000 0.47037  0.82418  0.42428  Biso   1.000  O 
  O21      1.0000 0.28119  0.62611  0.23923  Biso   1.000  O 
  O22      1.0000 0.27888  0.62604  0.49231  Biso   1.000  O 
  O23      1.0000 0.22557  0.87916  0.00875  Biso   1.000  O 
  O24      1.0000 0.22441  0.86354  0.25725  Biso   1.000  O 
  Hf13     1.0000 0.14479  0.52144  0.64441  Biso   1.000  Hf
  Hf14     1.0000 0.14658  0.72766  0.89571  Biso   1.000  Hf
  Hf15     1.0000 0.36998  0.77078  0.60429  Biso   1.000  Hf
  Hf16     1.0000 0.37157  0.97580  0.85081  Biso   1.000  Hf
  O25      1.0000 0.03802  0.66515  0.57861  Biso   1.000  O 
  O26      1.0000 0.04285  0.58210  0.82795  Biso   1.000  O 
  O27      1.0000 0.47476  0.91664  0.67103  Biso   1.000  O 
  O28      1.0000 0.47690  0.83399  0.92141  Biso   1.000  O 
  O29      1.0000 0.28288  0.62813  0.73886  Biso   1.000  O 
  O30      1.0000 0.28766  0.62327  0.98839  Biso   1.000  O 
  O31      1.0000 0.22956  0.88137  0.50986  Biso   1.000  O 
  O32      1.0000 0.23248  0.86991  0.75900  Biso   1.000  O 
  Hf17     1.0000 0.63804  0.02443  0.15378  Biso   1.000  Hf
  Hf18     1.0000 0.65587  0.22827  0.40270  Biso   1.000  Hf
  Hf19     1.0000 0.86031  0.27179  0.10815  Biso   1.000  Hf
  Hf20     1.0000 0.86836  0.47844  0.35642  Biso   1.000  Hf
  O33      1.0000 0.51879  0.16575  0.08439  Biso   1.000  O 
  O34      1.0000 0.54739  0.06416  0.34580  Biso   1.000  O 
  O35      1.0000 0.97282  0.41369  0.17399  Biso   1.000  O 
  O36      1.0000 0.97250  0.33410  0.42458  Biso   1.000  O 
  O37      1.0000 0.78692  0.12662  0.24412  Biso   1.000  O 
  O38      1.0000 0.78984  0.11747  0.49773  Biso   1.000  O 
  O39      1.0000 0.72172  0.37825  0.01356  Biso   1.000  O 
  O40      1.0000 0.73526  0.37503  0.26454  Biso   1.000  O 
  Hf21     1.0000 0.64454  0.02275  0.64752  Biso   1.000  Hf
  Hf22     1.0000 0.64621  0.22847  0.89860  Biso   1.000  Hf
  Hf23     1.0000 0.86998  0.27036  0.60761  Biso   1.000  Hf
  Hf24     1.0000 0.86904  0.47791  0.85517  Biso   1.000  Hf
  O41      1.0000 0.54336  0.17015  0.58161  Biso   1.000  O 
  O42      1.0000 0.53976  0.08429  0.82941  Biso   1.000  O 
  O43      1.0000 0.97380  0.41517  0.67346  Biso   1.000  O 
  O44      1.0000 0.96949  0.33089  0.92095  Biso   1.000  O 
  O45      1.0000 0.78231  0.12869  0.74486  Biso   1.000  O 
  O46      1.0000 0.77983  0.12161  0.99473  Biso   1.000  O 
  O47      1.0000 0.73589  0.37833  0.51531  Biso   1.000  O 
  O48      1.0000 0.73189  0.36999  0.76291  Biso   1.000  O 
  Hf25     1.0000 0.64159  0.52114  0.14860  Biso   1.000  Hf
  Hf26     1.0000 0.64670  0.72748  0.39760  Biso   1.000  Hf
  Hf27     1.0000 0.86155  0.77156  0.10619  Biso   1.000  Hf
  Hf28     1.0000 0.86439  0.97702  0.35603  Biso   1.000  Hf
  O49      1.0000 0.53499  0.66386  0.07763  Biso   1.000  O 
  O50      1.0000 0.53994  0.58788  0.32635  Biso   1.000  O 
  O51      1.0000 0.96801  0.91286  0.17420  Biso   1.000  O 
  O52      1.0000 0.97044  0.83278  0.42462  Biso   1.000  O 
  O53      1.0000 0.78233  0.62840  0.24193  Biso   1.000  O 
  O54      1.0000 0.78258  0.62071  0.49190  Biso   1.000  O 
  O55      1.0000 0.72443  0.88012  0.01361  Biso   1.000  O 
  O56      1.0000 0.72775  0.86968  0.26130  Biso   1.000  O 
  Hf29     1.0000 0.64701  0.52156  0.64753  Biso   1.000  Hf
  Hf30     1.0000 0.64832  0.72712  0.89731  Biso   1.000  Hf
  Hf31     1.0000 0.86694  0.77161  0.60575  Biso   1.000  Hf
  Hf32     1.0000 0.86718  0.97689  0.85713  Biso   1.000  Hf
  O57      1.0000 0.54147  0.66488  0.57975  Biso   1.000  O 
  O58      1.0000 0.54202  0.58578  0.82696  Biso   1.000  O 
  O59      1.0000 0.97283  0.91473  0.67473  Biso   1.000  O 
  O60      1.0000 0.97540  0.83308  0.92250  Biso   1.000  O 
  O61      1.0000 0.78401  0.62811  0.74146  Biso   1.000  O 
  O62      1.0000 0.78688  0.62014  0.99043  Biso   1.000  O 
  O63      1.0000 0.72900  0.87732  0.51241  Biso   1.000  O 
  O64      1.0000 0.73191  0.87142  0.76191  Biso   1.000  O 
  Zr1      1.0000 0.42976  0.22840  0.29121  Biso   1.000  Zr
