data_image0
_cell_length_a       10.0371
_cell_length_b       10.3778
_cell_length_c       10.0753
_cell_angle_alpha    90
_cell_angle_beta     90
_cell_angle_gamma    90

_symmetry_space_group_name_H-M    "P 1"
_symmetry_int_tables_number       1

loop_
  _symmetry_equiv_pos_as_xyz
  'x, y, z'

loop_
  _atom_site_label
  _atom_site_occupancy
  _atom_site_fract_x
  _atom_site_fract_y
  _atom_site_fract_z
  _atom_site_thermal_displace_type
  _atom_site_B_iso_or_equiv
  _atom_site_type_symbol
  Hf1      1.0000 0.13167  0.99710  0.12205  Biso   1.000  Hf
  Hf2      1.0000 0.12788  0.23071  0.38661  Biso   1.000  Hf
  Hf3      1.0000 0.38208  0.27214  0.11604  Biso   1.000  Hf
  Hf4      1.0000 0.36760  0.48572  0.37302  Biso   1.000  Hf
  O1       1.0000 0.98662  0.15326  0.24512  Biso   1.000  O 
  O2       1.0000 0.03414  0.06455  0.46270  Biso   1.000  O 
  O3       1.0000 0.47111  0.43662  0.19534  Biso   1.000  O 
  O4       1.0000 0.46675  0.32044  0.44512  Biso   1.000  O 
  O5       1.0000 0.24667  0.11994  0.24350  Biso   1.000  O 
  O6       1.0000 0.27272  0.13267  0.49762  Biso   1.000  O 
  O7       1.0000 0.23252  0.38580  0.49667  Biso   1.000  O 
  O8       1.0000 0.23749  0.37018  0.24583  Biso   1.000  O 
  Hf5      1.0000 0.13448  0.01147  0.62756  Biso   1.000  Hf
  Hf6      1.0000 0.13615  0.23912  0.85227  Biso   1.000  Hf
  Hf7      1.0000 0.37175  0.26824  0.61935  Biso   1.000  Hf
  Hf8      1.0000 0.36927  0.48861  0.87013  Biso   1.000  Hf
  O9       1.0000 0.02904  0.17648  0.69409  Biso   1.000  O 
  O10      1.0000 0.02486  0.07985  0.95989  Biso   1.000  O 
  O11      1.0000 0.46995  0.43535  0.69319  Biso   1.000  O 
  O12      1.0000 0.46948  0.32279  0.93992  Biso   1.000  O 
  O13      1.0000 0.26995  0.11748  0.74435  Biso   1.000  O 
  O14      1.0000 0.26239  0.13976  0.99440  Biso   1.000  O 
  O15      1.0000 0.23389  0.39009  0.99133  Biso   1.000  O 
  O16      1.0000 0.23841  0.37070  0.74099  Biso   1.000  O 
  Hf9      1.0000 0.13948  0.52471  0.12294  Biso   1.000  Hf
  Hf10     1.0000 0.13482  0.73426  0.37632  Biso   1.000  Hf
  Hf11     1.0000 0.37176  0.76509  0.12381  Biso   1.000  Hf
  Hf12     1.0000 0.36578  0.98803  0.37148  Biso   1.000  Hf
  O17      1.0000 0.03269  0.67778  0.20251  Biso   1.000  O 
  O18      1.0000 0.03513  0.56891  0.44762  Biso   1.000  O 
  O19      1.0000 0.46186  0.93529  0.19386  Biso   1.000  O 
  O20      1.0000 0.46901  0.82213  0.44452  Biso   1.000  O 
  O21      1.0000 0.27584  0.62033  0.24740  Biso   1.000  O 
  O22      1.0000 0.27128  0.63492  0.49739  Biso   1.000  O 
  O23      1.0000 0.23515  0.88469  0.49742  Biso   1.000  O 
  O24      1.0000 0.23496  0.86246  0.24926  Biso   1.000  O 
  Hf13     1.0000 0.13448  0.51713  0.62289  Biso   1.000  Hf
  Hf14     1.0000 0.13358  0.73538  0.87140  Biso   1.000  Hf
  Hf15     1.0000 0.37077  0.76812  0.62211  Biso   1.000  Hf
  Hf16     1.0000 0.36818  0.98661  0.87480  Biso   1.000  Hf
  O25      1.0000 0.03601  0.68279  0.69468  Biso   1.000  O 
  O26      1.0000 0.03334  0.57293  0.94771  Biso   1.000  O 
  O27      1.0000 0.46968  0.93468  0.69721  Biso   1.000  O 
  O28      1.0000 0.47094  0.82221  0.94725  Biso   1.000  O 
  O29      1.0000 0.27067  0.61822  0.74543  Biso   1.000  O 
  O30      1.0000 0.27095  0.63826  0.99487  Biso   1.000  O 
  O31      1.0000 0.23460  0.88324  0.99535  Biso   1.000  O 
  O32      1.0000 0.23680  0.86581  0.74813  Biso   1.000  O 
  Hf17     1.0000 0.62755  0.00990  0.12248  Biso   1.000  Hf
  Hf18     1.0000 0.63094  0.23161  0.37697  Biso   1.000  Hf
  Hf19     1.0000 0.84657  0.25931  0.12842  Biso   1.000  Hf
  Hf20     1.0000 0.86969  0.48118  0.37482  Biso   1.000  Hf
  O33      1.0000 0.52891  0.17758  0.20235  Biso   1.000  O 
  O34      1.0000 0.53036  0.06828  0.44873  Biso   1.000  O 
  O35      1.0000 0.97489  0.41562  0.20148  Biso   1.000  O 
  O36      1.0000 0.96746  0.32373  0.45938  Biso   1.000  O 
  O37      1.0000 0.74959  0.10910  0.24918  Biso   1.000  O 
  O38      1.0000 0.76946  0.13725  0.49754  Biso   1.000  O 
  O39      1.0000 0.73187  0.38552  0.50008  Biso   1.000  O 
  O40      1.0000 0.72757  0.36803  0.25297  Biso   1.000  O 
  Hf21     1.0000 0.63397  0.01504  0.62259  Biso   1.000  Hf
  Hf22     1.0000 0.63395  0.23406  0.87106  Biso   1.000  Hf
  Hf23     1.0000 0.86351  0.26743  0.62662  Biso   1.000  Hf
  Hf24     1.0000 0.86793  0.48294  0.87792  Biso   1.000  Hf
  O41      1.0000 0.53716  0.18478  0.69355  Biso   1.000  O 
  O42      1.0000 0.52802  0.07330  0.94686  Biso   1.000  O 
  O43      1.0000 0.97316  0.42886  0.70594  Biso   1.000  O 
  O44      1.0000 0.96594  0.31993  0.95259  Biso   1.000  O 
  O45      1.0000 0.76915  0.11586  0.74839  Biso   1.000  O 
  O46      1.0000 0.76198  0.13049  0.99758  Biso   1.000  O 
  O47      1.0000 0.72582  0.38347  0.99946  Biso   1.000  O 
  O48      1.0000 0.73277  0.36883  0.75011  Biso   1.000  O 
  Hf25     1.0000 0.63647  0.51887  0.12448  Biso   1.000  Hf
  Hf26     1.0000 0.63709  0.73678  0.37567  Biso   1.000  Hf
  Hf27     1.0000 0.86617  0.76156  0.12631  Biso   1.000  Hf
  Hf28     1.0000 0.87791  0.99319  0.36723  Biso   1.000  Hf
  O49      1.0000 0.54008  0.68599  0.19503  Biso   1.000  O 
  O50      1.0000 0.53572  0.57054  0.44531  Biso   1.000  O 
  O51      1.0000 0.96644  0.91970  0.19880  Biso   1.000  O 
  O52      1.0000 0.97047  0.82167  0.44849  Biso   1.000  O 
  O53      1.0000 0.77312  0.61399  0.24795  Biso   1.000  O 
  O54      1.0000 0.77219  0.63565  0.49740  Biso   1.000  O 
  O55      1.0000 0.73681  0.88794  0.49566  Biso   1.000  O 
  O56      1.0000 0.73105  0.86375  0.24578  Biso   1.000  O 
  Hf29     1.0000 0.63691  0.51920  0.62331  Biso   1.000  Hf
  Hf30     1.0000 0.63617  0.73565  0.87280  Biso   1.000  Hf
  Hf31     1.0000 0.86902  0.76896  0.62266  Biso   1.000  Hf
  Hf32     1.0000 0.87015  0.98500  0.87752  Biso   1.000  Hf
  O57      1.0000 0.53749  0.68544  0.69507  Biso   1.000  O 
  O58      1.0000 0.53479  0.57180  0.94575  Biso   1.000  O 
  O59      1.0000 0.97371  0.92876  0.70685  Biso   1.000  O 
  O60      1.0000 0.97271  0.82279  0.95394  Biso   1.000  O 
  O61      1.0000 0.77294  0.61726  0.74764  Biso   1.000  O 
  O62      1.0000 0.77015  0.63317  0.99665  Biso   1.000  O 
  O63      1.0000 0.73330  0.88278  0.99666  Biso   1.000  O 
  O64      1.0000 0.73442  0.86772  0.74704  Biso   1.000  O 
  Zr1      1.0000 0.11408  0.25745  0.11294  Biso   1.000  Zr
