data_image0
_cell_length_a       10.0646
_cell_length_b       10.2849
_cell_length_c       5.30675
_cell_angle_alpha    90
_cell_angle_beta     90
_cell_angle_gamma    90

_symmetry_space_group_name_H-M    "P 1"
_symmetry_int_tables_number       1

loop_
  _symmetry_equiv_pos_as_xyz
  'x, y, z'

loop_
  _atom_site_label
  _atom_site_occupancy
  _atom_site_fract_x
  _atom_site_fract_y
  _atom_site_fract_z
  _atom_site_thermal_displace_type
  _atom_site_B_iso_or_equiv
  _atom_site_type_symbol
  Hf1      1.0000 0.13431  0.02086  0.35543  Biso   1.000  Hf
  Hf2      1.0000 0.13257  0.22914  0.85763  Biso   1.000  Hf
  Hf3      1.0000 0.35059  0.27142  0.36797  Biso   1.000  Hf
  Hf4      1.0000 0.35069  0.47748  0.86509  Biso   1.000  Hf
  Hf5      1.0000 0.64034  0.00523  0.15188  Biso   1.000  Hf
  Hf6      1.0000 0.64225  0.22362  0.60361  Biso   1.000  Hf
  Hf7      1.0000 0.86846  0.27326  0.13840  Biso   1.000  Hf
  Hf8      1.0000 0.85645  0.48249  0.64947  Biso   1.000  Hf
  O1       1.0000 0.02914  0.15796  0.16170  Biso   1.000  O 
  O2       1.0000 0.02309  0.09103  0.66612  Biso   1.000  O 
  O3       1.0000 0.46009  0.43440  0.20809  Biso   1.000  O 
  O4       1.0000 0.47211  0.33387  0.68029  Biso   1.000  O 
  O5       1.0000 0.26636  0.12511  0.60666  Biso   1.000  O 
  O6       1.0000 0.27023  0.11938  0.11010  Biso   1.000  O 
  O7       1.0000 0.21650  0.37604  0.61516  Biso   1.000  O 
  O8       1.0000 0.21653  0.37560  0.11427  Biso   1.000  O 
  O9       1.0000 0.51626  0.14120  0.34737  Biso   1.000  O 
  O10      1.0000 0.51530  0.09091  0.84753  Biso   1.000  O 
  O11      1.0000 0.96243  0.41420  0.34480  Biso   1.000  O 
  O12      1.0000 0.96292  0.34020  0.83881  Biso   1.000  O 
  O13      1.0000 0.75144  0.13323  0.89877  Biso   1.000  O 
  O14      1.0000 0.77992  0.11663  0.38830  Biso   1.000  O 
  O15      1.0000 0.71642  0.38528  0.87647  Biso   1.000  O 
  O16      1.0000 0.70954  0.36954  0.35610  Biso   1.000  O 
  Hf9      1.0000 0.13764  0.52066  0.35579  Biso   1.000  Hf
  Hf10     1.0000 0.12951  0.72915  0.85287  Biso   1.000  Hf
  Hf11     1.0000 0.35550  0.77131  0.35695  Biso   1.000  Hf
  Hf12     1.0000 0.34880  0.97840  0.85687  Biso   1.000  Hf
  Hf13     1.0000 0.63785  0.53788  0.14938  Biso   1.000  Hf
  Hf14     1.0000 0.63118  0.73191  0.65601  Biso   1.000  Hf
  Hf15     1.0000 0.86628  0.76996  0.15972  Biso   1.000  Hf
  Hf16     1.0000 0.85724  0.98061  0.65733  Biso   1.000  Hf
  O17      1.0000 0.03281  0.66101  0.16930  Biso   1.000  O 
  O18      1.0000 0.02402  0.58868  0.67068  Biso   1.000  O 
  O19      1.0000 0.46842  0.90366  0.15909  Biso   1.000  O 
  O20      1.0000 0.46251  0.84305  0.66460  Biso   1.000  O 
  O21      1.0000 0.26839  0.62524  0.60164  Biso   1.000  O 
  O22      1.0000 0.27522  0.62455  0.09940  Biso   1.000  O 
  O23      1.0000 0.21693  0.87401  0.60475  Biso   1.000  O 
  O24      1.0000 0.22275  0.87407  0.10552  Biso   1.000  O 
  O25      1.0000 0.52913  0.67084  0.34396  Biso   1.000  O 
  O26      1.0000 0.51840  0.59205  0.83876  Biso   1.000  O 
  O27      1.0000 0.96695  0.91017  0.35099  Biso   1.000  O 
  O28      1.0000 0.96102  0.84051  0.84892  Biso   1.000  O 
  O29      1.0000 0.76825  0.63291  0.90382  Biso   1.000  O 
  O30      1.0000 0.77378  0.62591  0.40895  Biso   1.000  O 
  O31      1.0000 0.71724  0.87762  0.90857  Biso   1.000  O 
  O32      1.0000 0.72452  0.87102  0.41379  Biso   1.000  O 
  Zr1      1.0000 0.57470  0.27069  0.05467  Biso   1.000  Zr
