data_image0
_cell_length_a       10.1065
_cell_length_b       5.16806
_cell_length_c       10.5386
_cell_angle_alpha    90
_cell_angle_beta     90
_cell_angle_gamma    90

_symmetry_space_group_name_H-M    "P 1"
_symmetry_int_tables_number       1

loop_
  _symmetry_equiv_pos_as_xyz
  'x, y, z'

loop_
  _atom_site_label
  _atom_site_occupancy
  _atom_site_fract_x
  _atom_site_fract_y
  _atom_site_fract_z
  _atom_site_thermal_displace_type
  _atom_site_B_iso_or_equiv
  _atom_site_type_symbol
  Hf1      1.0000 0.13631  0.03961  0.17507  Biso   1.000  Hf
  Hf2      1.0000 0.12880  0.45565  0.42485  Biso   1.000  Hf
  Hf3      1.0000 0.35020  0.52929  0.18210  Biso   1.000  Hf
  Hf4      1.0000 0.35583  0.95226  0.42743  Biso   1.000  Hf
  Hf5      1.0000 0.63703  0.02504  0.07930  Biso   1.000  Hf
  Hf6      1.0000 0.62756  0.45020  0.33251  Biso   1.000  Hf
  Hf7      1.0000 0.88058  0.55475  0.07237  Biso   1.000  Hf
  Hf8      1.0000 0.85755  0.96206  0.32578  Biso   1.000  Hf
  O1       1.0000 0.03735  0.31990  0.07847  Biso   1.000  O 
  O2       1.0000 0.01982  0.18386  0.32956  Biso   1.000  O 
  O3       1.0000 0.46656  0.81785  0.09235  Biso   1.000  O 
  O4       1.0000 0.46095  0.67081  0.33477  Biso   1.000  O 
  O5       1.0000 0.26309  0.24591  0.30251  Biso   1.000  O 
  O6       1.0000 0.27481  0.24009  0.04935  Biso   1.000  O 
  O7       1.0000 0.21625  0.74734  0.30203  Biso   1.000  O 
  O8       1.0000 0.22630  0.74649  0.04838  Biso   1.000  O 
  O9       1.0000 0.50671  0.27013  0.19053  Biso   1.000  O 
  O10      1.0000 0.51794  0.17250  0.42714  Biso   1.000  O 
  O11      1.0000 0.97037  0.83801  0.17076  Biso   1.000  O 
  O12      1.0000 0.96125  0.68131  0.41891  Biso   1.000  O 
  O13      1.0000 0.76651  0.24544  0.45120  Biso   1.000  O 
  O14      1.0000 0.75822  0.27026  0.19602  Biso   1.000  O 
  O15      1.0000 0.71793  0.74918  0.45422  Biso   1.000  O 
  O16      1.0000 0.72615  0.74901  0.20527  Biso   1.000  O 
  Hf9      1.0000 0.12402  0.04065  0.67348  Biso   1.000  Hf
  Hf10     1.0000 0.12567  0.45462  0.92188  Biso   1.000  Hf
  Hf11     1.0000 0.34960  0.53961  0.67577  Biso   1.000  Hf
  Hf12     1.0000 0.34569  0.95585  0.92618  Biso   1.000  Hf
  Hf13     1.0000 0.62682  0.03687  0.57499  Biso   1.000  Hf
  Hf14     1.0000 0.63107  0.45996  0.80901  Biso   1.000  Hf
  Hf15     1.0000 0.85399  0.54569  0.57474  Biso   1.000  Hf
  Hf16     1.0000 0.85119  0.96532  0.82659  Biso   1.000  Hf
  O17      1.0000 0.02083  0.32516  0.58084  Biso   1.000  O 
  O18      1.0000 0.01647  0.17586  0.83059  Biso   1.000  O 
  O19      1.0000 0.46234  0.81292  0.58376  Biso   1.000  O 
  O20      1.0000 0.45975  0.67850  0.83591  Biso   1.000  O 
  O21      1.0000 0.26059  0.24595  0.79815  Biso   1.000  O 
  O22      1.0000 0.26332  0.24860  0.54964  Biso   1.000  O 
  O23      1.0000 0.21438  0.74637  0.79813  Biso   1.000  O 
  O24      1.0000 0.21673  0.74902  0.54971  Biso   1.000  O 
  O25      1.0000 0.51430  0.30932  0.67038  Biso   1.000  O 
  O26      1.0000 0.50456  0.19173  0.93026  Biso   1.000  O 
  O27      1.0000 0.95977  0.82592  0.66852  Biso   1.000  O 
  O28      1.0000 0.95940  0.67772  0.91486  Biso   1.000  O 
  O29      1.0000 0.74882  0.26696  0.95058  Biso   1.000  O 
  O30      1.0000 0.76692  0.24558  0.69549  Biso   1.000  O 
  O31      1.0000 0.71706  0.76583  0.94833  Biso   1.000  O 
  O32      1.0000 0.71854  0.75119  0.70071  Biso   1.000  O 
  Zr1      1.0000 0.61150  0.51402  0.05951  Biso   1.000  Zr
