data_image0
_cell_length_a       10.1066
_cell_length_b       5.14305
_cell_length_c       10.4395
_cell_angle_alpha    90
_cell_angle_beta     80
_cell_angle_gamma    90

_symmetry_space_group_name_H-M    "P 1"
_symmetry_int_tables_number       1

loop_
  _symmetry_equiv_pos_as_xyz
  'x, y, z'

loop_
  _atom_site_label
  _atom_site_occupancy
  _atom_site_fract_x
  _atom_site_fract_y
  _atom_site_fract_z
  _atom_site_thermal_displace_type
  _atom_site_B_iso_or_equiv
  _atom_site_type_symbol
  Zr1      1.0000 0.13752  0.04267  0.14551  Biso   1.000  Zr
  Hf1      1.0000 0.13601  0.45685  0.39653  Biso   1.000  Hf
  Hf2      1.0000 0.36058  0.54233  0.10428  Biso   1.000  Hf
  Hf3      1.0000 0.35835  0.95678  0.35467  Biso   1.000  Hf
  O1       1.0000 0.03555  0.34286  0.08088  Biso   1.000  O 
  O2       1.0000 0.03321  0.16019  0.33211  Biso   1.000  O 
  O3       1.0000 0.46234  0.84028  0.16932  Biso   1.000  O 
  O4       1.0000 0.46050  0.65944  0.41978  Biso   1.000  O 
  O5       1.0000 0.27538  0.25861  0.24139  Biso   1.000  O 
  O6       1.0000 0.27302  0.24113  0.49137  Biso   1.000  O 
  O7       1.0000 0.22396  0.75682  0.00865  Biso   1.000  O 
  O8       1.0000 0.22191  0.74002  0.26000  Biso   1.000  O 
  Hf4      1.0000 0.13414  0.04257  0.64663  Biso   1.000  Hf
  Hf5      1.0000 0.13222  0.45733  0.89660  Biso   1.000  Hf
  Hf6      1.0000 0.35659  0.54247  0.60488  Biso   1.000  Hf
  Hf7      1.0000 0.35498  0.95673  0.85502  Biso   1.000  Hf
  O9       1.0000 0.03208  0.34062  0.58200  Biso   1.000  O 
  O10      1.0000 0.03029  0.15899  0.83216  Biso   1.000  O 
  O11      1.0000 0.45879  0.83981  0.66998  Biso   1.000  O 
  O12      1.0000 0.45749  0.66014  0.92033  Biso   1.000  O 
  O13      1.0000 0.27122  0.25820  0.74142  Biso   1.000  O 
  O14      1.0000 0.26996  0.24198  0.99112  Biso   1.000  O 
  O15      1.0000 0.21943  0.75825  0.51010  Biso   1.000  O 
  O16      1.0000 0.21763  0.74143  0.76014  Biso   1.000  O 
  Hf8      1.0000 0.63770  0.04254  0.14608  Biso   1.000  Hf
  Hf9      1.0000 0.63574  0.45688  0.39638  Biso   1.000  Hf
  Hf10     1.0000 0.85951  0.54258  0.10421  Biso   1.000  Hf
  Hf11     1.0000 0.85812  0.95691  0.35486  Biso   1.000  Hf
  O17      1.0000 0.53584  0.34010  0.08086  Biso   1.000  O 
  O18      1.0000 0.53384  0.15939  0.33126  Biso   1.000  O 
  O19      1.0000 0.96112  0.84054  0.16963  Biso   1.000  O 
  O20      1.0000 0.96060  0.65976  0.41970  Biso   1.000  O 
  O21      1.0000 0.77484  0.25828  0.24094  Biso   1.000  O 
  O22      1.0000 0.77291  0.24149  0.49132  Biso   1.000  O 
  O23      1.0000 0.72305  0.75860  0.00929  Biso   1.000  O 
  O24      1.0000 0.72069  0.74120  0.25977  Biso   1.000  O 
  Hf12     1.0000 0.63418  0.04264  0.64657  Biso   1.000  Hf
  Hf13     1.0000 0.63232  0.45696  0.89676  Biso   1.000  Hf
  Hf14     1.0000 0.85669  0.54269  0.60487  Biso   1.000  Hf
  Hf15     1.0000 0.85471  0.95702  0.85511  Biso   1.000  Hf
  O25      1.0000 0.53186  0.33982  0.58156  Biso   1.000  O 
  O26      1.0000 0.53026  0.15969  0.83168  Biso   1.000  O 
  O27      1.0000 0.95860  0.84049  0.66989  Biso   1.000  O 
  O28      1.0000 0.95669  0.65960  0.92009  Biso   1.000  O 
  O29      1.0000 0.77132  0.25826  0.74147  Biso   1.000  O 
  O30      1.0000 0.76944  0.24126  0.99181  Biso   1.000  O 
  O31      1.0000 0.71941  0.75821  0.51000  Biso   1.000  O 
  O32      1.0000 0.71769  0.74130  0.76018  Biso   1.000  O 
