data_image0
_cell_length_a       10.2267
_cell_length_b       10.4679
_cell_length_c       5.277
_cell_angle_alpha    89.9599
_cell_angle_beta     81.1669
_cell_angle_gamma    89.9976

_symmetry_space_group_name_H-M    "P 1"
_symmetry_int_tables_number       1

loop_
  _symmetry_equiv_pos_as_xyz
  'x, y, z'

loop_
  _atom_site_label
  _atom_site_occupancy
  _atom_site_fract_x
  _atom_site_fract_y
  _atom_site_fract_z
  _atom_site_thermal_displace_type
  _atom_site_B_iso_or_equiv
  _atom_site_type_symbol
  La1      1.0000 0.12395  0.00888  0.28026  Biso   1.000  La
  Hf1      1.0000 0.14043  0.51842  0.29070  Biso   1.000  Hf
  Hf2      1.0000 0.64307  0.01449  0.30172  Biso   1.000  Hf
  Hf3      1.0000 0.63905  0.52197  0.29132  Biso   1.000  Hf
  Hf4      1.0000 0.13294  0.23494  0.79884  Biso   1.000  Hf
  Hf5      1.0000 0.14389  0.72333  0.78972  Biso   1.000  Hf
  Hf6      1.0000 0.64398  0.23097  0.77162  Biso   1.000  Hf
  Hf7      1.0000 0.63744  0.72643  0.79461  Biso   1.000  Hf
  La2      1.0000 0.36841  0.26018  0.22146  Biso   1.000  La
  Hf8      1.0000 0.36576  0.76723  0.20878  Biso   1.000  Hf
  Hf9      1.0000 0.85825  0.27720  0.20365  Biso   1.000  Hf
  Hf10     1.0000 0.86179  0.75931  0.20145  Biso   1.000  Hf
  Hf11     1.0000 0.36235  0.48047  0.70759  Biso   1.000  Hf
  Hf12     1.0000 0.36156  0.97317  0.70582  Biso   1.000  Hf
  Hf13     1.0000 0.86174  0.48166  0.70217  Biso   1.000  Hf
  Hf14     1.0000 0.85411  0.97395  0.73031  Biso   1.000  Hf
  Hf15     1.0000 0.03582  0.19763  0.16873  Biso   1.000  Hf
  Hf16     1.0000 0.03993  0.67151  0.16155  Biso   1.000  Hf
  Hf17     1.0000 0.56976  0.16869  0.14055  Biso   1.000  Hf
  Hf18     1.0000 0.54332  0.67601  0.16682  Biso   1.000  Hf
  Hf19     1.0000 0.01787  0.08428  0.70461  Biso   1.000  Hf
  Hf20     1.0000 0.03440  0.58233  0.65810  Biso   1.000  Hf
  Hf21     1.0000 0.53441  0.08267  0.65183  Biso   1.000  Hf
  Hf22     1.0000 0.53855  0.58102  0.66826  Biso   1.000  Hf
  Hf23     1.0000 0.46323  0.44232  0.33570  Biso   1.000  Hf
  Hf24     1.0000 0.46307  0.92509  0.33242  Biso   1.000  Hf
  Hf25     1.0000 0.95947  0.42917  0.33193  Biso   1.000  Hf
  Hf26     1.0000 0.92926  0.91412  0.36433  Biso   1.000  Hf
  Hf27     1.0000 0.47102  0.32859  0.79746  Biso   1.000  Hf
  Hf28     1.0000 0.47192  0.83193  0.84261  Biso   1.000  Hf
  Hf29     1.0000 0.95688  0.33343  0.83079  Biso   1.000  Hf
  Hf30     1.0000 0.97029  0.83291  0.84946  Biso   1.000  Hf
  Hf31     1.0000 0.25920  0.12074  0.52134  Biso   1.000  Hf
  Hf32     1.0000 0.27628  0.62500  0.48026  Biso   1.000  Hf
  Hf33     1.0000 0.77533  0.13077  0.48099  Biso   1.000  Hf
  Hf34     1.0000 0.77541  0.63105  0.48012  Biso   1.000  Hf
  Hf35     1.0000 0.27009  0.11187  0.96105  Biso   1.000  Hf
  Hf36     1.0000 0.27934  0.61835  0.98277  Biso   1.000  Hf
  Hf37     1.0000 0.78393  0.12212  0.97755  Biso   1.000  Hf
  Hf38     1.0000 0.77768  0.62037  0.97694  Biso   1.000  Hf
  Hf39     1.0000 0.22039  0.38535  0.00732  Biso   1.000  Hf
  Hf40     1.0000 0.23884  0.86238  0.99894  Biso   1.000  Hf
  Hf41     1.0000 0.72148  0.38342  0.01016  Biso   1.000  Hf
  Hf42     1.0000 0.72709  0.87690  0.02897  Biso   1.000  Hf
  Hf43     1.0000 0.21520  0.37771  0.53198  Biso   1.000  Hf
  Hf44     1.0000 0.23588  0.85601  0.52117  Biso   1.000  Hf
  Hf45     1.0000 0.72585  0.37389  0.50982  Biso   1.000  Hf
  Hf46     1.0000 0.71171  0.87048  0.53918  Biso   1.000  Hf
