data_image0
_cell_length_a       10.2158
_cell_length_b       10.3678
_cell_length_c       5.2583
_cell_angle_alpha    90.5372
_cell_angle_beta     82.5917
_cell_angle_gamma    89.9073

_symmetry_space_group_name_H-M    "P 1"
_symmetry_int_tables_number       1

loop_
  _symmetry_equiv_pos_as_xyz
  'x, y, z'

loop_
  _atom_site_label
  _atom_site_occupancy
  _atom_site_fract_x
  _atom_site_fract_y
  _atom_site_fract_z
  _atom_site_thermal_displace_type
  _atom_site_B_iso_or_equiv
  _atom_site_type_symbol
  La1      1.0000 0.11580  0.00923  0.25835  Biso   1.000  La
  Hf1      1.0000 0.14415  0.52667  0.25585  Biso   1.000  Hf
  Hf2      1.0000 0.63955  0.02082  0.30492  Biso   1.000  Hf
  Hf3      1.0000 0.63339  0.51675  0.30181  Biso   1.000  Hf
  Hf4      1.0000 0.14736  0.23258  0.77097  Biso   1.000  Hf
  Hf5      1.0000 0.14034  0.73777  0.77102  Biso   1.000  Hf
  Hf6      1.0000 0.64001  0.23389  0.80116  Biso   1.000  Hf
  Hf7      1.0000 0.63269  0.72796  0.79641  Biso   1.000  Hf
  Hf8      1.0000 0.36047  0.26589  0.19888  Biso   1.000  Hf
  Hf9      1.0000 0.36713  0.77215  0.20391  Biso   1.000  Hf
  Hf10     1.0000 0.85242  0.26758  0.22950  Biso   1.000  Hf
  Hf11     1.0000 0.86104  0.76086  0.22730  Biso   1.000  Hf
  Hf12     1.0000 0.36081  0.47879  0.69599  Biso   1.000  Hf
  Hf13     1.0000 0.36651  0.98335  0.69822  Biso   1.000  Hf
  La2      1.0000 0.88456  0.49130  0.74127  Biso   1.000  La
  Hf14     1.0000 0.85602  0.97313  0.74492  Biso   1.000  Hf
  Hf15     1.0000 0.04463  0.20423  0.17969  Biso   1.000  Hf
  Hf16     1.0000 0.01703  0.63726  0.06429  Biso   1.000  Hf
  Hf17     1.0000 0.53234  0.16386  0.15642  Biso   1.000  Hf
  Hf18     1.0000 0.52626  0.65786  0.14884  Biso   1.000  Hf
  Hf19     1.0000 0.03041  0.07977  0.70599  Biso   1.000  Hf
  Hf20     1.0000 0.03986  0.62963  0.54944  Biso   1.000  Hf
  Hf21     1.0000 0.53913  0.08782  0.65312  Biso   1.000  Hf
  Hf22     1.0000 0.52888  0.58486  0.65286  Biso   1.000  Hf
  Hf23     1.0000 0.46066  0.41223  0.34727  Biso   1.000  Hf
  Hf24     1.0000 0.47102  0.91520  0.34744  Biso   1.000  Hf
  Hf25     1.0000 0.96995  0.41988  0.29543  Biso   1.000  Hf
  Hf26     1.0000 0.95841  0.87322  0.44531  Biso   1.000  Hf
  Hf27     1.0000 0.46798  0.33595  0.84381  Biso   1.000  Hf
  Hf28     1.0000 0.47341  0.84221  0.85182  Biso   1.000  Hf
  Hf29     1.0000 0.95553  0.29626  0.82161  Biso   1.000  Hf
  Hf30     1.0000 0.98314  0.86058  0.93069  Biso   1.000  Hf
  Hf31     1.0000 0.27843  0.13523  0.47586  Biso   1.000  Hf
  Hf32     1.0000 0.28362  0.62573  0.45753  Biso   1.000  Hf
  Hf33     1.0000 0.78539  0.12217  0.49565  Biso   1.000  Hf
  Hf34     1.0000 0.76307  0.63293  0.49086  Biso   1.000  Hf
  Hf35     1.0000 0.28231  0.12689  0.95444  Biso   1.000  Hf
  Hf36     1.0000 0.26892  0.62443  0.96020  Biso   1.000  Hf
  Hf37     1.0000 0.77135  0.11869  0.00568  Biso   1.000  Hf
  Hf38     1.0000 0.75682  0.62820  0.00994  Biso   1.000  Hf
  Hf39     1.0000 0.22890  0.38112  0.99491  Biso   1.000  Hf
  Hf40     1.0000 0.24275  0.87144  0.98970  Biso   1.000  Hf
  Hf41     1.0000 0.71780  0.37316  0.04556  Biso   1.000  Hf
  Hf42     1.0000 0.73170  0.87515  0.04156  Biso   1.000  Hf
  Hf43     1.0000 0.21420  0.37830  0.50542  Biso   1.000  Hf
  Hf44     1.0000 0.23667  0.86732  0.50867  Biso   1.000  Hf
  Hf45     1.0000 0.72156  0.36508  0.52431  Biso   1.000  Hf
  Hf46     1.0000 0.71560  0.87457  0.54520  Biso   1.000  Hf
