data_image0
_cell_length_a       5.13097
_cell_length_b       10.4019
_cell_length_c       10.5264
_cell_angle_alpha    90.3639
_cell_angle_beta     81.5097
_cell_angle_gamma    90.652

_symmetry_space_group_name_H-M    "P 1"
_symmetry_int_tables_number       1

loop_
  _symmetry_equiv_pos_as_xyz
  'x, y, z'

loop_
  _atom_site_label
  _atom_site_occupancy
  _atom_site_fract_x
  _atom_site_fract_y
  _atom_site_fract_z
  _atom_site_thermal_displace_type
  _atom_site_B_iso_or_equiv
  _atom_site_type_symbol
  La1      1.0000 0.25633  0.00521  0.13650  Biso   1.000  La
  Hf1      1.0000 0.28169  0.02161  0.64690  Biso   1.000  Hf
  La2      1.0000 0.25642  0.50526  0.13650  Biso   1.000  La
  Hf2      1.0000 0.28174  0.52165  0.64690  Biso   1.000  Hf
  Hf3      1.0000 0.26560  0.22350  0.40002  Biso   1.000  Hf
  Hf4      1.0000 0.29396  0.23322  0.88987  Biso   1.000  Hf
  Hf5      1.0000 0.26555  0.72351  0.40000  Biso   1.000  Hf
  Hf6      1.0000 0.29393  0.73323  0.88986  Biso   1.000  Hf
  Hf7      1.0000 0.72141  0.25944  0.10358  Biso   1.000  Hf
  Hf8      1.0000 0.72374  0.27183  0.60324  Biso   1.000  Hf
  Hf9      1.0000 0.72152  0.75944  0.10350  Biso   1.000  Hf
  Hf10     1.0000 0.72372  0.77182  0.60322  Biso   1.000  Hf
  Hf11     1.0000 0.70145  0.47826  0.36098  Biso   1.000  Hf
  Hf12     1.0000 0.73803  0.47863  0.85081  Biso   1.000  Hf
  Hf13     1.0000 0.70136  0.97827  0.36099  Biso   1.000  Hf
  Hf14     1.0000 0.73802  0.97869  0.85081  Biso   1.000  Hf
  Hf15     1.0000 0.09098  0.20009  0.08161  Biso   1.000  Hf
  Hf16     1.0000 0.06958  0.17145  0.58717  Biso   1.000  Hf
  Hf17     1.0000 0.09104  0.70007  0.08157  Biso   1.000  Hf
  Hf18     1.0000 0.06956  0.67143  0.58715  Biso   1.000  Hf
  Hf19     1.0000 0.04809  0.07746  0.34569  Biso   1.000  Hf
  Hf20     1.0000 0.08773  0.07913  0.83257  Biso   1.000  Hf
  Hf21     1.0000 0.04814  0.57745  0.34567  Biso   1.000  Hf
  Hf22     1.0000 0.08769  0.57914  0.83254  Biso   1.000  Hf
  Hf23     1.0000 0.84307  0.43026  0.16956  Biso   1.000  Hf
  Hf24     1.0000 0.93371  0.42073  0.66772  Biso   1.000  Hf
  Hf25     1.0000 0.84301  0.93024  0.16958  Biso   1.000  Hf
  Hf26     1.0000 0.93365  0.92074  0.66771  Biso   1.000  Hf
  Hf27     1.0000 0.92173  0.32929  0.41974  Biso   1.000  Hf
  Hf28     1.0000 0.96156  0.33896  0.91409  Biso   1.000  Hf
  Hf29     1.0000 0.92166  0.82928  0.41975  Biso   1.000  Hf
  Hf30     1.0000 0.96147  0.83893  0.91410  Biso   1.000  Hf
  Hf31     1.0000 0.55219  0.13114  0.24967  Biso   1.000  Hf
  Hf32     1.0000 0.56004  0.13105  0.73718  Biso   1.000  Hf
  Hf33     1.0000 0.55224  0.63117  0.24964  Biso   1.000  Hf
  Hf34     1.0000 0.56002  0.63106  0.73717  Biso   1.000  Hf
  Hf35     1.0000 0.53943  0.12063  0.49483  Biso   1.000  Hf
  Hf36     1.0000 0.57376  0.12132  0.97983  Biso   1.000  Hf
  Hf37     1.0000 0.53941  0.62064  0.49479  Biso   1.000  Hf
  Hf38     1.0000 0.57374  0.62131  0.97980  Biso   1.000  Hf
  Hf39     1.0000 0.49614  0.36631  0.99176  Biso   1.000  Hf
  Hf40     1.0000 0.44526  0.37912  0.51284  Biso   1.000  Hf
  Hf41     1.0000 0.49616  0.86634  0.99172  Biso   1.000  Hf
  Hf42     1.0000 0.44520  0.87912  0.51284  Biso   1.000  Hf
  Hf43     1.0000 0.43608  0.35833  0.26971  Biso   1.000  Hf
  Hf44     1.0000 0.45860  0.37295  0.75431  Biso   1.000  Hf
  Hf45     1.0000 0.43598  0.85834  0.26971  Biso   1.000  Hf
  Hf46     1.0000 0.45859  0.87296  0.75428  Biso   1.000  Hf
