data_image0
_cell_length_a       5.12093
_cell_length_b       10.4811
_cell_length_c       10.5191
_cell_angle_alpha    90.042
_cell_angle_beta     80.9901
_cell_angle_gamma    90.6357

_symmetry_space_group_name_H-M    "P 1"
_symmetry_int_tables_number       1

loop_
  _symmetry_equiv_pos_as_xyz
  'x, y, z'

loop_
  _atom_site_label
  _atom_site_occupancy
  _atom_site_fract_x
  _atom_site_fract_y
  _atom_site_fract_z
  _atom_site_thermal_displace_type
  _atom_site_B_iso_or_equiv
  _atom_site_type_symbol
  La1      1.0000 0.26210  0.01283  0.14027  Biso   1.000  La
  Hf1      1.0000 0.29150  0.02082  0.64093  Biso   1.000  Hf
  Hf2      1.0000 0.27426  0.51824  0.14805  Biso   1.000  Hf
  Hf3      1.0000 0.28198  0.52182  0.64503  Biso   1.000  Hf
  Hf4      1.0000 0.27285  0.22834  0.39873  Biso   1.000  Hf
  Hf5      1.0000 0.27348  0.24255  0.89541  Biso   1.000  Hf
  Hf6      1.0000 0.27302  0.72350  0.39791  Biso   1.000  Hf
  Hf7      1.0000 0.29336  0.72472  0.89252  Biso   1.000  Hf
  Hf8      1.0000 0.70664  0.27527  0.10749  Biso   1.000  Hf
  Hf9      1.0000 0.72700  0.27648  0.60209  Biso   1.000  Hf
  Hf10     1.0000 0.72652  0.75746  0.10459  Biso   1.000  Hf
  Hf11     1.0000 0.72714  0.77168  0.60127  Biso   1.000  Hf
  Hf12     1.0000 0.71800  0.47818  0.35497  Biso   1.000  Hf
  Hf13     1.0000 0.72572  0.48176  0.85195  Biso   1.000  Hf
  Hf14     1.0000 0.70852  0.97918  0.35907  Biso   1.000  Hf
  La2      1.0000 0.73791  0.98716  0.85973  Biso   1.000  La
  Hf15     1.0000 0.04964  0.18772  0.07387  Biso   1.000  Hf
  Hf16     1.0000 0.07118  0.17243  0.58671  Biso   1.000  Hf
  Hf17     1.0000 0.08250  0.66752  0.08719  Biso   1.000  Hf
  Hf18     1.0000 0.07281  0.66876  0.58134  Biso   1.000  Hf
  Hf19     1.0000 0.05268  0.08086  0.34682  Biso   1.000  Hf
  Hf20     1.0000 0.14674  0.07152  0.83400  Biso   1.000  Hf
  Hf21     1.0000 0.06754  0.57782  0.33339  Biso   1.000  Hf
  Hf22     1.0000 0.08270  0.57486  0.82917  Biso   1.000  Hf
  Hf23     1.0000 0.91729  0.42514  0.17083  Biso   1.000  Hf
  Hf24     1.0000 0.93244  0.42218  0.66661  Biso   1.000  Hf
  Hf25     1.0000 0.85328  0.92848  0.16600  Biso   1.000  Hf
  Hf26     1.0000 0.94734  0.91914  0.65318  Biso   1.000  Hf
  Hf27     1.0000 0.92717  0.33124  0.41866  Biso   1.000  Hf
  Hf28     1.0000 0.91748  0.33249  0.91282  Biso   1.000  Hf
  Hf29     1.0000 0.92884  0.82756  0.41328  Biso   1.000  Hf
  Hf30     1.0000 0.95038  0.81228  0.92613  Biso   1.000  Hf
  Hf31     1.0000 0.55331  0.13848  0.25157  Biso   1.000  Hf
  Hf32     1.0000 0.55045  0.14322  0.73083  Biso   1.000  Hf
  Hf33     1.0000 0.54783  0.62198  0.24231  Biso   1.000  Hf
  Hf34     1.0000 0.56314  0.62801  0.73771  Biso   1.000  Hf
  Hf35     1.0000 0.54417  0.12084  0.49138  Biso   1.000  Hf
  Hf36     1.0000 0.53642  0.14738  0.99301  Biso   1.000  Hf
  Hf37     1.0000 0.55062  0.62020  0.49044  Biso   1.000  Hf
  Hf38     1.0000 0.55698  0.61382  0.99102  Biso   1.000  Hf
  Hf39     1.0000 0.44302  0.38618  0.00899  Biso   1.000  Hf
  Hf40     1.0000 0.44940  0.37980  0.50957  Biso   1.000  Hf
  Hf41     1.0000 0.46357  0.85262  0.00698  Biso   1.000  Hf
  Hf42     1.0000 0.45581  0.87916  0.50861  Biso   1.000  Hf
  Hf43     1.0000 0.43687  0.37199  0.26228  Biso   1.000  Hf
  Hf44     1.0000 0.45218  0.37802  0.75768  Biso   1.000  Hf
  Hf45     1.0000 0.44955  0.85679  0.26918  Biso   1.000  Hf
  Hf46     1.0000 0.44669  0.86152  0.74845  Biso   1.000  Hf
