data_image0
_cell_length_a       5.10905
_cell_length_b       10.4746
_cell_length_c       10.5364
_cell_angle_alpha    90.3166
_cell_angle_beta     80.9946
_cell_angle_gamma    90.3781

_symmetry_space_group_name_H-M    "P 1"
_symmetry_int_tables_number       1

loop_
  _symmetry_equiv_pos_as_xyz
  'x, y, z'

loop_
  _atom_site_label
  _atom_site_occupancy
  _atom_site_fract_x
  _atom_site_fract_y
  _atom_site_fract_z
  _atom_site_thermal_displace_type
  _atom_site_B_iso_or_equiv
  _atom_site_type_symbol
  La1      1.0000 0.28014  0.01234  0.13584  Biso   1.000  La
  Hf1      1.0000 0.27222  0.02175  0.64809  Biso   1.000  Hf
  Hf2      1.0000 0.27717  0.52040  0.14562  Biso   1.000  Hf
  Hf3      1.0000 0.27667  0.52040  0.64742  Biso   1.000  Hf
  Hf4      1.0000 0.27623  0.24008  0.39951  Biso   1.000  Hf
  Hf5      1.0000 0.27828  0.23200  0.89404  Biso   1.000  Hf
  Hf6      1.0000 0.27869  0.72186  0.40030  Biso   1.000  Hf
  Hf7      1.0000 0.28604  0.72812  0.89196  Biso   1.000  Hf
  Hf8      1.0000 0.72099  0.27805  0.09967  Biso   1.000  Hf
  Hf9      1.0000 0.71365  0.27182  0.60804  Biso   1.000  Hf
  Hf10     1.0000 0.72341  0.75984  0.10046  Biso   1.000  Hf
  Hf11     1.0000 0.72143  0.76797  0.60596  Biso   1.000  Hf
  Hf12     1.0000 0.72247  0.47952  0.35436  Biso   1.000  Hf
  Hf13     1.0000 0.72304  0.47956  0.85256  Biso   1.000  Hf
  La2      1.0000 0.71949  0.98758  0.36413  Biso   1.000  La
  Hf14     1.0000 0.72753  0.97821  0.85191  Biso   1.000  Hf
  Hf15     1.0000 0.07035  0.18978  0.07399  Biso   1.000  Hf
  Hf16     1.0000 0.05036  0.16930  0.58632  Biso   1.000  Hf
  Hf17     1.0000 0.08489  0.67470  0.08143  Biso   1.000  Hf
  Hf18     1.0000 0.06896  0.66519  0.58833  Biso   1.000  Hf
  Hf19     1.0000 0.13847  0.06861  0.35335  Biso   1.000  Hf
  Hf20     1.0000 0.07680  0.07944  0.83130  Biso   1.000  Hf
  Hf21     1.0000 0.07573  0.57553  0.33139  Biso   1.000  Hf
  Hf22     1.0000 0.07264  0.57865  0.83159  Biso   1.000  Hf
  Hf23     1.0000 0.92391  0.42441  0.16858  Biso   1.000  Hf
  Hf24     1.0000 0.92708  0.42129  0.66841  Biso   1.000  Hf
  Hf25     1.0000 0.86116  0.93132  0.14662  Biso   1.000  Hf
  Hf26     1.0000 0.92294  0.92051  0.66871  Biso   1.000  Hf
  Hf27     1.0000 0.91480  0.32523  0.41855  Biso   1.000  Hf
  Hf28     1.0000 0.93072  0.33476  0.91165  Biso   1.000  Hf
  Hf29     1.0000 0.92936  0.81016  0.42601  Biso   1.000  Hf
  Hf30     1.0000 0.94934  0.83066  0.91366  Biso   1.000  Hf
  Hf31     1.0000 0.55160  0.15794  0.24319  Biso   1.000  Hf
  Hf32     1.0000 0.54947  0.12913  0.74208  Biso   1.000  Hf
  Hf33     1.0000 0.56012  0.61936  0.23877  Biso   1.000  Hf
  Hf34     1.0000 0.55178  0.62841  0.74071  Biso   1.000  Hf
  Hf35     1.0000 0.51786  0.13571  0.50786  Biso   1.000  Hf
  Hf36     1.0000 0.56964  0.12856  0.97886  Biso   1.000  Hf
  Hf37     1.0000 0.55008  0.61759  0.49302  Biso   1.000  Hf
  Hf38     1.0000 0.55401  0.61667  0.98870  Biso   1.000  Hf
  Hf39     1.0000 0.44957  0.38233  0.00695  Biso   1.000  Hf
  Hf40     1.0000 0.44571  0.38328  0.51129  Biso   1.000  Hf
  Hf41     1.0000 0.48182  0.86425  0.99214  Biso   1.000  Hf
  Hf42     1.0000 0.43009  0.87140  0.52115  Biso   1.000  Hf
  Hf43     1.0000 0.43952  0.38057  0.26122  Biso   1.000  Hf
  Hf44     1.0000 0.44792  0.37156  0.75927  Biso   1.000  Hf
  Hf45     1.0000 0.44808  0.84199  0.25679  Biso   1.000  Hf
  Hf46     1.0000 0.45025  0.87084  0.75791  Biso   1.000  Hf
