data_image0
_cell_length_a       10.1758
_cell_length_b       5.14143
_cell_length_c       10.5284
_cell_angle_alpha    90.1081
_cell_angle_beta     81.2359
_cell_angle_gamma    89.8907

_symmetry_space_group_name_H-M    "P 1"
_symmetry_int_tables_number       1

loop_
  _symmetry_equiv_pos_as_xyz
  'x, y, z'

loop_
  _atom_site_label
  _atom_site_occupancy
  _atom_site_fract_x
  _atom_site_fract_y
  _atom_site_fract_z
  _atom_site_thermal_displace_type
  _atom_site_B_iso_or_equiv
  _atom_site_type_symbol
  La1      1.0000 0.12265  0.03878  0.13164  Biso   1.000  La
  Hf1      1.0000 0.13993  0.04289  0.64307  Biso   1.000  Hf
  Hf2      1.0000 0.63345  0.04044  0.14697  Biso   1.000  Hf
  Hf3      1.0000 0.64071  0.04443  0.64606  Biso   1.000  Hf
  Hf4      1.0000 0.13665  0.45854  0.39430  Biso   1.000  Hf
  Hf5      1.0000 0.14766  0.47308  0.88127  Biso   1.000  Hf
  Hf6      1.0000 0.63446  0.45407  0.39701  Biso   1.000  Hf
  Hf7      1.0000 0.64048  0.45787  0.89383  Biso   1.000  Hf
  Hf8      1.0000 0.36264  0.53823  0.10184  Biso   1.000  Hf
  Hf9      1.0000 0.36333  0.54557  0.59842  Biso   1.000  Hf
  Hf10     1.0000 0.84489  0.54169  0.10905  Biso   1.000  Hf
  Hf11     1.0000 0.86308  0.54372  0.60775  Biso   1.000  Hf
  Hf12     1.0000 0.35713  0.95975  0.35015  Biso   1.000  Hf
  Hf13     1.0000 0.36761  0.95863  0.84972  Biso   1.000  Hf
  Hf14     1.0000 0.85625  0.95152  0.36189  Biso   1.000  Hf
  Hf15     1.0000 0.86605  0.95542  0.85830  Biso   1.000  Hf
  Hf16     1.0000 0.03397  0.33090  0.58111  Biso   1.000  Hf
  Hf17     1.0000 0.53710  0.33514  0.07494  Biso   1.000  Hf
  Hf18     1.0000 0.53313  0.32939  0.57596  Biso   1.000  Hf
  Hf19     1.0000 0.01722  0.19408  0.33156  Biso   1.000  Hf
  Hf20     1.0000 0.03972  0.16349  0.83826  Biso   1.000  Hf
  Hf21     1.0000 0.53292  0.16620  0.32605  Biso   1.000  Hf
  Hf22     1.0000 0.53772  0.17237  0.82392  Biso   1.000  Hf
  Hf23     1.0000 0.46270  0.83544  0.16958  Biso   1.000  Hf
  Hf24     1.0000 0.46930  0.83115  0.67063  Biso   1.000  Hf
  Hf25     1.0000 0.95297  0.77451  0.19708  Biso   1.000  Hf
  Hf26     1.0000 0.97061  0.82340  0.68404  Biso   1.000  Hf
  Hf27     1.0000 0.46426  0.66817  0.42075  Biso   1.000  Hf
  Hf28     1.0000 0.47567  0.67817  0.92098  Biso   1.000  Hf
  Hf29     1.0000 0.96917  0.68999  0.43763  Biso   1.000  Hf
  Hf30     1.0000 0.97081  0.66855  0.93879  Biso   1.000  Hf
  Hf31     1.0000 0.27891  0.26183  0.23996  Biso   1.000  Hf
  Hf32     1.0000 0.27715  0.26055  0.73088  Biso   1.000  Hf
  Hf33     1.0000 0.77426  0.25058  0.24033  Biso   1.000  Hf
  Hf34     1.0000 0.78023  0.25386  0.74202  Biso   1.000  Hf
  Hf35     1.0000 0.27295  0.24471  0.48645  Biso   1.000  Hf
  Hf36     1.0000 0.28083  0.25783  0.97383  Biso   1.000  Hf
  Hf37     1.0000 0.77301  0.24508  0.49395  Biso   1.000  Hf
  Hf38     1.0000 0.77733  0.24031  0.99099  Biso   1.000  Hf
  Hf39     1.0000 0.23831  0.74205  0.99412  Biso   1.000  Hf
  Hf40     1.0000 0.22399  0.76319  0.50802  Biso   1.000  Hf
  Hf41     1.0000 0.72447  0.76055  0.01039  Biso   1.000  Hf
  Hf42     1.0000 0.72339  0.75583  0.51261  Biso   1.000  Hf
  Hf43     1.0000 0.22718  0.73145  0.25965  Biso   1.000  Hf
  Hf44     1.0000 0.22940  0.74923  0.75252  Biso   1.000  Hf
  Hf45     1.0000 0.71154  0.74024  0.26294  Biso   1.000  Hf
  Hf46     1.0000 0.72892  0.74195  0.76126  Biso   1.000  Hf
