data_image0
_cell_length_a       10.1907
_cell_length_b       10.3941
_cell_length_c       5.20604
_cell_angle_alpha    89.5567
_cell_angle_beta     80.8391
_cell_angle_gamma    90.4163

_symmetry_space_group_name_H-M    "P 1"
_symmetry_int_tables_number       1

loop_
  _symmetry_equiv_pos_as_xyz
  'x, y, z'

loop_
  _atom_site_label
  _atom_site_occupancy
  _atom_site_fract_x
  _atom_site_fract_y
  _atom_site_fract_z
  _atom_site_thermal_displace_type
  _atom_site_B_iso_or_equiv
  _atom_site_type_symbol
  La1      1.0000 0.13362  0.01507  0.27689  Biso   1.000  La
  Hf1      1.0000 0.13684  0.52064  0.29002  Biso   1.000  Hf
  Hf2      1.0000 0.64302  0.02046  0.29321  Biso   1.000  Hf
  Hf3      1.0000 0.64128  0.52060  0.29292  Biso   1.000  Hf
  Hf4      1.0000 0.12921  0.23690  0.78603  Biso   1.000  Hf
  Hf5      1.0000 0.13969  0.72660  0.78608  Biso   1.000  Hf
  Hf6      1.0000 0.63655  0.22834  0.79514  Biso   1.000  Hf
  Hf7      1.0000 0.64026  0.72653  0.79002  Biso   1.000  Hf
  Hf8      1.0000 0.36598  0.27706  0.22165  Biso   1.000  Hf
  Hf9      1.0000 0.36506  0.76482  0.19714  Biso   1.000  Hf
  Hf10     1.0000 0.86006  0.27467  0.20964  Biso   1.000  Hf
  Hf11     1.0000 0.86040  0.76943  0.20754  Biso   1.000  Hf
  Hf12     1.0000 0.36105  0.47884  0.71119  Biso   1.000  Hf
  Hf13     1.0000 0.37071  0.96883  0.68218  Biso   1.000  Hf
  Hf14     1.0000 0.85843  0.48166  0.70635  Biso   1.000  Hf
  Hf15     1.0000 0.85664  0.97924  0.71945  Biso   1.000  Hf
  Hf16     1.0000 0.04211  0.20072  0.16710  Biso   1.000  Hf
  Hf17     1.0000 0.04176  0.68029  0.17125  Biso   1.000  Hf
  Hf18     1.0000 0.53383  0.16849  0.16527  Biso   1.000  Hf
  Hf19     1.0000 0.53834  0.66731  0.16419  Biso   1.000  Hf
  Hf20     1.0000 0.02999  0.07746  0.70830  Biso   1.000  Hf
  Hf21     1.0000 0.03718  0.57574  0.66574  Biso   1.000  Hf
  Hf22     1.0000 0.53835  0.07747  0.66267  Biso   1.000  Hf
  Hf23     1.0000 0.53802  0.57587  0.66528  Biso   1.000  Hf
  Hf24     1.0000 0.46564  0.42009  0.34414  Biso   1.000  Hf
  Hf25     1.0000 0.46687  0.91947  0.32190  Biso   1.000  Hf
  Hf26     1.0000 0.95596  0.43278  0.32567  Biso   1.000  Hf
  Hf27     1.0000 0.93484  0.92693  0.34452  Biso   1.000  Hf
  Hf28     1.0000 0.46142  0.32667  0.84301  Biso   1.000  Hf
  Hf29     1.0000 0.47094  0.82452  0.83014  Biso   1.000  Hf
  Hf30     1.0000 0.95515  0.32879  0.82103  Biso   1.000  Hf
  Hf31     1.0000 0.96478  0.82750  0.83318  Biso   1.000  Hf
  Hf32     1.0000 0.28457  0.13644  0.50953  Biso   1.000  Hf
  Hf33     1.0000 0.27775  0.62282  0.47676  Biso   1.000  Hf
  Hf34     1.0000 0.77592  0.13245  0.48779  Biso   1.000  Hf
  Hf35     1.0000 0.77579  0.62991  0.48139  Biso   1.000  Hf
  Hf36     1.0000 0.27487  0.61722  0.97909  Biso   1.000  Hf
  Hf37     1.0000 0.77268  0.12235  0.98933  Biso   1.000  Hf
  Hf38     1.0000 0.77740  0.61966  0.98238  Biso   1.000  Hf
  Hf39     1.0000 0.22736  0.37729  0.01815  Biso   1.000  Hf
  Hf40     1.0000 0.24092  0.87209  0.98307  Biso   1.000  Hf
  Hf41     1.0000 0.72131  0.38036  0.01927  Biso   1.000  Hf
  Hf42     1.0000 0.72481  0.87815  0.01941  Biso   1.000  Hf
  Hf43     1.0000 0.22202  0.37514  0.51663  Biso   1.000  Hf
  Hf44     1.0000 0.23586  0.85588  0.50770  Biso   1.000  Hf
  Hf45     1.0000 0.72221  0.37109  0.52016  Biso   1.000  Hf
  Hf46     1.0000 0.71305  0.86850  0.52412  Biso   1.000  Hf
