data_image0
_cell_length_a       5.08854
_cell_length_b       10.316
_cell_length_c       10.5065
_cell_angle_alpha    89.7398
_cell_angle_beta     80.9322
_cell_angle_gamma    90.4186

_symmetry_space_group_name_H-M    "P 1"
_symmetry_int_tables_number       1

loop_
  _symmetry_equiv_pos_as_xyz
  'x, y, z'

loop_
  _atom_site_label
  _atom_site_occupancy
  _atom_site_fract_x
  _atom_site_fract_y
  _atom_site_fract_z
  _atom_site_thermal_displace_type
  _atom_site_B_iso_or_equiv
  _atom_site_type_symbol
  La1      1.0000 0.25893  0.00191  0.14336  Biso   1.000  La
  Hf1      1.0000 0.27753  0.02322  0.64742  Biso   1.000  Hf
  Hf2      1.0000 0.27803  0.51699  0.14583  Biso   1.000  Hf
  Hf3      1.0000 0.28036  0.51976  0.64610  Biso   1.000  Hf
  Hf4      1.0000 0.27267  0.23108  0.39847  Biso   1.000  Hf
  Hf5      1.0000 0.27868  0.22992  0.89713  Biso   1.000  Hf
  Hf6      1.0000 0.26868  0.72323  0.40039  Biso   1.000  Hf
  Hf7      1.0000 0.29553  0.72713  0.88804  Biso   1.000  Hf
  Hf8      1.0000 0.71812  0.26838  0.10456  Biso   1.000  Hf
  Hf9      1.0000 0.72264  0.27198  0.60544  Biso   1.000  Hf
  Hf10     1.0000 0.74434  0.75588  0.08991  Biso   1.000  Hf
  Hf11     1.0000 0.72526  0.77216  0.60138  Biso   1.000  Hf
  Hf12     1.0000 0.72027  0.47899  0.35405  Biso   1.000  Hf
  Hf13     1.0000 0.72927  0.47510  0.85233  Biso   1.000  Hf
  Hf14     1.0000 0.71408  0.98624  0.36668  Biso   1.000  Hf
  Hf15     1.0000 0.73071  0.97936  0.85182  Biso   1.000  Hf
  Hf16     1.0000 0.06865  0.18045  0.07849  Biso   1.000  Hf
  Hf17     1.0000 0.06909  0.17258  0.58455  Biso   1.000  Hf
  Hf18     1.0000 0.09899  0.67455  0.07824  Biso   1.000  Hf
  Hf19     1.0000 0.07256  0.66867  0.58100  Biso   1.000  Hf
  Hf20     1.0000 0.05423  0.08262  0.34578  Biso   1.000  Hf
  Hf21     1.0000 0.08034  0.07976  0.83027  Biso   1.000  Hf
  Hf22     1.0000 0.06793  0.58057  0.32794  Biso   1.000  Hf
  Hf23     1.0000 0.07606  0.58012  0.82888  Biso   1.000  Hf
  Hf24     1.0000 0.91786  0.42570  0.16730  Biso   1.000  Hf
  Hf25     1.0000 0.92981  0.42070  0.66863  Biso   1.000  Hf
  Hf26     1.0000 0.80915  0.91559  0.18456  Biso   1.000  Hf
  Hf27     1.0000 0.93251  0.91849  0.66967  Biso   1.000  Hf
  Hf28     1.0000 0.92339  0.33319  0.42041  Biso   1.000  Hf
  Hf29     1.0000 0.92921  0.33093  0.91716  Biso   1.000  Hf
  Hf30     1.0000 0.93303  0.83256  0.42007  Biso   1.000  Hf
  Hf31     1.0000 0.96502  0.83791  0.92052  Biso   1.000  Hf
  Hf32     1.0000 0.55171  0.13719  0.25252  Biso   1.000  Hf
  Hf33     1.0000 0.55687  0.12911  0.74069  Biso   1.000  Hf
  Hf34     1.0000 0.54340  0.63971  0.24061  Biso   1.000  Hf
  Hf35     1.0000 0.55927  0.62912  0.73711  Biso   1.000  Hf
  Hf36     1.0000 0.54105  0.12474  0.49779  Biso   1.000  Hf
  Hf37     1.0000 0.56603  0.12292  0.98403  Biso   1.000  Hf
  Hf38     1.0000 0.55276  0.62034  0.48995  Biso   1.000  Hf
  Hf39     1.0000 0.56050  0.61260  0.98706  Biso   1.000  Hf
  Hf40     1.0000 0.44729  0.37761  0.00969  Biso   1.000  Hf
  Hf41     1.0000 0.44610  0.38035  0.51012  Biso   1.000  Hf
  Hf42     1.0000 0.48727  0.86235  0.99294  Biso   1.000  Hf
  Hf43     1.0000 0.44757  0.87966  0.50660  Biso   1.000  Hf
  Hf44     1.0000 0.44065  0.37621  0.26081  Biso   1.000  Hf
  Hf45     1.0000 0.44953  0.37100  0.75885  Biso   1.000  Hf
  Hf46     1.0000 0.45497  0.87085  0.75279  Biso   1.000  Hf
