data_image0
_cell_length_a       10.153
_cell_length_b       5.16987
_cell_length_c       10.3715
_cell_angle_alpha    90.2528
_cell_angle_beta     81.3187
_cell_angle_gamma    90.1471

_symmetry_space_group_name_H-M    "P 1"
_symmetry_int_tables_number       1

loop_
  _symmetry_equiv_pos_as_xyz
  'x, y, z'

loop_
  _atom_site_label
  _atom_site_occupancy
  _atom_site_fract_x
  _atom_site_fract_y
  _atom_site_fract_z
  _atom_site_thermal_displace_type
  _atom_site_B_iso_or_equiv
  _atom_site_type_symbol
  La1      1.0000 0.12990  0.00695  0.13162  Biso   1.000  La
  Hf1      1.0000 0.13941  0.03922  0.64457  Biso   1.000  Hf
  Hf2      1.0000 0.64240  0.03257  0.14859  Biso   1.000  Hf
  Hf3      1.0000 0.64272  0.04439  0.64360  Biso   1.000  Hf
  Hf4      1.0000 0.13894  0.44599  0.39348  Biso   1.000  Hf
  Hf5      1.0000 0.13691  0.45622  0.89011  Biso   1.000  Hf
  Hf6      1.0000 0.63451  0.45646  0.39757  Biso   1.000  Hf
  Hf7      1.0000 0.64104  0.46385  0.89528  Biso   1.000  Hf
  Hf8      1.0000 0.36957  0.51903  0.10752  Biso   1.000  Hf
  Hf9      1.0000 0.36150  0.54033  0.60352  Biso   1.000  Hf
  Hf10     1.0000 0.85954  0.54005  0.10553  Biso   1.000  Hf
  Hf11     1.0000 0.86454  0.54356  0.60309  Biso   1.000  Hf
  Hf12     1.0000 0.36100  0.95350  0.35272  Biso   1.000  Hf
  Hf13     1.0000 0.37325  0.96851  0.84684  Biso   1.000  Hf
  Hf14     1.0000 0.85513  0.95999  0.35731  Biso   1.000  Hf
  Hf15     1.0000 0.86029  0.95845  0.85551  Biso   1.000  Hf
  Hf16     1.0000 0.05447  0.43583  0.08860  Biso   1.000  Hf
  Hf17     1.0000 0.03977  0.34971  0.58799  Biso   1.000  Hf
  Hf18     1.0000 0.54300  0.33752  0.08177  Biso   1.000  Hf
  Hf19     1.0000 0.53614  0.34426  0.58578  Biso   1.000  Hf
  Hf20     1.0000 0.03014  0.14979  0.34167  Biso   1.000  Hf
  Hf21     1.0000 0.04178  0.14082  0.84301  Biso   1.000  Hf
  Hf22     1.0000 0.53741  0.14815  0.33416  Biso   1.000  Hf
  Hf23     1.0000 0.54519  0.15670  0.83053  Biso   1.000  Hf
  Hf24     1.0000 0.46464  0.83905  0.16555  Biso   1.000  Hf
  Hf25     1.0000 0.46517  0.84681  0.66353  Biso   1.000  Hf
  Hf26     1.0000 0.91840  0.88901  0.15923  Biso   1.000  Hf
  Hf27     1.0000 0.96119  0.85269  0.66697  Biso   1.000  Hf
  Hf28     1.0000 0.45871  0.64665  0.41832  Biso   1.000  Hf
  Hf29     1.0000 0.46062  0.65811  0.91873  Biso   1.000  Hf
  Hf30     1.0000 0.96213  0.65258  0.41272  Biso   1.000  Hf
  Hf31     1.0000 0.96026  0.64939  0.91121  Biso   1.000  Hf
  Hf32     1.0000 0.28236  0.24801  0.24394  Biso   1.000  Hf
  Hf33     1.0000 0.27581  0.25856  0.73679  Biso   1.000  Hf
  Hf34     1.0000 0.77197  0.26928  0.24549  Biso   1.000  Hf
  Hf35     1.0000 0.78002  0.26369  0.74147  Biso   1.000  Hf
  Hf36     1.0000 0.27475  0.23601  0.49157  Biso   1.000  Hf
  Hf37     1.0000 0.28441  0.24918  0.97945  Biso   1.000  Hf
  Hf38     1.0000 0.77421  0.24252  0.49350  Biso   1.000  Hf
  Hf39     1.0000 0.77809  0.24171  0.99152  Biso   1.000  Hf
  Hf40     1.0000 0.22195  0.75664  0.51169  Biso   1.000  Hf
  Hf41     1.0000 0.72310  0.75619  0.00719  Biso   1.000  Hf
  Hf42     1.0000 0.72417  0.75828  0.51038  Biso   1.000  Hf
  Hf43     1.0000 0.23300  0.71456  0.25904  Biso   1.000  Hf
  Hf44     1.0000 0.22592  0.74513  0.76720  Biso   1.000  Hf
  Hf45     1.0000 0.71047  0.73601  0.26488  Biso   1.000  Hf
  Hf46     1.0000 0.72416  0.74339  0.75824  Biso   1.000  Hf
