data_image0
_cell_length_a       10.1883
_cell_length_b       10.3485
_cell_length_c       5.2181
_cell_angle_alpha    89.9183
_cell_angle_beta     81.0847
_cell_angle_gamma    90.0697

_symmetry_space_group_name_H-M    "P 1"
_symmetry_int_tables_number       1

loop_
  _symmetry_equiv_pos_as_xyz
  'x, y, z'

loop_
  _atom_site_label
  _atom_site_occupancy
  _atom_site_fract_x
  _atom_site_fract_y
  _atom_site_fract_z
  _atom_site_thermal_displace_type
  _atom_site_B_iso_or_equiv
  _atom_site_type_symbol
  La1      1.0000 0.13598  0.01081  0.28291  Biso   1.000  La
  Hf1      1.0000 0.13818  0.51929  0.29330  Biso   1.000  Hf
  Hf2      1.0000 0.63851  0.02040  0.29215  Biso   1.000  Hf
  Hf3      1.0000 0.63972  0.51720  0.29131  Biso   1.000  Hf
  Hf4      1.0000 0.13800  0.23121  0.79348  Biso   1.000  Hf
  Hf5      1.0000 0.13422  0.72147  0.80099  Biso   1.000  Hf
  Hf6      1.0000 0.63998  0.23104  0.79523  Biso   1.000  Hf
  Hf7      1.0000 0.64213  0.72649  0.78417  Biso   1.000  Hf
  Hf8      1.0000 0.36037  0.26952  0.20989  Biso   1.000  Hf
  Hf9      1.0000 0.37167  0.76324  0.18474  Biso   1.000  Hf
  Hf10     1.0000 0.86266  0.27182  0.20777  Biso   1.000  Hf
  Hf11     1.0000 0.85636  0.76862  0.20908  Biso   1.000  Hf
  Hf12     1.0000 0.36356  0.47681  0.70765  Biso   1.000  Hf
  Hf13     1.0000 0.37088  0.98526  0.71205  Biso   1.000  Hf
  Hf14     1.0000 0.86116  0.47790  0.70650  Biso   1.000  Hf
  Hf15     1.0000 0.85719  0.97951  0.71773  Biso   1.000  Hf
  Hf16     1.0000 0.04092  0.19381  0.17201  Biso   1.000  Hf
  Hf17     1.0000 0.03967  0.67753  0.17286  Biso   1.000  Hf
  Hf18     1.0000 0.53555  0.16927  0.16311  Biso   1.000  Hf
  Hf19     1.0000 0.54135  0.66809  0.15835  Biso   1.000  Hf
  Hf20     1.0000 0.03139  0.07462  0.70908  Biso   1.000  Hf
  Hf21     1.0000 0.03775  0.57198  0.66737  Biso   1.000  Hf
  Hf22     1.0000 0.54263  0.07909  0.66245  Biso   1.000  Hf
  Hf23     1.0000 0.53634  0.57993  0.65795  Biso   1.000  Hf
  Hf24     1.0000 0.46307  0.42124  0.33721  Biso   1.000  Hf
  Hf25     1.0000 0.44944  0.92245  0.33901  Biso   1.000  Hf
  Hf26     1.0000 0.95871  0.43043  0.32642  Biso   1.000  Hf
  Hf27     1.0000 0.93546  0.92341  0.34684  Biso   1.000  Hf
  Hf28     1.0000 0.46645  0.33199  0.83891  Biso   1.000  Hf
  Hf29     1.0000 0.47459  0.83222  0.83507  Biso   1.000  Hf
  Hf30     1.0000 0.95896  0.32614  0.82546  Biso   1.000  Hf
  Hf31     1.0000 0.96304  0.82595  0.83454  Biso   1.000  Hf
  Hf32     1.0000 0.28255  0.13610  0.49716  Biso   1.000  Hf
  Hf33     1.0000 0.27241  0.64155  0.48214  Biso   1.000  Hf
  Hf34     1.0000 0.77507  0.13028  0.48484  Biso   1.000  Hf
  Hf35     1.0000 0.77612  0.62811  0.47915  Biso   1.000  Hf
  Hf36     1.0000 0.28652  0.12745  0.97056  Biso   1.000  Hf
  Hf37     1.0000 0.27687  0.61475  0.98241  Biso   1.000  Hf
  Hf38     1.0000 0.77284  0.12092  0.98958  Biso   1.000  Hf
  Hf39     1.0000 0.77722  0.61810  0.97890  Biso   1.000  Hf
  Hf40     1.0000 0.22522  0.37989  0.01682  Biso   1.000  Hf
  Hf41     1.0000 0.23851  0.86540  0.97074  Biso   1.000  Hf
  Hf42     1.0000 0.72320  0.37895  0.01777  Biso   1.000  Hf
  Hf43     1.0000 0.72285  0.87842  0.01780  Biso   1.000  Hf
  Hf44     1.0000 0.22324  0.37531  0.51715  Biso   1.000  Hf
  Hf45     1.0000 0.72386  0.37074  0.51804  Biso   1.000  Hf
  Hf46     1.0000 0.71134  0.86760  0.51861  Biso   1.000  Hf
