data_image0
_cell_length_a       10.215
_cell_length_b       5.17786
_cell_length_c       10.4053
_cell_angle_alpha    89.6314
_cell_angle_beta     80.867
_cell_angle_gamma    90.4202

_symmetry_space_group_name_H-M    "P 1"
_symmetry_int_tables_number       1

loop_
  _symmetry_equiv_pos_as_xyz
  'x, y, z'

loop_
  _atom_site_label
  _atom_site_occupancy
  _atom_site_fract_x
  _atom_site_fract_y
  _atom_site_fract_z
  _atom_site_thermal_displace_type
  _atom_site_B_iso_or_equiv
  _atom_site_type_symbol
  La1      1.0000 0.12945  0.01632  0.13511  Biso   1.000  La
  Hf1      1.0000 0.13823  0.04139  0.64664  Biso   1.000  Hf
  Hf2      1.0000 0.64452  0.03717  0.14891  Biso   1.000  Hf
  Hf3      1.0000 0.64129  0.04428  0.64546  Biso   1.000  Hf
  Hf4      1.0000 0.13731  0.45376  0.39538  Biso   1.000  Hf
  Hf5      1.0000 0.13097  0.47038  0.88914  Biso   1.000  Hf
  Hf6      1.0000 0.63319  0.45749  0.39872  Biso   1.000  Hf
  Hf7      1.0000 0.64386  0.45354  0.89544  Biso   1.000  Hf
  Hf8      1.0000 0.37452  0.54605  0.10864  Biso   1.000  Hf
  Hf9      1.0000 0.35857  0.53562  0.60135  Biso   1.000  Hf
  Hf10     1.0000 0.85735  0.54108  0.10568  Biso   1.000  Hf
  Hf11     1.0000 0.86446  0.54629  0.60352  Biso   1.000  Hf
  Hf12     1.0000 0.35979  0.96101  0.35419  Biso   1.000  Hf
  Hf13     1.0000 0.37241  0.93488  0.84272  Biso   1.000  Hf
  Hf14     1.0000 0.85465  0.96245  0.35945  Biso   1.000  Hf
  Hf15     1.0000 0.85967  0.96031  0.85398  Biso   1.000  Hf
  Hf16     1.0000 0.04490  0.41090  0.08252  Biso   1.000  Hf
  Hf17     1.0000 0.04027  0.35761  0.58988  Biso   1.000  Hf
  Hf18     1.0000 0.54150  0.33423  0.08121  Biso   1.000  Hf
  Hf19     1.0000 0.53169  0.33288  0.58318  Biso   1.000  Hf
  Hf20     1.0000 0.02796  0.15881  0.34591  Biso   1.000  Hf
  Hf21     1.0000 0.03998  0.14234  0.84017  Biso   1.000  Hf
  Hf22     1.0000 0.53626  0.15677  0.33253  Biso   1.000  Hf
  Hf23     1.0000 0.53808  0.15609  0.83058  Biso   1.000  Hf
  Hf24     1.0000 0.46655  0.84556  0.16873  Biso   1.000  Hf
  Hf25     1.0000 0.46795  0.82824  0.66628  Biso   1.000  Hf
  Hf26     1.0000 0.92297  0.87646  0.16565  Biso   1.000  Hf
  Hf27     1.0000 0.96152  0.85643  0.66501  Biso   1.000  Hf
  Hf28     1.0000 0.45969  0.65625  0.42000  Biso   1.000  Hf
  Hf29     1.0000 0.47732  0.65663  0.91838  Biso   1.000  Hf
  Hf30     1.0000 0.96231  0.65793  0.41505  Biso   1.000  Hf
  Hf31     1.0000 0.95637  0.64959  0.90880  Biso   1.000  Hf
  Hf32     1.0000 0.28421  0.25891  0.23945  Biso   1.000  Hf
  Hf33     1.0000 0.27713  0.25672  0.74806  Biso   1.000  Hf
  Hf34     1.0000 0.77240  0.26875  0.24581  Biso   1.000  Hf
  Hf35     1.0000 0.77795  0.25881  0.74104  Biso   1.000  Hf
  Hf36     1.0000 0.27359  0.24124  0.49284  Biso   1.000  Hf
  Hf37     1.0000 0.77237  0.24650  0.49464  Biso   1.000  Hf
  Hf38     1.0000 0.77893  0.23774  0.99250  Biso   1.000  Hf
  Hf39     1.0000 0.24795  0.72109  0.98999  Biso   1.000  Hf
  Hf40     1.0000 0.22250  0.76316  0.50895  Biso   1.000  Hf
  Hf41     1.0000 0.72372  0.75596  0.00868  Biso   1.000  Hf
  Hf42     1.0000 0.72377  0.76028  0.51180  Biso   1.000  Hf
  Hf43     1.0000 0.23421  0.72397  0.26216  Biso   1.000  Hf
  Hf44     1.0000 0.22425  0.74145  0.75190  Biso   1.000  Hf
  Hf45     1.0000 0.70906  0.73983  0.26641  Biso   1.000  Hf
  Hf46     1.0000 0.72671  0.74023  0.75800  Biso   1.000  Hf
