data_image0
_cell_length_a       10.2035
_cell_length_b       10.2916
_cell_length_c       10.5259
_cell_angle_alpha    89.9872
_cell_angle_beta     81.0688
_cell_angle_gamma    89.9388

_symmetry_space_group_name_H-M    "P 1"
_symmetry_int_tables_number       1

loop_
  _symmetry_equiv_pos_as_xyz
  'x, y, z'

loop_
  _atom_site_label
  _atom_site_occupancy
  _atom_site_fract_x
  _atom_site_fract_y
  _atom_site_fract_z
  _atom_site_thermal_displace_type
  _atom_site_B_iso_or_equiv
  _atom_site_type_symbol
  La1      1.0000 0.12560  0.00644  0.14239  Biso   1.000  La
  Hf1      1.0000 0.14076  0.02026  0.64519  Biso   1.000  Hf
  Hf2      1.0000 0.13899  0.51452  0.14469  Biso   1.000  Hf
  Hf3      1.0000 0.13975  0.52200  0.64339  Biso   1.000  Hf
  Hf4      1.0000 0.64311  0.01349  0.14788  Biso   1.000  Hf
  Hf5      1.0000 0.63801  0.02123  0.64868  Biso   1.000  Hf
  Hf6      1.0000 0.63407  0.52719  0.14897  Biso   1.000  Hf
  Hf7      1.0000 0.64033  0.52248  0.64534  Biso   1.000  Hf
  Hf8      1.0000 0.13348  0.22803  0.40044  Biso   1.000  Hf
  Hf9      1.0000 0.14691  0.24082  0.87510  Biso   1.000  Hf
  Hf10     1.0000 0.13632  0.72597  0.39422  Biso   1.000  Hf
  Hf11     1.0000 0.14403  0.72499  0.89482  Biso   1.000  Hf
  Hf12     1.0000 0.63470  0.22866  0.39729  Biso   1.000  Hf
  Hf13     1.0000 0.64430  0.22800  0.88995  Biso   1.000  Hf
  Hf14     1.0000 0.63604  0.72896  0.39988  Biso   1.000  Hf
  Hf15     1.0000 0.64263  0.73077  0.89295  Biso   1.000  Hf
  La2      1.0000 0.36841  0.25657  0.10947  Biso   1.000  La
  Hf16     1.0000 0.36432  0.27236  0.59882  Biso   1.000  Hf
  Hf17     1.0000 0.36659  0.76816  0.10262  Biso   1.000  Hf
  Hf18     1.0000 0.36152  0.77174  0.60288  Biso   1.000  Hf
  Hf19     1.0000 0.83605  0.27782  0.10772  Biso   1.000  Hf
  Hf20     1.0000 0.86128  0.27184  0.60515  Biso   1.000  Hf
  Hf21     1.0000 0.85982  0.76284  0.10245  Biso   1.000  Hf
  Hf22     1.0000 0.86308  0.77174  0.60484  Biso   1.000  Hf
  Hf23     1.0000 0.35866  0.48186  0.35345  Biso   1.000  Hf
  Hf24     1.0000 0.36831  0.47869  0.85134  Biso   1.000  Hf
  Hf25     1.0000 0.35916  0.97957  0.35629  Biso   1.000  Hf
  Hf26     1.0000 0.36201  0.97637  0.85077  Biso   1.000  Hf
  Hf27     1.0000 0.86056  0.47817  0.35519  Biso   1.000  Hf
  Hf28     1.0000 0.86677  0.47739  0.85477  Biso   1.000  Hf
  Hf29     1.0000 0.85159  0.98028  0.36136  Biso   1.000  Hf
  Hf30     1.0000 0.86881  0.97750  0.85540  Biso   1.000  Hf
  Hf31     1.0000 0.03229  0.16442  0.58075  Biso   1.000  Hf
  Hf32     1.0000 0.03667  0.66430  0.07737  Biso   1.000  Hf
  Hf33     1.0000 0.03283  0.66323  0.57536  Biso   1.000  Hf
  Hf34     1.0000 0.57615  0.17602  0.07526  Biso   1.000  Hf
  Hf35     1.0000 0.53502  0.16814  0.57866  Biso   1.000  Hf
  Hf36     1.0000 0.54388  0.67879  0.08003  Biso   1.000  Hf
  Hf37     1.0000 0.53639  0.67114  0.58302  Biso   1.000  Hf
  Hf38     1.0000 0.00896  0.10129  0.33117  Biso   1.000  Hf
  Hf39     1.0000 0.03996  0.08407  0.83080  Biso   1.000  Hf
  Hf40     1.0000 0.02961  0.58553  0.32286  Biso   1.000  Hf
  Hf41     1.0000 0.03823  0.57971  0.82785  Biso   1.000  Hf
  Hf42     1.0000 0.53221  0.08298  0.32782  Biso   1.000  Hf
  Hf43     1.0000 0.53514  0.08177  0.83146  Biso   1.000  Hf
  Hf44     1.0000 0.53452  0.58462  0.33329  Biso   1.000  Hf
  Hf45     1.0000 0.53971  0.58264  0.82853  Biso   1.000  Hf
  Hf46     1.0000 0.46192  0.43868  0.17208  Biso   1.000  Hf
  Hf47     1.0000 0.46724  0.42246  0.66460  Biso   1.000  Hf
  Hf48     1.0000 0.45915  0.93035  0.16429  Biso   1.000  Hf
  Hf49     1.0000 0.46421  0.91952  0.67073  Biso   1.000  Hf
  Hf50     1.0000 0.96503  0.39938  0.17675  Biso   1.000  Hf
  Hf51     1.0000 0.97251  0.40874  0.68053  Biso   1.000  Hf
  Hf52     1.0000 0.92921  0.91948  0.17759  Biso   1.000  Hf
  Hf53     1.0000 0.96858  0.91422  0.67445  Biso   1.000  Hf
  Hf54     1.0000 0.46167  0.32993  0.41533  Biso   1.000  Hf
  Hf55     1.0000 0.47648  0.33227  0.90402  Biso   1.000  Hf
  Hf56     1.0000 0.46273  0.83115  0.42359  Biso   1.000  Hf
  Hf57     1.0000 0.47243  0.83359  0.91804  Biso   1.000  Hf
  Hf58     1.0000 0.96422  0.34206  0.43258  Biso   1.000  Hf
  Hf59     1.0000 0.96521  0.32474  0.93605  Biso   1.000  Hf
  Hf60     1.0000 0.96615  0.83771  0.42202  Biso   1.000  Hf
  Hf61     1.0000 0.97318  0.83419  0.92652  Biso   1.000  Hf
  Hf62     1.0000 0.25944  0.11989  0.26371  Biso   1.000  Hf
  Hf63     1.0000 0.27915  0.13105  0.73229  Biso   1.000  Hf
  Hf64     1.0000 0.27266  0.62512  0.23793  Biso   1.000  Hf
  Hf65     1.0000 0.27684  0.62843  0.73830  Biso   1.000  Hf
  Hf66     1.0000 0.77062  0.13281  0.24445  Biso   1.000  Hf
  Hf67     1.0000 0.77682  0.12753  0.74194  Biso   1.000  Hf
  Hf68     1.0000 0.77569  0.62889  0.24134  Biso   1.000  Hf
  Hf69     1.0000 0.78124  0.62802  0.73992  Biso   1.000  Hf
  Hf70     1.0000 0.27424  0.12086  0.49476  Biso   1.000  Hf
  Hf71     1.0000 0.25429  0.12063  0.97263  Biso   1.000  Hf
  Hf72     1.0000 0.27444  0.62312  0.48904  Biso   1.000  Hf
  Hf73     1.0000 0.28109  0.61633  0.99017  Biso   1.000  Hf
  Hf74     1.0000 0.76996  0.12234  0.49555  Biso   1.000  Hf
  Hf75     1.0000 0.80120  0.11837  0.99123  Biso   1.000  Hf
  Hf76     1.0000 0.77616  0.62101  0.49112  Biso   1.000  Hf
  Hf77     1.0000 0.77825  0.62036  0.98768  Biso   1.000  Hf
  Hf78     1.0000 0.21512  0.38082  0.99819  Biso   1.000  Hf
  Hf79     1.0000 0.22425  0.38072  0.51010  Biso   1.000  Hf
  Hf80     1.0000 0.23953  0.86411  0.99758  Biso   1.000  Hf
  Hf81     1.0000 0.22218  0.87900  0.50971  Biso   1.000  Hf
  Hf82     1.0000 0.72281  0.38556  0.00834  Biso   1.000  Hf
  Hf83     1.0000 0.72240  0.37927  0.50998  Biso   1.000  Hf
  Hf84     1.0000 0.72856  0.87755  0.00852  Biso   1.000  Hf
  Hf85     1.0000 0.72362  0.87916  0.51517  Biso   1.000  Hf
  Hf86     1.0000 0.21340  0.37586  0.26861  Biso   1.000  Hf
  Hf87     1.0000 0.23246  0.37398  0.75032  Biso   1.000  Hf
  Hf88     1.0000 0.23313  0.85878  0.26156  Biso   1.000  Hf
  Hf89     1.0000 0.22521  0.87003  0.75725  Biso   1.000  Hf
  Hf90     1.0000 0.71702  0.37504  0.26113  Biso   1.000  Hf
  Hf91     1.0000 0.73107  0.37233  0.75839  Biso   1.000  Hf
  Hf92     1.0000 0.70732  0.87020  0.26903  Biso   1.000  Hf
  Hf93     1.0000 0.72830  0.87140  0.76022  Biso   1.000  Hf
