data_image0
_cell_length_a       10.1984
_cell_length_b       10.3544
_cell_length_c       10.4755
_cell_angle_alpha    90.0733
_cell_angle_beta     80.4368
_cell_angle_gamma    90.1495

_symmetry_space_group_name_H-M    "P 1"
_symmetry_int_tables_number       1

loop_
  _symmetry_equiv_pos_as_xyz
  'x, y, z'

loop_
  _atom_site_label
  _atom_site_occupancy
  _atom_site_fract_x
  _atom_site_fract_y
  _atom_site_fract_z
  _atom_site_thermal_displace_type
  _atom_site_B_iso_or_equiv
  _atom_site_type_symbol
  La1      1.0000 0.13911  0.01289  0.13941  Biso   1.000  La
  Hf1      1.0000 0.13858  0.02101  0.64459  Biso   1.000  Hf
  Hf2      1.0000 0.13827  0.52113  0.14459  Biso   1.000  Hf
  Hf3      1.0000 0.13976  0.52064  0.64780  Biso   1.000  Hf
  Hf4      1.0000 0.63927  0.02014  0.14452  Biso   1.000  Hf
  Hf5      1.0000 0.63730  0.02125  0.64885  Biso   1.000  Hf
  Hf6      1.0000 0.63948  0.52019  0.14734  Biso   1.000  Hf
  Hf7      1.0000 0.63785  0.52136  0.64506  Biso   1.000  Hf
  Hf8      1.0000 0.14546  0.23406  0.39856  Biso   1.000  Hf
  Hf9      1.0000 0.13687  0.23203  0.89527  Biso   1.000  Hf
  Hf10     1.0000 0.14176  0.72382  0.39790  Biso   1.000  Hf
  Hf11     1.0000 0.14034  0.72738  0.89401  Biso   1.000  Hf
  Hf12     1.0000 0.63274  0.23339  0.39624  Biso   1.000  Hf
  Hf13     1.0000 0.64013  0.22840  0.89613  Biso   1.000  Hf
  Hf14     1.0000 0.63720  0.72822  0.39687  Biso   1.000  Hf
  Hf15     1.0000 0.64103  0.72948  0.89336  Biso   1.000  Hf
  Hf16     1.0000 0.36272  0.27169  0.10293  Biso   1.000  Hf
  Hf17     1.0000 0.35887  0.27047  0.60645  Biso   1.000  Hf
  Hf18     1.0000 0.36719  0.76652  0.10356  Biso   1.000  Hf
  Hf19     1.0000 0.35979  0.77153  0.60368  Biso   1.000  Hf
  Hf20     1.0000 0.85817  0.27611  0.10190  Biso   1.000  Hf
  Hf21     1.0000 0.85957  0.27256  0.60580  Biso   1.000  Hf
  Hf22     1.0000 0.85447  0.76585  0.10124  Biso   1.000  Hf
  Hf23     1.0000 0.86304  0.76790  0.60454  Biso   1.000  Hf
  Hf24     1.0000 0.36044  0.47972  0.35246  Biso   1.000  Hf
  Hf25     1.0000 0.36207  0.47858  0.85475  Biso   1.000  Hf
  Hf26     1.0000 0.36066  0.97977  0.35527  Biso   1.000  Hf
  Hf27     1.0000 0.36262  0.97870  0.85097  Biso   1.000  Hf
  Hf28     1.0000 0.86168  0.47879  0.35521  Biso   1.000  Hf
  Hf29     1.0000 0.86016  0.47930  0.85200  Biso   1.000  Hf
  La2      1.0000 0.86078  0.98702  0.36037  Biso   1.000  La
  Hf30     1.0000 0.86135  0.97893  0.85523  Biso   1.000  Hf
  Hf31     1.0000 0.03488  0.19160  0.07953  Biso   1.000  Hf
  Hf32     1.0000 0.03619  0.17575  0.58816  Biso   1.000  Hf
  Hf33     1.0000 0.03834  0.67666  0.08353  Biso   1.000  Hf
  Hf34     1.0000 0.04003  0.67066  0.58884  Biso   1.000  Hf
  Hf35     1.0000 0.53592  0.16813  0.07729  Biso   1.000  Hf
  Hf36     1.0000 0.52667  0.16511  0.58101  Biso   1.000  Hf
  Hf37     1.0000 0.53894  0.66758  0.07838  Biso   1.000  Hf
  Hf38     1.0000 0.53124  0.66484  0.57990  Biso   1.000  Hf
  Hf39     1.0000 0.06680  0.06854  0.35658  Biso   1.000  Hf
  Hf40     1.0000 0.03806  0.07636  0.83469  Biso   1.000  Hf
  Hf41     1.0000 0.04058  0.57258  0.33345  Biso   1.000  Hf
  Hf42     1.0000 0.03697  0.57561  0.83393  Biso   1.000  Hf
  Hf43     1.0000 0.53719  0.07792  0.33250  Biso   1.000  Hf
  Hf44     1.0000 0.53603  0.08255  0.82873  Biso   1.000  Hf
  Hf45     1.0000 0.53310  0.58287  0.32861  Biso   1.000  Hf
  Hf46     1.0000 0.53480  0.58282  0.82887  Biso   1.000  Hf
  Hf47     1.0000 0.46684  0.41705  0.17118  Biso   1.000  Hf
  Hf48     1.0000 0.46513  0.41711  0.67095  Biso   1.000  Hf
  Hf49     1.0000 0.46276  0.92198  0.16730  Biso   1.000  Hf
  Hf50     1.0000 0.46388  0.91739  0.67109  Biso   1.000  Hf
  Hf51     1.0000 0.95935  0.42737  0.16633  Biso   1.000  Hf
  Hf52     1.0000 0.96296  0.42431  0.66589  Biso   1.000  Hf
  Hf53     1.0000 0.93307  0.93143  0.14316  Biso   1.000  Hf
  Hf54     1.0000 0.96186  0.92357  0.66513  Biso   1.000  Hf
  Hf55     1.0000 0.46100  0.33235  0.42141  Biso   1.000  Hf
  Hf56     1.0000 0.46866  0.33509  0.91992  Biso   1.000  Hf
  Hf57     1.0000 0.46401  0.83178  0.42251  Biso   1.000  Hf
  Hf58     1.0000 0.47323  0.83483  0.91880  Biso   1.000  Hf
  Hf59     1.0000 0.96161  0.32329  0.41629  Biso   1.000  Hf
  Hf60     1.0000 0.95988  0.32927  0.91097  Biso   1.000  Hf
  Hf61     1.0000 0.96507  0.80836  0.42029  Biso   1.000  Hf
  Hf62     1.0000 0.96370  0.82416  0.91164  Biso   1.000  Hf
  Hf63     1.0000 0.29256  0.13898  0.24662  Biso   1.000  Hf
  Hf64     1.0000 0.27344  0.12897  0.73983  Biso   1.000  Hf
  Hf65     1.0000 0.27832  0.62265  0.23788  Biso   1.000  Hf
  Hf66     1.0000 0.27615  0.62928  0.74144  Biso   1.000  Hf
  Hf67     1.0000 0.76249  0.14405  0.23585  Biso   1.000  Hf
  Hf68     1.0000 0.77745  0.12881  0.74326  Biso   1.000  Hf
  Hf69     1.0000 0.77669  0.62726  0.24234  Biso   1.000  Hf
  Hf70     1.0000 0.77555  0.62815  0.73967  Biso   1.000  Hf
  Hf71     1.0000 0.27703  0.12165  0.49476  Biso   1.000  Hf
  Hf72     1.0000 0.28507  0.12833  0.97939  Biso   1.000  Hf
  Hf73     1.0000 0.27748  0.61917  0.49174  Biso   1.000  Hf
  Hf74     1.0000 0.27651  0.61793  0.99045  Biso   1.000  Hf
  Hf75     1.0000 0.75934  0.13501  0.50504  Biso   1.000  Hf
  Hf76     1.0000 0.77582  0.12082  0.98943  Biso   1.000  Hf
  Hf77     1.0000 0.77453  0.61976  0.49160  Biso   1.000  Hf
  Hf78     1.0000 0.77573  0.61929  0.98891  Biso   1.000  Hf
  Hf79     1.0000 0.22539  0.38016  0.00819  Biso   1.000  Hf
  Hf80     1.0000 0.22419  0.38065  0.51089  Biso   1.000  Hf
  Hf81     1.0000 0.24059  0.86492  0.99479  Biso   1.000  Hf
  Hf82     1.0000 0.22410  0.87912  0.51039  Biso   1.000  Hf
  Hf83     1.0000 0.72244  0.38076  0.00804  Biso   1.000  Hf
  Hf84     1.0000 0.72340  0.38202  0.50935  Biso   1.000  Hf
  Hf85     1.0000 0.72289  0.87826  0.00503  Biso   1.000  Hf
  Hf86     1.0000 0.71485  0.87162  0.52043  Biso   1.000  Hf
  Hf87     1.0000 0.22324  0.37265  0.25746  Biso   1.000  Hf
  Hf88     1.0000 0.22435  0.37180  0.76015  Biso   1.000  Hf
  Hf89     1.0000 0.23745  0.85587  0.26394  Biso   1.000  Hf
  Hf90     1.0000 0.22247  0.87114  0.75656  Biso   1.000  Hf
  Hf91     1.0000 0.72162  0.37728  0.26193  Biso   1.000  Hf
  Hf92     1.0000 0.72375  0.37067  0.75838  Biso   1.000  Hf
  Hf93     1.0000 0.70739  0.86092  0.25317  Biso   1.000  Hf
  Hf94     1.0000 0.72647  0.87099  0.75997  Biso   1.000  Hf
