data_image0
_cell_length_a       10.2119
_cell_length_b       10.3473
_cell_length_c       10.5047
_cell_angle_alpha    90.0338
_cell_angle_beta     80.5709
_cell_angle_gamma    89.9543

_symmetry_space_group_name_H-M    "P 1"
_symmetry_int_tables_number       1

loop_
  _symmetry_equiv_pos_as_xyz
  'x, y, z'

loop_
  _atom_site_label
  _atom_site_occupancy
  _atom_site_fract_x
  _atom_site_fract_y
  _atom_site_fract_z
  _atom_site_thermal_displace_type
  _atom_site_B_iso_or_equiv
  _atom_site_type_symbol
  La1      1.0000 0.13442  0.01327  0.14146  Biso   1.000  La
  Hf1      1.0000 0.13794  0.02022  0.64680  Biso   1.000  Hf
  Hf2      1.0000 0.14234  0.52093  0.14221  Biso   1.000  Hf
  Hf3      1.0000 0.13609  0.52349  0.64670  Biso   1.000  Hf
  Hf4      1.0000 0.63845  0.01625  0.14379  Biso   1.000  Hf
  Hf5      1.0000 0.63949  0.02267  0.64886  Biso   1.000  Hf
  Hf6      1.0000 0.63978  0.51941  0.14448  Biso   1.000  Hf
  Hf7      1.0000 0.63946  0.52315  0.64529  Biso   1.000  Hf
  Hf8      1.0000 0.13980  0.22904  0.39825  Biso   1.000  Hf
  Hf9      1.0000 0.13919  0.23228  0.89482  Biso   1.000  Hf
  Hf10     1.0000 0.13837  0.72969  0.39743  Biso   1.000  Hf
  Hf11     1.0000 0.14106  0.72841  0.89329  Biso   1.000  Hf
  La2      1.0000 0.63172  0.23876  0.39045  Biso   1.000  La
  Hf12     1.0000 0.64062  0.22883  0.89658  Biso   1.000  Hf
  Hf13     1.0000 0.63615  0.72742  0.39504  Biso   1.000  Hf
  Hf14     1.0000 0.64215  0.72858  0.89345  Biso   1.000  Hf
  Hf15     1.0000 0.36182  0.26966  0.10523  Biso   1.000  Hf
  Hf16     1.0000 0.35301  0.27060  0.61015  Biso   1.000  Hf
  Hf17     1.0000 0.36618  0.76663  0.10106  Biso   1.000  Hf
  Hf18     1.0000 0.36035  0.77130  0.60389  Biso   1.000  Hf
  Hf19     1.0000 0.86228  0.27420  0.09996  Biso   1.000  Hf
  Hf20     1.0000 0.86193  0.27194  0.60508  Biso   1.000  Hf
  Hf21     1.0000 0.85796  0.76585  0.10296  Biso   1.000  Hf
  Hf22     1.0000 0.86012  0.77296  0.60297  Biso   1.000  Hf
  Hf23     1.0000 0.35480  0.48265  0.35243  Biso   1.000  Hf
  Hf24     1.0000 0.36403  0.47783  0.85342  Biso   1.000  Hf
  Hf25     1.0000 0.35990  0.97684  0.35390  Biso   1.000  Hf
  Hf26     1.0000 0.36412  0.97762  0.85191  Biso   1.000  Hf
  Hf27     1.0000 0.86722  0.48338  0.35301  Biso   1.000  Hf
  Hf28     1.0000 0.85979  0.47904  0.85167  Biso   1.000  Hf
  Hf29     1.0000 0.85316  0.97968  0.36061  Biso   1.000  Hf
  Hf30     1.0000 0.86236  0.97929  0.85487  Biso   1.000  Hf
  Hf31     1.0000 0.03813  0.19037  0.07502  Biso   1.000  Hf
  Hf32     1.0000 0.03703  0.17276  0.58611  Biso   1.000  Hf
  Hf33     1.0000 0.03789  0.67090  0.07837  Biso   1.000  Hf
  Hf34     1.0000 0.03299  0.66914  0.58006  Biso   1.000  Hf
  Hf35     1.0000 0.53839  0.17013  0.08251  Biso   1.000  Hf
  Hf36     1.0000 0.52313  0.16464  0.59653  Biso   1.000  Hf
  Hf37     1.0000 0.53884  0.66741  0.07740  Biso   1.000  Hf
  Hf38     1.0000 0.53354  0.66650  0.57939  Biso   1.000  Hf
  Hf39     1.0000 0.02467  0.08518  0.34722  Biso   1.000  Hf
  Hf40     1.0000 0.03611  0.08074  0.83371  Biso   1.000  Hf
  Hf41     1.0000 0.03834  0.58493  0.32720  Biso   1.000  Hf
  Hf42     1.0000 0.03345  0.58292  0.82917  Biso   1.000  Hf
  Hf43     1.0000 0.53686  0.05851  0.32669  Biso   1.000  Hf
  Hf44     1.0000 0.53853  0.07856  0.83376  Biso   1.000  Hf
  Hf45     1.0000 0.53539  0.57618  0.33027  Biso   1.000  Hf
  Hf46     1.0000 0.53624  0.58200  0.82921  Biso   1.000  Hf
  Hf47     1.0000 0.46761  0.41465  0.17351  Biso   1.000  Hf
  Hf48     1.0000 0.46627  0.41681  0.66966  Biso   1.000  Hf
  Hf49     1.0000 0.46104  0.91960  0.16173  Biso   1.000  Hf
  Hf50     1.0000 0.46627  0.91542  0.67114  Biso   1.000  Hf
  Hf51     1.0000 0.97076  0.42195  0.16781  Biso   1.000  Hf
  Hf52     1.0000 0.96382  0.42093  0.67019  Biso   1.000  Hf
  Hf53     1.0000 0.94059  0.91112  0.18171  Biso   1.000  Hf
  Hf54     1.0000 0.96413  0.91911  0.67179  Biso   1.000  Hf
  Hf55     1.0000 0.43231  0.32946  0.42686  Biso   1.000  Hf
  Hf56     1.0000 0.46832  0.33363  0.92164  Biso   1.000  Hf
  Hf57     1.0000 0.46004  0.82528  0.42058  Biso   1.000  Hf
  Hf58     1.0000 0.47418  0.83247  0.91716  Biso   1.000  Hf
  Hf59     1.0000 0.96593  0.33325  0.42007  Biso   1.000  Hf
  Hf60     1.0000 0.96327  0.33410  0.91429  Biso   1.000  Hf
  Hf61     1.0000 0.96520  0.83469  0.42280  Biso   1.000  Hf
  Hf62     1.0000 0.96865  0.83482  0.92315  Biso   1.000  Hf
  Hf63     1.0000 0.28356  0.13550  0.24975  Biso   1.000  Hf
  Hf64     1.0000 0.27209  0.12749  0.74155  Biso   1.000  Hf
  Hf65     1.0000 0.27787  0.62531  0.23652  Biso   1.000  Hf
  Hf66     1.0000 0.27576  0.62897  0.73929  Biso   1.000  Hf
  Hf67     1.0000 0.78387  0.12332  0.23070  Biso   1.000  Hf
  Hf68     1.0000 0.77668  0.13026  0.74375  Biso   1.000  Hf
  Hf69     1.0000 0.77442  0.63094  0.23993  Biso   1.000  Hf
  Hf70     1.0000 0.77567  0.62982  0.73813  Biso   1.000  Hf
  Hf71     1.0000 0.27327  0.11796  0.49485  Biso   1.000  Hf
  Hf72     1.0000 0.28659  0.12778  0.98024  Biso   1.000  Hf
  Hf73     1.0000 0.27311  0.62132  0.49046  Biso   1.000  Hf
  Hf74     1.0000 0.27749  0.61771  0.98733  Biso   1.000  Hf
  Hf75     1.0000 0.77805  0.11752  0.50203  Biso   1.000  Hf
  Hf76     1.0000 0.77681  0.12064  0.98895  Biso   1.000  Hf
  Hf77     1.0000 0.77640  0.62707  0.48793  Biso   1.000  Hf
  Hf78     1.0000 0.77660  0.61890  0.98831  Biso   1.000  Hf
  Hf79     1.0000 0.22868  0.37983  0.00764  Biso   1.000  Hf
  Hf80     1.0000 0.21071  0.38093  0.51409  Biso   1.000  Hf
  Hf81     1.0000 0.24050  0.86532  0.99462  Biso   1.000  Hf
  Hf82     1.0000 0.22245  0.87823  0.51157  Biso   1.000  Hf
  Hf83     1.0000 0.72300  0.37940  0.00582  Biso   1.000  Hf
  Hf84     1.0000 0.73619  0.39171  0.51355  Biso   1.000  Hf
  Hf85     1.0000 0.72645  0.87642  0.00754  Biso   1.000  Hf
  Hf86     1.0000 0.72052  0.87853  0.51040  Biso   1.000  Hf
  Hf87     1.0000 0.22251  0.37253  0.25801  Biso   1.000  Hf
  Hf88     1.0000 0.22441  0.37338  0.76047  Biso   1.000  Hf
  Hf89     1.0000 0.23502  0.85807  0.26367  Biso   1.000  Hf
  Hf90     1.0000 0.22411  0.87118  0.75659  Biso   1.000  Hf
  Hf91     1.0000 0.74023  0.38523  0.24607  Biso   1.000  Hf
  Hf92     1.0000 0.72392  0.37065  0.75922  Biso   1.000  Hf
  Hf93     1.0000 0.71250  0.86823  0.26139  Biso   1.000  Hf
  Hf94     1.0000 0.72657  0.87115  0.75896  Biso   1.000  Hf
