data_image0
_cell_length_a       10.2167
_cell_length_b       10.3403
_cell_length_c       10.4736
_cell_angle_alpha    90.0387
_cell_angle_beta     80.6779
_cell_angle_gamma    90.3375

_symmetry_space_group_name_H-M    "P 1"
_symmetry_int_tables_number       1

loop_
  _symmetry_equiv_pos_as_xyz
  'x, y, z'

loop_
  _atom_site_label
  _atom_site_occupancy
  _atom_site_fract_x
  _atom_site_fract_y
  _atom_site_fract_z
  _atom_site_thermal_displace_type
  _atom_site_B_iso_or_equiv
  _atom_site_type_symbol
  La1      1.0000 0.13159  0.01031  0.14045  Biso   1.000  La
  Hf1      1.0000 0.13978  0.02056  0.64459  Biso   1.000  Hf
  Hf2      1.0000 0.13978  0.52057  0.14455  Biso   1.000  Hf
  La2      1.0000 0.13153  0.51026  0.64042  Biso   1.000  La
  Hf3      1.0000 0.64126  0.01974  0.14619  Biso   1.000  Hf
  Hf4      1.0000 0.63925  0.01942  0.64804  Biso   1.000  Hf
  Hf5      1.0000 0.63926  0.51944  0.14802  Biso   1.000  Hf
  Hf6      1.0000 0.64124  0.51973  0.64617  Biso   1.000  Hf
  Hf7      1.0000 0.14126  0.22715  0.39520  Biso   1.000  Hf
  Hf8      1.0000 0.13883  0.23041  0.89455  Biso   1.000  Hf
  Hf9      1.0000 0.13887  0.73041  0.39452  Biso   1.000  Hf
  Hf10     1.0000 0.14122  0.72711  0.89519  Biso   1.000  Hf
  Hf11     1.0000 0.64068  0.23032  0.39492  Biso   1.000  Hf
  Hf12     1.0000 0.63723  0.22652  0.89815  Biso   1.000  Hf
  Hf13     1.0000 0.63725  0.72652  0.39808  Biso   1.000  Hf
  Hf14     1.0000 0.64067  0.73029  0.89491  Biso   1.000  Hf
  Hf15     1.0000 0.35949  0.26893  0.10372  Biso   1.000  Hf
  Hf16     1.0000 0.36678  0.26645  0.60266  Biso   1.000  Hf
  Hf17     1.0000 0.36679  0.76649  0.10261  Biso   1.000  Hf
  Hf18     1.0000 0.35948  0.76890  0.60371  Biso   1.000  Hf
  Hf19     1.0000 0.86107  0.27394  0.10281  Biso   1.000  Hf
  Hf20     1.0000 0.85835  0.26690  0.60461  Biso   1.000  Hf
  Hf21     1.0000 0.85835  0.76696  0.10456  Biso   1.000  Hf
  Hf22     1.0000 0.86107  0.77395  0.60280  Biso   1.000  Hf
  Hf23     1.0000 0.36223  0.47725  0.35004  Biso   1.000  Hf
  Hf24     1.0000 0.36369  0.47840  0.85442  Biso   1.000  Hf
  Hf25     1.0000 0.36372  0.97838  0.35443  Biso   1.000  Hf
  Hf26     1.0000 0.36221  0.97724  0.85005  Biso   1.000  Hf
  Hf27     1.0000 0.86293  0.47907  0.35594  Biso   1.000  Hf
  Hf28     1.0000 0.85235  0.47981  0.85877  Biso   1.000  Hf
  Hf29     1.0000 0.85238  0.97981  0.35875  Biso   1.000  Hf
  Hf30     1.0000 0.86289  0.97906  0.85594  Biso   1.000  Hf
  Hf31     1.0000 0.03676  0.19233  0.07824  Biso   1.000  Hf
  Hf32     1.0000 0.04073  0.18125  0.58926  Biso   1.000  Hf
  Hf33     1.0000 0.04071  0.68121  0.08918  Biso   1.000  Hf
  Hf34     1.0000 0.03673  0.69229  0.57821  Biso   1.000  Hf
  Hf35     1.0000 0.53453  0.16553  0.08038  Biso   1.000  Hf
  Hf36     1.0000 0.53698  0.16507  0.57873  Biso   1.000  Hf
  Hf37     1.0000 0.53697  0.66505  0.07868  Biso   1.000  Hf
  Hf38     1.0000 0.53453  0.66549  0.58035  Biso   1.000  Hf
  Hf39     1.0000 0.02482  0.08149  0.34798  Biso   1.000  Hf
  Hf40     1.0000 0.03907  0.07731  0.83454  Biso   1.000  Hf
  Hf41     1.0000 0.03907  0.57737  0.33447  Biso   1.000  Hf
  Hf42     1.0000 0.02482  0.58144  0.84793  Biso   1.000  Hf
  Hf43     1.0000 0.53758  0.08088  0.33029  Biso   1.000  Hf
  Hf44     1.0000 0.53552  0.08165  0.82788  Biso   1.000  Hf
  Hf45     1.0000 0.53550  0.58167  0.32785  Biso   1.000  Hf
  Hf46     1.0000 0.53755  0.58090  0.83025  Biso   1.000  Hf
  Hf47     1.0000 0.46669  0.41451  0.17090  Biso   1.000  Hf
  Hf48     1.0000 0.46769  0.41775  0.66904  Biso   1.000  Hf
  Hf49     1.0000 0.46770  0.91778  0.16900  Biso   1.000  Hf
  Hf50     1.0000 0.46668  0.91450  0.67089  Biso   1.000  Hf
  Hf51     1.0000 0.95990  0.42788  0.16757  Biso   1.000  Hf
  Hf52     1.0000 0.92640  0.43081  0.66887  Biso   1.000  Hf
  Hf53     1.0000 0.92647  0.93079  0.16885  Biso   1.000  Hf
  Hf54     1.0000 0.95991  0.92788  0.66756  Biso   1.000  Hf
  Hf55     1.0000 0.47419  0.33480  0.41962  Biso   1.000  Hf
  Hf56     1.0000 0.46722  0.33288  0.92318  Biso   1.000  Hf
  Hf57     1.0000 0.46723  0.83285  0.42315  Biso   1.000  Hf
  Hf58     1.0000 0.47415  0.83473  0.91962  Biso   1.000  Hf
  Hf59     1.0000 0.96671  0.33209  0.42161  Biso   1.000  Hf
  Hf60     1.0000 0.96110  0.33100  0.90997  Biso   1.000  Hf
  Hf61     1.0000 0.96114  0.83102  0.40995  Biso   1.000  Hf
  Hf62     1.0000 0.96664  0.83200  0.92158  Biso   1.000  Hf
  Hf63     1.0000 0.28268  0.13385  0.24797  Biso   1.000  Hf
  Hf64     1.0000 0.27791  0.12323  0.73623  Biso   1.000  Hf
  Hf65     1.0000 0.27791  0.62323  0.23616  Biso   1.000  Hf
  Hf66     1.0000 0.28266  0.63382  0.74790  Biso   1.000  Hf
  Hf67     1.0000 0.77416  0.13349  0.24183  Biso   1.000  Hf
  Hf68     1.0000 0.77593  0.12885  0.74286  Biso   1.000  Hf
  Hf69     1.0000 0.77593  0.62885  0.24278  Biso   1.000  Hf
  Hf70     1.0000 0.77412  0.63349  0.74177  Biso   1.000  Hf
  Hf71     1.0000 0.27550  0.11692  0.49169  Biso   1.000  Hf
  Hf72     1.0000 0.28392  0.12669  0.97957  Biso   1.000  Hf
  Hf73     1.0000 0.28391  0.62666  0.47957  Biso   1.000  Hf
  Hf74     1.0000 0.27552  0.61695  0.99167  Biso   1.000  Hf
  Hf75     1.0000 0.77277  0.12091  0.49355  Biso   1.000  Hf
  Hf76     1.0000 0.77622  0.12077  0.99143  Biso   1.000  Hf
  Hf77     1.0000 0.77620  0.62078  0.49141  Biso   1.000  Hf
  Hf78     1.0000 0.77277  0.62090  0.99352  Biso   1.000  Hf
  Hf79     1.0000 0.22581  0.38011  0.00847  Biso   1.000  Hf
  Hf80     1.0000 0.24165  0.36543  0.49454  Biso   1.000  Hf
  Hf81     1.0000 0.24159  0.86545  0.99451  Biso   1.000  Hf
  Hf82     1.0000 0.22580  0.88010  0.50848  Biso   1.000  Hf
  Hf83     1.0000 0.72241  0.37906  0.01121  Biso   1.000  Hf
  Hf84     1.0000 0.72529  0.37774  0.50905  Biso   1.000  Hf
  Hf85     1.0000 0.72524  0.87776  0.00902  Biso   1.000  Hf
  Hf86     1.0000 0.72240  0.87906  0.51117  Biso   1.000  Hf
  Hf87     1.0000 0.22142  0.37093  0.25497  Biso   1.000  Hf
  Hf88     1.0000 0.23839  0.35982  0.76213  Biso   1.000  Hf
  Hf89     1.0000 0.23840  0.85984  0.26213  Biso   1.000  Hf
  Hf90     1.0000 0.22140  0.87090  0.75498  Biso   1.000  Hf
  Hf91     1.0000 0.72583  0.37295  0.26036  Biso   1.000  Hf
  Hf92     1.0000 0.71077  0.36844  0.76420  Biso   1.000  Hf
  Hf93     1.0000 0.71076  0.86845  0.26414  Biso   1.000  Hf
  Hf94     1.0000 0.72580  0.87293  0.76032  Biso   1.000  Hf
