data_image0
_cell_length_a       10.202
_cell_length_b       10.3367
_cell_length_c       10.453
_cell_angle_alpha    90.0697
_cell_angle_beta     80.9047
_cell_angle_gamma    90.3643

_symmetry_space_group_name_H-M    "P 1"
_symmetry_int_tables_number       1

loop_
  _symmetry_equiv_pos_as_xyz
  'x, y, z'

loop_
  _atom_site_label
  _atom_site_occupancy
  _atom_site_fract_x
  _atom_site_fract_y
  _atom_site_fract_z
  _atom_site_thermal_displace_type
  _atom_site_B_iso_or_equiv
  _atom_site_type_symbol
  La1      1.0000 0.12799  0.00874  0.13666  Biso   1.000  La
  Hf1      1.0000 0.13991  0.02126  0.64541  Biso   1.000  Hf
  La2      1.0000 0.12797  0.50868  0.13665  Biso   1.000  La
  Hf2      1.0000 0.13991  0.52124  0.64542  Biso   1.000  Hf
  Hf3      1.0000 0.64075  0.01737  0.14722  Biso   1.000  Hf
  Hf4      1.0000 0.64015  0.02128  0.64731  Biso   1.000  Hf
  Hf5      1.0000 0.64077  0.51737  0.14721  Biso   1.000  Hf
  Hf6      1.0000 0.64015  0.52126  0.64730  Biso   1.000  Hf
  Hf7      1.0000 0.13871  0.22555  0.39601  Biso   1.000  Hf
  Hf8      1.0000 0.14146  0.23270  0.89199  Biso   1.000  Hf
  Hf9      1.0000 0.13873  0.72554  0.39600  Biso   1.000  Hf
  Hf10     1.0000 0.14148  0.73269  0.89197  Biso   1.000  Hf
  Hf11     1.0000 0.63360  0.22783  0.39879  Biso   1.000  Hf
  Hf12     1.0000 0.64406  0.22894  0.89505  Biso   1.000  Hf
  Hf13     1.0000 0.63361  0.72785  0.39877  Biso   1.000  Hf
  Hf14     1.0000 0.64407  0.72894  0.89504  Biso   1.000  Hf
  Hf15     1.0000 0.36647  0.26386  0.10236  Biso   1.000  Hf
  Hf16     1.0000 0.35954  0.27089  0.60286  Biso   1.000  Hf
  Hf17     1.0000 0.36647  0.76385  0.10234  Biso   1.000  Hf
  Hf18     1.0000 0.35956  0.77088  0.60285  Biso   1.000  Hf
  Hf19     1.0000 0.85725  0.26759  0.10391  Biso   1.000  Hf
  Hf20     1.0000 0.86368  0.27216  0.60450  Biso   1.000  Hf
  Hf21     1.0000 0.85729  0.76758  0.10387  Biso   1.000  Hf
  Hf22     1.0000 0.86371  0.77216  0.60449  Biso   1.000  Hf
  Hf23     1.0000 0.35942  0.47774  0.35232  Biso   1.000  Hf
  Hf24     1.0000 0.36658  0.47793  0.85097  Biso   1.000  Hf
  Hf25     1.0000 0.35941  0.97773  0.35232  Biso   1.000  Hf
  Hf26     1.0000 0.36656  0.97792  0.85096  Biso   1.000  Hf
  Hf27     1.0000 0.85228  0.48039  0.36161  Biso   1.000  Hf
  Hf28     1.0000 0.86328  0.47906  0.85453  Biso   1.000  Hf
  Hf29     1.0000 0.85228  0.98037  0.36160  Biso   1.000  Hf
  Hf30     1.0000 0.86328  0.97905  0.85453  Biso   1.000  Hf
  Hf31     1.0000 0.04313  0.20681  0.08597  Biso   1.000  Hf
  Hf32     1.0000 0.03869  0.17556  0.58733  Biso   1.000  Hf
  Hf33     1.0000 0.04314  0.70675  0.08592  Biso   1.000  Hf
  Hf34     1.0000 0.03870  0.67554  0.58732  Biso   1.000  Hf
  Hf35     1.0000 0.54022  0.16575  0.07875  Biso   1.000  Hf
  Hf36     1.0000 0.53237  0.16658  0.58211  Biso   1.000  Hf
  Hf37     1.0000 0.54022  0.66575  0.07874  Biso   1.000  Hf
  Hf38     1.0000 0.53239  0.66657  0.58210  Biso   1.000  Hf
  Hf39     1.0000 0.02480  0.08029  0.34660  Biso   1.000  Hf
  Hf40     1.0000 0.04119  0.07431  0.83837  Biso   1.000  Hf
  Hf41     1.0000 0.02482  0.58029  0.34656  Biso   1.000  Hf
  Hf42     1.0000 0.04120  0.57432  0.83832  Biso   1.000  Hf
  Hf43     1.0000 0.53427  0.07913  0.33076  Biso   1.000  Hf
  Hf44     1.0000 0.54035  0.08091  0.82900  Biso   1.000  Hf
  Hf45     1.0000 0.53430  0.57914  0.33073  Biso   1.000  Hf
  Hf46     1.0000 0.54036  0.58092  0.82899  Biso   1.000  Hf
  Hf47     1.0000 0.46625  0.41685  0.16847  Biso   1.000  Hf
  Hf48     1.0000 0.46700  0.41688  0.66904  Biso   1.000  Hf
  Hf49     1.0000 0.46624  0.91688  0.16844  Biso   1.000  Hf
  Hf50     1.0000 0.46701  0.91689  0.66902  Biso   1.000  Hf
  Hf51     1.0000 0.91889  0.43783  0.16725  Biso   1.000  Hf
  Hf52     1.0000 0.96333  0.42497  0.66697  Biso   1.000  Hf
  Hf53     1.0000 0.91894  0.93773  0.16730  Biso   1.000  Hf
  Hf54     1.0000 0.96335  0.92499  0.66697  Biso   1.000  Hf
  Hf55     1.0000 0.46215  0.32979  0.42138  Biso   1.000  Hf
  Hf56     1.0000 0.47783  0.33440  0.91834  Biso   1.000  Hf
  Hf57     1.0000 0.46214  0.82977  0.42138  Biso   1.000  Hf
  Hf58     1.0000 0.47783  0.83439  0.91831  Biso   1.000  Hf
  Hf59     1.0000 0.96273  0.33026  0.41608  Biso   1.000  Hf
  Hf60     1.0000 0.96206  0.32722  0.91264  Biso   1.000  Hf
  Hf61     1.0000 0.96273  0.83024  0.41611  Biso   1.000  Hf
  Hf62     1.0000 0.96205  0.82720  0.91264  Biso   1.000  Hf
  Hf63     1.0000 0.28130  0.12683  0.24512  Biso   1.000  Hf
  Hf64     1.0000 0.27692  0.12943  0.73771  Biso   1.000  Hf
  Hf65     1.0000 0.28130  0.62682  0.24509  Biso   1.000  Hf
  Hf66     1.0000 0.27692  0.62942  0.73769  Biso   1.000  Hf
  Hf67     1.0000 0.77086  0.13351  0.24574  Biso   1.000  Hf
  Hf68     1.0000 0.77966  0.12995  0.74090  Biso   1.000  Hf
  Hf69     1.0000 0.77086  0.63352  0.24571  Biso   1.000  Hf
  Hf70     1.0000 0.77965  0.62994  0.74087  Biso   1.000  Hf
  Hf71     1.0000 0.27431  0.11986  0.49129  Biso   1.000  Hf
  Hf72     1.0000 0.28521  0.12282  0.97944  Biso   1.000  Hf
  Hf73     1.0000 0.27431  0.61986  0.49129  Biso   1.000  Hf
  Hf74     1.0000 0.28520  0.62281  0.97944  Biso   1.000  Hf
  Hf75     1.0000 0.77153  0.12225  0.49491  Biso   1.000  Hf
  Hf76     1.0000 0.77854  0.11872  0.99173  Biso   1.000  Hf
  Hf77     1.0000 0.77154  0.62224  0.49489  Biso   1.000  Hf
  Hf78     1.0000 0.77852  0.61871  0.99172  Biso   1.000  Hf
  Hf79     1.0000 0.24541  0.36728  0.99204  Biso   1.000  Hf
  Hf80     1.0000 0.22293  0.37988  0.50877  Biso   1.000  Hf
  Hf81     1.0000 0.24540  0.86727  0.99204  Biso   1.000  Hf
  Hf82     1.0000 0.22292  0.87988  0.50878  Biso   1.000  Hf
  Hf83     1.0000 0.72469  0.37783  0.00850  Biso   1.000  Hf
  Hf84     1.0000 0.72323  0.37862  0.51260  Biso   1.000  Hf
  Hf85     1.0000 0.72469  0.87784  0.00850  Biso   1.000  Hf
  Hf86     1.0000 0.72323  0.87861  0.51260  Biso   1.000  Hf
  Hf87     1.0000 0.23348  0.35861  0.26096  Biso   1.000  Hf
  Hf88     1.0000 0.22484  0.37206  0.75447  Biso   1.000  Hf
  Hf89     1.0000 0.23347  0.85859  0.26094  Biso   1.000  Hf
  Hf90     1.0000 0.22483  0.87205  0.75443  Biso   1.000  Hf
  Hf91     1.0000 0.70893  0.37079  0.26715  Biso   1.000  Hf
  Hf92     1.0000 0.72768  0.37090  0.75839  Biso   1.000  Hf
  Hf93     1.0000 0.70887  0.87081  0.26716  Biso   1.000  Hf
  Hf94     1.0000 0.72768  0.87090  0.75837  Biso   1.000  Hf
