data_image0
_cell_length_a       10.1827
_cell_length_b       10.3335
_cell_length_c       10.4882
_cell_angle_alpha    89.9795
_cell_angle_beta     80.9381
_cell_angle_gamma    90.3631

_symmetry_space_group_name_H-M    "P 1"
_symmetry_int_tables_number       1

loop_
  _symmetry_equiv_pos_as_xyz
  'x, y, z'

loop_
  _atom_site_label
  _atom_site_occupancy
  _atom_site_fract_x
  _atom_site_fract_y
  _atom_site_fract_z
  _atom_site_thermal_displace_type
  _atom_site_B_iso_or_equiv
  _atom_site_type_symbol
  La1      1.0000 0.12663  0.00739  0.13487  Biso   1.000  La
  Hf1      1.0000 0.13841  0.02012  0.64156  Biso   1.000  Hf
  Hf2      1.0000 0.13863  0.51822  0.14533  Biso   1.000  Hf
  Hf3      1.0000 0.13762  0.52108  0.64832  Biso   1.000  Hf
  Hf4      1.0000 0.64801  0.01756  0.14559  Biso   1.000  Hf
  Hf5      1.0000 0.63897  0.02192  0.64716  Biso   1.000  Hf
  Hf6      1.0000 0.63644  0.51962  0.14704  Biso   1.000  Hf
  Hf7      1.0000 0.63651  0.52206  0.64759  Biso   1.000  Hf
  Hf8      1.0000 0.11947  0.23947  0.41287  Biso   1.000  Hf
  Hf9      1.0000 0.13520  0.23269  0.88938  Biso   1.000  Hf
  Hf10     1.0000 0.13759  0.72602  0.39736  Biso   1.000  Hf
  Hf11     1.0000 0.14229  0.72590  0.89583  Biso   1.000  Hf
  Hf12     1.0000 0.63745  0.23014  0.39503  Biso   1.000  Hf
  Hf13     1.0000 0.64406  0.22779  0.89490  Biso   1.000  Hf
  Hf14     1.0000 0.64048  0.72577  0.39882  Biso   1.000  Hf
  Hf15     1.0000 0.64058  0.72959  0.89444  Biso   1.000  Hf
  La2      1.0000 0.36236  0.25264  0.11011  Biso   1.000  La
  Hf16     1.0000 0.36367  0.27251  0.60051  Biso   1.000  Hf
  Hf17     1.0000 0.36708  0.76717  0.10284  Biso   1.000  Hf
  Hf18     1.0000 0.35965  0.76712  0.60792  Biso   1.000  Hf
  Hf19     1.0000 0.86101  0.27311  0.10216  Biso   1.000  Hf
  Hf20     1.0000 0.85353  0.27513  0.61025  Biso   1.000  Hf
  Hf21     1.0000 0.85856  0.76416  0.10320  Biso   1.000  Hf
  Hf22     1.0000 0.86279  0.77129  0.60498  Biso   1.000  Hf
  Hf23     1.0000 0.36020  0.48054  0.35450  Biso   1.000  Hf
  Hf24     1.0000 0.36272  0.47465  0.85677  Biso   1.000  Hf
  Hf25     1.0000 0.37130  0.96574  0.36016  Biso   1.000  Hf
  Hf26     1.0000 0.36476  0.97454  0.84745  Biso   1.000  Hf
  Hf27     1.0000 0.85728  0.48229  0.35391  Biso   1.000  Hf
  Hf28     1.0000 0.86048  0.48086  0.85386  Biso   1.000  Hf
  Hf29     1.0000 0.85658  0.98053  0.36101  Biso   1.000  Hf
  Hf30     1.0000 0.86581  0.97701  0.85508  Biso   1.000  Hf
  Hf31     1.0000 0.03958  0.19278  0.07648  Biso   1.000  Hf
  Hf32     1.0000 0.03291  0.17684  0.59238  Biso   1.000  Hf
  Hf33     1.0000 0.03931  0.67283  0.08324  Biso   1.000  Hf
  Hf34     1.0000 0.03704  0.67099  0.58185  Biso   1.000  Hf
  Hf35     1.0000 0.56501  0.17133  0.07756  Biso   1.000  Hf
  Hf36     1.0000 0.53456  0.16662  0.57645  Biso   1.000  Hf
  Hf37     1.0000 0.54268  0.67617  0.08348  Biso   1.000  Hf
  Hf38     1.0000 0.53606  0.66899  0.58299  Biso   1.000  Hf
  Hf39     1.0000 0.03505  0.08691  0.34000  Biso   1.000  Hf
  Hf40     1.0000 0.04129  0.07517  0.82981  Biso   1.000  Hf
  Hf41     1.0000 0.03408  0.58007  0.33164  Biso   1.000  Hf
  Hf42     1.0000 0.03654  0.57881  0.83165  Biso   1.000  Hf
  Hf43     1.0000 0.53327  0.08369  0.32623  Biso   1.000  Hf
  Hf44     1.0000 0.53763  0.08126  0.82785  Biso   1.000  Hf
  Hf45     1.0000 0.53638  0.58023  0.33459  Biso   1.000  Hf
  Hf46     1.0000 0.53675  0.58080  0.83145  Biso   1.000  Hf
  Hf47     1.0000 0.45990  0.43397  0.17148  Biso   1.000  Hf
  Hf48     1.0000 0.46378  0.41814  0.66945  Biso   1.000  Hf
  Hf49     1.0000 0.45645  0.93486  0.16575  Biso   1.000  Hf
  Hf50     1.0000 0.46666  0.91671  0.66675  Biso   1.000  Hf
  Hf51     1.0000 0.95863  0.42557  0.17017  Biso   1.000  Hf
  Hf52     1.0000 0.96177  0.42351  0.66856  Biso   1.000  Hf
  Hf53     1.0000 0.93077  0.92317  0.17443  Biso   1.000  Hf
  Hf54     1.0000 0.96487  0.91969  0.66930  Biso   1.000  Hf
  Hf55     1.0000 0.46178  0.32929  0.41589  Biso   1.000  Hf
  Hf56     1.0000 0.47297  0.33135  0.91397  Biso   1.000  Hf
  Hf57     1.0000 0.46603  0.82541  0.42456  Biso   1.000  Hf
  Hf58     1.0000 0.47352  0.83350  0.91951  Biso   1.000  Hf
  Hf59     1.0000 0.95146  0.33535  0.42763  Biso   1.000  Hf
  Hf60     1.0000 0.95804  0.32922  0.91208  Biso   1.000  Hf
  Hf61     1.0000 0.96583  0.83265  0.41876  Biso   1.000  Hf
  Hf62     1.0000 0.96933  0.83119  0.92384  Biso   1.000  Hf
  Hf63     1.0000 0.27764  0.12685  0.72268  Biso   1.000  Hf
  Hf64     1.0000 0.27414  0.62551  0.24125  Biso   1.000  Hf
  Hf65     1.0000 0.27702  0.62727  0.74282  Biso   1.000  Hf
  Hf66     1.0000 0.77602  0.13157  0.24420  Biso   1.000  Hf
  Hf67     1.0000 0.77735  0.12920  0.74173  Biso   1.000  Hf
  Hf68     1.0000 0.77442  0.62964  0.24227  Biso   1.000  Hf
  Hf69     1.0000 0.77669  0.63034  0.73973  Biso   1.000  Hf
  Hf70     1.0000 0.27162  0.12092  0.46464  Biso   1.000  Hf
  Hf71     1.0000 0.27332  0.11552  0.96498  Biso   1.000  Hf
  Hf72     1.0000 0.27542  0.62109  0.49212  Biso   1.000  Hf
  Hf73     1.0000 0.27980  0.61806  0.99250  Biso   1.000  Hf
  Hf74     1.0000 0.77376  0.12342  0.49358  Biso   1.000  Hf
  Hf75     1.0000 0.79001  0.11693  0.98860  Biso   1.000  Hf
  Hf76     1.0000 0.77676  0.62170  0.49175  Biso   1.000  Hf
  Hf77     1.0000 0.77643  0.62051  0.98979  Biso   1.000  Hf
  Hf78     1.0000 0.21834  0.38434  0.00276  Biso   1.000  Hf
  Hf79     1.0000 0.22375  0.38135  0.51356  Biso   1.000  Hf
  Hf80     1.0000 0.24103  0.86285  0.99611  Biso   1.000  Hf
  Hf81     1.0000 0.22724  0.87746  0.51253  Biso   1.000  Hf
  Hf82     1.0000 0.72484  0.38194  0.00879  Biso   1.000  Hf
  Hf83     1.0000 0.71701  0.38083  0.51148  Biso   1.000  Hf
  Hf84     1.0000 0.72709  0.87681  0.00952  Biso   1.000  Hf
  Hf85     1.0000 0.72591  0.87994  0.51255  Biso   1.000  Hf
  Hf86     1.0000 0.21244  0.36607  0.27097  Biso   1.000  Hf
  Hf87     1.0000 0.22582  0.37071  0.75677  Biso   1.000  Hf
  Hf88     1.0000 0.23707  0.86235  0.26594  Biso   1.000  Hf
  Hf89     1.0000 0.22343  0.86859  0.75619  Biso   1.000  Hf
  Hf90     1.0000 0.72116  0.37243  0.26010  Biso   1.000  Hf
  Hf91     1.0000 0.72388  0.37235  0.75926  Biso   1.000  Hf
  Hf92     1.0000 0.71020  0.86982  0.26853  Biso   1.000  Hf
  Hf93     1.0000 0.72723  0.87103  0.75971  Biso   1.000  Hf
