data_image0
_cell_length_a       10.1477
_cell_length_b       10.3231
_cell_length_c       10.4542
_cell_angle_alpha    90.2801
_cell_angle_beta     80.671
_cell_angle_gamma    90.1716

_symmetry_space_group_name_H-M    "P 1"
_symmetry_int_tables_number       1

loop_
  _symmetry_equiv_pos_as_xyz
  'x, y, z'

loop_
  _atom_site_label
  _atom_site_occupancy
  _atom_site_fract_x
  _atom_site_fract_y
  _atom_site_fract_z
  _atom_site_thermal_displace_type
  _atom_site_B_iso_or_equiv
  _atom_site_type_symbol
  La1      1.0000 0.13686  0.01553  0.14297  Biso   1.000  La
  Hf1      1.0000 0.13874  0.02115  0.64487  Biso   1.000  Hf
  Hf2      1.0000 0.13650  0.52139  0.14339  Biso   1.000  Hf
  Hf3      1.0000 0.13757  0.52109  0.64589  Biso   1.000  Hf
  Hf4      1.0000 0.63882  0.02075  0.14665  Biso   1.000  Hf
  Hf5      1.0000 0.63905  0.02219  0.64671  Biso   1.000  Hf
  Hf6      1.0000 0.63982  0.52051  0.14604  Biso   1.000  Hf
  Hf7      1.0000 0.63815  0.52169  0.64590  Biso   1.000  Hf
  Hf8      1.0000 0.13077  0.23225  0.40404  Biso   1.000  Hf
  Hf9      1.0000 0.13714  0.23197  0.89272  Biso   1.000  Hf
  Hf10     1.0000 0.13884  0.72492  0.39723  Biso   1.000  Hf
  Hf11     1.0000 0.13988  0.72922  0.89497  Biso   1.000  Hf
  Hf12     1.0000 0.63819  0.22963  0.39621  Biso   1.000  Hf
  Hf13     1.0000 0.64131  0.22857  0.89569  Biso   1.000  Hf
  Hf14     1.0000 0.63909  0.72608  0.39714  Biso   1.000  Hf
  Hf15     1.0000 0.64097  0.72966  0.89452  Biso   1.000  Hf
  Hf16     1.0000 0.36658  0.27699  0.09369  Biso   1.000  Hf
  Hf17     1.0000 0.36141  0.27108  0.60200  Biso   1.000  Hf
  Hf18     1.0000 0.36588  0.76669  0.10275  Biso   1.000  Hf
  Hf19     1.0000 0.36020  0.76963  0.60637  Biso   1.000  Hf
  Hf20     1.0000 0.85981  0.27277  0.10280  Biso   1.000  Hf
  Hf21     1.0000 0.85876  0.27242  0.60730  Biso   1.000  Hf
  Hf22     1.0000 0.85682  0.76891  0.10524  Biso   1.000  Hf
  Hf23     1.0000 0.86239  0.77161  0.60448  Biso   1.000  Hf
  Hf24     1.0000 0.36102  0.47650  0.35215  Biso   1.000  Hf
  Hf25     1.0000 0.36136  0.48053  0.85179  Biso   1.000  Hf
  Hf26     1.0000 0.36712  0.97064  0.35962  Biso   1.000  Hf
  Hf27     1.0000 0.36433  0.97837  0.85194  Biso   1.000  Hf
  Hf28     1.0000 0.85985  0.47908  0.35488  Biso   1.000  Hf
  Hf29     1.0000 0.86093  0.48016  0.85311  Biso   1.000  Hf
  Hf30     1.0000 0.85665  0.97809  0.35908  Biso   1.000  Hf
  Hf31     1.0000 0.86305  0.97832  0.85578  Biso   1.000  Hf
  Hf32     1.0000 0.03662  0.19065  0.07618  Biso   1.000  Hf
  Hf33     1.0000 0.03718  0.17742  0.59179  Biso   1.000  Hf
  Hf34     1.0000 0.03834  0.67438  0.08344  Biso   1.000  Hf
  Hf35     1.0000 0.03738  0.67199  0.58316  Biso   1.000  Hf
  Hf36     1.0000 0.53544  0.16959  0.07939  Biso   1.000  Hf
  Hf37     1.0000 0.53393  0.16779  0.57931  Biso   1.000  Hf
  Hf38     1.0000 0.53984  0.67006  0.08057  Biso   1.000  Hf
  Hf39     1.0000 0.53555  0.66829  0.58136  Biso   1.000  Hf
  Hf40     1.0000 0.03010  0.08098  0.34936  Biso   1.000  Hf
  Hf41     1.0000 0.03995  0.07546  0.83479  Biso   1.000  Hf
  Hf42     1.0000 0.03848  0.57488  0.33211  Biso   1.000  Hf
  Hf43     1.0000 0.03719  0.57801  0.83184  Biso   1.000  Hf
  Hf44     1.0000 0.53432  0.08130  0.33013  Biso   1.000  Hf
  Hf45     1.0000 0.53780  0.08252  0.82834  Biso   1.000  Hf
  Hf46     1.0000 0.53483  0.57938  0.33076  Biso   1.000  Hf
  Hf47     1.0000 0.53599  0.58206  0.82941  Biso   1.000  Hf
  Hf48     1.0000 0.46492  0.42170  0.16817  Biso   1.000  Hf
  Hf49     1.0000 0.46413  0.41844  0.66892  Biso   1.000  Hf
  Hf50     1.0000 0.45971  0.92495  0.16876  Biso   1.000  Hf
  Hf51     1.0000 0.46552  0.91821  0.66949  Biso   1.000  Hf
  Hf52     1.0000 0.95919  0.42562  0.16793  Biso   1.000  Hf
  Hf53     1.0000 0.96084  0.42511  0.66634  Biso   1.000  Hf
  Hf54     1.0000 0.93782  0.92273  0.17460  Biso   1.000  Hf
  Hf55     1.0000 0.96370  0.92172  0.66944  Biso   1.000  Hf
  Hf56     1.0000 0.46349  0.32991  0.41869  Biso   1.000  Hf
  Hf57     1.0000 0.46909  0.33600  0.91801  Biso   1.000  Hf
  Hf58     1.0000 0.46474  0.82712  0.42336  Biso   1.000  Hf
  Hf59     1.0000 0.47304  0.83431  0.91997  Biso   1.000  Hf
  Hf60     1.0000 0.95898  0.33093  0.42211  Biso   1.000  Hf
  Hf61     1.0000 0.95937  0.32908  0.91174  Biso   1.000  Hf
  Hf62     1.0000 0.96378  0.82761  0.41812  Biso   1.000  Hf
  Hf63     1.0000 0.96471  0.82974  0.92141  Biso   1.000  Hf
  Hf64     1.0000 0.27668  0.12881  0.73496  Biso   1.000  Hf
  Hf65     1.0000 0.27621  0.62057  0.23820  Biso   1.000  Hf
  Hf66     1.0000 0.27627  0.62906  0.74060  Biso   1.000  Hf
  Hf67     1.0000 0.77423  0.13113  0.24261  Biso   1.000  Hf
  Hf68     1.0000 0.77796  0.12948  0.74227  Biso   1.000  Hf
  Hf69     1.0000 0.77586  0.62899  0.24220  Biso   1.000  Hf
  Hf70     1.0000 0.77663  0.63012  0.73971  Biso   1.000  Hf
  Hf71     1.0000 0.27466  0.12013  0.48151  Biso   1.000  Hf
  Hf72     1.0000 0.28660  0.12938  0.98022  Biso   1.000  Hf
  Hf73     1.0000 0.27664  0.61958  0.49029  Biso   1.000  Hf
  Hf74     1.0000 0.27703  0.61933  0.98970  Biso   1.000  Hf
  Hf75     1.0000 0.77328  0.12231  0.49372  Biso   1.000  Hf
  Hf76     1.0000 0.77586  0.12040  0.99145  Biso   1.000  Hf
  Hf77     1.0000 0.77670  0.62058  0.49110  Biso   1.000  Hf
  Hf78     1.0000 0.77669  0.62001  0.99029  Biso   1.000  Hf
  Hf79     1.0000 0.22499  0.38285  0.00515  Biso   1.000  Hf
  Hf80     1.0000 0.22326  0.38065  0.50857  Biso   1.000  Hf
  Hf81     1.0000 0.23887  0.86665  0.99684  Biso   1.000  Hf
  Hf82     1.0000 0.22468  0.87780  0.51245  Biso   1.000  Hf
  Hf83     1.0000 0.72273  0.38019  0.00904  Biso   1.000  Hf
  Hf84     1.0000 0.72144  0.37963  0.51016  Biso   1.000  Hf
  Hf85     1.0000 0.72447  0.87901  0.00980  Biso   1.000  Hf
  Hf86     1.0000 0.72393  0.87869  0.51126  Biso   1.000  Hf
  Hf87     1.0000 0.22756  0.35406  0.25547  Biso   1.000  Hf
  Hf88     1.0000 0.22396  0.37177  0.75670  Biso   1.000  Hf
  Hf89     1.0000 0.23673  0.85737  0.26639  Biso   1.000  Hf
  Hf90     1.0000 0.22360  0.87092  0.75749  Biso   1.000  Hf
  Hf91     1.0000 0.72210  0.37199  0.26039  Biso   1.000  Hf
  Hf92     1.0000 0.72295  0.37080  0.75918  Biso   1.000  Hf
  Hf93     1.0000 0.70994  0.86886  0.26358  Biso   1.000  Hf
  Hf94     1.0000 0.72613  0.87148  0.75947  Biso   1.000  Hf
