data_image0
_cell_length_a       4.97803
_cell_length_b       5.1821
_cell_length_c       4.99816
_cell_angle_alpha    89.9999
_cell_angle_beta     90
_cell_angle_gamma    90

_symmetry_space_group_name_H-M    "P 1"
_symmetry_int_tables_number       1

loop_
  _symmetry_equiv_pos_as_xyz
  'x, y, z'

loop_
  _atom_site_label
  _atom_site_occupancy
  _atom_site_fract_x
  _atom_site_fract_y
  _atom_site_fract_z
  _atom_site_thermal_displace_type
  _atom_site_B_iso_or_equiv
  _atom_site_type_symbol
  Hf1      1.0000 0.26806  0.03293  0.25208  Biso   1.000  Hf
  Hf2      1.0000 0.26806  0.46718  0.75208  Biso   1.000  Hf
  Hf3      1.0000 0.73199  0.53293  0.25208  Biso   1.000  Hf
  Hf4      1.0000 0.73199  0.96718  0.75208  Biso   1.000  Hf
  O1       1.0000 0.07308  0.36892  0.38801  Biso   1.000  O
  O2       1.0000 0.07308  0.13119  0.88801  Biso   1.000  O
  O3       1.0000 0.92696  0.86893  0.38801  Biso   1.000  O
  O4       1.0000 0.92696  0.63119  0.88801  Biso   1.000  O
  O5       1.0000 0.54139  0.23558  0.49975  Biso   1.000  O
  O6       1.0000 0.54139  0.26454  0.99975  Biso   1.000  O
  O7       1.0000 0.45866  0.76454  0.99975  Biso   1.000  O
  O8       1.0000 0.45866  0.73558  0.49975  Biso   1.000  O
