data_image0
_cell_length_a       10.0942
_cell_length_b       5.15554
_cell_length_c       5.25044
_cell_angle_alpha    90
_cell_angle_beta     90
_cell_angle_gamma    90

_symmetry_space_group_name_H-M    "P 1"
_symmetry_int_tables_number       1

loop_
  _symmetry_equiv_pos_as_xyz
  'x, y, z'

loop_
  _atom_site_label
  _atom_site_occupancy
  _atom_site_fract_x
  _atom_site_fract_y
  _atom_site_fract_z
  _atom_site_thermal_displace_type
  _atom_site_B_iso_or_equiv
  _atom_site_type_symbol
  Zr1      1.0000 0.13875  0.04204  0.34204  Biso   1.000  Zr
  Zr2      1.0000 0.13875  0.45795  0.84204  Biso   1.000  Zr
  Zr3      1.0000 0.36125  0.54205  0.34204  Biso   1.000  Zr
  Zr4      1.0000 0.36125  0.95796  0.84204  Biso   1.000  Zr
  Zr5      1.0000 0.63875  0.04205  0.15796  Biso   1.000  Zr
  Zr6      1.0000 0.63875  0.45796  0.65796  Biso   1.000  Zr
  Zr7      1.0000 0.86125  0.54204  0.15796  Biso   1.000  Zr
  Zr8      1.0000 0.86125  0.95795  0.65796  Biso   1.000  Zr
  O1       1.0000 0.03305  0.33224  0.16832  Biso   1.000  O
  O2       1.0000 0.03305  0.16776  0.66832  Biso   1.000  O
  O3       1.0000 0.46695  0.83225  0.16832  Biso   1.000  O
  O4       1.0000 0.46695  0.66776  0.66832  Biso   1.000  O
  O5       1.0000 0.27571  0.24852  0.58942  Biso   1.000  O
  O6       1.0000 0.27570  0.25148  0.08943  Biso   1.000  O
  O7       1.0000 0.22429  0.74852  0.58943  Biso   1.000  O
  O8       1.0000 0.22429  0.75148  0.08943  Biso   1.000  O
  O9       1.0000 0.53305  0.33224  0.33168  Biso   1.000  O
  O10      1.0000 0.53305  0.16776  0.83168  Biso   1.000  O
  O11      1.0000 0.96695  0.83224  0.33168  Biso   1.000  O
  O12      1.0000 0.96695  0.66776  0.83168  Biso   1.000  O
  O13      1.0000 0.77571  0.24852  0.91057  Biso   1.000  O
  O14      1.0000 0.77571  0.25147  0.41057  Biso   1.000  O
  O15      1.0000 0.72430  0.74852  0.91057  Biso   1.000  O
  O16      1.0000 0.72430  0.75148  0.41057  Biso   1.000  O
