data_image0
_cell_length_a       4.97109
_cell_length_b       10.3763
_cell_length_c       10.0228
_cell_angle_alpha    90
_cell_angle_beta     90
_cell_angle_gamma    90

_symmetry_space_group_name_H-M    "P 1"
_symmetry_int_tables_number       1

loop_
  _symmetry_equiv_pos_as_xyz
  'x, y, z'

loop_
  _atom_site_label
  _atom_site_occupancy
  _atom_site_fract_x
  _atom_site_fract_y
  _atom_site_fract_z
  _atom_site_thermal_displace_type
  _atom_site_B_iso_or_equiv
  _atom_site_type_symbol
  Ag1      1.0000 0.24918  0.02466  0.10701  Biso   1.000  Ag
  Hf1      1.0000 0.28908  0.22907  0.37684  Biso   1.000  Hf
  Hf2      1.0000 0.73053  0.26676  0.12858  Biso   1.000  Hf
  Hf3      1.0000 0.74779  0.48253  0.37730  Biso   1.000  Hf
  O1       1.0000 0.09154  0.18470  0.18932  Biso   1.000  O 
  O2       1.0000 0.09061  0.06494  0.44608  Biso   1.000  O 
  O3       1.0000 0.93746  0.42898  0.19567  Biso   1.000  O 
  O4       1.0000 0.94455  0.31450  0.44292  Biso   1.000  O 
  O5       1.0000 0.57746  0.12760  0.25759  Biso   1.000  O 
  O6       1.0000 0.55811  0.13036  0.50362  Biso   1.000  O 
  O7       1.0000 0.47713  0.38063  0.50073  Biso   1.000  O 
  O8       1.0000 0.46387  0.36988  0.25141  Biso   1.000  O 
  Hf4      1.0000 0.28425  0.01604  0.62880  Biso   1.000  Hf
  Hf5      1.0000 0.29404  0.23605  0.87374  Biso   1.000  Hf
  Hf6      1.0000 0.75188  0.26614  0.62464  Biso   1.000  Hf
  Hf7      1.0000 0.75798  0.48297  0.87560  Biso   1.000  Hf
  O9       1.0000 0.10004  0.18847  0.68998  Biso   1.000  O 
  O10      1.0000 0.09872  0.06415  0.91100  Biso   1.000  O 
  O11      1.0000 0.94865  0.43395  0.69456  Biso   1.000  O 
  O12      1.0000 0.94923  0.31196  0.94243  Biso   1.000  O 
  O13      1.0000 0.56769  0.11931  0.75114  Biso   1.000  O 
  O14      1.0000 0.53202  0.12883  0.00227  Biso   1.000  O 
  O15      1.0000 0.45656  0.38107  0.00127  Biso   1.000  O 
  O16      1.0000 0.48078  0.36878  0.74976  Biso   1.000  O 
  Hf8      1.0000 0.27582  0.51613  0.12946  Biso   1.000  Hf
  Hf9      1.0000 0.28770  0.73491  0.37671  Biso   1.000  Hf
  Hf10     1.0000 0.74275  0.76383  0.12654  Biso   1.000  Hf
  Hf11     1.0000 0.74783  0.98432  0.37607  Biso   1.000  Hf
  O17      1.0000 0.08535  0.68390  0.19657  Biso   1.000  O 
  O18      1.0000 0.08991  0.56463  0.44510  Biso   1.000  O 
  O19      1.0000 0.94368  0.93462  0.19173  Biso   1.000  O 
  O20      1.0000 0.94962  0.81571  0.44750  Biso   1.000  O 
  O21      1.0000 0.55580  0.61312  0.24949  Biso   1.000  O 
  O22      1.0000 0.55903  0.63203  0.50017  Biso   1.000  O 
  O23      1.0000 0.47635  0.88253  0.50397  Biso   1.000  O 
  O24      1.0000 0.50755  0.85862  0.25885  Biso   1.000  O 
  Hf12     1.0000 0.28777  0.51678  0.62545  Biso   1.000  Hf
  Hf13     1.0000 0.28938  0.73017  0.87839  Biso   1.000  Hf
  Hf14     1.0000 0.75234  0.76592  0.62563  Biso   1.000  Hf
  Hf15     1.0000 0.74427  0.97919  0.87453  Biso   1.000  Hf
  O25      1.0000 0.09139  0.68286  0.69736  Biso   1.000  O 
  O26      1.0000 0.09801  0.56314  0.94807  Biso   1.000  O 
  O27      1.0000 0.93942  0.93400  0.69068  Biso   1.000  O 
  O28      1.0000 0.94525  0.81456  0.94125  Biso   1.000  O 
  O29      1.0000 0.56111  0.61676  0.75087  Biso   1.000  O 
  O30      1.0000 0.53790  0.63216  0.00039  Biso   1.000  O 
  O31      1.0000 0.44468  0.87976  0.00735  Biso   1.000  O 
  O32      1.0000 0.47595  0.86636  0.75333  Biso   1.000  O 
