data_image0
_cell_length_a       10.0894
_cell_length_b       5.13634
_cell_length_c       10.5699
_cell_angle_alpha    90
_cell_angle_beta     90
_cell_angle_gamma    90

_symmetry_space_group_name_H-M    "P 1"
_symmetry_int_tables_number       1

loop_
  _symmetry_equiv_pos_as_xyz
  'x, y, z'

loop_
  _atom_site_label
  _atom_site_occupancy
  _atom_site_fract_x
  _atom_site_fract_y
  _atom_site_fract_z
  _atom_site_thermal_displace_type
  _atom_site_B_iso_or_equiv
  _atom_site_type_symbol
  Hf1      1.0000 0.13100  0.04303  0.17229  Biso   1.000  Hf
  Hf2      1.0000 0.12755  0.45694  0.42583  Biso   1.000  Hf
  Hf3      1.0000 0.34440  0.54335  0.18644  Biso   1.000  Hf
  Hf4      1.0000 0.35308  0.96007  0.42713  Biso   1.000  Hf
  Hf5      1.0000 0.64078  0.05503  0.07666  Biso   1.000  Hf
  Hf6      1.0000 0.63178  0.45891  0.33260  Biso   1.000  Hf
  Hf7      1.0000 0.85881  0.54162  0.07576  Biso   1.000  Hf
  Hf8      1.0000 0.85386  0.95968  0.32829  Biso   1.000  Hf
  O1       1.0000 0.03083  0.32816  0.08228  Biso   1.000  O 
  O2       1.0000 0.02373  0.17479  0.33213  Biso   1.000  O 
  O3       1.0000 0.44994  0.87018  0.09921  Biso   1.000  O 
  O4       1.0000 0.45962  0.67691  0.33690  Biso   1.000  O 
  O5       1.0000 0.26362  0.25131  0.30073  Biso   1.000  O 
  O6       1.0000 0.27416  0.25353  0.04797  Biso   1.000  O 
  O7       1.0000 0.21331  0.75206  0.30200  Biso   1.000  O 
  O8       1.0000 0.21938  0.75093  0.05034  Biso   1.000  O 
  O9       1.0000 0.51404  0.29942  0.19215  Biso   1.000  O 
  O10      1.0000 0.52168  0.18084  0.42626  Biso   1.000  O 
  O11      1.0000 0.96144  0.82920  0.16884  Biso   1.000  O 
  O12      1.0000 0.95881  0.67388  0.41875  Biso   1.000  O 
  O13      1.0000 0.76676  0.25018  0.45313  Biso   1.000  O 
  O14      1.0000 0.77099  0.25795  0.20513  Biso   1.000  O 
  O15      1.0000 0.71585  0.75205  0.45641  Biso   1.000  O 
  O16      1.0000 0.71911  0.75646  0.20868  Biso   1.000  O 
  Hf9      1.0000 0.12879  0.04412  0.67342  Biso   1.000  Hf
  Hf10     1.0000 0.12078  0.46678  0.92365  Biso   1.000  Hf
  Hf11     1.0000 0.35007  0.54471  0.67502  Biso   1.000  Hf
  Hf12     1.0000 0.33933  0.97020  0.92453  Biso   1.000  Hf
  Hf13     1.0000 0.62950  0.04249  0.57719  Biso   1.000  Hf
  Hf14     1.0000 0.63217  0.45841  0.81615  Biso   1.000  Hf
  Hf15     1.0000 0.85342  0.54622  0.57721  Biso   1.000  Hf
  Hf16     1.0000 0.85197  0.96601  0.82637  Biso   1.000  Hf
  O17      1.0000 0.02182  0.32706  0.58249  Biso   1.000  O 
  O18      1.0000 0.02278  0.17615  0.83164  Biso   1.000  O 
  O19      1.0000 0.45899  0.82534  0.58378  Biso   1.000  O 
  O20      1.0000 0.45417  0.67641  0.83180  Biso   1.000  O 
  O21      1.0000 0.26339  0.25429  0.79748  Biso   1.000  O 
  O22      1.0000 0.26532  0.25216  0.54862  Biso   1.000  O 
  O23      1.0000 0.21101  0.75227  0.79834  Biso   1.000  O 
  O24      1.0000 0.21520  0.75246  0.54914  Biso   1.000  O 
  O25      1.0000 0.52029  0.32537  0.66855  Biso   1.000  O 
  O26      1.0000 0.51664  0.15603  0.91231  Biso   1.000  O 
  O27      1.0000 0.95940  0.82797  0.66679  Biso   1.000  O 
  O28      1.0000 0.95386  0.67869  0.91757  Biso   1.000  O 
  O29      1.0000 0.76852  0.25749  0.94492  Biso   1.000  O 
  O30      1.0000 0.76739  0.24973  0.69805  Biso   1.000  O 
  O31      1.0000 0.72072  0.77971  0.95087  Biso   1.000  O 
  O32      1.0000 0.71568  0.75111  0.70295  Biso   1.000  O 
  Ag1      1.0000 0.55911  0.54845  0.03522  Biso   1.000  Ag
