data_image0
_cell_length_a       10.0207
_cell_length_b       10.3811
_cell_length_c       10.0646
_cell_angle_alpha    90
_cell_angle_beta     90
_cell_angle_gamma    90

_symmetry_space_group_name_H-M    "P 1"
_symmetry_int_tables_number       1

loop_
  _symmetry_equiv_pos_as_xyz
  'x, y, z'

loop_
  _atom_site_label
  _atom_site_occupancy
  _atom_site_fract_x
  _atom_site_fract_y
  _atom_site_fract_z
  _atom_site_thermal_displace_type
  _atom_site_B_iso_or_equiv
  _atom_site_type_symbol
  Hf1      1.0000 0.14386  0.00270  0.11221  Biso   1.000  Hf
  Hf2      1.0000 0.13097  0.23431  0.39462  Biso   1.000  Hf
  Hf3      1.0000 0.36660  0.26816  0.12217  Biso   1.000  Hf
  Hf4      1.0000 0.36638  0.48787  0.37581  Biso   1.000  Hf
  O1       1.0000 0.96468  0.18185  0.27495  Biso   1.000  O 
  O2       1.0000 0.04095  0.06587  0.46388  Biso   1.000  O 
  O3       1.0000 0.46067  0.43626  0.19381  Biso   1.000  O 
  O4       1.0000 0.46378  0.32157  0.44575  Biso   1.000  O 
  O5       1.0000 0.25376  0.11529  0.25140  Biso   1.000  O 
  O6       1.0000 0.27557  0.13556  0.50258  Biso   1.000  O 
  O7       1.0000 0.23387  0.38762  0.50214  Biso   1.000  O 
  O8       1.0000 0.22777  0.36911  0.25470  Biso   1.000  O 
  Hf5      1.0000 0.13988  0.01726  0.63199  Biso   1.000  Hf
  Hf6      1.0000 0.13755  0.23637  0.86762  Biso   1.000  Hf
  Hf7      1.0000 0.37028  0.27183  0.62685  Biso   1.000  Hf
  Hf8      1.0000 0.36870  0.49206  0.87224  Biso   1.000  Hf
  O9       1.0000 0.03872  0.18748  0.69359  Biso   1.000  O 
  O10      1.0000 0.04688  0.06242  0.93148  Biso   1.000  O 
  O11      1.0000 0.46763  0.43863  0.69496  Biso   1.000  O 
  O12      1.0000 0.46553  0.32202  0.94189  Biso   1.000  O 
  O13      1.0000 0.27599  0.12246  0.74894  Biso   1.000  O 
  O14      1.0000 0.28641  0.13140  0.99427  Biso   1.000  O 
  O15      1.0000 0.23572  0.39792  0.99719  Biso   1.000  O 
  O16      1.0000 0.23293  0.37203  0.74811  Biso   1.000  O 
  Hf9      1.0000 0.13182  0.52529  0.12514  Biso   1.000  Hf
  Hf10     1.0000 0.13096  0.73856  0.37671  Biso   1.000  Hf
  Hf11     1.0000 0.36519  0.76352  0.12468  Biso   1.000  Hf
  Hf12     1.0000 0.35993  0.98756  0.37462  Biso   1.000  Hf
  O17      1.0000 0.03355  0.68760  0.19472  Biso   1.000  O 
  O18      1.0000 0.03300  0.57389  0.44339  Biso   1.000  O 
  O19      1.0000 0.45503  0.93500  0.19436  Biso   1.000  O 
  O20      1.0000 0.46299  0.82054  0.44261  Biso   1.000  O 
  O21      1.0000 0.26892  0.61940  0.24820  Biso   1.000  O 
  O22      1.0000 0.26858  0.63653  0.49737  Biso   1.000  O 
  O23      1.0000 0.22847  0.88634  0.49876  Biso   1.000  O 
  O24      1.0000 0.22764  0.86498  0.24648  Biso   1.000  O 
  Hf13     1.0000 0.13059  0.51837  0.62330  Biso   1.000  Hf
  Hf14     1.0000 0.13070  0.73729  0.87010  Biso   1.000  Hf
  Hf15     1.0000 0.36714  0.76867  0.62178  Biso   1.000  Hf
  Hf16     1.0000 0.36928  0.98641  0.87094  Biso   1.000  Hf
  O25      1.0000 0.03529  0.68924  0.68970  Biso   1.000  O 
  O26      1.0000 0.03425  0.57312  0.94639  Biso   1.000  O 
  O27      1.0000 0.46582  0.93688  0.69186  Biso   1.000  O 
  O28      1.0000 0.46970  0.82384  0.94827  Biso   1.000  O 
  O29      1.0000 0.26729  0.61962  0.74634  Biso   1.000  O 
  O30      1.0000 0.26851  0.64178  0.99679  Biso   1.000  O 
  O31      1.0000 0.23367  0.88316  0.99369  Biso   1.000  O 
  O32      1.0000 0.23346  0.86874  0.74762  Biso   1.000  O 
  Hf17     1.0000 0.62777  0.00939  0.11973  Biso   1.000  Hf
  Hf18     1.0000 0.62826  0.23390  0.37853  Biso   1.000  Hf
  Hf19     1.0000 0.83602  0.26409  0.12945  Biso   1.000  Hf
  Hf20     1.0000 0.86558  0.48671  0.37635  Biso   1.000  Hf
  O33      1.0000 0.52554  0.18232  0.19521  Biso   1.000  O 
  O34      1.0000 0.53361  0.06929  0.44724  Biso   1.000  O 
  O35      1.0000 0.95825  0.43449  0.19197  Biso   1.000  O 
  O36      1.0000 0.97535  0.33612  0.46751  Biso   1.000  O 
  O37      1.0000 0.74356  0.11296  0.24688  Biso   1.000  O 
  O38      1.0000 0.77311  0.14250  0.49653  Biso   1.000  O 
  O39      1.0000 0.73143  0.38755  0.50069  Biso   1.000  O 
  O40      1.0000 0.71970  0.37194  0.25437  Biso   1.000  O 
  Hf21     1.0000 0.64050  0.01987  0.62213  Biso   1.000  Hf
  Hf22     1.0000 0.63387  0.23880  0.87175  Biso   1.000  Hf
  Hf23     1.0000 0.86735  0.27394  0.62987  Biso   1.000  Hf
  Hf24     1.0000 0.86516  0.48822  0.87857  Biso   1.000  Hf
  O41      1.0000 0.54066  0.18890  0.69170  Biso   1.000  O 
  O42      1.0000 0.54236  0.07057  0.93825  Biso   1.000  O 
  O43      1.0000 0.96520  0.44099  0.70341  Biso   1.000  O 
  O44      1.0000 0.95579  0.31767  0.93568  Biso   1.000  O 
  O45      1.0000 0.77397  0.12168  0.74814  Biso   1.000  O 
  O46      1.0000 0.77055  0.13659  0.99828  Biso   1.000  O 
  O47      1.0000 0.72023  0.38209  0.00198  Biso   1.000  O 
  O48      1.0000 0.72946  0.37448  0.75045  Biso   1.000  O 
  Hf25     1.0000 0.62961  0.52092  0.12779  Biso   1.000  Hf
  Hf26     1.0000 0.63521  0.74066  0.37564  Biso   1.000  Hf
  Hf27     1.0000 0.86272  0.76757  0.12477  Biso   1.000  Hf
  Hf28     1.0000 0.87842  0.00305  0.36319  Biso   1.000  Hf
  O49      1.0000 0.53443  0.68691  0.19693  Biso   1.000  O 
  O50      1.0000 0.53503  0.57170  0.44541  Biso   1.000  O 
  O51      1.0000 0.96210  0.94145  0.18448  Biso   1.000  O 
  O52      1.0000 0.96243  0.82564  0.43796  Biso   1.000  O 
  O53      1.0000 0.76872  0.61984  0.25005  Biso   1.000  O 
  O54      1.0000 0.76965  0.63809  0.49816  Biso   1.000  O 
  O55      1.0000 0.73082  0.89169  0.49471  Biso   1.000  O 
  O56      1.0000 0.72880  0.86879  0.24515  Biso   1.000  O 
  Hf29     1.0000 0.63576  0.52208  0.62481  Biso   1.000  Hf
  Hf30     1.0000 0.63605  0.73903  0.87377  Biso   1.000  Hf
  Hf31     1.0000 0.86630  0.77422  0.61953  Biso   1.000  Hf
  Hf32     1.0000 0.86549  0.98803  0.87293  Biso   1.000  Hf
  O57      1.0000 0.53422  0.68749  0.69628  Biso   1.000  O 
  O58      1.0000 0.53434  0.57519  0.94766  Biso   1.000  O 
  O59      1.0000 0.96492  0.93469  0.69752  Biso   1.000  O 
  O60      1.0000 0.96472  0.82053  0.94518  Biso   1.000  O 
  O61      1.0000 0.77058  0.62307  0.74892  Biso   1.000  O 
  O62      1.0000 0.76713  0.63227  0.00070  Biso   1.000  O 
  O63      1.0000 0.73037  0.88746  0.99638  Biso   1.000  O 
  O64      1.0000 0.73012  0.87207  0.74598  Biso   1.000  O 
  Ag1      1.0000 0.08785  0.25433  0.12047  Biso   1.000  Ag
