data_image0
_cell_length_a       10.0594
_cell_length_b       5.24882
_cell_length_c       10.1009
_cell_angle_alpha    90
_cell_angle_beta     90
_cell_angle_gamma    90

_symmetry_space_group_name_H-M    "P 1"
_symmetry_int_tables_number       1

loop_
  _symmetry_equiv_pos_as_xyz
  'x, y, z'

loop_
  _atom_site_label
  _atom_site_occupancy
  _atom_site_fract_x
  _atom_site_fract_y
  _atom_site_fract_z
  _atom_site_thermal_displace_type
  _atom_site_B_iso_or_equiv
  _atom_site_type_symbol
  Hf1      1.0000 0.13276  0.10525  0.11566  Biso   1.000  Hf
  Hf2      1.0000 0.14429  0.46976  0.39002  Biso   1.000  Hf
  Hf3      1.0000 0.37667  0.54249  0.12392  Biso   1.000  Hf
  Hf4      1.0000 0.37286  0.97317  0.37741  Biso   1.000  Hf
  O1       1.0000 0.00636  0.34286  0.23914  Biso   1.000  O 
  O2       1.0000 0.04978  0.12944  0.45324  Biso   1.000  O 
  O3       1.0000 0.47635  0.86485  0.20710  Biso   1.000  O 
  O4       1.0000 0.47766  0.65046  0.45493  Biso   1.000  O 
  O5       1.0000 0.27235  0.23717  0.24685  Biso   1.000  O 
  O6       1.0000 0.28446  0.27401  0.50088  Biso   1.000  O 
  O7       1.0000 0.24288  0.77130  0.51024  Biso   1.000  O 
  O8       1.0000 0.24880  0.71543  0.26855  Biso   1.000  O 
  Hf5      1.0000 0.14543  0.03343  0.62655  Biso   1.000  Hf
  Hf6      1.0000 0.13766  0.46993  0.84921  Biso   1.000  Hf
  Hf7      1.0000 0.38139  0.54968  0.63014  Biso   1.000  Hf
  Hf8      1.0000 0.39128  0.01152  0.87345  Biso   1.000  Hf
  O9       1.0000 0.04459  0.37756  0.67807  Biso   1.000  O 
  O10      1.0000 0.05164  0.14307  0.93302  Biso   1.000  O 
  O11      1.0000 0.48056  0.88250  0.69415  Biso   1.000  O 
  O12      1.0000 0.49065  0.67501  0.94510  Biso   1.000  O 
  O13      1.0000 0.27832  0.24355  0.74263  Biso   1.000  O 
  O14      1.0000 0.29459  0.33656  0.98015  Biso   1.000  O 
  O15      1.0000 0.26665  0.84468  0.02796  Biso   1.000  O 
  O16      1.0000 0.24882  0.75043  0.76231  Biso   1.000  O 
  Hf9      1.0000 0.63428  0.03024  0.12818  Biso   1.000  Hf
  Hf10     1.0000 0.63758  0.47866  0.37561  Biso   1.000  Hf
  Hf11     1.0000 0.85080  0.52334  0.12588  Biso   1.000  Hf
  Hf12     1.0000 0.88560  0.99099  0.36661  Biso   1.000  Hf
  O17      1.0000 0.53905  0.37107  0.19810  Biso   1.000  O 
  O18      1.0000 0.54205  0.14841  0.44733  Biso   1.000  O 
  O19      1.0000 0.96579  0.87855  0.18280  Biso   1.000  O 
  O20      1.0000 0.97831  0.65682  0.44771  Biso   1.000  O 
  O21      1.0000 0.76336  0.23147  0.24867  Biso   1.000  O 
  O22      1.0000 0.77871  0.29331  0.49486  Biso   1.000  O 
  O23      1.0000 0.74614  0.79528  0.49615  Biso   1.000  O 
  O24      1.0000 0.73689  0.73612  0.25097  Biso   1.000  O 
  Hf13     1.0000 0.64592  0.05127  0.62065  Biso   1.000  Hf
  Hf14     1.0000 0.65065  0.49211  0.87450  Biso   1.000  Hf
  Hf15     1.0000 0.87306  0.55873  0.61906  Biso   1.000  Hf
  Hf16     1.0000 0.87687  0.98563  0.87112  Biso   1.000  Hf
  O25      1.0000 0.54458  0.37638  0.70322  Biso   1.000  O 
  O26      1.0000 0.55335  0.17015  0.95231  Biso   1.000  O 
  O27      1.0000 0.97892  0.87611  0.69746  Biso   1.000  O 
  O28      1.0000 0.96414  0.64246  0.92625  Biso   1.000  O 
  O29      1.0000 0.78251  0.25412  0.74535  Biso   1.000  O 
  O30      1.0000 0.78666  0.29039  0.99878  Biso   1.000  O 
  O31      1.0000 0.72670  0.75930  0.00128  Biso   1.000  O 
  O32      1.0000 0.74037  0.75799  0.74640  Biso   1.000  O 
  Ag1      1.0000 0.10503  0.61000  0.08931  Biso   1.000  Ag
