data_image0
_cell_length_a       10.1495
_cell_length_b       5.12695
_cell_length_c       10.476
_cell_angle_alpha    90
_cell_angle_beta     80
_cell_angle_gamma    90

_symmetry_space_group_name_H-M    "P 1"
_symmetry_int_tables_number       1

loop_
  _symmetry_equiv_pos_as_xyz
  'x, y, z'

loop_
  _atom_site_label
  _atom_site_occupancy
  _atom_site_fract_x
  _atom_site_fract_y
  _atom_site_fract_z
  _atom_site_thermal_displace_type
  _atom_site_B_iso_or_equiv
  _atom_site_type_symbol
  Ag1      1.0000 0.12487  0.01502  0.16529  Biso   1.000  Ag
  Hf1      1.0000 0.13890  0.44766  0.39653  Biso   1.000  Hf
  Hf2      1.0000 0.36039  0.54011  0.10095  Biso   1.000  Hf
  Hf3      1.0000 0.36412  0.94756  0.35325  Biso   1.000  Hf
  O1       1.0000 0.04045  0.34432  0.07758  Biso   1.000  O 
  O2       1.0000 0.02762  0.16311  0.32922  Biso   1.000  O 
  O3       1.0000 0.46890  0.82863  0.17241  Biso   1.000  O 
  O4       1.0000 0.46480  0.65766  0.42326  Biso   1.000  O 
  O5       1.0000 0.27257  0.23965  0.23647  Biso   1.000  O 
  O6       1.0000 0.27421  0.23321  0.48803  Biso   1.000  O 
  O7       1.0000 0.22828  0.78994  0.01422  Biso   1.000  O 
  O8       1.0000 0.23049  0.71693  0.26320  Biso   1.000  O 
  Hf4      1.0000 0.13477  0.03053  0.64599  Biso   1.000  Hf
  Hf5      1.0000 0.13513  0.44392  0.89684  Biso   1.000  Hf
  Hf6      1.0000 0.35958  0.53596  0.60654  Biso   1.000  Hf
  Hf7      1.0000 0.35880  0.95967  0.85702  Biso   1.000  Hf
  O9       1.0000 0.02946  0.31439  0.57457  Biso   1.000  O 
  O10      1.0000 0.02984  0.15644  0.82758  Biso   1.000  O 
  O11      1.0000 0.46401  0.82716  0.67271  Biso   1.000  O 
  O12      1.0000 0.46347  0.66813  0.92421  Biso   1.000  O 
  O13      1.0000 0.27039  0.24606  0.73527  Biso   1.000  O 
  O14      1.0000 0.28516  0.26934  0.97453  Biso   1.000  O 
  O15      1.0000 0.22240  0.74571  0.51108  Biso   1.000  O 
  O16      1.0000 0.22315  0.73349  0.76321  Biso   1.000  O 
  Hf8      1.0000 0.63597  0.03888  0.14461  Biso   1.000  Hf
  Hf9      1.0000 0.63637  0.44819  0.39637  Biso   1.000  Hf
  Hf10     1.0000 0.86281  0.52844  0.10238  Biso   1.000  Hf
  Hf11     1.0000 0.85528  0.94549  0.35710  Biso   1.000  Hf
  O17      1.0000 0.53618  0.33509  0.07777  Biso   1.000  O 
  O18      1.0000 0.53230  0.15883  0.32893  Biso   1.000  O 
  O19      1.0000 0.95407  0.83859  0.17189  Biso   1.000  O 
  O20      1.0000 0.96550  0.66089  0.42199  Biso   1.000  O 
  O21      1.0000 0.77315  0.25040  0.24102  Biso   1.000  O 
  O22      1.0000 0.77308  0.23286  0.49096  Biso   1.000  O 
  O23      1.0000 0.72762  0.75759  0.00964  Biso   1.000  O 
  O24      1.0000 0.72415  0.73447  0.26083  Biso   1.000  O 
  Hf12     1.0000 0.63372  0.03424  0.64805  Biso   1.000  Hf
  Hf13     1.0000 0.63348  0.45068  0.89708  Biso   1.000  Hf
  Hf14     1.0000 0.85875  0.53253  0.60532  Biso   1.000  Hf
  Hf15     1.0000 0.86061  0.94442  0.85567  Biso   1.000  Hf
  O25      1.0000 0.53229  0.32612  0.57889  Biso   1.000  O 
  O26      1.0000 0.53176  0.16033  0.82776  Biso   1.000  O 
  O27      1.0000 0.96555  0.81613  0.67418  Biso   1.000  O 
  O28      1.0000 0.96114  0.65237  0.92479  Biso   1.000  O 
  O29      1.0000 0.77334  0.24863  0.74071  Biso   1.000  O 
  O30      1.0000 0.76992  0.22860  0.99068  Biso   1.000  O 
  O31      1.0000 0.72199  0.74655  0.51114  Biso   1.000  O 
  O32      1.0000 0.72242  0.73413  0.76076  Biso   1.000  O 
