data_image0
_cell_length_a       10.0908
_cell_length_b       10.2895
_cell_length_c       5.26933
_cell_angle_alpha    90
_cell_angle_beta     90
_cell_angle_gamma    90

_symmetry_space_group_name_H-M    "P 1"
_symmetry_int_tables_number       1

loop_
  _symmetry_equiv_pos_as_xyz
  'x, y, z'

loop_
  _atom_site_label
  _atom_site_occupancy
  _atom_site_fract_x
  _atom_site_fract_y
  _atom_site_fract_z
  _atom_site_thermal_displace_type
  _atom_site_B_iso_or_equiv
  _atom_site_type_symbol
  Hf1      1.0000 0.13475  0.01996  0.34890  Biso   1.000  Hf
  Hf2      1.0000 0.12816  0.22764  0.85536  Biso   1.000  Hf
  Hf3      1.0000 0.34537  0.26853  0.37471  Biso   1.000  Hf
  Hf4      1.0000 0.35231  0.48431  0.85020  Biso   1.000  Hf
  Hf5      1.0000 0.64116  0.01740  0.14956  Biso   1.000  Hf
  Hf6      1.0000 0.64009  0.22404  0.63282  Biso   1.000  Hf
  Hf7      1.0000 0.85986  0.27126  0.14972  Biso   1.000  Hf
  Hf8      1.0000 0.86065  0.48230  0.65529  Biso   1.000  Hf
  O1       1.0000 0.03100  0.16324  0.16866  Biso   1.000  O 
  O2       1.0000 0.02824  0.08381  0.66732  Biso   1.000  O 
  O3       1.0000 0.45440  0.43636  0.20069  Biso   1.000  O 
  O4       1.0000 0.46402  0.33652  0.67065  Biso   1.000  O 
  O5       1.0000 0.26558  0.12622  0.60603  Biso   1.000  O 
  O6       1.0000 0.27538  0.12363  0.10320  Biso   1.000  O 
  O7       1.0000 0.21669  0.37548  0.60528  Biso   1.000  O 
  O8       1.0000 0.22367  0.37398  0.10224  Biso   1.000  O 
  O9       1.0000 0.51041  0.13582  0.38097  Biso   1.000  O 
  O10      1.0000 0.52563  0.07912  0.83455  Biso   1.000  O 
  O11      1.0000 0.96586  0.41407  0.33580  Biso   1.000  O 
  O12      1.0000 0.96324  0.33696  0.83547  Biso   1.000  O 
  O13      1.0000 0.77727  0.12304  0.88814  Biso   1.000  O 
  O14      1.0000 0.77788  0.12292  0.39807  Biso   1.000  O 
  O15      1.0000 0.72884  0.38779  0.90331  Biso   1.000  O 
  O16      1.0000 0.72386  0.38003  0.41218  Biso   1.000  O 
  Hf9      1.0000 0.13591  0.52120  0.34365  Biso   1.000  Hf
  Hf10     1.0000 0.13197  0.73133  0.84500  Biso   1.000  Hf
  Hf11     1.0000 0.35979  0.77217  0.34791  Biso   1.000  Hf
  Hf12     1.0000 0.35427  0.97782  0.85164  Biso   1.000  Hf
  Hf13     1.0000 0.64103  0.53011  0.15890  Biso   1.000  Hf
  Hf14     1.0000 0.63414  0.73201  0.65678  Biso   1.000  Hf
  Hf15     1.0000 0.86349  0.77129  0.15765  Biso   1.000  Hf
  Hf16     1.0000 0.85765  0.97775  0.65592  Biso   1.000  Hf
  O17      1.0000 0.03319  0.66338  0.16436  Biso   1.000  O 
  O18      1.0000 0.03056  0.58763  0.66424  Biso   1.000  O 
  O19      1.0000 0.46935  0.90847  0.16189  Biso   1.000  O 
  O20      1.0000 0.46233  0.83536  0.66755  Biso   1.000  O 
  O21      1.0000 0.27240  0.62442  0.59170  Biso   1.000  O 
  O22      1.0000 0.27504  0.62618  0.09032  Biso   1.000  O 
  O23      1.0000 0.22052  0.87447  0.59564  Biso   1.000  O 
  O24      1.0000 0.22400  0.87495  0.09733  Biso   1.000  O 
  O25      1.0000 0.53347  0.67002  0.33525  Biso   1.000  O 
  O26      1.0000 0.52545  0.58645  0.83614  Biso   1.000  O 
  O27      1.0000 0.96705  0.91329  0.33533  Biso   1.000  O 
  O28      1.0000 0.96159  0.83594  0.83787  Biso   1.000  O 
  O29      1.0000 0.76845  0.63041  0.90792  Biso   1.000  O 
  O30      1.0000 0.77549  0.62817  0.40852  Biso   1.000  O 
  O31      1.0000 0.71816  0.87608  0.91178  Biso   1.000  O 
  O32      1.0000 0.72348  0.87449  0.41106  Biso   1.000  O 
  Ag1      1.0000 0.56202  0.27146  0.08245  Biso   1.000  Ag
