data_image0
_cell_length_a       9.94967
_cell_length_b       10.3745
_cell_length_c       5.01156
_cell_angle_alpha    90
_cell_angle_beta     90
_cell_angle_gamma    90

_symmetry_space_group_name_H-M    "P 1"
_symmetry_int_tables_number       1

loop_
  _symmetry_equiv_pos_as_xyz
  'x, y, z'

loop_
  _atom_site_label
  _atom_site_occupancy
  _atom_site_fract_x
  _atom_site_fract_y
  _atom_site_fract_z
  _atom_site_thermal_displace_type
  _atom_site_B_iso_or_equiv
  _atom_site_type_symbol
  Ag1      1.0000 0.12302  0.02394  0.21844  Biso   1.000  Ag
  Hf1      1.0000 0.14374  0.23471  0.75013  Biso   1.000  Hf
  Hf2      1.0000 0.36978  0.26783  0.26114  Biso   1.000  Hf
  Hf3      1.0000 0.37211  0.48413  0.75597  Biso   1.000  Hf
  O1       1.0000 0.04303  0.18505  0.37800  Biso   1.000  O 
  O2       1.0000 0.04187  0.06710  0.83030  Biso   1.000  O 
  O3       1.0000 0.46794  0.43403  0.39351  Biso   1.000  O 
  O4       1.0000 0.46844  0.31351  0.88766  Biso   1.000  O 
  O5       1.0000 0.29166  0.13186  0.52782  Biso   1.000  O 
  O6       1.0000 0.26549  0.12825  0.01915  Biso   1.000  O 
  O7       1.0000 0.23139  0.38147  0.00313  Biso   1.000  O 
  O8       1.0000 0.23165  0.37170  0.50138  Biso   1.000  O 
  Hf4      1.0000 0.13732  0.51644  0.25440  Biso   1.000  Hf
  Hf5      1.0000 0.13980  0.73214  0.75619  Biso   1.000  Hf
  Hf6      1.0000 0.36861  0.76657  0.26281  Biso   1.000  Hf
  Hf7      1.0000 0.36894  0.98217  0.75627  Biso   1.000  Hf
  O9       1.0000 0.04015  0.68337  0.39135  Biso   1.000  O 
  O10      1.0000 0.04178  0.56352  0.89300  Biso   1.000  O 
  O11      1.0000 0.47136  0.93361  0.39696  Biso   1.000  O 
  O12      1.0000 0.46990  0.81586  0.89866  Biso   1.000  O 
  O13      1.0000 0.27460  0.61470  0.50253  Biso   1.000  O 
  O14      1.0000 0.27157  0.63335  0.00385  Biso   1.000  O 
  O15      1.0000 0.22590  0.88156  0.02307  Biso   1.000  O 
  O16      1.0000 0.24463  0.85986  0.52803  Biso   1.000  O 
  Hf8      1.0000 0.63465  0.01586  0.24731  Biso   1.000  Hf
  Hf9      1.0000 0.63842  0.23150  0.74986  Biso   1.000  Hf
  Hf10     1.0000 0.86497  0.26575  0.24611  Biso   1.000  Hf
  Hf11     1.0000 0.87200  0.48185  0.75102  Biso   1.000  Hf
  O17      1.0000 0.54483  0.18701  0.38030  Biso   1.000  O 
  O18      1.0000 0.54116  0.06496  0.88805  Biso   1.000  O 
  O19      1.0000 0.96811  0.42914  0.38891  Biso   1.000  O 
  O20      1.0000 0.97013  0.31476  0.88586  Biso   1.000  O 
  O21      1.0000 0.77384  0.11699  0.49352  Biso   1.000  O 
  O22      1.0000 0.77899  0.13008  0.99260  Biso   1.000  O 
  O23      1.0000 0.72953  0.38088  0.00080  Biso   1.000  O 
  O24      1.0000 0.73324  0.36765  0.50056  Biso   1.000  O 
  Hf12     1.0000 0.63735  0.51683  0.25528  Biso   1.000  Hf
  Hf13     1.0000 0.63926  0.73309  0.75343  Biso   1.000  Hf
  Hf14     1.0000 0.87156  0.76440  0.24334  Biso   1.000  Hf
  Hf15     1.0000 0.87030  0.98185  0.74242  Biso   1.000  Hf
  O25      1.0000 0.54008  0.68337  0.39635  Biso   1.000  O 
  O26      1.0000 0.54321  0.56499  0.89383  Biso   1.000  O 
  O27      1.0000 0.96461  0.93536  0.37018  Biso   1.000  O 
  O28      1.0000 0.96915  0.81532  0.88087  Biso   1.000  O 
  O29      1.0000 0.77581  0.61609  0.49871  Biso   1.000  O 
  O30      1.0000 0.77739  0.63075  0.99810  Biso   1.000  O 
  O31      1.0000 0.73517  0.87982  0.99468  Biso   1.000  O 
  O32      1.0000 0.73855  0.86592  0.49354  Biso   1.000  O 
