data_image0
_cell_length_a       10.1
_cell_length_b       10.2733
_cell_length_c       10.4456
_cell_angle_alpha    90
_cell_angle_beta     80
_cell_angle_gamma    90

_symmetry_space_group_name_H-M    "P 1"
_symmetry_int_tables_number       1

loop_
  _symmetry_equiv_pos_as_xyz
  'x, y, z'

loop_
  _atom_site_label
  _atom_site_occupancy
  _atom_site_fract_x
  _atom_site_fract_y
  _atom_site_fract_z
  _atom_site_thermal_displace_type
  _atom_site_B_iso_or_equiv
  _atom_site_type_symbol
  Ag1      1.0000 0.12291  0.01475  0.16690  Biso   1.000  Ag
  Hf1      1.0000 0.13410  0.23280  0.39671  Biso   1.000  Hf
  Hf2      1.0000 0.35863  0.26910  0.10020  Biso   1.000  Hf
  Hf3      1.0000 0.35774  0.47970  0.35343  Biso   1.000  Hf
  O1       1.0000 0.04194  0.16734  0.08341  Biso   1.000  O 
  O2       1.0000 0.02215  0.08278  0.35130  Biso   1.000  O 
  O3       1.0000 0.46207  0.41935  0.16935  Biso   1.000  O 
  O4       1.0000 0.45825  0.33105  0.41994  Biso   1.000  O 
  O5       1.0000 0.26740  0.12459  0.23602  Biso   1.000  O 
  O6       1.0000 0.27087  0.12278  0.48687  Biso   1.000  O 
  O7       1.0000 0.22460  0.38162  0.00838  Biso   1.000  O 
  O8       1.0000 0.22213  0.37001  0.25867  Biso   1.000  O 
  Hf4      1.0000 0.12975  0.02160  0.64414  Biso   1.000  Hf
  Hf5      1.0000 0.13193  0.22534  0.89716  Biso   1.000  Hf
  Hf6      1.0000 0.35349  0.27240  0.60482  Biso   1.000  Hf
  Hf7      1.0000 0.35135  0.48025  0.85590  Biso   1.000  Hf
  O9       1.0000 0.02978  0.17360  0.58294  Biso   1.000  O 
  O10      1.0000 0.02662  0.07983  0.83078  Biso   1.000  O 
  O11      1.0000 0.45625  0.42044  0.67073  Biso   1.000  O 
  O12      1.0000 0.45724  0.33651  0.92243  Biso   1.000  O 
  O13      1.0000 0.26642  0.12832  0.73583  Biso   1.000  O 
  O14      1.0000 0.27931  0.13393  0.97708  Biso   1.000  O 
  O15      1.0000 0.21679  0.38075  0.50991  Biso   1.000  O 
  O16      1.0000 0.21580  0.37041  0.76099  Biso   1.000  O 
  Hf8      1.0000 0.13879  0.52196  0.14521  Biso   1.000  Hf
  Hf9      1.0000 0.13289  0.72733  0.39744  Biso   1.000  Hf
  Hf10     1.0000 0.36142  0.77361  0.10085  Biso   1.000  Hf
  Hf11     1.0000 0.35838  0.97887  0.35271  Biso   1.000  Hf
  O17      1.0000 0.03861  0.67301  0.08198  Biso   1.000  O 
  O18      1.0000 0.03361  0.57896  0.33119  Biso   1.000  O 
  O19      1.0000 0.46394  0.91895  0.17051  Biso   1.000  O 
  O20      1.0000 0.45991  0.83028  0.41883  Biso   1.000  O 
  O21      1.0000 0.27498  0.63133  0.24087  Biso   1.000  O 
  O22      1.0000 0.27132  0.62122  0.49158  Biso   1.000  O 
  O23      1.0000 0.23055  0.88030  0.00339  Biso   1.000  O 
  O24      1.0000 0.21777  0.86855  0.25727  Biso   1.000  O 
  Hf12     1.0000 0.13251  0.52207  0.64855  Biso   1.000  Hf
  Hf13     1.0000 0.13085  0.73308  0.89716  Biso   1.000  Hf
  Hf14     1.0000 0.35518  0.77275  0.60461  Biso   1.000  Hf
  Hf15     1.0000 0.35179  0.98273  0.85546  Biso   1.000  Hf
  O25      1.0000 0.02973  0.66984  0.58256  Biso   1.000  O 
  O26      1.0000 0.02884  0.58021  0.83429  Biso   1.000  O 
  O27      1.0000 0.45757  0.92083  0.66973  Biso   1.000  O 
  O28      1.0000 0.45592  0.83325  0.92018  Biso   1.000  O 
  O29      1.0000 0.26910  0.63095  0.74165  Biso   1.000  O 
  O30      1.0000 0.26573  0.62285  0.99214  Biso   1.000  O 
  O31      1.0000 0.21883  0.88004  0.50745  Biso   1.000  O 
  O32      1.0000 0.21517  0.87206  0.75777  Biso   1.000  O 
  Hf16     1.0000 0.63692  0.02128  0.14560  Biso   1.000  Hf
  Hf17     1.0000 0.63276  0.22971  0.39720  Biso   1.000  Hf
  Hf18     1.0000 0.86270  0.26880  0.10692  Biso   1.000  Hf
  Hf19     1.0000 0.85676  0.47936  0.35493  Biso   1.000  Hf
  O33      1.0000 0.53613  0.16992  0.08067  Biso   1.000  O 
  O34      1.0000 0.53048  0.08079  0.33079  Biso   1.000  O 
  O35      1.0000 0.96317  0.41997  0.17042  Biso   1.000  O 
  O36      1.0000 0.95849  0.33311  0.42266  Biso   1.000  O 
  O37      1.0000 0.77207  0.12885  0.24352  Biso   1.000  O 
  O38      1.0000 0.76821  0.12187  0.49417  Biso   1.000  O 
  O39      1.0000 0.72713  0.37810  0.01090  Biso   1.000  O 
  O40      1.0000 0.72157  0.37016  0.26038  Biso   1.000  O 
  Hf20     1.0000 0.62935  0.02253  0.64882  Biso   1.000  Hf
  Hf21     1.0000 0.62865  0.23028  0.89865  Biso   1.000  Hf
  Hf22     1.0000 0.85322  0.27297  0.60698  Biso   1.000  Hf
  Hf23     1.0000 0.85434  0.47795  0.85799  Biso   1.000  Hf
  O41      1.0000 0.52803  0.17075  0.58153  Biso   1.000  O 
  O42      1.0000 0.52810  0.08159  0.83176  Biso   1.000  O 
  O43      1.0000 0.95739  0.41946  0.67387  Biso   1.000  O 
  O44      1.0000 0.95508  0.32865  0.92652  Biso   1.000  O 
  O45      1.0000 0.76862  0.13080  0.74290  Biso   1.000  O 
  O46      1.0000 0.76499  0.12155  0.99403  Biso   1.000  O 
  O47      1.0000 0.71669  0.37984  0.51104  Biso   1.000  O 
  O48      1.0000 0.71566  0.37233  0.76214  Biso   1.000  O 
  Hf24     1.0000 0.63680  0.51990  0.14530  Biso   1.000  Hf
  Hf25     1.0000 0.63460  0.72787  0.39614  Biso   1.000  Hf
  Hf26     1.0000 0.86128  0.76834  0.10213  Biso   1.000  Hf
  Hf27     1.0000 0.85252  0.97857  0.36058  Biso   1.000  Hf
  O49      1.0000 0.53720  0.66939  0.07894  Biso   1.000  O 
  O50      1.0000 0.53359  0.57962  0.33055  Biso   1.000  O 
  O51      1.0000 0.95361  0.92519  0.17099  Biso   1.000  O 
  O52      1.0000 0.95782  0.82875  0.42002  Biso   1.000  O 
  O53      1.0000 0.77450  0.62874  0.24055  Biso   1.000  O 
  O54      1.0000 0.77148  0.62115  0.49182  Biso   1.000  O 
  O55      1.0000 0.72533  0.87909  0.00909  Biso   1.000  O 
  O56      1.0000 0.72329  0.87013  0.25922  Biso   1.000  O 
  Hf28     1.0000 0.63146  0.52212  0.64786  Biso   1.000  Hf
  Hf29     1.0000 0.62912  0.72980  0.89709  Biso   1.000  Hf
  Hf30     1.0000 0.85424  0.77127  0.60648  Biso   1.000  Hf
  Hf31     1.0000 0.85325  0.98034  0.85606  Biso   1.000  Hf
  O57      1.0000 0.53017  0.67015  0.58041  Biso   1.000  O 
  O58      1.0000 0.52644  0.58311  0.83049  Biso   1.000  O 
  O59      1.0000 0.95629  0.92108  0.66946  Biso   1.000  O 
  O60      1.0000 0.95308  0.82989  0.92067  Biso   1.000  O 
  O61      1.0000 0.76957  0.62926  0.74286  Biso   1.000  O 
  O62      1.0000 0.76627  0.62138  0.99285  Biso   1.000  O 
  O63      1.0000 0.71649  0.87929  0.51128  Biso   1.000  O 
  O64      1.0000 0.71628  0.87159  0.76088  Biso   1.000  O 
