data_image0
_cell_length_a       10.0317
_cell_length_b       10.2411
_cell_length_c       5.22021
_cell_angle_alpha    90
_cell_angle_beta     90
_cell_angle_gamma    90

_symmetry_space_group_name_H-M    "P 1"
_symmetry_int_tables_number       1

loop_
  _symmetry_equiv_pos_as_xyz
  'x, y, z'

loop_
  _atom_site_label
  _atom_site_occupancy
  _atom_site_fract_x
  _atom_site_fract_y
  _atom_site_fract_z
  _atom_site_thermal_displace_type
  _atom_site_B_iso_or_equiv
  _atom_site_type_symbol
  Ag1      1.0000 0.12227  0.01599  0.37574  Biso   1.000  Ag
  Hf1      1.0000 0.14018  0.23211  0.84237  Biso   1.000  Hf
  Hf2      1.0000 0.35961  0.27159  0.33229  Biso   1.000  Hf
  Hf3      1.0000 0.35792  0.48152  0.84033  Biso   1.000  Hf
  Hf4      1.0000 0.63715  0.02224  0.15878  Biso   1.000  Hf
  Hf5      1.0000 0.63455  0.23133  0.65901  Biso   1.000  Hf
  Hf6      1.0000 0.86360  0.26895  0.16618  Biso   1.000  Hf
  Hf7      1.0000 0.86113  0.47880  0.66301  Biso   1.000  Hf
  O1       1.0000 0.04201  0.16491  0.17709  Biso   1.000  O 
  O2       1.0000 0.02136  0.08697  0.70889  Biso   1.000  O 
  O3       1.0000 0.46800  0.41784  0.16731  Biso   1.000  O 
  O4       1.0000 0.46290  0.33381  0.66788  Biso   1.000  O 
  O5       1.0000 0.26759  0.12130  0.56492  Biso   1.000  O 
  O6       1.0000 0.29760  0.14262  0.04850  Biso   1.000  O 
  O7       1.0000 0.22306  0.37495  0.58849  Biso   1.000  O 
  O8       1.0000 0.22266  0.38089  0.08907  Biso   1.000  O 
  O9       1.0000 0.53430  0.16970  0.32646  Biso   1.000  O 
  O10      1.0000 0.53255  0.08145  0.82145  Biso   1.000  O 
  O11      1.0000 0.96740  0.41544  0.33969  Biso   1.000  O 
  O12      1.0000 0.96442  0.33513  0.84706  Biso   1.000  O 
  O13      1.0000 0.77079  0.12621  0.91824  Biso   1.000  O 
  O14      1.0000 0.77467  0.12740  0.41732  Biso   1.000  O 
  O15      1.0000 0.72098  0.37522  0.91492  Biso   1.000  O 
  O16      1.0000 0.72456  0.37632  0.41333  Biso   1.000  O 
  Hf8      1.0000 0.13944  0.52213  0.34439  Biso   1.000  Hf
  Hf9      1.0000 0.13581  0.73160  0.84279  Biso   1.000  Hf
  Hf10     1.0000 0.36237  0.77371  0.33175  Biso   1.000  Hf
  Hf11     1.0000 0.36047  0.98283  0.83875  Biso   1.000  Hf
  Hf12     1.0000 0.64095  0.52026  0.15778  Biso   1.000  Hf
  Hf13     1.0000 0.63612  0.72981  0.65442  Biso   1.000  Hf
  Hf14     1.0000 0.86316  0.76861  0.15634  Biso   1.000  Hf
  Hf15     1.0000 0.85640  0.98080  0.66894  Biso   1.000  Hf
  O17      1.0000 0.03713  0.66983  0.17389  Biso   1.000  O 
  O18      1.0000 0.03321  0.58235  0.67414  Biso   1.000  O 
  O19      1.0000 0.47244  0.91783  0.16549  Biso   1.000  O 
  O20      1.0000 0.46396  0.83468  0.66244  Biso   1.000  O 
  O21      1.0000 0.27527  0.62774  0.58770  Biso   1.000  O 
  O22      1.0000 0.27897  0.62516  0.08860  Biso   1.000  O 
  O23      1.0000 0.22005  0.87388  0.57722  Biso   1.000  O 
  O24      1.0000 0.23469  0.87393  0.07033  Biso   1.000  O 
  O25      1.0000 0.53537  0.66805  0.32473  Biso   1.000  O 
  O26      1.0000 0.53153  0.58411  0.82644  Biso   1.000  O 
  O27      1.0000 0.95751  0.92407  0.32755  Biso   1.000  O 
  O28      1.0000 0.96200  0.83219  0.82810  Biso   1.000  O 
  O29      1.0000 0.77350  0.62523  0.91239  Biso   1.000  O 
  O30      1.0000 0.77718  0.62594  0.41254  Biso   1.000  O 
  O31      1.0000 0.71965  0.87489  0.91138  Biso   1.000  O 
  O32      1.0000 0.72676  0.87616  0.41110  Biso   1.000  O 
