data_image0
_cell_length_a       10.2255
_cell_length_b       5.15055
_cell_length_c       10.5741
_cell_angle_alpha    90
_cell_angle_beta     80
_cell_angle_gamma    90

_symmetry_space_group_name_H-M    "P 1"
_symmetry_int_tables_number       1

loop_
  _symmetry_equiv_pos_as_xyz
  'x, y, z'

loop_
  _atom_site_label
  _atom_site_occupancy
  _atom_site_fract_x
  _atom_site_fract_y
  _atom_site_fract_z
  _atom_site_thermal_displace_type
  _atom_site_B_iso_or_equiv
  _atom_site_type_symbol
  Hf1      1.0000 0.13290  0.04416  0.14263  Biso   1.000  Hf
  Hf2      1.0000 0.14390  0.45364  0.39204  Biso   1.000  Hf
  Hf3      1.0000 0.35013  0.55118  0.09433  Biso   1.000  Hf
  Hf4      1.0000 0.36320  0.93697  0.35321  Biso   1.000  Hf
  O1       1.0000 0.03039  0.33724  0.07480  Biso   1.000  O 
  O2       1.0000 0.03258  0.16794  0.32714  Biso   1.000  O 
  O3       1.0000 0.46293  0.85243  0.16878  Biso   1.000  O 
  O4       1.0000 0.48679  0.69624  0.44370  Biso   1.000  O 
  O5       1.0000 0.26324  0.25008  0.23255  Biso   1.000  O 
  O6       1.0000 0.28226  0.23025  0.48995  Biso   1.000  O 
  O7       1.0000 0.21712  0.76781  0.00404  Biso   1.000  O 
  O8       1.0000 0.21330  0.74947  0.25368  Biso   1.000  O 
  Hf5      1.0000 0.14780  0.03720  0.64290  Biso   1.000  Hf
  Hf6      1.0000 0.14571  0.45096  0.89136  Biso   1.000  Hf
  Hf7      1.0000 0.36980  0.53880  0.60764  Biso   1.000  Hf
  Hf8      1.0000 0.37037  0.95444  0.85146  Biso   1.000  Hf
  O9       1.0000 0.04325  0.32607  0.57560  Biso   1.000  O 
  O10      1.0000 0.04321  0.16304  0.82360  Biso   1.000  O 
  O11      1.0000 0.47656  0.82016  0.67891  Biso   1.000  O 
  O12      1.0000 0.47723  0.66840  0.92119  Biso   1.000  O 
  O13      1.0000 0.28445  0.24844  0.73786  Biso   1.000  O 
  O14      1.0000 0.28534  0.24444  0.98358  Biso   1.000  O 
  O15      1.0000 0.23263  0.74385  0.50934  Biso   1.000  O 
  O16      1.0000 0.23366  0.73671  0.75686  Biso   1.000  O 
  Hf9      1.0000 0.64119  0.04007  0.14803  Biso   1.000  Hf
  Hf10     1.0000 0.65800  0.45340  0.40726  Biso   1.000  Hf
  Hf11     1.0000 0.85828  0.54267  0.10563  Biso   1.000  Hf
  Hf12     1.0000 0.86632  0.95100  0.35445  Biso   1.000  Hf
  O17      1.0000 0.53102  0.33523  0.07765  Biso   1.000  O 
  O18      1.0000 0.55554  0.12386  0.34117  Biso   1.000  O 
  O19      1.0000 0.96163  0.83292  0.17197  Biso   1.000  O 
  O20      1.0000 0.97109  0.66331  0.42303  Biso   1.000  O 
  O21      1.0000 0.78070  0.25740  0.24215  Biso   1.000  O 
  O22      1.0000 0.78654  0.23284  0.49497  Biso   1.000  O 
  O23      1.0000 0.72097  0.75895  0.01370  Biso   1.000  O 
  O24      1.0000 0.72597  0.73602  0.26265  Biso   1.000  O 
  Hf13     1.0000 0.64718  0.03656  0.64928  Biso   1.000  Hf
  Hf14     1.0000 0.64854  0.45129  0.89669  Biso   1.000  Hf
  Hf15     1.0000 0.87351  0.53755  0.60672  Biso   1.000  Hf
  Hf16     1.0000 0.87101  0.95142  0.85384  Biso   1.000  Hf
  O25      1.0000 0.54238  0.32253  0.58025  Biso   1.000  O 
  O26      1.0000 0.54278  0.16732  0.82734  Biso   1.000  O 
  O27      1.0000 0.97539  0.82701  0.67231  Biso   1.000  O 
  O28      1.0000 0.97497  0.66248  0.91996  Biso   1.000  O 
  O29      1.0000 0.78463  0.25237  0.74173  Biso   1.000  O 
  O30      1.0000 0.78667  0.23549  0.98999  Biso   1.000  O 
  O31      1.0000 0.73503  0.74843  0.51513  Biso   1.000  O 
  O32      1.0000 0.73466  0.73843  0.76255  Biso   1.000  O 
  Ag1      1.0000 0.44363  0.44134  0.29661  Biso   1.000  Ag
