data_image0
_cell_length_a       10.2211
_cell_length_b       10.3157
_cell_length_c       5.27249
_cell_angle_alpha    90
_cell_angle_beta     80
_cell_angle_gamma    90

_symmetry_space_group_name_H-M    "P 1"
_symmetry_int_tables_number       1

loop_
  _symmetry_equiv_pos_as_xyz
  'x, y, z'

loop_
  _atom_site_label
  _atom_site_occupancy
  _atom_site_fract_x
  _atom_site_fract_y
  _atom_site_fract_z
  _atom_site_thermal_displace_type
  _atom_site_B_iso_or_equiv
  _atom_site_type_symbol
  Hf1      1.0000 0.13412  0.01910  0.28765  Biso   1.000  Hf
  Hf2      1.0000 0.14226  0.22745  0.77715  Biso   1.000  Hf
  Hf3      1.0000 0.35257  0.27636  0.18646  Biso   1.000  Hf
  Hf4      1.0000 0.36176  0.48019  0.70007  Biso   1.000  Hf
  O1       1.0000 0.03635  0.16767  0.15238  Biso   1.000  O 
  O2       1.0000 0.03333  0.08078  0.65479  Biso   1.000  O 
  O3       1.0000 0.46442  0.42190  0.34411  Biso   1.000  O 
  O4       1.0000 0.49128  0.36141  0.88173  Biso   1.000  O 
  O5       1.0000 0.26620  0.12370  0.46214  Biso   1.000  O 
  O6       1.0000 0.27800  0.11482  0.97114  Biso   1.000  O 
  O7       1.0000 0.21741  0.38259  0.00574  Biso   1.000  O 
  O8       1.0000 0.21477  0.37385  0.49873  Biso   1.000  O 
  Hf5      1.0000 0.13920  0.52386  0.28896  Biso   1.000  Hf
  Hf6      1.0000 0.14000  0.72642  0.79376  Biso   1.000  Hf
  Hf7      1.0000 0.36050  0.76988  0.21126  Biso   1.000  Hf
  Hf8      1.0000 0.36328  0.96719  0.71200  Biso   1.000  Hf
  O9       1.0000 0.03015  0.66696  0.15549  Biso   1.000  O 
  O10      1.0000 0.03623  0.58430  0.65397  Biso   1.000  O 
  O11      1.0000 0.46597  0.91692  0.34717  Biso   1.000  O 
  O12      1.0000 0.46676  0.82655  0.84610  Biso   1.000  O 
  O13      1.0000 0.27704  0.62781  0.48244  Biso   1.000  O 
  O14      1.0000 0.27921  0.62107  0.98106  Biso   1.000  O 
  O15      1.0000 0.22133  0.87630  0.02326  Biso   1.000  O 
  O16      1.0000 0.22506  0.86812  0.52196  Biso   1.000  O 
  Hf9      1.0000 0.64132  0.01809  0.29939  Biso   1.000  Hf
  Hf10     1.0000 0.65816  0.23040  0.81817  Biso   1.000  Hf
  Hf11     1.0000 0.86629  0.27230  0.21905  Biso   1.000  Hf
  Hf12     1.0000 0.86672  0.47798  0.70999  Biso   1.000  Hf
  O17      1.0000 0.53218  0.16595  0.16199  Biso   1.000  O 
  O18      1.0000 0.55212  0.06143  0.68696  Biso   1.000  O 
  O19      1.0000 0.96607  0.41954  0.34341  Biso   1.000  O 
  O20      1.0000 0.96892  0.33047  0.84099  Biso   1.000  O 
  O21      1.0000 0.77911  0.12973  0.49021  Biso   1.000  O 
  O22      1.0000 0.78518  0.11734  0.99371  Biso   1.000  O 
  O23      1.0000 0.72897  0.37739  0.03633  Biso   1.000  O 
  O24      1.0000 0.72796  0.37110  0.53218  Biso   1.000  O 
  Hf13     1.0000 0.63780  0.52245  0.29712  Biso   1.000  Hf
  Hf14     1.0000 0.64163  0.72487  0.79287  Biso   1.000  Hf
  Hf15     1.0000 0.85856  0.76989  0.20938  Biso   1.000  Hf
  Hf16     1.0000 0.86305  0.97520  0.70995  Biso   1.000  Hf
  O25      1.0000 0.53336  0.66732  0.15788  Biso   1.000  O 
  O26      1.0000 0.53438  0.58767  0.65047  Biso   1.000  O 
  O27      1.0000 0.96203  0.91467  0.34581  Biso   1.000  O 
  O28      1.0000 0.96809  0.83168  0.84430  Biso   1.000  O 
  O29      1.0000 0.77729  0.62766  0.48260  Biso   1.000  O 
  O30      1.0000 0.77878  0.61842  0.98029  Biso   1.000  O 
  O31      1.0000 0.72085  0.87870  0.02463  Biso   1.000  O 
  O32      1.0000 0.72473  0.86857  0.52113  Biso   1.000  O 
  Ag1      1.0000 0.44194  0.22466  0.60400  Biso   1.000  Ag
