data_image0
_cell_length_a       5.03688
_cell_length_b       10.3769
_cell_length_c       10.1412
_cell_angle_alpha    90
_cell_angle_beta     90
_cell_angle_gamma    90

_symmetry_space_group_name_H-M    "P 1"
_symmetry_int_tables_number       1

loop_
  _symmetry_equiv_pos_as_xyz
  'x, y, z'

loop_
  _atom_site_label
  _atom_site_occupancy
  _atom_site_fract_x
  _atom_site_fract_y
  _atom_site_fract_z
  _atom_site_thermal_displace_type
  _atom_site_B_iso_or_equiv
  _atom_site_type_symbol
  Hf1      1.0000 0.23121  0.99302  0.10404  Biso   1.000  Hf
  Hf2      1.0000 0.21526  0.23570  0.40113  Biso   1.000  Hf
  Hf3      1.0000 0.60435  0.25958  0.14927  Biso   1.000  Hf
  Hf4      1.0000 0.69818  0.49187  0.37849  Biso   1.000  Hf
  O1       1.0000 0.88775  0.18289  0.27107  Biso   1.000  O 
  O2       1.0000 0.04848  0.06708  0.46470  Biso   1.000  O 
  O3       1.0000 0.87356  0.43435  0.19262  Biso   1.000  O 
  O4       1.0000 0.91004  0.33950  0.46459  Biso   1.000  O 
  O5       1.0000 0.41667  0.10932  0.25682  Biso   1.000  O 
  O6       1.0000 0.52838  0.14596  0.50142  Biso   1.000  O 
  O7       1.0000 0.43570  0.39279  0.50495  Biso   1.000  O 
  O8       1.0000 0.38202  0.37556  0.26587  Biso   1.000  O 
  Hf5      1.0000 0.26695  0.02130  0.62698  Biso   1.000  Hf
  Hf6      1.0000 0.25431  0.24157  0.86099  Biso   1.000  Hf
  Hf7      1.0000 0.71544  0.28163  0.63294  Biso   1.000  Hf
  Hf8      1.0000 0.68537  0.49546  0.87330  Biso   1.000  Hf
  O9       1.0000 0.07072  0.19573  0.68069  Biso   1.000  O 
  O10      1.0000 0.06814  0.06886  0.92375  Biso   1.000  O 
  O11      1.0000 0.88606  0.45558  0.69142  Biso   1.000  O 
  O12      1.0000 0.89235  0.32427  0.89843  Biso   1.000  O 
  O13      1.0000 0.53367  0.12739  0.75036  Biso   1.000  O 
  O14      1.0000 0.57849  0.11947  0.00363  Biso   1.000  O 
  O15      1.0000 0.46528  0.38456  0.00124  Biso   1.000  O 
  O16      1.0000 0.42326  0.38266  0.74775  Biso   1.000  O 
  Hf9      1.0000 0.23021  0.52265  0.12858  Biso   1.000  Hf
  Hf10     1.0000 0.22941  0.74525  0.37582  Biso   1.000  Hf
  Hf11     1.0000 0.70395  0.76304  0.12592  Biso   1.000  Hf
  Hf12     1.0000 0.69026  0.00368  0.36299  Biso   1.000  Hf
  O17      1.0000 0.04125  0.68578  0.19678  Biso   1.000  O 
  O18      1.0000 0.03083  0.58016  0.44338  Biso   1.000  O 
  O19      1.0000 0.88692  0.94180  0.18793  Biso   1.000  O 
  O20      1.0000 0.88497  0.82811  0.43737  Biso   1.000  O 
  O21      1.0000 0.50549  0.62046  0.24957  Biso   1.000  O 
  O22      1.0000 0.49830  0.64347  0.49706  Biso   1.000  O 
  O23      1.0000 0.41908  0.89581  0.49396  Biso   1.000  O 
  O24      1.0000 0.43040  0.86567  0.24179  Biso   1.000  O 
  Hf13     1.0000 0.22785  0.52642  0.62167  Biso   1.000  Hf
  Hf14     1.0000 0.21513  0.74196  0.86984  Biso   1.000  Hf
  Hf15     1.0000 0.69356  0.77827  0.61798  Biso   1.000  Hf
  Hf16     1.0000 0.67995  0.99009  0.87143  Biso   1.000  Hf
  O25      1.0000 0.02736  0.69599  0.69177  Biso   1.000  O 
  O26      1.0000 0.01314  0.57968  0.94803  Biso   1.000  O 
  O27      1.0000 0.88688  0.93965  0.69784  Biso   1.000  O 
  O28      1.0000 0.89213  0.82987  0.95510  Biso   1.000  O 
  O29      1.0000 0.49322  0.62854  0.74801  Biso   1.000  O 
  O30      1.0000 0.51982  0.63079  0.00011  Biso   1.000  O 
  O31      1.0000 0.41195  0.88562  0.99108  Biso   1.000  O 
  O32      1.0000 0.41997  0.87482  0.74558  Biso   1.000  O 
  Ag1      1.0000 0.08259  0.24593  0.09286  Biso   1.000  Ag
