data_image0
_cell_length_a       9.93495
_cell_length_b       5.18871
_cell_length_c       10.0193
_cell_angle_alpha    90
_cell_angle_beta     90
_cell_angle_gamma    90

_symmetry_space_group_name_H-M    "P 1"
_symmetry_int_tables_number       1

loop_
  _symmetry_equiv_pos_as_xyz
  'x, y, z'

loop_
  _atom_site_label
  _atom_site_occupancy
  _atom_site_fract_x
  _atom_site_fract_y
  _atom_site_fract_z
  _atom_site_thermal_displace_type
  _atom_site_B_iso_or_equiv
  _atom_site_type_symbol
  Ag1      1.0000 0.12384  0.04913  0.10745  Biso   1.000  Ag
  Hf1      1.0000 0.14645  0.45996  0.37893  Biso   1.000  Hf
  Hf2      1.0000 0.36782  0.53236  0.13424  Biso   1.000  Hf
  Hf3      1.0000 0.36958  0.96349  0.37808  Biso   1.000  Hf
  O1       1.0000 0.04292  0.36504  0.19116  Biso   1.000  O 
  O2       1.0000 0.04588  0.12557  0.44807  Biso   1.000  O 
  O3       1.0000 0.47266  0.86340  0.19828  Biso   1.000  O 
  O4       1.0000 0.47456  0.63207  0.45061  Biso   1.000  O 
  O5       1.0000 0.28660  0.24532  0.25834  Biso   1.000  O 
  O6       1.0000 0.28015  0.25871  0.50670  Biso   1.000  O 
  O7       1.0000 0.23653  0.75898  0.50754  Biso   1.000  O 
  O8       1.0000 0.24346  0.72274  0.26187  Biso   1.000  O 
  Hf4      1.0000 0.14341  0.03406  0.63217  Biso   1.000  Hf
  Hf5      1.0000 0.14621  0.47041  0.87622  Biso   1.000  Hf
  Hf6      1.0000 0.37634  0.53256  0.62960  Biso   1.000  Hf
  Hf7      1.0000 0.37855  0.96337  0.88040  Biso   1.000  Hf
  O9       1.0000 0.04985  0.37846  0.69023  Biso   1.000  O 
  O10      1.0000 0.04983  0.12421  0.90799  Biso   1.000  O 
  O11      1.0000 0.47402  0.86709  0.69829  Biso   1.000  O 
  O12      1.0000 0.46929  0.61757  0.94221  Biso   1.000  O 
  O13      1.0000 0.28501  0.23932  0.75556  Biso   1.000  O 
  O14      1.0000 0.26393  0.26309  0.00584  Biso   1.000  O 
  O15      1.0000 0.22660  0.76571  0.00968  Biso   1.000  O 
  O16      1.0000 0.23997  0.73918  0.75574  Biso   1.000  O 
  Hf8      1.0000 0.63821  0.03187  0.12884  Biso   1.000  Hf
  Hf9      1.0000 0.64108  0.46629  0.37552  Biso   1.000  Hf
  Hf10     1.0000 0.86784  0.52918  0.12238  Biso   1.000  Hf
  Hf11     1.0000 0.87844  0.96740  0.37590  Biso   1.000  Hf
  O17      1.0000 0.54547  0.37206  0.19328  Biso   1.000  O 
  O18      1.0000 0.54415  0.13049  0.44303  Biso   1.000  O 
  O19      1.0000 0.97018  0.86214  0.18983  Biso   1.000  O 
  O20      1.0000 0.97109  0.62416  0.43846  Biso   1.000  O 
  O21      1.0000 0.77849  0.23262  0.24871  Biso   1.000  O 
  O22      1.0000 0.77828  0.26254  0.49751  Biso   1.000  O 
  O23      1.0000 0.73990  0.76383  0.49807  Biso   1.000  O 
  O24      1.0000 0.74078  0.73532  0.24896  Biso   1.000  O 
  Hf12     1.0000 0.64105  0.02905  0.62264  Biso   1.000  Hf
  Hf13     1.0000 0.64469  0.45734  0.87607  Biso   1.000  Hf
  Hf14     1.0000 0.87516  0.52811  0.62111  Biso   1.000  Hf
  Hf15     1.0000 0.87260  0.95530  0.86955  Biso   1.000  Hf
  O25      1.0000 0.54688  0.36435  0.69534  Biso   1.000  O 
  O26      1.0000 0.54946  0.12256  0.94775  Biso   1.000  O 
  O27      1.0000 0.96971  0.86621  0.68627  Biso   1.000  O 
  O28      1.0000 0.97488  0.62755  0.94130  Biso   1.000  O 
  O29      1.0000 0.77949  0.22972  0.74701  Biso   1.000  O 
  O30      1.0000 0.78795  0.25210  0.99720  Biso   1.000  O 
  O31      1.0000 0.73946  0.74941  0.99960  Biso   1.000  O 
  O32      1.0000 0.73832  0.72740  0.74823  Biso   1.000  O 
