data_image0
_cell_length_a       10.0531
_cell_length_b       10.2534
_cell_length_c       10.5063
_cell_angle_alpha    90
_cell_angle_beta     90
_cell_angle_gamma    90

_symmetry_space_group_name_H-M    "P 1"
_symmetry_int_tables_number       1

loop_
  _symmetry_equiv_pos_as_xyz
  'x, y, z'

loop_
  _atom_site_label
  _atom_site_occupancy
  _atom_site_fract_x
  _atom_site_fract_y
  _atom_site_fract_z
  _atom_site_thermal_displace_type
  _atom_site_B_iso_or_equiv
  _atom_site_type_symbol
  Hf1      1.0000 0.13537  0.02088  0.17225  Biso   1.000  Hf
  Hf2      1.0000 0.13192  0.22830  0.42621  Biso   1.000  Hf
  Hf3      1.0000 0.34586  0.26909  0.18471  Biso   1.000  Hf
  Hf4      1.0000 0.35797  0.48007  0.42320  Biso   1.000  Hf
  Hf5      1.0000 0.63984  0.01957  0.07417  Biso   1.000  Hf
  Hf6      1.0000 0.63441  0.22598  0.33162  Biso   1.000  Hf
  Hf7      1.0000 0.85996  0.27031  0.07566  Biso   1.000  Hf
  Hf8      1.0000 0.85791  0.47914  0.32849  Biso   1.000  Hf
  O1       1.0000 0.03277  0.16515  0.08331  Biso   1.000  O 
  O2       1.0000 0.02736  0.08632  0.33335  Biso   1.000  O 
  O3       1.0000 0.45185  0.43754  0.10148  Biso   1.000  O 
  O4       1.0000 0.46237  0.33422  0.33563  Biso   1.000  O 
  O5       1.0000 0.26661  0.12509  0.30110  Biso   1.000  O 
  O6       1.0000 0.27686  0.12498  0.04792  Biso   1.000  O 
  O7       1.0000 0.21601  0.37514  0.30023  Biso   1.000  O 
  O8       1.0000 0.22186  0.37527  0.04784  Biso   1.000  O 
  O9       1.0000 0.51273  0.13983  0.19130  Biso   1.000  O 
  O10      1.0000 0.52674  0.08799  0.42583  Biso   1.000  O 
  O11      1.0000 0.96380  0.41482  0.16759  Biso   1.000  O 
  O12      1.0000 0.96281  0.33635  0.41832  Biso   1.000  O 
  O13      1.0000 0.77138  0.12426  0.45384  Biso   1.000  O 
  O14      1.0000 0.77181  0.12794  0.20485  Biso   1.000  O 
  O15      1.0000 0.71924  0.37430  0.45500  Biso   1.000  O 
  O16      1.0000 0.71956  0.37946  0.20700  Biso   1.000  O 
  Hf9      1.0000 0.13394  0.02147  0.67324  Biso   1.000  Hf
  Hf10     1.0000 0.13059  0.22958  0.92253  Biso   1.000  Hf
  Hf11     1.0000 0.35620  0.27240  0.67404  Biso   1.000  Hf
  Hf12     1.0000 0.35028  0.48375  0.92365  Biso   1.000  Hf
  Hf13     1.0000 0.63463  0.02004  0.57886  Biso   1.000  Hf
  Hf14     1.0000 0.63939  0.22754  0.81757  Biso   1.000  Hf
  Hf15     1.0000 0.85700  0.27273  0.57745  Biso   1.000  Hf
  Hf16     1.0000 0.85822  0.48291  0.82696  Biso   1.000  Hf
  O17      1.0000 0.02687  0.16462  0.58426  Biso   1.000  O 
  O18      1.0000 0.02852  0.08428  0.83299  Biso   1.000  O 
  O19      1.0000 0.46336  0.41527  0.58318  Biso   1.000  O 
  O20      1.0000 0.46311  0.33910  0.83336  Biso   1.000  O 
  O21      1.0000 0.27083  0.12570  0.79643  Biso   1.000  O 
  O22      1.0000 0.27097  0.12623  0.54812  Biso   1.000  O 
  O23      1.0000 0.21838  0.37528  0.79729  Biso   1.000  O 
  O24      1.0000 0.21995  0.37631  0.54782  Biso   1.000  O 
  O25      1.0000 0.52749  0.16498  0.66664  Biso   1.000  O 
  O26      1.0000 0.52754  0.07586  0.90740  Biso   1.000  O 
  O27      1.0000 0.96341  0.41563  0.66672  Biso   1.000  O 
  O28      1.0000 0.96236  0.33652  0.91547  Biso   1.000  O 
  O29      1.0000 0.77850  0.12219  0.94674  Biso   1.000  O 
  O30      1.0000 0.77429  0.12413  0.69953  Biso   1.000  O 
  O31      1.0000 0.72783  0.38686  0.95099  Biso   1.000  O 
  O32      1.0000 0.72062  0.37663  0.70251  Biso   1.000  O 
  Hf17     1.0000 0.13514  0.52193  0.17160  Biso   1.000  Hf
  Hf18     1.0000 0.13453  0.72929  0.42152  Biso   1.000  Hf
  Hf19     1.0000 0.35925  0.77340  0.17293  Biso   1.000  Hf
  Hf20     1.0000 0.35730  0.97894  0.42488  Biso   1.000  Hf
  Hf21     1.0000 0.63993  0.53043  0.08086  Biso   1.000  Hf
  Hf22     1.0000 0.63611  0.73186  0.32930  Biso   1.000  Hf
  Hf23     1.0000 0.86143  0.77234  0.07882  Biso   1.000  Hf
  Hf24     1.0000 0.85767  0.97976  0.32816  Biso   1.000  Hf
  O33      1.0000 0.03206  0.66505  0.08309  Biso   1.000  O 
  O34      1.0000 0.02936  0.58574  0.33261  Biso   1.000  O 
  O35      1.0000 0.46745  0.91196  0.08038  Biso   1.000  O 
  O36      1.0000 0.46460  0.83787  0.33410  Biso   1.000  O 
  O37      1.0000 0.27298  0.62453  0.29509  Biso   1.000  O 
  O38      1.0000 0.27460  0.62772  0.04490  Biso   1.000  O 
  O39      1.0000 0.22105  0.87496  0.29674  Biso   1.000  O 
  O40      1.0000 0.22225  0.87628  0.04732  Biso   1.000  O 
  O41      1.0000 0.53411  0.67248  0.16702  Biso   1.000  O 
  O42      1.0000 0.52864  0.58679  0.41649  Biso   1.000  O 
  O43      1.0000 0.96506  0.91625  0.16738  Biso   1.000  O 
  O44      1.0000 0.96299  0.83513  0.41659  Biso   1.000  O 
  O45      1.0000 0.77211  0.62456  0.45444  Biso   1.000  O 
  O46      1.0000 0.77567  0.62859  0.20537  Biso   1.000  O 
  O47      1.0000 0.72017  0.87522  0.45574  Biso   1.000  O 
  O48      1.0000 0.72305  0.87680  0.20544  Biso   1.000  O 
  Hf25     1.0000 0.13423  0.52163  0.67176  Biso   1.000  Hf
  Hf26     1.0000 0.13064  0.73198  0.92241  Biso   1.000  Hf
  Hf27     1.0000 0.35592  0.77093  0.67251  Biso   1.000  Hf
  Hf28     1.0000 0.35290  0.97901  0.92208  Biso   1.000  Hf
  Hf29     1.0000 0.63406  0.52221  0.57730  Biso   1.000  Hf
  Hf30     1.0000 0.63126  0.72999  0.82780  Biso   1.000  Hf
  Hf31     1.0000 0.85764  0.77136  0.57838  Biso   1.000  Hf
  Hf32     1.0000 0.85598  0.97808  0.82788  Biso   1.000  Hf
  O49      1.0000 0.02849  0.66478  0.58248  Biso   1.000  O 
  O50      1.0000 0.02818  0.58777  0.83280  Biso   1.000  O 
  O51      1.0000 0.46292  0.91339  0.58434  Biso   1.000  O 
  O52      1.0000 0.45872  0.83267  0.83340  Biso   1.000  O 
  O53      1.0000 0.27006  0.62471  0.79595  Biso   1.000  O 
  O54      1.0000 0.27140  0.62600  0.54541  Biso   1.000  O 
  O55      1.0000 0.21717  0.87432  0.79581  Biso   1.000  O 
  O56      1.0000 0.21947  0.87613  0.54603  Biso   1.000  O 
  O57      1.0000 0.52681  0.66407  0.66727  Biso   1.000  O 
  O58      1.0000 0.52447  0.58551  0.91854  Biso   1.000  O 
  O59      1.0000 0.96328  0.91405  0.66630  Biso   1.000  O 
  O60      1.0000 0.95984  0.83693  0.91867  Biso   1.000  O 
  O61      1.0000 0.76766  0.63004  0.95453  Biso   1.000  O 
  O62      1.0000 0.77046  0.62671  0.70396  Biso   1.000  O 
  O63      1.0000 0.71567  0.87539  0.95522  Biso   1.000  O 
  O64      1.0000 0.71857  0.87510  0.70532  Biso   1.000  O 
  Ag1      1.0000 0.56218  0.27336  0.04136  Biso   1.000  Ag
