data_image0
_cell_length_a       5.0534
_cell_length_b       10.259
_cell_length_c       10.4587
_cell_angle_alpha    90
_cell_angle_beta     80
_cell_angle_gamma    90

_symmetry_space_group_name_H-M    "P 1"
_symmetry_int_tables_number       1

loop_
  _symmetry_equiv_pos_as_xyz
  'x, y, z'

loop_
  _atom_site_label
  _atom_site_occupancy
  _atom_site_fract_x
  _atom_site_fract_y
  _atom_site_fract_z
  _atom_site_thermal_displace_type
  _atom_site_B_iso_or_equiv
  _atom_site_type_symbol
  Ag1      1.0000 0.24340  0.01440  0.16641  Biso   1.000  Ag
  Hf1      1.0000 0.26095  0.23432  0.39758  Biso   1.000  Hf
  Hf2      1.0000 0.72201  0.26645  0.10299  Biso   1.000  Hf
  Hf3      1.0000 0.71191  0.48087  0.35395  Biso   1.000  Hf
  O1       1.0000 0.08527  0.16730  0.08285  Biso   1.000  O 
  O2       1.0000 0.03277  0.08720  0.34729  Biso   1.000  O 
  O3       1.0000 0.92605  0.41876  0.17112  Biso   1.000  O 
  O4       1.0000 0.91285  0.33582  0.42414  Biso   1.000  O 
  O5       1.0000 0.52825  0.12494  0.23839  Biso   1.000  O 
  O6       1.0000 0.53022  0.12407  0.48962  Biso   1.000  O 
  O7       1.0000 0.45806  0.38031  0.01030  Biso   1.000  O 
  O8       1.0000 0.44491  0.36981  0.25991  Biso   1.000  O 
  Hf4      1.0000 0.24999  0.02324  0.64654  Biso   1.000  Hf
  Hf5      1.0000 0.25653  0.22743  0.89909  Biso   1.000  Hf
  Hf6      1.0000 0.70005  0.27447  0.60703  Biso   1.000  Hf
  Hf7      1.0000 0.70181  0.48003  0.85882  Biso   1.000  Hf
  O9       1.0000 0.05011  0.17355  0.58231  Biso   1.000  O 
  O10      1.0000 0.04871  0.08250  0.83039  Biso   1.000  O 
  O11      1.0000 0.91020  0.41955  0.67539  Biso   1.000  O 
  O12      1.0000 0.91138  0.33612  0.92913  Biso   1.000  O 
  O13      1.0000 0.52728  0.13019  0.73708  Biso   1.000  O 
  O14      1.0000 0.55067  0.13528  0.97915  Biso   1.000  O 
  O15      1.0000 0.42780  0.38167  0.51136  Biso   1.000  O 
  O16      1.0000 0.42763  0.37249  0.76320  Biso   1.000  O 
  Hf8      1.0000 0.27542  0.52048  0.14474  Biso   1.000  Hf
  Hf9      1.0000 0.26293  0.72707  0.39730  Biso   1.000  Hf
  Hf10     1.0000 0.72496  0.77068  0.09895  Biso   1.000  Hf
  Hf11     1.0000 0.70383  0.97923  0.35817  Biso   1.000  Hf
  O17      1.0000 0.08019  0.67185  0.07970  Biso   1.000  O 
  O18      1.0000 0.06576  0.57978  0.33008  Biso   1.000  O 
  O19      1.0000 0.90987  0.92395  0.17142  Biso   1.000  O 
  O20      1.0000 0.91518  0.83085  0.41942  Biso   1.000  O 
  O21      1.0000 0.54847  0.63108  0.24056  Biso   1.000  O 
  O22      1.0000 0.53905  0.62221  0.49211  Biso   1.000  O 
  O23      1.0000 0.46641  0.88000  0.00306  Biso   1.000  O 
  O24      1.0000 0.43910  0.86856  0.25694  Biso   1.000  O 
  Hf12     1.0000 0.25940  0.52322  0.64993  Biso   1.000  Hf
  Hf13     1.0000 0.25521  0.73469  0.89735  Biso   1.000  Hf
  Hf14     1.0000 0.70545  0.77311  0.60615  Biso   1.000  Hf
  Hf15     1.0000 0.70091  0.98492  0.85625  Biso   1.000  Hf
  O25      1.0000 0.05488  0.66971  0.58099  Biso   1.000  O 
  O26      1.0000 0.04987  0.58419  0.83276  Biso   1.000  O 
  O27      1.0000 0.91087  0.92154  0.66970  Biso   1.000  O 
  O28      1.0000 0.90437  0.83416  0.92094  Biso   1.000  O 
  O29      1.0000 0.53461  0.63126  0.74288  Biso   1.000  O 
  O30      1.0000 0.52489  0.62413  0.99305  Biso   1.000  O 
  O31      1.0000 0.43146  0.88041  0.50892  Biso   1.000  O 
  O32      1.0000 0.42782  0.87324  0.75849  Biso   1.000  O 
