data_image0
_cell_length_a       10.059
_cell_length_b       10.4944
_cell_length_c       5.08407
_cell_angle_alpha    90
_cell_angle_beta     90
_cell_angle_gamma    90

_symmetry_space_group_name_H-M    "P 1"
_symmetry_int_tables_number       1

loop_
  _symmetry_equiv_pos_as_xyz
  'x, y, z'

loop_
  _atom_site_label
  _atom_site_occupancy
  _atom_site_fract_x
  _atom_site_fract_y
  _atom_site_fract_z
  _atom_site_thermal_displace_type
  _atom_site_B_iso_or_equiv
  _atom_site_type_symbol
  Hf1      1.0000 0.14974  0.01523  0.29609  Biso   1.000  Hf
  Hf2      1.0000 0.16800  0.21221  0.81683  Biso   1.000  Hf
  Hf3      1.0000 0.37909  0.26449  0.26538  Biso   1.000  Hf
  Hf4      1.0000 0.39064  0.48110  0.74893  Biso   1.000  Hf
  O1       1.0000 0.06458  0.06558  0.65865  Biso   1.000  O 
  O2       1.0000 0.01342  0.12985  0.11805  Biso   1.000  O 
  O3       1.0000 0.48401  0.42766  0.39882  Biso   1.000  O 
  O4       1.0000 0.49588  0.31193  0.89383  Biso   1.000  O 
  O5       1.0000 0.30086  0.11006  0.52421  Biso   1.000  O 
  O6       1.0000 0.28188  0.12016  0.02797  Biso   1.000  O 
  O7       1.0000 0.24658  0.39521  0.05172  Biso   1.000  O 
  O8       1.0000 0.27217  0.34471  0.57576  Biso   1.000  O 
  Hf5      1.0000 0.13044  0.54162  0.21218  Biso   1.000  Hf
  Hf6      1.0000 0.15474  0.73482  0.73568  Biso   1.000  Hf
  Hf7      1.0000 0.37750  0.76118  0.23975  Biso   1.000  Hf
  Hf8      1.0000 0.38845  0.97320  0.75415  Biso   1.000  Hf
  O9       1.0000 0.04093  0.69206  0.37991  Biso   1.000  O 
  O10      1.0000 0.05631  0.56899  0.86417  Biso   1.000  O 
  O11      1.0000 0.47791  0.92570  0.37647  Biso   1.000  O 
  O12      1.0000 0.49088  0.80942  0.88288  Biso   1.000  O 
  O13      1.0000 0.27802  0.60851  0.47625  Biso   1.000  O 
  O14      1.0000 0.29513  0.63594  0.97120  Biso   1.000  O 
  O15      1.0000 0.22144  0.88398  0.00383  Biso   1.000  O 
  O16      1.0000 0.25215  0.85971  0.49894  Biso   1.000  O 
  Hf9      1.0000 0.63877  0.01185  0.21881  Biso   1.000  Hf
  Hf10     1.0000 0.64869  0.22742  0.71528  Biso   1.000  Hf
  Hf11     1.0000 0.85233  0.26017  0.17668  Biso   1.000  Hf
  Hf12     1.0000 0.88510  0.48111  0.71660  Biso   1.000  Hf
  O17      1.0000 0.55098  0.17941  0.36858  Biso   1.000  O 
  O18      1.0000 0.56207  0.05740  0.86846  Biso   1.000  O 
  O19      1.0000 0.96084  0.45011  0.33627  Biso   1.000  O 
  O20      1.0000 0.99510  0.32219  0.84320  Biso   1.000  O 
  O21      1.0000 0.78498  0.11027  0.44119  Biso   1.000  O 
  O22      1.0000 0.79152  0.12578  0.93533  Biso   1.000  O 
  O23      1.0000 0.75633  0.37563  0.96492  Biso   1.000  O 
  O24      1.0000 0.74377  0.36246  0.47080  Biso   1.000  O 
  Hf13     1.0000 0.64073  0.51507  0.23616  Biso   1.000  Hf
  Hf14     1.0000 0.65616  0.72634  0.73531  Biso   1.000  Hf
  Hf15     1.0000 0.86929  0.76593  0.21511  Biso   1.000  Hf
  Hf16     1.0000 0.88329  0.97550  0.69265  Biso   1.000  Hf
  O25      1.0000 0.54201  0.67732  0.39274  Biso   1.000  O 
  O26      1.0000 0.55910  0.56316  0.89827  Biso   1.000  O 
  O27      1.0000 0.97037  0.91826  0.34574  Biso   1.000  O 
  O28      1.0000 0.98703  0.81905  0.85675  Biso   1.000  O 
  O29      1.0000 0.77886  0.61367  0.47309  Biso   1.000  O 
  O30      1.0000 0.79690  0.62440  0.96780  Biso   1.000  O 
  O31      1.0000 0.75515  0.87207  0.97183  Biso   1.000  O 
  O32      1.0000 0.74020  0.86220  0.47436  Biso   1.000  O 
  Ag1      1.0000 0.09206  0.29333  0.35826  Biso   1.000  Ag
