data_image0
_cell_length_a       10.141
_cell_length_b       10.4139
_cell_length_c       5.08287
_cell_angle_alpha    90
_cell_angle_beta     90
_cell_angle_gamma    90

_symmetry_space_group_name_H-M    "P 1"
_symmetry_int_tables_number       1

loop_
  _symmetry_equiv_pos_as_xyz
  'x, y, z'

loop_
  _atom_site_label
  _atom_site_occupancy
  _atom_site_fract_x
  _atom_site_fract_y
  _atom_site_fract_z
  _atom_site_thermal_displace_type
  _atom_site_B_iso_or_equiv
  _atom_site_type_symbol
  Hf1      1.0000 0.09754  0.94962  0.21625  Biso   1.000  Hf
  Hf2      1.0000 0.13531  0.30561  0.75519  Biso   1.000  Hf
  Hf3      1.0000 0.39440  0.27773  0.30531  Biso   1.000  Hf
  Hf4      1.0000 0.34635  0.01178  0.75647  Biso   1.000  Hf
  O1       1.0000 0.98941  0.17337  0.83971  Biso   1.000  O 
  O2       1.0000 0.97051  0.06314  0.35255  Biso   1.000  O 
  O3       1.0000 0.00612  0.35067  0.45139  Biso   1.000  O 
  O4       1.0000 0.00725  0.42024  0.97794  Biso   1.000  O 
  O5       1.0000 0.27593  0.17615  0.61496  Biso   1.000  O 
  O6       1.0000 0.29299  0.05895  0.10099  Biso   1.000  O 
  O7       1.0000 0.26350  0.35124  0.00962  Biso   1.000  O 
  O8       1.0000 0.25429  0.42438  0.50354  Biso   1.000  O 
  Hf5      1.0000 0.10696  0.51089  0.26244  Biso   1.000  Hf
  Hf6      1.0000 0.10962  0.74751  0.72941  Biso   1.000  Hf
  Hf7      1.0000 0.36590  0.76809  0.25609  Biso   1.000  Hf
  Hf8      1.0000 0.38183  0.52081  0.78915  Biso   1.000  Hf
  O9       1.0000 0.96363  0.64324  0.03556  Biso   1.000  O 
  O10      1.0000 0.99969  0.59098  0.55442  Biso   1.000  O 
  O11      1.0000 0.98105  0.82889  0.44714  Biso   1.000  O 
  O12      1.0000 0.99596  0.90951  0.92020  Biso   1.000  O 
  O13      1.0000 0.22241  0.66549  0.42261  Biso   1.000  O 
  O14      1.0000 0.21638  0.60215  0.92407  Biso   1.000  O 
  O15      1.0000 0.24090  0.84973  0.99286  Biso   1.000  O 
  O16      1.0000 0.22114  0.90240  0.52195  Biso   1.000  O 
  Hf9      1.0000 0.61487  0.02963  0.26553  Biso   1.000  Hf
  Hf10     1.0000 0.65357  0.26362  0.75586  Biso   1.000  Hf
  Hf11     1.0000 0.88761  0.23384  0.18381  Biso   1.000  Hf
  Hf12     1.0000 0.85321  0.01468  0.70598  Biso   1.000  Hf
  O17      1.0000 0.52088  0.18424  0.06877  Biso   1.000  O 
  O18      1.0000 0.51465  0.12743  0.55617  Biso   1.000  O 
  O19      1.0000 0.50563  0.37718  0.57679  Biso   1.000  O 
  O20      1.0000 0.48222  0.43211  0.08807  Biso   1.000  O 
  O21      1.0000 0.75595  0.16291  0.47529  Biso   1.000  O 
  O22      1.0000 0.76377  0.12062  0.97423  Biso   1.000  O 
  O23      1.0000 0.74054  0.35796  0.04226  Biso   1.000  O 
  O24      1.0000 0.74982  0.41499  0.55519  Biso   1.000  O 
  Hf13     1.0000 0.62491  0.50695  0.31375  Biso   1.000  Hf
  Hf14     1.0000 0.60675  0.77866  0.73222  Biso   1.000  Hf
  Hf15     1.0000 0.83273  0.76277  0.21911  Biso   1.000  Hf
  Hf16     1.0000 0.85936  0.52774  0.79980  Biso   1.000  Hf
  O25      1.0000 0.46568  0.69035  0.95614  Biso   1.000  O 
  O26      1.0000 0.48980  0.63007  0.48368  Biso   1.000  O 
  O27      1.0000 0.47370  0.88241  0.50557  Biso   1.000  O 
  O28      1.0000 0.48267  0.91191  0.00077  Biso   1.000  O 
  O29      1.0000 0.74178  0.66108  0.51960  Biso   1.000  O 
  O30      1.0000 0.70904  0.61381  0.02232  Biso   1.000  O 
  O31      1.0000 0.75047  0.87276  0.92884  Biso   1.000  O 
  O32      1.0000 0.72125  0.90800  0.44434  Biso   1.000  O 
  Ag1      1.0000 0.14612  0.19589  0.26923  Biso   1.000  Ag
