data_image0
_cell_length_a       10.0528
_cell_length_b       10.1713
_cell_length_c       5.06386
_cell_angle_alpha    90
_cell_angle_beta     90
_cell_angle_gamma    90

_symmetry_space_group_name_H-M    "P 1"
_symmetry_int_tables_number       1

loop_
  _symmetry_equiv_pos_as_xyz
  'x, y, z'

loop_
  _atom_site_label
  _atom_site_occupancy
  _atom_site_fract_x
  _atom_site_fract_y
  _atom_site_fract_z
  _atom_site_thermal_displace_type
  _atom_site_B_iso_or_equiv
  _atom_site_type_symbol
  Ag1      1.0000 0.10691  0.02378  0.23408  Biso   1.000  Ag
  Hf1      1.0000 0.11258  0.26044  0.73043  Biso   1.000  Hf
  Hf2      1.0000 0.37807  0.25003  0.25587  Biso   1.000  Hf
  Hf3      1.0000 0.32859  0.98950  0.70677  Biso   1.000  Hf
  O1       1.0000 0.00786  0.15473  0.00537  Biso   1.000  O 
  O2       1.0000 0.97720  0.11173  0.53312  Biso   1.000  O 
  O3       1.0000 0.02049  0.33951  0.39293  Biso   1.000  O 
  O4       1.0000 0.00371  0.41236  0.89131  Biso   1.000  O 
  O5       1.0000 0.23074  0.13897  0.44474  Biso   1.000  O 
  O6       1.0000 0.24013  0.12594  0.93792  Biso   1.000  O 
  O7       1.0000 0.26374  0.36344  0.01998  Biso   1.000  O 
  O8       1.0000 0.25034  0.38904  0.51722  Biso   1.000  O 
  Hf4      1.0000 0.12364  0.49241  0.22716  Biso   1.000  Hf
  Hf5      1.0000 0.09866  0.73390  0.70630  Biso   1.000  Hf
  Hf6      1.0000 0.34764  0.76030  0.20899  Biso   1.000  Hf
  Hf7      1.0000 0.35849  0.50235  0.76639  Biso   1.000  Hf
  O9       1.0000 0.96749  0.65123  0.98710  Biso   1.000  O 
  O10      1.0000 0.98514  0.59378  0.47657  Biso   1.000  O 
  O11      1.0000 0.94200  0.84197  0.57289  Biso   1.000  O 
  O12      1.0000 0.97391  0.90313  0.07009  Biso   1.000  O 
  O13      1.0000 0.23585  0.64063  0.46188  Biso   1.000  O 
  O14      1.0000 0.21729  0.61046  0.96289  Biso   1.000  O 
  O15      1.0000 0.20897  0.85818  0.93182  Biso   1.000  O 
  O16      1.0000 0.20363  0.88735  0.44233  Biso   1.000  O 
  Hf8      1.0000 0.60790  0.99711  0.27160  Biso   1.000  Hf
  Hf9      1.0000 0.59924  0.24142  0.77550  Biso   1.000  Hf
  Hf10     1.0000 0.85785  0.24377  0.26124  Biso   1.000  Hf
  Hf11     1.0000 0.85350  0.00424  0.76486  Biso   1.000  Hf
  O17      1.0000 0.52074  0.15285  0.06273  Biso   1.000  O 
  O18      1.0000 0.47707  0.10623  0.54254  Biso   1.000  O 
  O19      1.0000 0.50558  0.35784  0.49591  Biso   1.000  O 
  O20      1.0000 0.48871  0.39947  0.99632  Biso   1.000  O 
  O21      1.0000 0.72978  0.15145  0.51359  Biso   1.000  O 
  O22      1.0000 0.75520  0.09324  0.03045  Biso   1.000  O 
  O23      1.0000 0.75340  0.34516  0.93465  Biso   1.000  O 
  O24      1.0000 0.76585  0.40867  0.43607  Biso   1.000  O 
  Hf12     1.0000 0.61092  0.51454  0.28391  Biso   1.000  Hf
  Hf13     1.0000 0.59137  0.75780  0.77104  Biso   1.000  Hf
  Hf14     1.0000 0.87033  0.73992  0.25150  Biso   1.000  Hf
  Hf15     1.0000 0.84329  0.51096  0.75211  Biso   1.000  Hf
  O25      1.0000 0.49397  0.64862  0.04320  Biso   1.000  O 
  O26      1.0000 0.49306  0.60414  0.55401  Biso   1.000  O 
  O27      1.0000 0.45860  0.85114  0.49428  Biso   1.000  O 
  O28      1.0000 0.45138  0.90628  0.99248  Biso   1.000  O 
  O29      1.0000 0.73193  0.65786  0.51999  Biso   1.000  O 
  O30      1.0000 0.74579  0.59931  0.01112  Biso   1.000  O 
  O31      1.0000 0.71759  0.84200  0.09890  Biso   1.000  O 
  O32      1.0000 0.69166  0.91377  0.60436  Biso   1.000  O 
