data_image0
_cell_length_a       9.95791
_cell_length_b       5.18021
_cell_length_c       9.98233
_cell_angle_alpha    90
_cell_angle_beta     90
_cell_angle_gamma    90

_symmetry_space_group_name_H-M    "P 1"
_symmetry_int_tables_number       1

loop_
  _symmetry_equiv_pos_as_xyz
  'x, y, z'

loop_
  _atom_site_label
  _atom_site_occupancy
  _atom_site_fract_x
  _atom_site_fract_y
  _atom_site_fract_z
  _atom_site_thermal_displace_type
  _atom_site_B_iso_or_equiv
  _atom_site_type_symbol
  Al1      1.0000 0.12056  0.05213  0.10751  Biso   1.000  Al
  Hf1      1.0000 0.13961  0.41202  0.37146  Biso   1.000  Hf
  Hf2      1.0000 0.38674  0.52342  0.10675  Biso   1.000  Hf
  Hf3      1.0000 0.36541  0.92030  0.37170  Biso   1.000  Hf
  O1       1.0000 0.03618  0.35593  0.18773  Biso   1.000  O 
  O2       1.0000 0.03457  0.10367  0.45875  Biso   1.000  O 
  O3       1.0000 0.47001  0.86341  0.18966  Biso   1.000  O 
  O4       1.0000 0.47826  0.61186  0.45871  Biso   1.000  O 
  O5       1.0000 0.22839  0.09856  0.25590  Biso   1.000  O 
  O6       1.0000 0.27981  0.22480  0.50048  Biso   1.000  O 
  O7       1.0000 0.23083  0.72385  0.50330  Biso   1.000  O 
  O8       1.0000 0.27626  0.60490  0.26553  Biso   1.000  O 
  Hf4      1.0000 0.14342  0.99822  0.62999  Biso   1.000  Hf
  Hf5      1.0000 0.14054  0.42790  0.88456  Biso   1.000  Hf
  Hf6      1.0000 0.36946  0.50162  0.62945  Biso   1.000  Hf
  Hf7      1.0000 0.36413  0.93065  0.88463  Biso   1.000  Hf
  O9       1.0000 0.04261  0.33062  0.70036  Biso   1.000  O 
  O10      1.0000 0.04205  0.07976  0.94441  Biso   1.000  O 
  O11      1.0000 0.46639  0.83761  0.69939  Biso   1.000  O 
  O12      1.0000 0.47315  0.60353  0.93158  Biso   1.000  O 
  O13      1.0000 0.27789  0.20417  0.75690  Biso   1.000  O 
  O14      1.0000 0.25819  0.27424  0.01240  Biso   1.000  O 
  O15      1.0000 0.22288  0.78531  0.01567  Biso   1.000  O 
  O16      1.0000 0.23278  0.70097  0.75788  Biso   1.000  O 
  Hf8      1.0000 0.63832  0.03593  0.12562  Biso   1.000  Hf
  Hf9      1.0000 0.64173  0.44526  0.37793  Biso   1.000  Hf
  Hf10     1.0000 0.87062  0.53428  0.12135  Biso   1.000  Hf
  Hf11     1.0000 0.87413  0.94413  0.37109  Biso   1.000  Hf
  O17      1.0000 0.53895  0.36070  0.20325  Biso   1.000  O 
  O18      1.0000 0.53973  0.10408  0.43889  Biso   1.000  O 
  O19      1.0000 0.97998  0.86257  0.18810  Biso   1.000  O 
  O20      1.0000 0.97026  0.59948  0.43596  Biso   1.000  O 
  O21      1.0000 0.77838  0.22157  0.24675  Biso   1.000  O 
  O22      1.0000 0.77377  0.23449  0.49684  Biso   1.000  O 
  O23      1.0000 0.74122  0.73862  0.49520  Biso   1.000  O 
  O24      1.0000 0.73486  0.72246  0.24549  Biso   1.000  O 
  Hf12     1.0000 0.63424  0.99087  0.61827  Biso   1.000  Hf
  Hf13     1.0000 0.64496  0.42119  0.86825  Biso   1.000  Hf
  Hf14     1.0000 0.87767  0.49281  0.61934  Biso   1.000  Hf
  Hf15     1.0000 0.87241  0.92238  0.86993  Biso   1.000  Hf
  O25      1.0000 0.54040  0.32746  0.69283  Biso   1.000  O 
  O26      1.0000 0.53070  0.11574  0.95812  Biso   1.000  O 
  O27      1.0000 0.97172  0.82703  0.69181  Biso   1.000  O 
  O28      1.0000 0.96575  0.58146  0.93853  Biso   1.000  O 
  O29      1.0000 0.77387  0.18588  0.74468  Biso   1.000  O 
  O30      1.0000 0.77631  0.21409  0.99524  Biso   1.000  O 
  O31      1.0000 0.73480  0.71660  0.99316  Biso   1.000  O 
  O32      1.0000 0.73668  0.68729  0.74191  Biso   1.000  O 
