data_image0
_cell_length_a       10.1088
_cell_length_b       10.2272
_cell_length_c       10.4485
_cell_angle_alpha    90
_cell_angle_beta     80
_cell_angle_gamma    90

_symmetry_space_group_name_H-M    "P 1"
_symmetry_int_tables_number       1

loop_
  _symmetry_equiv_pos_as_xyz
  'x, y, z'

loop_
  _atom_site_label
  _atom_site_occupancy
  _atom_site_fract_x
  _atom_site_fract_y
  _atom_site_fract_z
  _atom_site_thermal_displace_type
  _atom_site_B_iso_or_equiv
  _atom_site_type_symbol
  Al1      1.0000 0.12248  0.01025  0.16359  Biso   1.000  Al
  Hf1      1.0000 0.13526  0.22516  0.39040  Biso   1.000  Hf
  Hf2      1.0000 0.35772  0.26678  0.10323  Biso   1.000  Hf
  Hf3      1.0000 0.35980  0.47787  0.35390  Biso   1.000  Hf
  O1       1.0000 0.04588  0.15358  0.08064  Biso   1.000  O 
  O2       1.0000 0.03171  0.07768  0.32750  Biso   1.000  O 
  O3       1.0000 0.46532  0.41603  0.17115  Biso   1.000  O 
  O4       1.0000 0.46359  0.33255  0.42154  Biso   1.000  O 
  O5       1.0000 0.26596  0.11980  0.22957  Biso   1.000  O 
  O6       1.0000 0.27257  0.12181  0.48520  Biso   1.000  O 
  O7       1.0000 0.22547  0.38247  0.00927  Biso   1.000  O 
  O8       1.0000 0.22385  0.36877  0.25931  Biso   1.000  O 
  Hf4      1.0000 0.13252  0.02004  0.64409  Biso   1.000  Hf
  Hf5      1.0000 0.13590  0.22261  0.89747  Biso   1.000  Hf
  Hf6      1.0000 0.35593  0.27077  0.60360  Biso   1.000  Hf
  Hf7      1.0000 0.35508  0.47831  0.85600  Biso   1.000  Hf
  O9       1.0000 0.03038  0.16551  0.57620  Biso   1.000  O 
  O10      1.0000 0.02759  0.08171  0.82746  Biso   1.000  O 
  O11      1.0000 0.46101  0.41640  0.67219  Biso   1.000  O 
  O12      1.0000 0.46344  0.33671  0.92375  Biso   1.000  O 
  O13      1.0000 0.26943  0.12600  0.73492  Biso   1.000  O 
  O14      1.0000 0.28765  0.13553  0.97364  Biso   1.000  O 
  O15      1.0000 0.21999  0.37829  0.50909  Biso   1.000  O 
  O16      1.0000 0.22003  0.36907  0.76086  Biso   1.000  O 
  Hf8      1.0000 0.14124  0.52207  0.14598  Biso   1.000  Hf
  Hf9      1.0000 0.13855  0.72815  0.39612  Biso   1.000  Hf
  Hf10     1.0000 0.35810  0.77677  0.10435  Biso   1.000  Hf
  Hf11     1.0000 0.35863  0.97901  0.35048  Biso   1.000  Hf
  O17      1.0000 0.03713  0.66813  0.08008  Biso   1.000  O 
  O18      1.0000 0.03470  0.58088  0.33000  Biso   1.000  O 
  O19      1.0000 0.46817  0.91647  0.17140  Biso   1.000  O 
  O20      1.0000 0.46329  0.83205  0.42023  Biso   1.000  O 
  O21      1.0000 0.27701  0.62958  0.24077  Biso   1.000  O 
  O22      1.0000 0.27522  0.62053  0.49129  Biso   1.000  O 
  O23      1.0000 0.22331  0.89583  0.01641  Biso   1.000  O 
  O24      1.0000 0.21817  0.87191  0.25910  Biso   1.000  O 
  Hf12     1.0000 0.13686  0.52014  0.64722  Biso   1.000  Hf
  Hf13     1.0000 0.13489  0.73158  0.89830  Biso   1.000  Hf
  Hf14     1.0000 0.35893  0.77154  0.60520  Biso   1.000  Hf
  Hf15     1.0000 0.35712  0.98121  0.85684  Biso   1.000  Hf
  O25      1.0000 0.03262  0.66588  0.58066  Biso   1.000  O 
  O26      1.0000 0.03180  0.58253  0.83221  Biso   1.000  O 
  O27      1.0000 0.46317  0.91749  0.67162  Biso   1.000  O 
  O28      1.0000 0.45785  0.83182  0.92290  Biso   1.000  O 
  O29      1.0000 0.27285  0.62884  0.74156  Biso   1.000  O 
  O30      1.0000 0.27046  0.62424  0.99173  Biso   1.000  O 
  O31      1.0000 0.22218  0.87831  0.50924  Biso   1.000  O 
  O32      1.0000 0.22050  0.87092  0.76124  Biso   1.000  O 
  Hf16     1.0000 0.63771  0.02166  0.14622  Biso   1.000  Hf
  Hf17     1.0000 0.63688  0.22780  0.39591  Biso   1.000  Hf
  Hf18     1.0000 0.87013  0.26511  0.10544  Biso   1.000  Hf
  Hf19     1.0000 0.85935  0.47807  0.35456  Biso   1.000  Hf
  O33      1.0000 0.53610  0.16830  0.07936  Biso   1.000  O 
  O34      1.0000 0.53002  0.08350  0.32823  Biso   1.000  O 
  O35      1.0000 0.96871  0.41497  0.17208  Biso   1.000  O 
  O36      1.0000 0.96195  0.33066  0.42085  Biso   1.000  O 
  O37      1.0000 0.77490  0.12656  0.24151  Biso   1.000  O 
  O38      1.0000 0.77266  0.12008  0.49156  Biso   1.000  O 
  O39      1.0000 0.72987  0.37699  0.01146  Biso   1.000  O 
  O40      1.0000 0.72564  0.36890  0.25975  Biso   1.000  O 
  Hf20     1.0000 0.63336  0.02053  0.64722  Biso   1.000  Hf
  Hf21     1.0000 0.63392  0.22876  0.89849  Biso   1.000  Hf
  Hf22     1.0000 0.85743  0.27051  0.60523  Biso   1.000  Hf
  Hf23     1.0000 0.85814  0.47645  0.85800  Biso   1.000  Hf
  O41      1.0000 0.53033  0.16683  0.57919  Biso   1.000  O 
  O42      1.0000 0.53179  0.08105  0.83029  Biso   1.000  O 
  O43      1.0000 0.96276  0.41512  0.67419  Biso   1.000  O 
  O44      1.0000 0.96258  0.32954  0.92637  Biso   1.000  O 
  O45      1.0000 0.77218  0.12850  0.74128  Biso   1.000  O 
  O46      1.0000 0.77075  0.11904  0.99272  Biso   1.000  O 
  O47      1.0000 0.72053  0.37788  0.51102  Biso   1.000  O 
  O48      1.0000 0.72010  0.37095  0.76194  Biso   1.000  O 
  Hf24     1.0000 0.63915  0.51976  0.14552  Biso   1.000  Hf
  Hf25     1.0000 0.63750  0.72821  0.39631  Biso   1.000  Hf
  Hf26     1.0000 0.86360  0.77266  0.10574  Biso   1.000  Hf
  Hf27     1.0000 0.86135  0.97686  0.35555  Biso   1.000  Hf
  O49      1.0000 0.53483  0.66792  0.07977  Biso   1.000  O 
  O50      1.0000 0.53516  0.58047  0.32993  Biso   1.000  O 
  O51      1.0000 0.96983  0.91563  0.17319  Biso   1.000  O 
  O52      1.0000 0.96321  0.82949  0.42287  Biso   1.000  O 
  O53      1.0000 0.77701  0.62813  0.24084  Biso   1.000  O 
  O54      1.0000 0.77428  0.61967  0.49190  Biso   1.000  O 
  O55      1.0000 0.72618  0.87925  0.01014  Biso   1.000  O 
  O56      1.0000 0.72475  0.87049  0.26040  Biso   1.000  O 
  Hf28     1.0000 0.63555  0.52012  0.64771  Biso   1.000  Hf
  Hf29     1.0000 0.63290  0.72758  0.89903  Biso   1.000  Hf
  Hf30     1.0000 0.85784  0.76881  0.60637  Biso   1.000  Hf
  Hf31     1.0000 0.85746  0.97760  0.85530  Biso   1.000  Hf
  O57      1.0000 0.53258  0.66718  0.57992  Biso   1.000  O 
  O58      1.0000 0.52923  0.58294  0.82962  Biso   1.000  O 
  O59      1.0000 0.96245  0.91557  0.67184  Biso   1.000  O 
  O60      1.0000 0.95950  0.83125  0.92320  Biso   1.000  O 
  O61      1.0000 0.77282  0.62688  0.74306  Biso   1.000  O 
  O62      1.0000 0.77007  0.61917  0.99246  Biso   1.000  O 
  O63      1.0000 0.72161  0.87721  0.51115  Biso   1.000  O 
  O64      1.0000 0.72023  0.86962  0.76155  Biso   1.000  O 
