data_image0
_cell_length_a       9.94386
_cell_length_b       10.3484
_cell_length_c       9.9942
_cell_angle_alpha    90
_cell_angle_beta     90
_cell_angle_gamma    90

_symmetry_space_group_name_H-M    "P 1"
_symmetry_int_tables_number       1

loop_
  _symmetry_equiv_pos_as_xyz
  'x, y, z'

loop_
  _atom_site_label
  _atom_site_occupancy
  _atom_site_fract_x
  _atom_site_fract_y
  _atom_site_fract_z
  _atom_site_thermal_displace_type
  _atom_site_B_iso_or_equiv
  _atom_site_type_symbol
  Al1      1.0000 0.12528  0.03019  0.10735  Biso   1.000  Al
  Hf1      1.0000 0.13582  0.22561  0.37149  Biso   1.000  Hf
  Hf2      1.0000 0.36450  0.26087  0.12479  Biso   1.000  Hf
  Hf3      1.0000 0.36762  0.47947  0.37589  Biso   1.000  Hf
  O1       1.0000 0.03494  0.17816  0.18873  Biso   1.000  O 
  O2       1.0000 0.03872  0.06299  0.44901  Biso   1.000  O 
  O3       1.0000 0.46423  0.43080  0.19373  Biso   1.000  O 
  O4       1.0000 0.46680  0.31310  0.44522  Biso   1.000  O 
  O5       1.0000 0.26166  0.10382  0.24300  Biso   1.000  O 
  O6       1.0000 0.27400  0.12927  0.49769  Biso   1.000  O 
  O7       1.0000 0.23065  0.37809  0.49874  Biso   1.000  O 
  O8       1.0000 0.23079  0.36025  0.24821  Biso   1.000  O 
  Hf4      1.0000 0.13878  0.01393  0.62815  Biso   1.000  Hf
  Hf5      1.0000 0.13665  0.23035  0.87578  Biso   1.000  Hf
  Hf6      1.0000 0.36805  0.26293  0.62545  Biso   1.000  Hf
  Hf7      1.0000 0.36927  0.47998  0.87599  Biso   1.000  Hf
  O9       1.0000 0.03867  0.18136  0.69529  Biso   1.000  O 
  O10      1.0000 0.03877  0.06155  0.94454  Biso   1.000  O 
  O11      1.0000 0.46616  0.43068  0.69457  Biso   1.000  O 
  O12      1.0000 0.46607  0.31021  0.94312  Biso   1.000  O 
  O13      1.0000 0.27529  0.11513  0.75050  Biso   1.000  O 
  O14      1.0000 0.26205  0.13363  0.00048  Biso   1.000  O 
  O15      1.0000 0.23384  0.37754  0.99895  Biso   1.000  O 
  O16      1.0000 0.23178  0.36489  0.74939  Biso   1.000  O 
  Hf8      1.0000 0.13417  0.51386  0.12562  Biso   1.000  Hf
  Hf9      1.0000 0.13682  0.72975  0.37861  Biso   1.000  Hf
  Hf10     1.0000 0.36366  0.76495  0.12778  Biso   1.000  Hf
  Hf11     1.0000 0.36093  0.97991  0.37255  Biso   1.000  Hf
  O17      1.0000 0.03602  0.68240  0.19569  Biso   1.000  O 
  O18      1.0000 0.03708  0.56093  0.44618  Biso   1.000  O 
  O19      1.0000 0.46783  0.93052  0.19645  Biso   1.000  O 
  O20      1.0000 0.46865  0.81507  0.45121  Biso   1.000  O 
  O21      1.0000 0.26929  0.60782  0.24978  Biso   1.000  O 
  O22      1.0000 0.27420  0.62889  0.50120  Biso   1.000  O 
  O23      1.0000 0.22968  0.87912  0.50573  Biso   1.000  O 
  O24      1.0000 0.24375  0.84985  0.26256  Biso   1.000  O 
  Hf12     1.0000 0.13730  0.51325  0.62658  Biso   1.000  Hf
  Hf13     1.0000 0.13692  0.73165  0.88020  Biso   1.000  Hf
  Hf14     1.0000 0.36780  0.76514  0.62924  Biso   1.000  Hf
  Hf15     1.0000 0.36205  0.98013  0.88306  Biso   1.000  Hf
  O25      1.0000 0.03888  0.68148  0.69551  Biso   1.000  O 
  O26      1.0000 0.03857  0.56202  0.94603  Biso   1.000  O 
  O27      1.0000 0.46432  0.93152  0.69939  Biso   1.000  O 
  O28      1.0000 0.46276  0.81229  0.94433  Biso   1.000  O 
  O29      1.0000 0.27273  0.61531  0.75184  Biso   1.000  O 
  O30      1.0000 0.26749  0.63388  0.00077  Biso   1.000  O 
  O31      1.0000 0.21918  0.89077  0.01427  Biso   1.000  O 
  O32      1.0000 0.22995  0.86574  0.75621  Biso   1.000  O 
  Hf16     1.0000 0.63492  0.01609  0.12512  Biso   1.000  Hf
  Hf17     1.0000 0.63606  0.22979  0.37626  Biso   1.000  Hf
  Hf18     1.0000 0.86522  0.26505  0.12416  Biso   1.000  Hf
  Hf19     1.0000 0.86686  0.48096  0.37601  Biso   1.000  Hf
  O33      1.0000 0.53443  0.18190  0.19696  Biso   1.000  O 
  O34      1.0000 0.53790  0.06244  0.44329  Biso   1.000  O 
  O35      1.0000 0.96526  0.43096  0.19518  Biso   1.000  O 
  O36      1.0000 0.96522  0.31081  0.44089  Biso   1.000  O 
  O37      1.0000 0.77241  0.11511  0.24743  Biso   1.000  O 
  O38      1.0000 0.77400  0.12904  0.49723  Biso   1.000  O 
  O39      1.0000 0.73157  0.37946  0.49950  Biso   1.000  O 
  O40      1.0000 0.72957  0.36521  0.24913  Biso   1.000  O 
  Hf20     1.0000 0.63533  0.01121  0.62306  Biso   1.000  Hf
  Hf21     1.0000 0.63675  0.22929  0.87394  Biso   1.000  Hf
  Hf22     1.0000 0.86866  0.26227  0.62392  Biso   1.000  Hf
  Hf23     1.0000 0.86842  0.48055  0.87523  Biso   1.000  Hf
  O41      1.0000 0.53973  0.18107  0.69226  Biso   1.000  O 
  O42      1.0000 0.53730  0.06330  0.94766  Biso   1.000  O 
  O43      1.0000 0.96622  0.43071  0.69345  Biso   1.000  O 
  O44      1.0000 0.96699  0.31280  0.94381  Biso   1.000  O 
  O45      1.0000 0.77274  0.11297  0.74724  Biso   1.000  O 
  O46      1.0000 0.77380  0.12855  0.99711  Biso   1.000  O 
  O47      1.0000 0.73267  0.37796  0.99874  Biso   1.000  O 
  O48      1.0000 0.73229  0.36393  0.74875  Biso   1.000  O 
  Hf24     1.0000 0.63359  0.51631  0.12715  Biso   1.000  Hf
  Hf25     1.0000 0.63593  0.73294  0.37557  Biso   1.000  Hf
  Hf26     1.0000 0.87022  0.76840  0.12340  Biso   1.000  Hf
  Hf27     1.0000 0.87107  0.98197  0.37164  Biso   1.000  Hf
  O49      1.0000 0.53531  0.68285  0.19713  Biso   1.000  O 
  O50      1.0000 0.53822  0.56338  0.44382  Biso   1.000  O 
  O51      1.0000 0.98075  0.93606  0.18980  Biso   1.000  O 
  O52      1.0000 0.96550  0.81313  0.44306  Biso   1.000  O 
  O53      1.0000 0.77242  0.61537  0.24929  Biso   1.000  O 
  O54      1.0000 0.77152  0.63018  0.49965  Biso   1.000  O 
  O55      1.0000 0.73352  0.88097  0.49697  Biso   1.000  O 
  O56      1.0000 0.73598  0.86599  0.24702  Biso   1.000  O 
  Hf28     1.0000 0.63609  0.51354  0.62563  Biso   1.000  Hf
  Hf29     1.0000 0.63565  0.73042  0.87650  Biso   1.000  Hf
  Hf30     1.0000 0.86855  0.76343  0.62515  Biso   1.000  Hf
  Hf31     1.0000 0.86714  0.98061  0.87367  Biso   1.000  Hf
  O57      1.0000 0.53742  0.67975  0.69619  Biso   1.000  O 
  O58      1.0000 0.53904  0.56197  0.94616  Biso   1.000  O 
  O59      1.0000 0.96521  0.93107  0.69360  Biso   1.000  O 
  O60      1.0000 0.96325  0.81083  0.93996  Biso   1.000  O 
  O61      1.0000 0.77251  0.61425  0.74977  Biso   1.000  O 
  O62      1.0000 0.76817  0.63475  0.00015  Biso   1.000  O 
  O63      1.0000 0.73142  0.87855  0.99795  Biso   1.000  O 
  O64      1.0000 0.72994  0.86293  0.74745  Biso   1.000  O 
