data_image0
_cell_length_a       5.04769
_cell_length_b       10.187
_cell_length_c       10.4416
_cell_angle_alpha    90
_cell_angle_beta     80
_cell_angle_gamma    90

_symmetry_space_group_name_H-M    "P 1"
_symmetry_int_tables_number       1

loop_
  _symmetry_equiv_pos_as_xyz
  'x, y, z'

loop_
  _atom_site_label
  _atom_site_occupancy
  _atom_site_fract_x
  _atom_site_fract_y
  _atom_site_fract_z
  _atom_site_thermal_displace_type
  _atom_site_B_iso_or_equiv
  _atom_site_type_symbol
  Al1      1.0000 0.24372  0.00955  0.16388  Biso   1.000  Al
  Hf1      1.0000 0.26956  0.22457  0.38987  Biso   1.000  Hf
  Hf2      1.0000 0.73475  0.26096  0.10519  Biso   1.000  Hf
  Hf3      1.0000 0.71972  0.47766  0.35448  Biso   1.000  Hf
  O1       1.0000 0.09535  0.15187  0.08002  Biso   1.000  O 
  O2       1.0000 0.05513  0.07996  0.32515  Biso   1.000  O 
  O3       1.0000 0.94146  0.41237  0.17294  Biso   1.000  O 
  O4       1.0000 0.92597  0.33203  0.42190  Biso   1.000  O 
  O5       1.0000 0.52993  0.11729  0.22936  Biso   1.000  O 
  O6       1.0000 0.54208  0.12120  0.48549  Biso   1.000  O 
  O7       1.0000 0.46418  0.38062  0.01166  Biso   1.000  O 
  O8       1.0000 0.45560  0.36663  0.25938  Biso   1.000  O 
  Hf4      1.0000 0.25986  0.01954  0.64468  Biso   1.000  Hf
  Hf5      1.0000 0.26940  0.22300  0.89951  Biso   1.000  Hf
  Hf6      1.0000 0.71051  0.27035  0.60431  Biso   1.000  Hf
  Hf7      1.0000 0.71215  0.47653  0.85942  Biso   1.000  Hf
  O9       1.0000 0.05613  0.16405  0.57492  Biso   1.000  O 
  O10      1.0000 0.05553  0.08172  0.82727  Biso   1.000  O 
  O11      1.0000 0.92409  0.41332  0.67599  Biso   1.000  O 
  O12      1.0000 0.93034  0.33476  0.92980  Biso   1.000  O 
  O13      1.0000 0.53672  0.12579  0.73507  Biso   1.000  O 
  O14      1.0000 0.57542  0.13451  0.97445  Biso   1.000  O 
  O15      1.0000 0.43873  0.37750  0.51031  Biso   1.000  O 
  O16      1.0000 0.43994  0.36916  0.76304  Biso   1.000  O 
  Hf8      1.0000 0.28453  0.52080  0.14569  Biso   1.000  Hf
  Hf9      1.0000 0.27796  0.72776  0.39649  Biso   1.000  Hf
  Hf10     1.0000 0.72197  0.77796  0.10573  Biso   1.000  Hf
  Hf11     1.0000 0.72141  0.97740  0.35156  Biso   1.000  Hf
  O17      1.0000 0.07422  0.66816  0.08058  Biso   1.000  O 
  O18      1.0000 0.07262  0.57988  0.33013  Biso   1.000  O 
  O19      1.0000 0.94773  0.91394  0.17359  Biso   1.000  O 
  O20      1.0000 0.92769  0.83024  0.42208  Biso   1.000  O 
  O21      1.0000 0.55777  0.62884  0.24107  Biso   1.000  O 
  O22      1.0000 0.55092  0.61941  0.49255  Biso   1.000  O 
  O23      1.0000 0.45189  0.89737  0.01728  Biso   1.000  O 
  O24      1.0000 0.44041  0.87149  0.25967  Biso   1.000  O 
  Hf12     1.0000 0.27270  0.51905  0.64888  Biso   1.000  Hf
  Hf13     1.0000 0.26556  0.73109  0.90070  Biso   1.000  Hf
  Hf14     1.0000 0.71737  0.76904  0.60699  Biso   1.000  Hf
  Hf15     1.0000 0.71624  0.98008  0.85673  Biso   1.000  Hf
  O25      1.0000 0.06556  0.66499  0.58074  Biso   1.000  O 
  O26      1.0000 0.05965  0.58381  0.83231  Biso   1.000  O 
  O27      1.0000 0.92849  0.91501  0.67230  Biso   1.000  O 
  O28      1.0000 0.91306  0.83140  0.92489  Biso   1.000  O 
  O29      1.0000 0.54542  0.62698  0.74377  Biso   1.000  O 
  O30      1.0000 0.53702  0.62317  0.99321  Biso   1.000  O 
  O31      1.0000 0.44572  0.87687  0.51031  Biso   1.000  O 
  O32      1.0000 0.44162  0.86971  0.76268  Biso   1.000  O 
