data_image0
_cell_length_a       10.1526
_cell_length_b       10.3037
_cell_length_c       10.4888
_cell_angle_alpha    90
_cell_angle_beta     80
_cell_angle_gamma    90

_symmetry_space_group_name_H-M    "P 1"
_symmetry_int_tables_number       1

loop_
  _symmetry_equiv_pos_as_xyz
  'x, y, z'

loop_
  _atom_site_label
  _atom_site_occupancy
  _atom_site_fract_x
  _atom_site_fract_y
  _atom_site_fract_z
  _atom_site_thermal_displace_type
  _atom_site_B_iso_or_equiv
  _atom_site_type_symbol
  Hf1      1.0000 0.13868  0.02233  0.14477  Biso   1.000  Hf
  Hf2      1.0000 0.13746  0.23385  0.39236  Biso   1.000  Hf
  Hf3      1.0000 0.35286  0.27709  0.10265  Biso   1.000  Hf
  Hf4      1.0000 0.35675  0.47218  0.34328  Biso   1.000  Hf
  O1       1.0000 0.03257  0.16963  0.07932  Biso   1.000  O 
  O2       1.0000 0.03937  0.08148  0.32782  Biso   1.000  O 
  O3       1.0000 0.45835  0.43161  0.15795  Biso   1.000  O 
  O4       1.0000 0.48047  0.32797  0.42548  Biso   1.000  O 
  O5       1.0000 0.28441  0.11653  0.23804  Biso   1.000  O 
  O6       1.0000 0.29716  0.12546  0.47557  Biso   1.000  O 
  O7       1.0000 0.21712  0.38297  0.00411  Biso   1.000  O 
  O8       1.0000 0.19806  0.37701  0.24981  Biso   1.000  O 
  Hf5      1.0000 0.14229  0.01948  0.64494  Biso   1.000  Hf
  Hf6      1.0000 0.14217  0.22589  0.89475  Biso   1.000  Hf
  Hf7      1.0000 0.36723  0.27061  0.61111  Biso   1.000  Hf
  Hf8      1.0000 0.36430  0.47665  0.85393  Biso   1.000  Hf
  O9       1.0000 0.04592  0.16907  0.57746  Biso   1.000  O 
  O10      1.0000 0.04076  0.07828  0.82742  Biso   1.000  O 
  O11      1.0000 0.47021  0.41601  0.67226  Biso   1.000  O 
  O12      1.0000 0.46804  0.32853  0.91882  Biso   1.000  O 
  O13      1.0000 0.28223  0.12518  0.73733  Biso   1.000  O 
  O14      1.0000 0.28009  0.11931  0.98777  Biso   1.000  O 
  O15      1.0000 0.23068  0.37553  0.50924  Biso   1.000  O 
  O16      1.0000 0.22817  0.36827  0.75831  Biso   1.000  O 
  Hf9      1.0000 0.13310  0.52400  0.14134  Biso   1.000  Hf
  Hf10     1.0000 0.13730  0.72169  0.39626  Biso   1.000  Hf
  Hf11     1.0000 0.35689  0.76905  0.10214  Biso   1.000  Hf
  Hf12     1.0000 0.35227  0.95567  0.35176  Biso   1.000  Hf
  O17      1.0000 0.02968  0.67349  0.07827  Biso   1.000  O 
  O18      1.0000 0.03068  0.58323  0.32679  Biso   1.000  O 
  O19      1.0000 0.46253  0.91363  0.17281  Biso   1.000  O 
  O20      1.0000 0.46610  0.82684  0.42280  Biso   1.000  O 
  O21      1.0000 0.27323  0.62554  0.23885  Biso   1.000  O 
  O22      1.0000 0.27640  0.61759  0.48900  Biso   1.000  O 
  O23      1.0000 0.21955  0.88023  0.00858  Biso   1.000  O 
  O24      1.0000 0.21425  0.86366  0.25614  Biso   1.000  O 
  Hf13     1.0000 0.14345  0.51923  0.64446  Biso   1.000  Hf
  Hf14     1.0000 0.13968  0.72713  0.89470  Biso   1.000  Hf
  Hf15     1.0000 0.36280  0.76698  0.60510  Biso   1.000  Hf
  Hf16     1.0000 0.36258  0.97481  0.85394  Biso   1.000  Hf
  O25      1.0000 0.03509  0.66372  0.57987  Biso   1.000  O 
  O26      1.0000 0.03935  0.57834  0.82918  Biso   1.000  O 
  O27      1.0000 0.46641  0.91460  0.67120  Biso   1.000  O 
  O28      1.0000 0.46759  0.82850  0.91949  Biso   1.000  O 
  O29      1.0000 0.27970  0.62561  0.73972  Biso   1.000  O 
  O30      1.0000 0.27913  0.61980  0.98800  Biso   1.000  O 
  O31      1.0000 0.22207  0.87576  0.51125  Biso   1.000  O 
  O32      1.0000 0.22505  0.86842  0.75838  Biso   1.000  O 
  Hf17     1.0000 0.64012  0.02094  0.14588  Biso   1.000  Hf
  Hf18     1.0000 0.66130  0.22714  0.40538  Biso   1.000  Hf
  Hf19     1.0000 0.85858  0.27206  0.10520  Biso   1.000  Hf
  Hf20     1.0000 0.86045  0.47951  0.35263  Biso   1.000  Hf
  O33      1.0000 0.53097  0.17157  0.08760  Biso   1.000  O 
  O34      1.0000 0.53073  0.08729  0.33055  Biso   1.000  O 
  O35      1.0000 0.95654  0.42415  0.16613  Biso   1.000  O 
  O36      1.0000 0.96267  0.33213  0.42092  Biso   1.000  O 
  O37      1.0000 0.77642  0.12690  0.24365  Biso   1.000  O 
  O38      1.0000 0.78948  0.11543  0.49530  Biso   1.000  O 
  O39      1.0000 0.72031  0.37954  0.01228  Biso   1.000  O 
  O40      1.0000 0.72209  0.36888  0.26253  Biso   1.000  O 
  Hf21     1.0000 0.64459  0.01736  0.64844  Biso   1.000  Hf
  Hf22     1.0000 0.64151  0.22667  0.89867  Biso   1.000  Hf
  Hf23     1.0000 0.86768  0.26963  0.60809  Biso   1.000  Hf
  Hf24     1.0000 0.86536  0.47569  0.85527  Biso   1.000  Hf
  O41      1.0000 0.54367  0.16516  0.58170  Biso   1.000  O 
  O42      1.0000 0.54065  0.07776  0.83204  Biso   1.000  O 
  O43      1.0000 0.97023  0.41548  0.67182  Biso   1.000  O 
  O44      1.0000 0.96729  0.32666  0.91914  Biso   1.000  O 
  O45      1.0000 0.78179  0.12706  0.74322  Biso   1.000  O 
  O46      1.0000 0.77938  0.11785  0.99184  Biso   1.000  O 
  O47      1.0000 0.72838  0.37661  0.51392  Biso   1.000  O 
  O48      1.0000 0.72808  0.36844  0.76193  Biso   1.000  O 
  Hf25     1.0000 0.63558  0.52319  0.14653  Biso   1.000  Hf
  Hf26     1.0000 0.63860  0.72401  0.39699  Biso   1.000  Hf
  Hf27     1.0000 0.85562  0.77326  0.10455  Biso   1.000  Hf
  Hf28     1.0000 0.86202  0.97341  0.35424  Biso   1.000  Hf
  O49      1.0000 0.53407  0.67218  0.08036  Biso   1.000  O 
  O50      1.0000 0.53330  0.57667  0.33064  Biso   1.000  O 
  O51      1.0000 0.96021  0.91935  0.16998  Biso   1.000  O 
  O52      1.0000 0.96609  0.83024  0.42216  Biso   1.000  O 
  O53      1.0000 0.77359  0.63034  0.24118  Biso   1.000  O 
  O54      1.0000 0.77746  0.61888  0.49126  Biso   1.000  O 
  O55      1.0000 0.71815  0.88083  0.00998  Biso   1.000  O 
  O56      1.0000 0.71722  0.87242  0.26127  Biso   1.000  O 
  Hf29     1.0000 0.64306  0.52053  0.64820  Biso   1.000  Hf
  Hf30     1.0000 0.64189  0.72569  0.89626  Biso   1.000  Hf
  Hf31     1.0000 0.86276  0.76924  0.60422  Biso   1.000  Hf
  Hf32     1.0000 0.86185  0.97648  0.85420  Biso   1.000  Hf
  O57      1.0000 0.53692  0.66492  0.58132  Biso   1.000  O 
  O58      1.0000 0.53861  0.57932  0.83041  Biso   1.000  O 
  O59      1.0000 0.96620  0.91703  0.67017  Biso   1.000  O 
  O60      1.0000 0.96572  0.82965  0.91868  Biso   1.000  O 
  O61      1.0000 0.78014  0.62641  0.74118  Biso   1.000  O 
  O62      1.0000 0.77996  0.61814  0.99020  Biso   1.000  O 
  O63      1.0000 0.72439  0.87555  0.51105  Biso   1.000  O 
  O64      1.0000 0.72642  0.86834  0.76019  Biso   1.000  O 
  Al1      1.0000 0.40772  0.20917  0.33233  Biso   1.000  Al
