data_image0
_cell_length_a       9.98097
_cell_length_b       10.4116
_cell_length_c       10.037
_cell_angle_alpha    90
_cell_angle_beta     90
_cell_angle_gamma    90

_symmetry_space_group_name_H-M    "P 1"
_symmetry_int_tables_number       1

loop_
  _symmetry_equiv_pos_as_xyz
  'x, y, z'

loop_
  _atom_site_label
  _atom_site_occupancy
  _atom_site_fract_x
  _atom_site_fract_y
  _atom_site_fract_z
  _atom_site_thermal_displace_type
  _atom_site_B_iso_or_equiv
  _atom_site_type_symbol
  Hf1      1.0000 0.13492  0.02757  0.11673  Biso   1.000  Hf
  Hf2      1.0000 0.13158  0.23238  0.39085  Biso   1.000  Hf
  Hf3      1.0000 0.36076  0.26083  0.12065  Biso   1.000  Hf
  Hf4      1.0000 0.36246  0.48466  0.37353  Biso   1.000  Hf
  O1       1.0000 0.00982  0.18755  0.21538  Biso   1.000  O 
  O2       1.0000 0.03284  0.06747  0.45091  Biso   1.000  O 
  O3       1.0000 0.45441  0.43353  0.19272  Biso   1.000  O 
  O4       1.0000 0.45863  0.31783  0.44399  Biso   1.000  O 
  O5       1.0000 0.26394  0.12062  0.25340  Biso   1.000  O 
  O6       1.0000 0.27003  0.13219  0.50297  Biso   1.000  O 
  O7       1.0000 0.22704  0.38410  0.50023  Biso   1.000  O 
  O8       1.0000 0.21360  0.36387  0.24698  Biso   1.000  O 
  Hf5      1.0000 0.13153  0.01666  0.62895  Biso   1.000  Hf
  Hf6      1.0000 0.14220  0.22678  0.87590  Biso   1.000  Hf
  Hf7      1.0000 0.36405  0.26940  0.62710  Biso   1.000  Hf
  Hf8      1.0000 0.36151  0.48779  0.87381  Biso   1.000  Hf
  O9       1.0000 0.03362  0.18431  0.69473  Biso   1.000  O 
  O10      1.0000 0.03478  0.06633  0.93725  Biso   1.000  O 
  O11      1.0000 0.46326  0.43542  0.69428  Biso   1.000  O 
  O12      1.0000 0.45705  0.31803  0.94111  Biso   1.000  O 
  O13      1.0000 0.27068  0.11779  0.74677  Biso   1.000  O 
  O14      1.0000 0.29243  0.12208  0.98859  Biso   1.000  O 
  O15      1.0000 0.22577  0.39026  0.00110  Biso   1.000  O 
  O16      1.0000 0.22874  0.36934  0.75045  Biso   1.000  O 
  Hf9      1.0000 0.13374  0.55251  0.11687  Biso   1.000  Hf
  Hf10     1.0000 0.13061  0.73861  0.38057  Biso   1.000  Hf
  Hf11     1.0000 0.35892  0.77134  0.12596  Biso   1.000  Hf
  Hf12     1.0000 0.35844  0.98437  0.37555  Biso   1.000  Hf
  O17      1.0000 0.02114  0.68773  0.20988  Biso   1.000  O 
  O18      1.0000 0.03109  0.56898  0.44851  Biso   1.000  O 
  O19      1.0000 0.45771  0.93624  0.19519  Biso   1.000  O 
  O20      1.0000 0.45889  0.81624  0.44172  Biso   1.000  O 
  O21      1.0000 0.26987  0.62554  0.25159  Biso   1.000  O 
  O22      1.0000 0.26653  0.63276  0.49901  Biso   1.000  O 
  O23      1.0000 0.22534  0.88432  0.50109  Biso   1.000  O 
  O24      1.0000 0.22327  0.87111  0.25110  Biso   1.000  O 
  Hf13     1.0000 0.12903  0.51817  0.62773  Biso   1.000  Hf
  Hf14     1.0000 0.12873  0.74137  0.87352  Biso   1.000  Hf
  Hf15     1.0000 0.36409  0.76602  0.62306  Biso   1.000  Hf
  Hf16     1.0000 0.36573  0.97944  0.87130  Biso   1.000  Hf
  O25      1.0000 0.03215  0.68644  0.69149  Biso   1.000  O 
  O26      1.0000 0.02892  0.57650  0.94121  Biso   1.000  O 
  O27      1.0000 0.46292  0.93309  0.68922  Biso   1.000  O 
  O28      1.0000 0.46379  0.81919  0.94754  Biso   1.000  O 
  O29      1.0000 0.26595  0.61936  0.74697  Biso   1.000  O 
  O30      1.0000 0.27589  0.63877  0.99129  Biso   1.000  O 
  O31      1.0000 0.22354  0.88705  0.99844  Biso   1.000  O 
  O32      1.0000 0.22878  0.86878  0.74730  Biso   1.000  O 
  Hf17     1.0000 0.62805  0.01266  0.12238  Biso   1.000  Hf
  Hf18     1.0000 0.62621  0.23236  0.37848  Biso   1.000  Hf
  Hf19     1.0000 0.83412  0.26232  0.13033  Biso   1.000  Hf
  Hf20     1.0000 0.86489  0.48700  0.37488  Biso   1.000  Hf
  O33      1.0000 0.53286  0.18323  0.19233  Biso   1.000  O 
  O34      1.0000 0.53204  0.06668  0.44464  Biso   1.000  O 
  O35      1.0000 0.96796  0.43046  0.18614  Biso   1.000  O 
  O36      1.0000 0.96328  0.32263  0.45109  Biso   1.000  O 
  O37      1.0000 0.75729  0.11463  0.25094  Biso   1.000  O 
  O38      1.0000 0.76861  0.13564  0.49810  Biso   1.000  O 
  O39      1.0000 0.72820  0.38528  0.50049  Biso   1.000  O 
  O40      1.0000 0.72021  0.37149  0.25410  Biso   1.000  O 
  Hf21     1.0000 0.63430  0.01720  0.62355  Biso   1.000  Hf
  Hf22     1.0000 0.62548  0.23490  0.87139  Biso   1.000  Hf
  Hf23     1.0000 0.86423  0.26849  0.62726  Biso   1.000  Hf
  Hf24     1.0000 0.86065  0.48491  0.88005  Biso   1.000  Hf
  O41      1.0000 0.53504  0.18611  0.69009  Biso   1.000  O 
  O42      1.0000 0.54007  0.06478  0.93603  Biso   1.000  O 
  O43      1.0000 0.96401  0.43281  0.70612  Biso   1.000  O 
  O44      1.0000 0.96787  0.31670  0.96767  Biso   1.000  O 
  O45      1.0000 0.76868  0.11930  0.74831  Biso   1.000  O 
  O46      1.0000 0.76420  0.13503  0.99809  Biso   1.000  O 
  O47      1.0000 0.72534  0.37996  0.00083  Biso   1.000  O 
  O48      1.0000 0.72870  0.36910  0.75176  Biso   1.000  O 
  Hf25     1.0000 0.62525  0.51967  0.12584  Biso   1.000  Hf
  Hf26     1.0000 0.62896  0.73392  0.37448  Biso   1.000  Hf
  Hf27     1.0000 0.86018  0.77052  0.12579  Biso   1.000  Hf
  Hf28     1.0000 0.86369  0.98591  0.37266  Biso   1.000  Hf
  O49      1.0000 0.53095  0.68452  0.19379  Biso   1.000  O 
  O50      1.0000 0.53004  0.56637  0.44450  Biso   1.000  O 
  O51      1.0000 0.95964  0.94027  0.19182  Biso   1.000  O 
  O52      1.0000 0.96012  0.82093  0.44661  Biso   1.000  O 
  O53      1.0000 0.76406  0.61650  0.24970  Biso   1.000  O 
  O54      1.0000 0.76611  0.63418  0.49888  Biso   1.000  O 
  O55      1.0000 0.72586  0.88480  0.49739  Biso   1.000  O 
  O56      1.0000 0.72447  0.86752  0.24869  Biso   1.000  O 
  Hf29     1.0000 0.63245  0.51754  0.62570  Biso   1.000  Hf
  Hf30     1.0000 0.63033  0.73496  0.87491  Biso   1.000  Hf
  Hf31     1.0000 0.86225  0.76815  0.62479  Biso   1.000  Hf
  Hf32     1.0000 0.85953  0.98473  0.87491  Biso   1.000  Hf
  O57      1.0000 0.53369  0.68487  0.69344  Biso   1.000  O 
  O58      1.0000 0.53336  0.56765  0.94194  Biso   1.000  O 
  O59      1.0000 0.96072  0.93300  0.69796  Biso   1.000  O 
  O60      1.0000 0.95746  0.82005  0.94696  Biso   1.000  O 
  O61      1.0000 0.76869  0.61740  0.75079  Biso   1.000  O 
  O62      1.0000 0.77110  0.63031  0.00099  Biso   1.000  O 
  O63      1.0000 0.72266  0.88544  0.99885  Biso   1.000  O 
  O64      1.0000 0.72604  0.86856  0.74853  Biso   1.000  O 
  Al1      1.0000 0.09220  0.30734  0.11600  Biso   1.000  Al
