data_image0
_cell_length_a       10.0204
_cell_length_b       10.1916
_cell_length_c       10.4416
_cell_angle_alpha    90
_cell_angle_beta     90
_cell_angle_gamma    90

_symmetry_space_group_name_H-M    "P 1"
_symmetry_int_tables_number       1

loop_
  _symmetry_equiv_pos_as_xyz
  'x, y, z'

loop_
  _atom_site_label
  _atom_site_occupancy
  _atom_site_fract_x
  _atom_site_fract_y
  _atom_site_fract_z
  _atom_site_thermal_displace_type
  _atom_site_B_iso_or_equiv
  _atom_site_type_symbol
  Al1      1.0000 0.11881  0.01279  0.19211  Biso   1.000  Al
  Hf1      1.0000 0.13527  0.22855  0.41671  Biso   1.000  Hf
  Hf2      1.0000 0.35706  0.26801  0.16980  Biso   1.000  Hf
  Hf3      1.0000 0.35843  0.47933  0.42163  Biso   1.000  Hf
  Hf4      1.0000 0.63952  0.02163  0.07729  Biso   1.000  Hf
  Hf5      1.0000 0.63682  0.22992  0.32756  Biso   1.000  Hf
  Hf6      1.0000 0.87144  0.26464  0.08186  Biso   1.000  Hf
  Hf7      1.0000 0.85966  0.47962  0.32875  Biso   1.000  Hf
  O1       1.0000 0.04705  0.15275  0.08989  Biso   1.000  O 
  O2       1.0000 0.02845  0.08191  0.33533  Biso   1.000  O 
  O3       1.0000 0.46869  0.41438  0.08400  Biso   1.000  O 
  O4       1.0000 0.46524  0.33450  0.33463  Biso   1.000  O 
  O5       1.0000 0.26576  0.11918  0.28394  Biso   1.000  O 
  O6       1.0000 0.29876  0.14151  0.02890  Biso   1.000  O 
  O7       1.0000 0.22235  0.37437  0.29589  Biso   1.000  O 
  O8       1.0000 0.22261  0.38092  0.04602  Biso   1.000  O 
  O9       1.0000 0.53339  0.16559  0.16570  Biso   1.000  O 
  O10      1.0000 0.52761  0.08515  0.41410  Biso   1.000  O 
  O11      1.0000 0.96982  0.41374  0.16839  Biso   1.000  O 
  O12      1.0000 0.96382  0.33490  0.41670  Biso   1.000  O 
  O13      1.0000 0.77135  0.12411  0.45529  Biso   1.000  O 
  O14      1.0000 0.77640  0.12527  0.20511  Biso   1.000  O 
  O15      1.0000 0.72107  0.37472  0.45572  Biso   1.000  O 
  O16      1.0000 0.72634  0.37461  0.20534  Biso   1.000  O 
  Hf8      1.0000 0.13310  0.02146  0.66876  Biso   1.000  Hf
  Hf9      1.0000 0.13793  0.22456  0.92404  Biso   1.000  Hf
  Hf10     1.0000 0.35587  0.27185  0.67090  Biso   1.000  Hf
  Hf11     1.0000 0.35536  0.47947  0.92256  Biso   1.000  Hf
  Hf12     1.0000 0.63207  0.02131  0.57779  Biso   1.000  Hf
  Hf13     1.0000 0.63495  0.23035  0.82923  Biso   1.000  Hf
  Hf14     1.0000 0.85729  0.27131  0.57909  Biso   1.000  Hf
  Hf15     1.0000 0.85918  0.47816  0.83198  Biso   1.000  Hf
  O17      1.0000 0.02853  0.16529  0.58146  Biso   1.000  O 
  O18      1.0000 0.02720  0.08591  0.83172  Biso   1.000  O 
  O19      1.0000 0.46411  0.41631  0.58391  Biso   1.000  O 
  O20      1.0000 0.46365  0.33672  0.83276  Biso   1.000  O 
  O21      1.0000 0.27017  0.12248  0.78832  Biso   1.000  O 
  O22      1.0000 0.27211  0.12819  0.53961  Biso   1.000  O 
  O23      1.0000 0.22031  0.37339  0.79630  Biso   1.000  O 
  O24      1.0000 0.21967  0.37701  0.54498  Biso   1.000  O 
  O25      1.0000 0.52830  0.16705  0.66515  Biso   1.000  O 
  O26      1.0000 0.53050  0.08318  0.91286  Biso   1.000  O 
  O27      1.0000 0.96465  0.41391  0.66935  Biso   1.000  O 
  O28      1.0000 0.96548  0.33286  0.92147  Biso   1.000  O 
  O29      1.0000 0.77326  0.12380  0.95572  Biso   1.000  O 
  O30      1.0000 0.77125  0.12695  0.70461  Biso   1.000  O 
  O31      1.0000 0.72166  0.37255  0.95722  Biso   1.000  O 
  O32      1.0000 0.72078  0.37712  0.70624  Biso   1.000  O 
  Hf16     1.0000 0.14056  0.52249  0.17177  Biso   1.000  Hf
  Hf17     1.0000 0.13750  0.73030  0.42076  Biso   1.000  Hf
  Hf18     1.0000 0.35739  0.77717  0.17005  Biso   1.000  Hf
  Hf19     1.0000 0.35701  0.98170  0.41686  Biso   1.000  Hf
  Hf20     1.0000 0.64096  0.51994  0.07865  Biso   1.000  Hf
  Hf21     1.0000 0.63622  0.72913  0.32702  Biso   1.000  Hf
  Hf22     1.0000 0.86495  0.77287  0.08000  Biso   1.000  Hf
  Hf23     1.0000 0.85970  0.97843  0.32974  Biso   1.000  Hf
  O33      1.0000 0.03546  0.66609  0.08441  Biso   1.000  O 
  O34      1.0000 0.03173  0.58524  0.33410  Biso   1.000  O 
  O35      1.0000 0.47263  0.91434  0.08221  Biso   1.000  O 
  O36      1.0000 0.46402  0.83639  0.33247  Biso   1.000  O 
  O37      1.0000 0.27575  0.62628  0.29500  Biso   1.000  O 
  O38      1.0000 0.27936  0.63008  0.04486  Biso   1.000  O 
  O39      1.0000 0.21573  0.87755  0.29151  Biso   1.000  O 
  O40      1.0000 0.22433  0.88622  0.04678  Biso   1.000  O 
  O41      1.0000 0.53155  0.66546  0.16556  Biso   1.000  O 
  O42      1.0000 0.53043  0.58574  0.41644  Biso   1.000  O 
  O43      1.0000 0.97088  0.91505  0.16935  Biso   1.000  O 
  O44      1.0000 0.96443  0.83370  0.41763  Biso   1.000  O 
  O45      1.0000 0.77391  0.62393  0.45505  Biso   1.000  O 
  O46      1.0000 0.77628  0.62651  0.20512  Biso   1.000  O 
  O47      1.0000 0.72071  0.87351  0.45511  Biso   1.000  O 
  O48      1.0000 0.72494  0.87609  0.20508  Biso   1.000  O 
  Hf24     1.0000 0.13618  0.52160  0.67285  Biso   1.000  Hf
  Hf25     1.0000 0.13626  0.73401  0.92299  Biso   1.000  Hf
  Hf26     1.0000 0.35885  0.77238  0.67132  Biso   1.000  Hf
  Hf27     1.0000 0.35624  0.98179  0.92291  Biso   1.000  Hf
  Hf28     1.0000 0.63670  0.52129  0.57913  Biso   1.000  Hf
  Hf29     1.0000 0.63606  0.72966  0.82920  Biso   1.000  Hf
  Hf30     1.0000 0.85804  0.77038  0.57930  Biso   1.000  Hf
  Hf31     1.0000 0.85893  0.98008  0.82836  Biso   1.000  Hf
  O49      1.0000 0.03030  0.66486  0.58396  Biso   1.000  O 
  O50      1.0000 0.03011  0.58610  0.83590  Biso   1.000  O 
  O51      1.0000 0.46400  0.91654  0.58193  Biso   1.000  O 
  O52      1.0000 0.46469  0.83595  0.83297  Biso   1.000  O 
  O53      1.0000 0.27306  0.62491  0.79536  Biso   1.000  O 
  O54      1.0000 0.27398  0.62709  0.54527  Biso   1.000  O 
  O55      1.0000 0.22069  0.87435  0.79439  Biso   1.000  O 
  O56      1.0000 0.22173  0.87750  0.54315  Biso   1.000  O 
  O57      1.0000 0.53055  0.66610  0.66603  Biso   1.000  O 
  O58      1.0000 0.52850  0.58498  0.91601  Biso   1.000  O 
  O59      1.0000 0.96503  0.91484  0.66627  Biso   1.000  O 
  O60      1.0000 0.96291  0.83592  0.91705  Biso   1.000  O 
  O61      1.0000 0.77238  0.62377  0.95599  Biso   1.000  O 
  O62      1.0000 0.77413  0.62582  0.70620  Biso   1.000  O 
  O63      1.0000 0.72058  0.87434  0.95493  Biso   1.000  O 
  O64      1.0000 0.72107  0.87670  0.70498  Biso   1.000  O 
