data_image0
_cell_length_a       10.0172
_cell_length_b       10.1475
_cell_length_c       5.21372
_cell_angle_alpha    90
_cell_angle_beta     90
_cell_angle_gamma    90

_symmetry_space_group_name_H-M    "P 1"
_symmetry_int_tables_number       1

loop_
  _symmetry_equiv_pos_as_xyz
  'x, y, z'

loop_
  _atom_site_label
  _atom_site_occupancy
  _atom_site_fract_x
  _atom_site_fract_y
  _atom_site_fract_z
  _atom_site_thermal_displace_type
  _atom_site_B_iso_or_equiv
  _atom_site_type_symbol
  Al1      1.0000 0.11911  0.00955  0.37627  Biso   1.000  Al
  Hf1      1.0000 0.13762  0.22365  0.83449  Biso   1.000  Hf
  Hf2      1.0000 0.35574  0.26794  0.33767  Biso   1.000  Hf
  Hf3      1.0000 0.35697  0.47840  0.84570  Biso   1.000  Hf
  Hf4      1.0000 0.63661  0.02121  0.15283  Biso   1.000  Hf
  Hf5      1.0000 0.63680  0.23001  0.65636  Biso   1.000  Hf
  Hf6      1.0000 0.87174  0.26411  0.16498  Biso   1.000  Hf
  Hf7      1.0000 0.86196  0.47740  0.66503  Biso   1.000  Hf
  O1       1.0000 0.04720  0.14904  0.17065  Biso   1.000  O 
  O2       1.0000 0.02611  0.08296  0.66211  Biso   1.000  O 
  O3       1.0000 0.46977  0.41466  0.16859  Biso   1.000  O 
  O4       1.0000 0.46620  0.33584  0.66603  Biso   1.000  O 
  O5       1.0000 0.26248  0.11439  0.54740  Biso   1.000  O 
  O6       1.0000 0.30170  0.14761  0.03801  Biso   1.000  O 
  O7       1.0000 0.22318  0.37225  0.59398  Biso   1.000  O 
  O8       1.0000 0.22246  0.38243  0.09240  Biso   1.000  O 
  O9       1.0000 0.53260  0.16656  0.32838  Biso   1.000  O 
  O10      1.0000 0.52947  0.08178  0.82018  Biso   1.000  O 
  O11      1.0000 0.97245  0.40995  0.34549  Biso   1.000  O 
  O12      1.0000 0.96665  0.33250  0.84588  Biso   1.000  O 
  O13      1.0000 0.77224  0.12232  0.91191  Biso   1.000  O 
  O14      1.0000 0.77506  0.12496  0.40892  Biso   1.000  O 
  O15      1.0000 0.72364  0.37148  0.91661  Biso   1.000  O 
  O16      1.0000 0.72796  0.37450  0.41351  Biso   1.000  O 
  Hf8      1.0000 0.14193  0.52270  0.34710  Biso   1.000  Hf
  Hf9      1.0000 0.13848  0.73370  0.84700  Biso   1.000  Hf
  Hf10     1.0000 0.35944  0.77832  0.34196  Biso   1.000  Hf
  Hf11     1.0000 0.35637  0.98282  0.83759  Biso   1.000  Hf
  Hf12     1.0000 0.64279  0.51944  0.15913  Biso   1.000  Hf
  Hf13     1.0000 0.63750  0.72820  0.65609  Biso   1.000  Hf
  Hf14     1.0000 0.86533  0.77117  0.16179  Biso   1.000  Hf
  Hf15     1.0000 0.86151  0.97809  0.65878  Biso   1.000  Hf
  O17      1.0000 0.03636  0.66470  0.17028  Biso   1.000  O 
  O18      1.0000 0.03292  0.58646  0.67327  Biso   1.000  O 
  O19      1.0000 0.47330  0.91491  0.16023  Biso   1.000  O 
  O20      1.0000 0.46638  0.83694  0.66410  Biso   1.000  O 
  O21      1.0000 0.27684  0.62573  0.59170  Biso   1.000  O 
  O22      1.0000 0.28128  0.63230  0.09095  Biso   1.000  O 
  O23      1.0000 0.21704  0.87536  0.58777  Biso   1.000  O 
  O24      1.0000 0.22445  0.89185  0.09824  Biso   1.000  O 
  O25      1.0000 0.53319  0.66566  0.33066  Biso   1.000  O 
  O26      1.0000 0.53042  0.58440  0.83259  Biso   1.000  O 
  O27      1.0000 0.97341  0.91287  0.33957  Biso   1.000  O 
  O28      1.0000 0.96477  0.83482  0.83894  Biso   1.000  O 
  O29      1.0000 0.77411  0.62214  0.91270  Biso   1.000  O 
  O30      1.0000 0.77816  0.62500  0.41339  Biso   1.000  O 
  O31      1.0000 0.72183  0.87214  0.91006  Biso   1.000  O 
  O32      1.0000 0.72647  0.87567  0.41010  Biso   1.000  O 
