data_image0
_cell_length_a       10.0634
_cell_length_b       10.302
_cell_length_c       5.26014
_cell_angle_alpha    90
_cell_angle_beta     90
_cell_angle_gamma    90

_symmetry_space_group_name_H-M    "P 1"
_symmetry_int_tables_number       1

loop_
  _symmetry_equiv_pos_as_xyz
  'x, y, z'

loop_
  _atom_site_label
  _atom_site_occupancy
  _atom_site_fract_x
  _atom_site_fract_y
  _atom_site_fract_z
  _atom_site_thermal_displace_type
  _atom_site_B_iso_or_equiv
  _atom_site_type_symbol
  Hf1      1.0000 0.13649  0.01804  0.34794  Biso   1.000  Hf
  Hf2      1.0000 0.12371  0.22808  0.85422  Biso   1.000  Hf
  Hf3      1.0000 0.33843  0.27024  0.37611  Biso   1.000  Hf
  Hf4      1.0000 0.34473  0.48297  0.85064  Biso   1.000  Hf
  Hf5      1.0000 0.64216  0.02439  0.13937  Biso   1.000  Hf
  Hf6      1.0000 0.63457  0.22249  0.67655  Biso   1.000  Hf
  Hf7      1.0000 0.86091  0.26430  0.14985  Biso   1.000  Hf
  Hf8      1.0000 0.84896  0.47845  0.64878  Biso   1.000  Hf
  O1       1.0000 0.03437  0.16612  0.17677  Biso   1.000  O 
  O2       1.0000 0.02876  0.08303  0.66726  Biso   1.000  O 
  O3       1.0000 0.46779  0.41123  0.17570  Biso   1.000  O 
  O4       1.0000 0.45516  0.33253  0.69199  Biso   1.000  O 
  O5       1.0000 0.26704  0.12474  0.60405  Biso   1.000  O 
  O6       1.0000 0.27571  0.12464  0.10208  Biso   1.000  O 
  O7       1.0000 0.20888  0.37557  0.60845  Biso   1.000  O 
  O8       1.0000 0.22125  0.37658  0.10800  Biso   1.000  O 
  O9       1.0000 0.51667  0.16968  0.34679  Biso   1.000  O 
  O10      1.0000 0.52442  0.07087  0.81110  Biso   1.000  O 
  O11      1.0000 0.95410  0.41575  0.33233  Biso   1.000  O 
  O12      1.0000 0.95457  0.33508  0.83597  Biso   1.000  O 
  O13      1.0000 0.78507  0.11604  0.89317  Biso   1.000  O 
  O14      1.0000 0.77088  0.12475  0.40599  Biso   1.000  O 
  O15      1.0000 0.70749  0.38757  0.90090  Biso   1.000  O 
  O16      1.0000 0.70185  0.37188  0.38409  Biso   1.000  O 
  Hf9      1.0000 0.12710  0.52218  0.34636  Biso   1.000  Hf
  Hf10     1.0000 0.12251  0.72834  0.84588  Biso   1.000  Hf
  Hf11     1.0000 0.35204  0.77222  0.35088  Biso   1.000  Hf
  Hf12     1.0000 0.34449  0.97644  0.85324  Biso   1.000  Hf
  Hf13     1.0000 0.64213  0.54532  0.14566  Biso   1.000  Hf
  Hf14     1.0000 0.62741  0.73501  0.65239  Biso   1.000  Hf
  Hf15     1.0000 0.85629  0.77379  0.15208  Biso   1.000  Hf
  Hf16     1.0000 0.85072  0.97698  0.64860  Biso   1.000  Hf
  O17      1.0000 0.02736  0.66506  0.16737  Biso   1.000  O 
  O18      1.0000 0.02105  0.58164  0.67097  Biso   1.000  O 
  O19      1.0000 0.46125  0.91739  0.17594  Biso   1.000  O 
  O20      1.0000 0.45153  0.83181  0.67606  Biso   1.000  O 
  O21      1.0000 0.26285  0.62389  0.59465  Biso   1.000  O 
  O22      1.0000 0.27185  0.62321  0.09602  Biso   1.000  O 
  O23      1.0000 0.21103  0.87352  0.59707  Biso   1.000  O 
  O24      1.0000 0.21740  0.87308  0.09719  Biso   1.000  O 
  O25      1.0000 0.52118  0.66602  0.33894  Biso   1.000  O 
  O26      1.0000 0.51644  0.59048  0.83458  Biso   1.000  O 
  O27      1.0000 0.95995  0.91688  0.32520  Biso   1.000  O 
  O28      1.0000 0.95352  0.83434  0.82897  Biso   1.000  O 
  O29      1.0000 0.76679  0.63117  0.89352  Biso   1.000  O 
  O30      1.0000 0.77441  0.63066  0.40736  Biso   1.000  O 
  O31      1.0000 0.70891  0.87841  0.90458  Biso   1.000  O 
  O32      1.0000 0.71497  0.87625  0.40369  Biso   1.000  O 
  Al1      1.0000 0.59101  0.29025  0.14677  Biso   1.000  Al
