data_image0
_cell_length_a       5.07023
_cell_length_b       10.4056
_cell_length_c       10.0144
_cell_angle_alpha    90
_cell_angle_beta     90
_cell_angle_gamma    90

_symmetry_space_group_name_H-M    "P 1"
_symmetry_int_tables_number       1

loop_
  _symmetry_equiv_pos_as_xyz
  'x, y, z'

loop_
  _atom_site_label
  _atom_site_occupancy
  _atom_site_fract_x
  _atom_site_fract_y
  _atom_site_fract_z
  _atom_site_thermal_displace_type
  _atom_site_B_iso_or_equiv
  _atom_site_type_symbol
  Hf1      1.0000 0.21181  0.01723  0.14074  Biso   1.000  Hf
  Hf2      1.0000 0.19601  0.23410  0.42041  Biso   1.000  Hf
  Hf3      1.0000 0.72825  0.24968  0.12247  Biso   1.000  Hf
  Hf4      1.0000 0.74455  0.97800  0.38572  Biso   1.000  Hf
  O1       1.0000 0.07631  0.19153  0.03583  Biso   1.000  O 
  O2       1.0000 0.93108  0.10181  0.25834  Biso   1.000  O 
  O3       1.0000 0.95959  0.33562  0.27578  Biso   1.000  O 
  O4       1.0000 0.96674  0.42457  0.05071  Biso   1.000  O 
  O5       1.0000 0.40213  0.19301  0.23310  Biso   1.000  O 
  O6       1.0000 0.49676  0.12890  0.99072  Biso   1.000  O 
  O7       1.0000 0.45553  0.35493  0.00927  Biso   1.000  O 
  O8       1.0000 0.44815  0.43334  0.23491  Biso   1.000  O 
  Hf5      1.0000 0.18903  0.02064  0.63368  Biso   1.000  Hf
  Hf6      1.0000 0.26759  0.24614  0.85641  Biso   1.000  Hf
  Hf7      1.0000 0.78709  0.26288  0.65010  Biso   1.000  Hf
  Hf8      1.0000 0.68704  0.99226  0.86175  Biso   1.000  Hf
  O9       1.0000 0.89118  0.12162  0.51403  Biso   1.000  O 
  O10      1.0000 0.97805  0.11948  0.78537  Biso   1.000  O 
  O11      1.0000 0.00393  0.38127  0.78440  Biso   1.000  O 
  O12      1.0000 0.97748  0.39070  0.51453  Biso   1.000  O 
  O13      1.0000 0.49835  0.12778  0.73344  Biso   1.000  O 
  O14      1.0000 0.39264  0.06800  0.46531  Biso   1.000  O 
  O15      1.0000 0.50582  0.33876  0.50081  Biso   1.000  O 
  O16      1.0000 0.52606  0.38274  0.76302  Biso   1.000  O 
  Hf9      1.0000 0.25928  0.56517  0.10646  Biso   1.000  Hf
  Hf10     1.0000 0.20755  0.73229  0.38487  Biso   1.000  Hf
  Hf11     1.0000 0.75095  0.77929  0.11995  Biso   1.000  Hf
  Hf12     1.0000 0.72963  0.49211  0.37490  Biso   1.000  Hf
  O17      1.0000 0.97238  0.69782  0.98119  Biso   1.000  O 
  O18      1.0000 0.95766  0.61390  0.23935  Biso   1.000  O 
  O19      1.0000 0.02205  0.86161  0.25645  Biso   1.000  O 
  O20      1.0000 0.97175  0.93155  0.01811  Biso   1.000  O 
  O21      1.0000 0.45181  0.69164  0.22686  Biso   1.000  O 
  O22      1.0000 0.50364  0.64256  0.98738  Biso   1.000  O 
  O23      1.0000 0.43881  0.87613  0.97273  Biso   1.000  O 
  O24      1.0000 0.54464  0.93369  0.21724  Biso   1.000  O 
  Hf13     1.0000 0.26776  0.47490  0.63370  Biso   1.000  Hf
  Hf14     1.0000 0.26113  0.74725  0.84292  Biso   1.000  Hf
  Hf15     1.0000 0.75455  0.75606  0.62291  Biso   1.000  Hf
  Hf16     1.0000 0.77125  0.52775  0.87515  Biso   1.000  Hf
  O25      1.0000 0.91079  0.63596  0.48389  Biso   1.000  O 
  O26      1.0000 0.01185  0.62010  0.72957  Biso   1.000  O 
  O27      1.0000 0.96537  0.87193  0.75928  Biso   1.000  O 
  O28      1.0000 0.02017  0.87778  0.51048  Biso   1.000  O 
  O29      1.0000 0.51100  0.62982  0.72888  Biso   1.000  O 
  O30      1.0000 0.40794  0.57395  0.47121  Biso   1.000  O 
  O31      1.0000 0.53448  0.82150  0.46511  Biso   1.000  O 
  O32      1.0000 0.46628  0.88216  0.71856  Biso   1.000  O 
  Al1      1.0000 0.22093  0.31985  0.14517  Biso   1.000  Al
