data_image0
_cell_length_a       10.1047
_cell_length_b       5.09337
_cell_length_c       10.4448
_cell_angle_alpha    90
_cell_angle_beta     80
_cell_angle_gamma    90

_symmetry_space_group_name_H-M    "P 1"
_symmetry_int_tables_number       1

loop_
  _symmetry_equiv_pos_as_xyz
  'x, y, z'

loop_
  _atom_site_label
  _atom_site_occupancy
  _atom_site_fract_x
  _atom_site_fract_y
  _atom_site_fract_z
  _atom_site_thermal_displace_type
  _atom_site_B_iso_or_equiv
  _atom_site_type_symbol
  Al1      1.0000 0.12414  0.02119  0.16299  Biso   1.000  Al
  Hf1      1.0000 0.13549  0.44840  0.39016  Biso   1.000  Hf
  Hf2      1.0000 0.35382  0.54666  0.10383  Biso   1.000  Hf
  Hf3      1.0000 0.35787  0.95653  0.34986  Biso   1.000  Hf
  O1       1.0000 0.04719  0.30783  0.08078  Biso   1.000  O 
  O2       1.0000 0.03151  0.15361  0.32676  Biso   1.000  O 
  O3       1.0000 0.46885  0.82691  0.17236  Biso   1.000  O 
  O4       1.0000 0.46339  0.66706  0.42129  Biso   1.000  O 
  O5       1.0000 0.26594  0.23965  0.22846  Biso   1.000  O 
  O6       1.0000 0.27255  0.24247  0.48523  Biso   1.000  O 
  O7       1.0000 0.22484  0.80628  0.01855  Biso   1.000  O 
  O8       1.0000 0.21907  0.73859  0.25957  Biso   1.000  O 
  Hf4      1.0000 0.13226  0.03657  0.64446  Biso   1.000  Hf
  Hf5      1.0000 0.13343  0.45074  0.89726  Biso   1.000  Hf
  Hf6      1.0000 0.35588  0.54197  0.60418  Biso   1.000  Hf
  Hf7      1.0000 0.35435  0.96382  0.85850  Biso   1.000  Hf
  O9       1.0000 0.02924  0.32487  0.57640  Biso   1.000  O 
  O10      1.0000 0.02695  0.16444  0.82895  Biso   1.000  O 
  O11      1.0000 0.46174  0.83061  0.67348  Biso   1.000  O 
  O12      1.0000 0.46150  0.67659  0.92595  Biso   1.000  O 
  O13      1.0000 0.26812  0.25144  0.73474  Biso   1.000  O 
  O14      1.0000 0.28621  0.28433  0.97204  Biso   1.000  O 
  O15      1.0000 0.22016  0.75443  0.50854  Biso   1.000  O 
  O16      1.0000 0.21994  0.73857  0.76270  Biso   1.000  O 
  Hf8      1.0000 0.63720  0.04009  0.14587  Biso   1.000  Hf
  Hf9      1.0000 0.63624  0.45472  0.39603  Biso   1.000  Hf
  Hf10     1.0000 0.87125  0.53296  0.10721  Biso   1.000  Hf
  Hf11     1.0000 0.86072  0.95249  0.35557  Biso   1.000  Hf
  O17      1.0000 0.53381  0.33442  0.07937  Biso   1.000  O 
  O18      1.0000 0.52993  0.16565  0.32795  Biso   1.000  O 
  O19      1.0000 0.97360  0.82457  0.17419  Biso   1.000  O 
  O20      1.0000 0.96150  0.65673  0.42280  Biso   1.000  O 
  O21      1.0000 0.77509  0.25106  0.24153  Biso   1.000  O 
  O22      1.0000 0.77153  0.23716  0.49240  Biso   1.000  O 
  O23      1.0000 0.73047  0.75403  0.01216  Biso   1.000  O 
  O24      1.0000 0.72734  0.73639  0.26019  Biso   1.000  O 
  Hf12     1.0000 0.63187  0.03827  0.64838  Biso   1.000  Hf
  Hf13     1.0000 0.63193  0.45552  0.90070  Biso   1.000  Hf
  Hf14     1.0000 0.85628  0.53561  0.60660  Biso   1.000  Hf
  Hf15     1.0000 0.85769  0.95072  0.85804  Biso   1.000  Hf
  O25      1.0000 0.52916  0.33054  0.57875  Biso   1.000  O 
  O26      1.0000 0.52848  0.16620  0.82958  Biso   1.000  O 
  O27      1.0000 0.96296  0.82354  0.67504  Biso   1.000  O 
  O28      1.0000 0.96076  0.65978  0.92851  Biso   1.000  O 
  O29      1.0000 0.77086  0.25252  0.74306  Biso   1.000  O 
  O30      1.0000 0.76881  0.23488  0.99370  Biso   1.000  O 
  O31      1.0000 0.72011  0.75203  0.51210  Biso   1.000  O 
  O32      1.0000 0.71963  0.73911  0.76317  Biso   1.000  O 
