data_image0
_cell_length_a       10.0135
_cell_length_b       5.30293
_cell_length_c       9.98924
_cell_angle_alpha    90
_cell_angle_beta     90
_cell_angle_gamma    90

_symmetry_space_group_name_H-M    "P 1"
_symmetry_int_tables_number       1

loop_
  _symmetry_equiv_pos_as_xyz
  'x, y, z'

loop_
  _atom_site_label
  _atom_site_occupancy
  _atom_site_fract_x
  _atom_site_fract_y
  _atom_site_fract_z
  _atom_site_thermal_displace_type
  _atom_site_B_iso_or_equiv
  _atom_site_type_symbol
  Hf1      1.0000 0.12866  0.78458  0.12482  Biso   1.000  Hf
  Hf2      1.0000 0.15592  0.50675  0.40896  Biso   1.000  Hf
  Hf3      1.0000 0.41495  0.50022  0.15806  Biso   1.000  Hf
  Hf4      1.0000 0.37713  0.02316  0.37607  Biso   1.000  Hf
  O1       1.0000 0.02539  0.27532  0.98973  Biso   1.000  O 
  O2       1.0000 0.02649  0.03550  0.22121  Biso   1.000  O 
  O3       1.0000 0.02988  0.50084  0.22136  Biso   1.000  O 
  O4       1.0000 0.01446  0.74543  0.97917  Biso   1.000  O 
  O5       1.0000 0.26206  0.27534  0.25946  Biso   1.000  O 
  O6       1.0000 0.23084  0.03550  0.02843  Biso   1.000  O 
  O7       1.0000 0.22744  0.50085  0.02829  Biso   1.000  O 
  O8       1.0000 0.27300  0.74547  0.27002  Biso   1.000  O 
  Hf5      1.0000 0.14372  0.05158  0.62458  Biso   1.000  Hf
  Hf6      1.0000 0.13156  0.50671  0.84024  Biso   1.000  Hf
  Hf7      1.0000 0.41842  0.60166  0.62646  Biso   1.000  Hf
  Hf8      1.0000 0.39973  0.02116  0.87373  Biso   1.000  Hf
  O9       1.0000 0.04741  0.20333  0.46646  Biso   1.000  O 
  O10      1.0000 0.99097  0.29479  0.73100  Biso   1.000  O 
  O11      1.0000 0.02858  0.78727  0.73262  Biso   1.000  O 
  O12      1.0000 0.99687  0.72307  0.46657  Biso   1.000  O 
  O13      1.0000 0.24003  0.20326  0.78272  Biso   1.000  O 
  O14      1.0000 0.29648  0.29481  0.51819  Biso   1.000  O 
  O15      1.0000 0.25889  0.78729  0.51658  Biso   1.000  O 
  O16      1.0000 0.29061  0.72298  0.78265  Biso   1.000  O 
  Hf9      1.0000 0.62867  0.96399  0.12481  Biso   1.000  Hf
  Hf10     1.0000 0.66692  0.51056  0.35223  Biso   1.000  Hf
  Hf11     1.0000 0.84238  0.50019  0.09160  Biso   1.000  Hf
  Hf12     1.0000 0.88773  0.02119  0.37546  Biso   1.000  Hf
  O17      1.0000 0.48035  0.24822  0.01210  Biso   1.000  O 
  O18      1.0000 0.52127  0.23855  0.27272  Biso   1.000  O 
  O19      1.0000 0.51898  0.76539  0.28130  Biso   1.000  O 
  O20      1.0000 0.47030  0.77143  0.01662  Biso   1.000  O 
  O21      1.0000 0.77696  0.24820  0.23754  Biso   1.000  O 
  O22      1.0000 0.76617  0.23849  0.97648  Biso   1.000  O 
  O23      1.0000 0.76849  0.76534  0.96788  Biso   1.000  O 
  O24      1.0000 0.78704  0.77141  0.23302  Biso   1.000  O 
  Hf13     1.0000 0.64373  0.11145  0.62459  Biso   1.000  Hf
  Hf14     1.0000 0.62054  0.51053  0.89697  Biso   1.000  Hf
  Hf15     1.0000 0.86904  0.60165  0.62274  Biso   1.000  Hf
  Hf16     1.0000 0.91034  0.02313  0.87312  Biso   1.000  Hf
  O25      1.0000 0.55341  0.41828  0.51478  Biso   1.000  O 
  O26      1.0000 0.49514  0.29619  0.75771  Biso   1.000  O 
  O27      1.0000 0.54352  0.80113  0.76590  Biso   1.000  O 
  O28      1.0000 0.49081  0.92399  0.53395  Biso   1.000  O 
  O29      1.0000 0.73406  0.41826  0.73442  Biso   1.000  O 
  O30      1.0000 0.79232  0.29624  0.49147  Biso   1.000  O 
  O31      1.0000 0.74395  0.80117  0.48329  Biso   1.000  O 
  O32      1.0000 0.79665  0.92398  0.71525  Biso   1.000  O 
  Al1      1.0000 0.12866  0.26867  0.12482  Biso   1.000  Al
