data_image0
_cell_length_a       10.0034
_cell_length_b       10.4888
_cell_length_c       5.03794
_cell_angle_alpha    90
_cell_angle_beta     90
_cell_angle_gamma    90

_symmetry_space_group_name_H-M    "P 1"
_symmetry_int_tables_number       1

loop_
  _symmetry_equiv_pos_as_xyz
  'x, y, z'

loop_
  _atom_site_label
  _atom_site_occupancy
  _atom_site_fract_x
  _atom_site_fract_y
  _atom_site_fract_z
  _atom_site_thermal_displace_type
  _atom_site_B_iso_or_equiv
  _atom_site_type_symbol
  Hf1      1.0000 0.13707  0.02317  0.24570  Biso   1.000  Hf
  Hf2      1.0000 0.14483  0.21958  0.78991  Biso   1.000  Hf
  Hf3      1.0000 0.36144  0.26034  0.24659  Biso   1.000  Hf
  Hf4      1.0000 0.36141  0.48441  0.74333  Biso   1.000  Hf
  O1       1.0000 0.00865  0.18761  0.44504  Biso   1.000  O 
  O2       1.0000 0.03542  0.06268  0.89632  Biso   1.000  O 
  O3       1.0000 0.45918  0.43069  0.38701  Biso   1.000  O 
  O4       1.0000 0.45570  0.31526  0.88179  Biso   1.000  O 
  O5       1.0000 0.26934  0.11437  0.50417  Biso   1.000  O 
  O6       1.0000 0.29592  0.11633  0.98778  Biso   1.000  O 
  O7       1.0000 0.22771  0.39144  0.01365  Biso   1.000  O 
  O8       1.0000 0.22183  0.35726  0.51059  Biso   1.000  O 
  Hf5      1.0000 0.12950  0.55593  0.22558  Biso   1.000  Hf
  Hf6      1.0000 0.12883  0.74196  0.75368  Biso   1.000  Hf
  Hf7      1.0000 0.36177  0.76753  0.24532  Biso   1.000  Hf
  Hf8      1.0000 0.36270  0.97570  0.74402  Biso   1.000  Hf
  O9       1.0000 0.02121  0.69186  0.40985  Biso   1.000  O 
  O10      1.0000 0.02793  0.57402  0.87721  Biso   1.000  O 
  O11      1.0000 0.46149  0.93049  0.38108  Biso   1.000  O 
  O12      1.0000 0.46431  0.81469  0.88860  Biso   1.000  O 
  O13      1.0000 0.26788  0.62253  0.48994  Biso   1.000  O 
  O14      1.0000 0.27648  0.63541  0.97554  Biso   1.000  O 
  O15      1.0000 0.22827  0.88243  0.00136  Biso   1.000  O 
  O16      1.0000 0.22725  0.86770  0.49706  Biso   1.000  O 
  Hf9      1.0000 0.63098  0.01037  0.23812  Biso   1.000  Hf
  Hf10     1.0000 0.62106  0.22942  0.74359  Biso   1.000  Hf
  Hf11     1.0000 0.83655  0.25918  0.25550  Biso   1.000  Hf
  Hf12     1.0000 0.86303  0.48335  0.75104  Biso   1.000  Hf
  O17      1.0000 0.53458  0.18110  0.37721  Biso   1.000  O 
  O18      1.0000 0.53978  0.06143  0.87340  Biso   1.000  O 
  O19      1.0000 0.97414  0.43076  0.39503  Biso   1.000  O 
  O20      1.0000 0.97476  0.31628  0.95613  Biso   1.000  O 
  O21      1.0000 0.75865  0.11125  0.49394  Biso   1.000  O 
  O22      1.0000 0.76585  0.13349  0.98775  Biso   1.000  O 
  O23      1.0000 0.72512  0.38193  0.99972  Biso   1.000  O 
  O24      1.0000 0.72474  0.36756  0.50678  Biso   1.000  O 
  Hf13     1.0000 0.62693  0.51681  0.24809  Biso   1.000  Hf
  Hf14     1.0000 0.63038  0.73039  0.74527  Biso   1.000  Hf
  Hf15     1.0000 0.85917  0.77058  0.24454  Biso   1.000  Hf
  Hf16     1.0000 0.86206  0.98385  0.74109  Biso   1.000  Hf
  O25      1.0000 0.53250  0.68122  0.38510  Biso   1.000  O 
  O26      1.0000 0.53219  0.56327  0.88394  Biso   1.000  O 
  O27      1.0000 0.96033  0.93782  0.38907  Biso   1.000  O 
  O28      1.0000 0.95759  0.82110  0.89344  Biso   1.000  O 
  O29      1.0000 0.76633  0.61168  0.49878  Biso   1.000  O 
  O30      1.0000 0.76607  0.63204  0.99787  Biso   1.000  O 
  O31      1.0000 0.72436  0.88359  0.99079  Biso   1.000  O 
  O32      1.0000 0.72518  0.86412  0.49337  Biso   1.000  O 
  Al1      1.0000 0.09480  0.30887  0.26208  Biso   1.000  Al
