data_image0
_cell_length_a       10.0993
_cell_length_b       10.1864
_cell_length_c       5.22002
_cell_angle_alpha    90
_cell_angle_beta     80
_cell_angle_gamma    90

_symmetry_space_group_name_H-M    "P 1"
_symmetry_int_tables_number       1

loop_
  _symmetry_equiv_pos_as_xyz
  'x, y, z'

loop_
  _atom_site_label
  _atom_site_occupancy
  _atom_site_fract_x
  _atom_site_fract_y
  _atom_site_fract_z
  _atom_site_thermal_displace_type
  _atom_site_B_iso_or_equiv
  _atom_site_type_symbol
  Al1      1.0000 0.12165  0.00899  0.32358  Biso   1.000  Al
  Hf1      1.0000 0.13727  0.22050  0.78016  Biso   1.000  Hf
  Hf2      1.0000 0.35708  0.26687  0.20310  Biso   1.000  Hf
  Hf3      1.0000 0.35938  0.47831  0.71011  Biso   1.000  Hf
  O1       1.0000 0.04665  0.15064  0.15215  Biso   1.000  O 
  O2       1.0000 0.02928  0.07842  0.64885  Biso   1.000  O 
  O3       1.0000 0.46661  0.41399  0.34524  Biso   1.000  O 
  O4       1.0000 0.46888  0.33896  0.84919  Biso   1.000  O 
  O5       1.0000 0.26287  0.11650  0.44194  Biso   1.000  O 
  O6       1.0000 0.29227  0.13984  0.92724  Biso   1.000  O 
  O7       1.0000 0.22625  0.38333  0.01675  Biso   1.000  O 
  O8       1.0000 0.22576  0.36735  0.51929  Biso   1.000  O 
  Hf4      1.0000 0.14378  0.52189  0.29391  Biso   1.000  Hf
  Hf5      1.0000 0.14028  0.73188  0.79628  Biso   1.000  Hf
  Hf6      1.0000 0.36034  0.77782  0.20960  Biso   1.000  Hf
  Hf7      1.0000 0.36103  0.98186  0.70360  Biso   1.000  Hf
  O9       1.0000 0.03866  0.66655  0.16160  Biso   1.000  O 
  O10      1.0000 0.03690  0.58267  0.66411  Biso   1.000  O 
  O11      1.0000 0.47157  0.91625  0.34409  Biso   1.000  O 
  O12      1.0000 0.46226  0.83294  0.84369  Biso   1.000  O 
  O13      1.0000 0.27869  0.63009  0.48267  Biso   1.000  O 
  O14      1.0000 0.27551  0.62494  0.98365  Biso   1.000  O 
  O15      1.0000 0.22602  0.89779  0.03260  Biso   1.000  O 
  O16      1.0000 0.22052  0.87206  0.52093  Biso   1.000  O 
  Hf8      1.0000 0.63725  0.02165  0.29312  Biso   1.000  Hf
  Hf9      1.0000 0.63806  0.22858  0.79516  Biso   1.000  Hf
  Hf10     1.0000 0.87159  0.26492  0.21180  Biso   1.000  Hf
  Hf11     1.0000 0.86226  0.47671  0.71529  Biso   1.000  Hf
  O17      1.0000 0.53522  0.16700  0.15584  Biso   1.000  O 
  O18      1.0000 0.53308  0.08336  0.65564  Biso   1.000  O 
  O19      1.0000 0.97197  0.41204  0.35121  Biso   1.000  O 
  O20      1.0000 0.96617  0.32969  0.85270  Biso   1.000  O 
  O21      1.0000 0.77612  0.12676  0.48255  Biso   1.000  O 
  O22      1.0000 0.77359  0.11871  0.98532  Biso   1.000  O 
  O23      1.0000 0.73150  0.37644  0.02520  Biso   1.000  O 
  O24      1.0000 0.72774  0.36946  0.52288  Biso   1.000  O 
  Hf12     1.0000 0.64052  0.51904  0.29340  Biso   1.000  Hf
  Hf13     1.0000 0.63725  0.72769  0.79704  Biso   1.000  Hf
  Hf14     1.0000 0.86471  0.77063  0.21427  Biso   1.000  Hf
  Hf15     1.0000 0.86323  0.97620  0.71141  Biso   1.000  Hf
  O25      1.0000 0.53616  0.66714  0.15882  Biso   1.000  O 
  O26      1.0000 0.53450  0.58253  0.65794  Biso   1.000  O 
  O27      1.0000 0.97251  0.91388  0.34655  Biso   1.000  O 
  O28      1.0000 0.96392  0.82978  0.84925  Biso   1.000  O 
  O29      1.0000 0.77844  0.62654  0.48546  Biso   1.000  O 
  O30      1.0000 0.77399  0.61849  0.98605  Biso   1.000  O 
  O31      1.0000 0.72816  0.87819  0.02191  Biso   1.000  O 
  O32      1.0000 0.72674  0.86956  0.52279  Biso   1.000  O 
