data_image0
_cell_length_a       4.96683
_cell_length_b       10.3268
_cell_length_c       9.99427
_cell_angle_alpha    90
_cell_angle_beta     90
_cell_angle_gamma    90

_symmetry_space_group_name_H-M    "P 1"
_symmetry_int_tables_number       1

loop_
  _symmetry_equiv_pos_as_xyz
  'x, y, z'

loop_
  _atom_site_label
  _atom_site_occupancy
  _atom_site_fract_x
  _atom_site_fract_y
  _atom_site_fract_z
  _atom_site_thermal_displace_type
  _atom_site_B_iso_or_equiv
  _atom_site_type_symbol
  Al1      1.0000 0.25273  0.03023  0.10623  Biso   1.000  Al
  Hf1      1.0000 0.27668  0.22096  0.37194  Biso   1.000  Hf
  Hf2      1.0000 0.72588  0.25854  0.12200  Biso   1.000  Hf
  Hf3      1.0000 0.73814  0.47591  0.37610  Biso   1.000  Hf
  O1       1.0000 0.06150  0.17403  0.19374  Biso   1.000  O 
  O2       1.0000 0.08157  0.05906  0.44865  Biso   1.000  O 
  O3       1.0000 0.93272  0.42591  0.19500  Biso   1.000  O 
  O4       1.0000 0.93898  0.30791  0.44229  Biso   1.000  O 
  O5       1.0000 0.52320  0.09868  0.23898  Biso   1.000  O 
  O6       1.0000 0.55697  0.12558  0.49407  Biso   1.000  O 
  O7       1.0000 0.46694  0.37454  0.49821  Biso   1.000  O 
  O8       1.0000 0.46212  0.35625  0.24702  Biso   1.000  O 
  Hf4      1.0000 0.28231  0.00793  0.62509  Biso   1.000  Hf
  Hf5      1.0000 0.27925  0.22574  0.87294  Biso   1.000  Hf
  Hf6      1.0000 0.74301  0.25824  0.62331  Biso   1.000  Hf
  Hf7      1.0000 0.74522  0.47641  0.87489  Biso   1.000  Hf
  O9       1.0000 0.08569  0.17748  0.69305  Biso   1.000  O 
  O10      1.0000 0.07911  0.05923  0.94909  Biso   1.000  O 
  O11      1.0000 0.93932  0.42642  0.69388  Biso   1.000  O 
  O12      1.0000 0.94020  0.30684  0.94277  Biso   1.000  O 
  O13      1.0000 0.55641  0.10991  0.74747  Biso   1.000  O 
  O14      1.0000 0.54062  0.12334  0.99724  Biso   1.000  O 
  O15      1.0000 0.47569  0.37254  0.99731  Biso   1.000  O 
  O16      1.0000 0.47098  0.36077  0.74795  Biso   1.000  O 
  Hf8      1.0000 0.26677  0.51347  0.12655  Biso   1.000  Hf
  Hf9      1.0000 0.27941  0.72870  0.37848  Biso   1.000  Hf
  Hf10     1.0000 0.73712  0.76551  0.12353  Biso   1.000  Hf
  Hf11     1.0000 0.73278  0.97861  0.36763  Biso   1.000  Hf
  O17      1.0000 0.06981  0.68131  0.19933  Biso   1.000  O 
  O18      1.0000 0.07890  0.55845  0.44557  Biso   1.000  O 
  O19      1.0000 0.97094  0.93305  0.19153  Biso   1.000  O 
  O20      1.0000 0.94336  0.81261  0.45046  Biso   1.000  O 
  O21      1.0000 0.54247  0.60381  0.24896  Biso   1.000  O 
  O22      1.0000 0.55178  0.62617  0.50087  Biso   1.000  O 
  O23      1.0000 0.46978  0.87737  0.50284  Biso   1.000  O 
  O24      1.0000 0.50409  0.84594  0.26066  Biso   1.000  O 
  Hf12     1.0000 0.28007  0.50993  0.62611  Biso   1.000  Hf
  Hf13     1.0000 0.27873  0.72820  0.88079  Biso   1.000  Hf
  Hf14     1.0000 0.74210  0.76169  0.62845  Biso   1.000  Hf
  Hf15     1.0000 0.72668  0.97659  0.88054  Biso   1.000  Hf
  O25      1.0000 0.08105  0.67631  0.69763  Biso   1.000  O 
  O26      1.0000 0.08222  0.55848  0.94920  Biso   1.000  O 
  O27      1.0000 0.93247  0.92790  0.69906  Biso   1.000  O 
  O28      1.0000 0.92671  0.80740  0.93945  Biso   1.000  O 
  O29      1.0000 0.55033  0.61143  0.75174  Biso   1.000  O 
  O30      1.0000 0.52761  0.63645  0.00105  Biso   1.000  O 
  O31      1.0000 0.43033  0.89295  0.01313  Biso   1.000  O 
  O32      1.0000 0.46188  0.86048  0.75385  Biso   1.000  O 
