data_image0
_cell_length_a       10.1886
_cell_length_b       5.17773
_cell_length_c       10.5023
_cell_angle_alpha    90
_cell_angle_beta     80
_cell_angle_gamma    90

_symmetry_space_group_name_H-M    "P 1"
_symmetry_int_tables_number       1

loop_
  _symmetry_equiv_pos_as_xyz
  'x, y, z'

loop_
  _atom_site_label
  _atom_site_occupancy
  _atom_site_fract_x
  _atom_site_fract_y
  _atom_site_fract_z
  _atom_site_thermal_displace_type
  _atom_site_B_iso_or_equiv
  _atom_site_type_symbol
  Hf1      1.0000 0.13617  0.04847  0.14121  Biso   1.000  Hf
  Hf2      1.0000 0.13591  0.45891  0.39503  Biso   1.000  Hf
  Hf3      1.0000 0.35473  0.54635  0.10021  Biso   1.000  Hf
  Hf4      1.0000 0.35134  0.89169  0.33892  Biso   1.000  Hf
  O1       1.0000 0.03142  0.34870  0.07931  Biso   1.000  O 
  O2       1.0000 0.03672  0.16922  0.32550  Biso   1.000  O 
  O3       1.0000 0.46199  0.85294  0.15705  Biso   1.000  O 
  O4       1.0000 0.47936  0.64490  0.42373  Biso   1.000  O 
  O5       1.0000 0.28275  0.22893  0.23893  Biso   1.000  O 
  O6       1.0000 0.29507  0.25042  0.47980  Biso   1.000  O 
  O7       1.0000 0.21847  0.76693  0.00542  Biso   1.000  O 
  O8       1.0000 0.19745  0.74209  0.24901  Biso   1.000  O 
  Hf5      1.0000 0.15016  0.04312  0.64272  Biso   1.000  Hf
  Hf6      1.0000 0.14744  0.45860  0.89387  Biso   1.000  Hf
  Hf7      1.0000 0.37106  0.54437  0.61335  Biso   1.000  Hf
  Hf8      1.0000 0.36996  0.95680  0.85381  Biso   1.000  Hf
  O9       1.0000 0.04576  0.33823  0.57936  Biso   1.000  O 
  O10      1.0000 0.04798  0.16098  0.82726  Biso   1.000  O 
  O11      1.0000 0.47445  0.83947  0.67077  Biso   1.000  O 
  O12      1.0000 0.47497  0.65888  0.91572  Biso   1.000  O 
  O13      1.0000 0.28685  0.25557  0.73776  Biso   1.000  O 
  O14      1.0000 0.28728  0.24476  0.98687  Biso   1.000  O 
  O15      1.0000 0.23157  0.75012  0.51195  Biso   1.000  O 
  O16      1.0000 0.23231  0.74411  0.75830  Biso   1.000  O 
  Hf9      1.0000 0.64028  0.04562  0.14440  Biso   1.000  Hf
  Hf10     1.0000 0.66164  0.45835  0.40463  Biso   1.000  Hf
  Hf11     1.0000 0.85771  0.54758  0.10522  Biso   1.000  Hf
  Hf12     1.0000 0.86445  0.95660  0.35251  Biso   1.000  Hf
  O17      1.0000 0.53403  0.34931  0.08679  Biso   1.000  O 
  O18      1.0000 0.53181  0.16474  0.33059  Biso   1.000  O 
  O19      1.0000 0.95719  0.85062  0.16629  Biso   1.000  O 
  O20      1.0000 0.96627  0.66889  0.42266  Biso   1.000  O 
  O21      1.0000 0.77500  0.26049  0.24443  Biso   1.000  O 
  O22      1.0000 0.78998  0.23711  0.49470  Biso   1.000  O 
  O23      1.0000 0.72031  0.76211  0.01196  Biso   1.000  O 
  O24      1.0000 0.72031  0.74653  0.26305  Biso   1.000  O 
  Hf13     1.0000 0.65060  0.04397  0.65053  Biso   1.000  Hf
  Hf14     1.0000 0.64888  0.45833  0.89789  Biso   1.000  Hf
  Hf15     1.0000 0.87103  0.54550  0.60838  Biso   1.000  Hf
  Hf16     1.0000 0.87120  0.95792  0.85435  Biso   1.000  Hf
  O25      1.0000 0.54762  0.33650  0.58302  Biso   1.000  O 
  O26      1.0000 0.54730  0.16116  0.83251  Biso   1.000  O 
  O27      1.0000 0.97454  0.83870  0.67052  Biso   1.000  O 
  O28      1.0000 0.97332  0.66055  0.91748  Biso   1.000  O 
  O29      1.0000 0.78770  0.26073  0.74299  Biso   1.000  O 
  O30      1.0000 0.78819  0.24115  0.99118  Biso   1.000  O 
  O31      1.0000 0.73023  0.75605  0.51355  Biso   1.000  O 
  O32      1.0000 0.73397  0.74305  0.76129  Biso   1.000  O 
  Al1      1.0000 0.40409  0.39421  0.33536  Biso   1.000  Al
