data_image0
_cell_length_a       10.0279
_cell_length_b       10.5356
_cell_length_c       5.06399
_cell_angle_alpha    90
_cell_angle_beta     90
_cell_angle_gamma    90

_symmetry_space_group_name_H-M    "P 1"
_symmetry_int_tables_number       1

loop_
  _symmetry_equiv_pos_as_xyz
  'x, y, z'

loop_
  _atom_site_label
  _atom_site_occupancy
  _atom_site_fract_x
  _atom_site_fract_y
  _atom_site_fract_z
  _atom_site_thermal_displace_type
  _atom_site_B_iso_or_equiv
  _atom_site_type_symbol
  Hf1      1.0000 0.10215  0.97929  0.22028  Biso   1.000  Hf
  Hf2      1.0000 0.12567  0.20507  0.66251  Biso   1.000  Hf
  Hf3      1.0000 0.36214  0.26523  0.23020  Biso   1.000  Hf
  Hf4      1.0000 0.35409  0.48804  0.74492  Biso   1.000  Hf
  O1       1.0000 0.00665  0.14674  0.33297  Biso   1.000  O 
  O2       1.0000 0.02524  0.06079  0.86404  Biso   1.000  O 
  O3       1.0000 0.45630  0.43239  0.40131  Biso   1.000  O 
  O4       1.0000 0.46255  0.32779  0.91614  Biso   1.000  O 
  O5       1.0000 0.25244  0.09453  0.42316  Biso   1.000  O 
  O6       1.0000 0.28483  0.14703  0.90651  Biso   1.000  O 
  O7       1.0000 0.25057  0.41568  0.03785  Biso   1.000  O 
  O8       1.0000 0.22925  0.35933  0.52855  Biso   1.000  O 
  Hf5      1.0000 0.11605  0.52821  0.26028  Biso   1.000  Hf
  Hf6      1.0000 0.11555  0.74356  0.75467  Biso   1.000  Hf
  Hf7      1.0000 0.36071  0.76750  0.24831  Biso   1.000  Hf
  Hf8      1.0000 0.35402  0.98941  0.72869  Biso   1.000  Hf
  O9       1.0000 0.01934  0.68824  0.41312  Biso   1.000  O 
  O10      1.0000 0.01334  0.57379  0.89522  Biso   1.000  O 
  O11      1.0000 0.45780  0.93099  0.39096  Biso   1.000  O 
  O12      1.0000 0.44686  0.82290  0.89549  Biso   1.000  O 
  O13      1.0000 0.25353  0.61680  0.51317  Biso   1.000  O 
  O14      1.0000 0.25489  0.64864  0.01257  Biso   1.000  O 
  O15      1.0000 0.21821  0.89467  0.97700  Biso   1.000  O 
  O16      1.0000 0.21860  0.85788  0.48405  Biso   1.000  O 
  Hf9      1.0000 0.63151  0.01968  0.26548  Biso   1.000  Hf
  Hf10     1.0000 0.62114  0.23581  0.77834  Biso   1.000  Hf
  Hf11     1.0000 0.84512  0.27854  0.31964  Biso   1.000  Hf
  Hf12     1.0000 0.84991  0.48997  0.75389  Biso   1.000  Hf
  O17      1.0000 0.52052  0.17911  0.41456  Biso   1.000  O 
  O18      1.0000 0.53033  0.06699  0.90178  Biso   1.000  O 
  O19      1.0000 0.92621  0.46894  0.37215  Biso   1.000  O 
  O20      1.0000 0.94473  0.30734  0.69943  Biso   1.000  O 
  O21      1.0000 0.75657  0.11962  0.53288  Biso   1.000  O 
  O22      1.0000 0.77421  0.13840  0.03640  Biso   1.000  O 
  O23      1.0000 0.74220  0.38203  0.02161  Biso   1.000  O 
  O24      1.0000 0.70053  0.37493  0.52533  Biso   1.000  O 
  Hf13     1.0000 0.62246  0.51649  0.26057  Biso   1.000  Hf
  Hf14     1.0000 0.61234  0.73717  0.76563  Biso   1.000  Hf
  Hf15     1.0000 0.84748  0.76383  0.27977  Biso   1.000  Hf
  Hf16     1.0000 0.83831  0.98597  0.77443  Biso   1.000  Hf
  O25      1.0000 0.52113  0.68060  0.40518  Biso   1.000  O 
  O26      1.0000 0.51278  0.57499  0.90883  Biso   1.000  O 
  O27      1.0000 0.94895  0.92071  0.44685  Biso   1.000  O 
  O28      1.0000 0.96003  0.83216  0.96588  Biso   1.000  O 
  O29      1.0000 0.74872  0.62251  0.52376  Biso   1.000  O 
  O30      1.0000 0.76266  0.63669  0.01550  Biso   1.000  O 
  O31      1.0000 0.72718  0.88310  0.02521  Biso   1.000  O 
  O32      1.0000 0.71328  0.86977  0.52340  Biso   1.000  O 
  As1      1.0000 0.08704  0.27997  0.12008  Biso   1.000  As
