data_image0
_cell_length_a       10.1982
_cell_length_b       10.2596
_cell_length_c       10.5491
_cell_angle_alpha    90
_cell_angle_beta     80
_cell_angle_gamma    90

_symmetry_space_group_name_H-M    "P 1"
_symmetry_int_tables_number       1

loop_
  _symmetry_equiv_pos_as_xyz
  'x, y, z'

loop_
  _atom_site_label
  _atom_site_occupancy
  _atom_site_fract_x
  _atom_site_fract_y
  _atom_site_fract_z
  _atom_site_thermal_displace_type
  _atom_site_B_iso_or_equiv
  _atom_site_type_symbol
  Hf1      1.0000 0.13152  0.01874  0.14467  Biso   1.000  Hf
  Hf2      1.0000 0.14380  0.22719  0.39215  Biso   1.000  Hf
  Hf3      1.0000 0.34762  0.26220  0.09411  Biso   1.000  Hf
  Hf4      1.0000 0.36422  0.48222  0.35430  Biso   1.000  Hf
  O1       1.0000 0.03051  0.16520  0.07631  Biso   1.000  O 
  O2       1.0000 0.03130  0.08470  0.32859  Biso   1.000  O 
  O3       1.0000 0.46958  0.42655  0.16773  Biso   1.000  O 
  O4       1.0000 0.48715  0.36809  0.44949  Biso   1.000  O 
  O5       1.0000 0.26477  0.11864  0.23466  Biso   1.000  O 
  O6       1.0000 0.28212  0.12273  0.48603  Biso   1.000  O 
  O7       1.0000 0.21895  0.38040  0.00589  Biso   1.000  O 
  O8       1.0000 0.22466  0.37184  0.25590  Biso   1.000  O 
  Hf5      1.0000 0.14301  0.02278  0.64507  Biso   1.000  Hf
  Hf6      1.0000 0.13990  0.23103  0.89178  Biso   1.000  Hf
  Hf7      1.0000 0.36793  0.27603  0.60503  Biso   1.000  Hf
  Hf8      1.0000 0.36930  0.47996  0.85553  Biso   1.000  Hf
  O9       1.0000 0.04153  0.16626  0.57586  Biso   1.000  O 
  O10      1.0000 0.03592  0.08795  0.82451  Biso   1.000  O 
  O11      1.0000 0.47738  0.40905  0.68599  Biso   1.000  O 
  O12      1.0000 0.47383  0.33897  0.92885  Biso   1.000  O 
  O13      1.0000 0.27839  0.13007  0.73687  Biso   1.000  O 
  O14      1.0000 0.27465  0.12356  0.98345  Biso   1.000  O 
  O15      1.0000 0.23220  0.37814  0.50728  Biso   1.000  O 
  O16      1.0000 0.23166  0.37384  0.75814  Biso   1.000  O 
  Hf9      1.0000 0.14335  0.52240  0.14563  Biso   1.000  Hf
  Hf10     1.0000 0.14428  0.72923  0.39702  Biso   1.000  Hf
  Hf11     1.0000 0.36570  0.77250  0.10497  Biso   1.000  Hf
  Hf12     1.0000 0.36397  0.97344  0.35474  Biso   1.000  Hf
  O17      1.0000 0.03693  0.66599  0.07692  Biso   1.000  O 
  O18      1.0000 0.04163  0.58805  0.32540  Biso   1.000  O 
  O19      1.0000 0.47254  0.91019  0.17824  Biso   1.000  O 
  O20      1.0000 0.47058  0.83338  0.42597  Biso   1.000  O 
  O21      1.0000 0.28218  0.62858  0.24097  Biso   1.000  O 
  O22      1.0000 0.28078  0.62226  0.49101  Biso   1.000  O 
  O23      1.0000 0.22852  0.87826  0.01052  Biso   1.000  O 
  O24      1.0000 0.22728  0.86848  0.26013  Biso   1.000  O 
  Hf13     1.0000 0.14590  0.52322  0.64650  Biso   1.000  Hf
  Hf14     1.0000 0.14843  0.73014  0.89605  Biso   1.000  Hf
  Hf15     1.0000 0.36956  0.77215  0.60516  Biso   1.000  Hf
  Hf16     1.0000 0.37290  0.98075  0.85134  Biso   1.000  Hf
  O25      1.0000 0.03891  0.66456  0.57717  Biso   1.000  O 
  O26      1.0000 0.04179  0.58758  0.82651  Biso   1.000  O 
  O27      1.0000 0.47689  0.91386  0.67306  Biso   1.000  O 
  O28      1.0000 0.47867  0.84123  0.92376  Biso   1.000  O 
  O29      1.0000 0.28374  0.62903  0.74012  Biso   1.000  O 
  O30      1.0000 0.28694  0.62496  0.99024  Biso   1.000  O 
  O31      1.0000 0.23019  0.87861  0.51100  Biso   1.000  O 
  O32      1.0000 0.23459  0.87335  0.76033  Biso   1.000  O 
  Hf17     1.0000 0.63966  0.01900  0.14762  Biso   1.000  Hf
  Hf18     1.0000 0.65625  0.23900  0.40780  Biso   1.000  Hf
  Hf19     1.0000 0.86009  0.27402  0.10976  Biso   1.000  Hf
  Hf20     1.0000 0.87236  0.48247  0.35725  Biso   1.000  Hf
  O33      1.0000 0.51674  0.13312  0.05244  Biso   1.000  O 
  O34      1.0000 0.53429  0.07466  0.33418  Biso   1.000  O 
  O35      1.0000 0.97258  0.41651  0.17332  Biso   1.000  O 
  O36      1.0000 0.97338  0.33601  0.42560  Biso   1.000  O 
  O37      1.0000 0.77921  0.12936  0.24601  Biso   1.000  O 
  O38      1.0000 0.78493  0.12081  0.49602  Biso   1.000  O 
  O39      1.0000 0.72177  0.37847  0.01589  Biso   1.000  O 
  O40      1.0000 0.73912  0.38257  0.26726  Biso   1.000  O 
  Hf21     1.0000 0.64223  0.02367  0.64508  Biso   1.000  Hf
  Hf22     1.0000 0.64359  0.22760  0.89556  Biso   1.000  Hf
  Hf23     1.0000 0.87162  0.27260  0.60883  Biso   1.000  Hf
  Hf24     1.0000 0.86852  0.48085  0.85554  Biso   1.000  Hf
  O41      1.0000 0.53769  0.16466  0.57176  Biso   1.000  O 
  O42      1.0000 0.53415  0.09457  0.81463  Biso   1.000  O 
  O43      1.0000 0.97562  0.41568  0.67609  Biso   1.000  O 
  O44      1.0000 0.97000  0.33736  0.92473  Biso   1.000  O 
  O45      1.0000 0.77987  0.12979  0.74246  Biso   1.000  O 
  O46      1.0000 0.77933  0.12549  0.99331  Biso   1.000  O 
  O47      1.0000 0.73687  0.38006  0.51716  Biso   1.000  O 
  O48      1.0000 0.73314  0.37356  0.76373  Biso   1.000  O 
  Hf25     1.0000 0.64570  0.52776  0.14718  Biso   1.000  Hf
  Hf26     1.0000 0.64398  0.72869  0.39695  Biso   1.000  Hf
  Hf27     1.0000 0.86538  0.77196  0.10490  Biso   1.000  Hf
  Hf28     1.0000 0.86632  0.97879  0.35629  Biso   1.000  Hf
  O49      1.0000 0.53909  0.66780  0.07594  Biso   1.000  O 
  O50      1.0000 0.53714  0.59101  0.32368  Biso   1.000  O 
  O51      1.0000 0.96803  0.91314  0.17651  Biso   1.000  O 
  O52      1.0000 0.97275  0.83521  0.42499  Biso   1.000  O 
  O53      1.0000 0.78239  0.63272  0.24179  Biso   1.000  O 
  O54      1.0000 0.78116  0.62292  0.49139  Biso   1.000  O 
  O55      1.0000 0.72889  0.87893  0.01091  Biso   1.000  O 
  O56      1.0000 0.72750  0.87261  0.26095  Biso   1.000  O 
  Hf29     1.0000 0.64442  0.52286  0.64927  Biso   1.000  Hf
  Hf30     1.0000 0.64776  0.73146  0.89544  Biso   1.000  Hf
  Hf31     1.0000 0.86889  0.77346  0.60456  Biso   1.000  Hf
  Hf32     1.0000 0.87142  0.98038  0.85411  Biso   1.000  Hf
  O57      1.0000 0.53864  0.66239  0.57685  Biso   1.000  O 
  O58      1.0000 0.54043  0.58976  0.82754  Biso   1.000  O 
  O59      1.0000 0.97553  0.91603  0.67408  Biso   1.000  O 
  O60      1.0000 0.97841  0.83906  0.92344  Biso   1.000  O 
  O61      1.0000 0.78273  0.63026  0.74027  Biso   1.000  O 
  O62      1.0000 0.78713  0.62500  0.98961  Biso   1.000  O 
  O63      1.0000 0.73038  0.87864  0.51037  Biso   1.000  O 
  O64      1.0000 0.73358  0.87457  0.76049  Biso   1.000  O 
  As1      1.0000 0.50193  0.25062  0.25096  Biso   1.000  As
