data_image0
_cell_length_a       10.1087
_cell_length_b       5.11199
_cell_length_c       10.481
_cell_angle_alpha    90
_cell_angle_beta     80
_cell_angle_gamma    90

_symmetry_space_group_name_H-M    "P 1"
_symmetry_int_tables_number       1

loop_
  _symmetry_equiv_pos_as_xyz
  'x, y, z'

loop_
  _atom_site_label
  _atom_site_occupancy
  _atom_site_fract_x
  _atom_site_fract_y
  _atom_site_fract_z
  _atom_site_thermal_displace_type
  _atom_site_B_iso_or_equiv
  _atom_site_type_symbol
  As1      1.0000 0.11274  0.03811  0.16074  Biso   1.000  As
  Hf1      1.0000 0.13827  0.45794  0.39499  Biso   1.000  Hf
  Hf2      1.0000 0.35643  0.54567  0.10266  Biso   1.000  Hf
  Hf3      1.0000 0.35958  0.95751  0.35135  Biso   1.000  Hf
  O1       1.0000 0.03991  0.31269  0.07983  Biso   1.000  O 
  O2       1.0000 0.03047  0.16158  0.32251  Biso   1.000  O 
  O3       1.0000 0.46640  0.83297  0.17233  Biso   1.000  O 
  O4       1.0000 0.46317  0.66529  0.42198  Biso   1.000  O 
  O5       1.0000 0.27243  0.26286  0.24094  Biso   1.000  O 
  O6       1.0000 0.27253  0.24072  0.48948  Biso   1.000  O 
  O7       1.0000 0.22576  0.76859  0.00774  Biso   1.000  O 
  O8       1.0000 0.22075  0.74240  0.25995  Biso   1.000  O 
  Hf4      1.0000 0.13253  0.03949  0.64594  Biso   1.000  Hf
  Hf5      1.0000 0.13685  0.45372  0.89569  Biso   1.000  Hf
  Hf6      1.0000 0.35774  0.54322  0.60465  Biso   1.000  Hf
  Hf7      1.0000 0.35531  0.96159  0.85757  Biso   1.000  Hf
  O9       1.0000 0.02788  0.32146  0.57370  Biso   1.000  O 
  O10      1.0000 0.02767  0.16497  0.82814  Biso   1.000  O 
  O11      1.0000 0.46193  0.83321  0.67331  Biso   1.000  O 
  O12      1.0000 0.46173  0.67648  0.92530  Biso   1.000  O 
  O13      1.0000 0.26914  0.25477  0.73659  Biso   1.000  O 
  O14      1.0000 0.27903  0.26500  0.97970  Biso   1.000  O 
  O15      1.0000 0.22020  0.75455  0.50883  Biso   1.000  O 
  O16      1.0000 0.22022  0.73945  0.76002  Biso   1.000  O 
  Hf8      1.0000 0.63427  0.04241  0.14535  Biso   1.000  Hf
  Hf9      1.0000 0.63438  0.45360  0.39669  Biso   1.000  Hf
  Hf10     1.0000 0.86241  0.53359  0.10409  Biso   1.000  Hf
  Hf11     1.0000 0.85449  0.95186  0.35901  Biso   1.000  Hf
  O17      1.0000 0.53581  0.33779  0.07864  Biso   1.000  O 
  O18      1.0000 0.53217  0.16151  0.32910  Biso   1.000  O 
  O19      1.0000 0.96772  0.83506  0.17380  Biso   1.000  O 
  O20      1.0000 0.96226  0.66423  0.42261  Biso   1.000  O 
  O21      1.0000 0.77438  0.25194  0.24085  Biso   1.000  O 
  O22      1.0000 0.77203  0.23814  0.49174  Biso   1.000  O 
  O23      1.0000 0.72953  0.75709  0.01181  Biso   1.000  O 
  O24      1.0000 0.72767  0.73649  0.26025  Biso   1.000  O 
  Hf12     1.0000 0.63121  0.04036  0.64950  Biso   1.000  Hf
  Hf13     1.0000 0.63000  0.45716  0.89867  Biso   1.000  Hf
  Hf14     1.0000 0.85695  0.53810  0.60659  Biso   1.000  Hf
  Hf15     1.0000 0.85939  0.95226  0.85691  Biso   1.000  Hf
  O25      1.0000 0.53081  0.33309  0.57888  Biso   1.000  O 
  O26      1.0000 0.52809  0.16764  0.82901  Biso   1.000  O 
  O27      1.0000 0.96390  0.82218  0.67568  Biso   1.000  O 
  O28      1.0000 0.96031  0.65944  0.92975  Biso   1.000  O 
  O29      1.0000 0.77130  0.25419  0.74219  Biso   1.000  O 
  O30      1.0000 0.76843  0.23924  0.99301  Biso   1.000  O 
  O31      1.0000 0.71971  0.75307  0.51226  Biso   1.000  O 
  O32      1.0000 0.72045  0.74064  0.76281  Biso   1.000  O 
