data_image0
_cell_length_a       10.1044
_cell_length_b       10.2577
_cell_length_c       10.458
_cell_angle_alpha    90
_cell_angle_beta     80
_cell_angle_gamma    90

_symmetry_space_group_name_H-M    "P 1"
_symmetry_int_tables_number       1

loop_
  _symmetry_equiv_pos_as_xyz
  'x, y, z'

loop_
  _atom_site_label
  _atom_site_occupancy
  _atom_site_fract_x
  _atom_site_fract_y
  _atom_site_fract_z
  _atom_site_thermal_displace_type
  _atom_site_B_iso_or_equiv
  _atom_site_type_symbol
  As1      1.0000 0.11092  0.02135  0.16100  Biso   1.000  As
  Hf1      1.0000 0.13899  0.23002  0.39530  Biso   1.000  Hf
  Hf2      1.0000 0.35857  0.26819  0.10301  Biso   1.000  Hf
  Hf3      1.0000 0.35936  0.47845  0.35342  Biso   1.000  Hf
  O1       1.0000 0.04056  0.15981  0.08195  Biso   1.000  O 
  O2       1.0000 0.03162  0.07996  0.32368  Biso   1.000  O 
  O3       1.0000 0.46334  0.41804  0.17018  Biso   1.000  O 
  O4       1.0000 0.46130  0.33059  0.42052  Biso   1.000  O 
  O5       1.0000 0.27327  0.13021  0.24223  Biso   1.000  O 
  O6       1.0000 0.27308  0.12072  0.48990  Biso   1.000  O 
  O7       1.0000 0.22441  0.38067  0.00903  Biso   1.000  O 
  O8       1.0000 0.22164  0.37178  0.25939  Biso   1.000  O 
  Hf4      1.0000 0.13281  0.01993  0.64540  Biso   1.000  Hf
  Hf5      1.0000 0.13652  0.22533  0.89569  Biso   1.000  Hf
  Hf6      1.0000 0.35723  0.27103  0.60464  Biso   1.000  Hf
  Hf7      1.0000 0.35571  0.47830  0.85594  Biso   1.000  Hf
  O9       1.0000 0.02956  0.16401  0.57476  Biso   1.000  O 
  O10      1.0000 0.02863  0.08137  0.82912  Biso   1.000  O 
  O11      1.0000 0.46032  0.41841  0.67115  Biso   1.000  O 
  O12      1.0000 0.46069  0.33421  0.92234  Biso   1.000  O 
  O13      1.0000 0.26980  0.12758  0.73714  Biso   1.000  O 
  O14      1.0000 0.28003  0.13052  0.97978  Biso   1.000  O 
  O15      1.0000 0.21938  0.37803  0.50950  Biso   1.000  O 
  O16      1.0000 0.21957  0.36948  0.76048  Biso   1.000  O 
  Hf8      1.0000 0.14001  0.52177  0.14548  Biso   1.000  Hf
  Hf9      1.0000 0.13744  0.72774  0.39636  Biso   1.000  Hf
  Hf10     1.0000 0.35968  0.77532  0.10412  Biso   1.000  Hf
  Hf11     1.0000 0.35956  0.97857  0.35244  Biso   1.000  Hf
  O17      1.0000 0.03757  0.67038  0.08074  Biso   1.000  O 
  O18      1.0000 0.03398  0.58085  0.33002  Biso   1.000  O 
  O19      1.0000 0.46657  0.91895  0.17074  Biso   1.000  O 
  O20      1.0000 0.46343  0.83059  0.42032  Biso   1.000  O 
  O21      1.0000 0.27627  0.62920  0.24047  Biso   1.000  O 
  O22      1.0000 0.27430  0.62004  0.49114  Biso   1.000  O 
  O23      1.0000 0.22720  0.88132  0.00642  Biso   1.000  O 
  O24      1.0000 0.22247  0.86896  0.26098  Biso   1.000  O 
  Hf12     1.0000 0.13571  0.52107  0.64750  Biso   1.000  Hf
  Hf13     1.0000 0.13488  0.73027  0.89701  Biso   1.000  Hf
  Hf14     1.0000 0.35880  0.77163  0.60478  Biso   1.000  Hf
  Hf15     1.0000 0.35562  0.98028  0.85680  Biso   1.000  Hf
  O25      1.0000 0.03220  0.66710  0.58090  Biso   1.000  O 
  O26      1.0000 0.03142  0.58001  0.83190  Biso   1.000  O 
  O27      1.0000 0.46143  0.91860  0.67141  Biso   1.000  O 
  O28      1.0000 0.45911  0.83226  0.92230  Biso   1.000  O 
  O29      1.0000 0.27254  0.62893  0.74118  Biso   1.000  O 
  O30      1.0000 0.26976  0.62107  0.99189  Biso   1.000  O 
  O31      1.0000 0.22162  0.87834  0.50951  Biso   1.000  O 
  O32      1.0000 0.21946  0.87054  0.75933  Biso   1.000  O 
  Hf16     1.0000 0.63689  0.02178  0.14579  Biso   1.000  Hf
  Hf17     1.0000 0.63521  0.22826  0.39641  Biso   1.000  Hf
  Hf18     1.0000 0.86114  0.27029  0.10593  Biso   1.000  Hf
  Hf19     1.0000 0.85979  0.47771  0.35437  Biso   1.000  Hf
  O33      1.0000 0.53677  0.16974  0.08014  Biso   1.000  O 
  O34      1.0000 0.53350  0.07992  0.33055  Biso   1.000  O 
  O35      1.0000 0.96565  0.41651  0.17108  Biso   1.000  O 
  O36      1.0000 0.96173  0.32958  0.42026  Biso   1.000  O 
  O37      1.0000 0.77513  0.12783  0.24171  Biso   1.000  O 
  O38      1.0000 0.77228  0.11951  0.49186  Biso   1.000  O 
  O39      1.0000 0.72711  0.37873  0.01077  Biso   1.000  O 
  O40      1.0000 0.72280  0.36958  0.25971  Biso   1.000  O 
  Hf20     1.0000 0.63184  0.02066  0.64866  Biso   1.000  Hf
  Hf21     1.0000 0.63188  0.22834  0.89754  Biso   1.000  Hf
  Hf22     1.0000 0.85715  0.27047  0.60503  Biso   1.000  Hf
  Hf23     1.0000 0.85789  0.47605  0.85677  Biso   1.000  Hf
  O41      1.0000 0.53173  0.16903  0.58079  Biso   1.000  O 
  O42      1.0000 0.53044  0.08028  0.83131  Biso   1.000  O 
  O43      1.0000 0.96231  0.41482  0.67341  Biso   1.000  O 
  O44      1.0000 0.95974  0.32839  0.92673  Biso   1.000  O 
  O45      1.0000 0.77134  0.12867  0.74137  Biso   1.000  O 
  O46      1.0000 0.76925  0.12005  0.99264  Biso   1.000  O 
  O47      1.0000 0.72059  0.37796  0.51062  Biso   1.000  O 
  O48      1.0000 0.71949  0.37059  0.76150  Biso   1.000  O 
  Hf24     1.0000 0.63685  0.52091  0.14552  Biso   1.000  Hf
  Hf25     1.0000 0.63654  0.72673  0.39666  Biso   1.000  Hf
  Hf26     1.0000 0.86218  0.76836  0.10260  Biso   1.000  Hf
  Hf27     1.0000 0.85412  0.97649  0.35942  Biso   1.000  Hf
  O49      1.0000 0.53650  0.66968  0.07981  Biso   1.000  O 
  O50      1.0000 0.53469  0.57955  0.33025  Biso   1.000  O 
  O51      1.0000 0.96445  0.92245  0.17146  Biso   1.000  O 
  O52      1.0000 0.96250  0.83194  0.42140  Biso   1.000  O 
  O53      1.0000 0.77590  0.62770  0.24028  Biso   1.000  O 
  O54      1.0000 0.77453  0.61987  0.49132  Biso   1.000  O 
  O55      1.0000 0.72659  0.87941  0.01013  Biso   1.000  O 
  O56      1.0000 0.72708  0.86961  0.26003  Biso   1.000  O 
  Hf28     1.0000 0.63536  0.52053  0.64755  Biso   1.000  Hf
  Hf29     1.0000 0.63221  0.72822  0.89785  Biso   1.000  Hf
  Hf30     1.0000 0.85790  0.76974  0.60632  Biso   1.000  Hf
  Hf31     1.0000 0.85758  0.97829  0.85535  Biso   1.000  Hf
  O57      1.0000 0.53308  0.66787  0.58017  Biso   1.000  O 
  O58      1.0000 0.53015  0.58191  0.83017  Biso   1.000  O 
  O59      1.0000 0.96130  0.91688  0.67172  Biso   1.000  O 
  O60      1.0000 0.95855  0.83027  0.92244  Biso   1.000  O 
  O61      1.0000 0.77311  0.62748  0.74243  Biso   1.000  O 
  O62      1.0000 0.77041  0.61998  0.99239  Biso   1.000  O 
  O63      1.0000 0.71977  0.87742  0.51156  Biso   1.000  O 
  O64      1.0000 0.71988  0.86995  0.76133  Biso   1.000  O 
