data_image0
_cell_length_a       10.0185
_cell_length_b       10.2077
_cell_length_c       5.22781
_cell_angle_alpha    90
_cell_angle_beta     90
_cell_angle_gamma    90

_symmetry_space_group_name_H-M    "P 1"
_symmetry_int_tables_number       1

loop_
  _symmetry_equiv_pos_as_xyz
  'x, y, z'

loop_
  _atom_site_label
  _atom_site_occupancy
  _atom_site_fract_x
  _atom_site_fract_y
  _atom_site_fract_z
  _atom_site_thermal_displace_type
  _atom_site_B_iso_or_equiv
  _atom_site_type_symbol
  As1      1.0000 0.11189  0.01918  0.37142  Biso   1.000  As
  Hf1      1.0000 0.14456  0.23008  0.84322  Biso   1.000  Hf
  Hf2      1.0000 0.35988  0.27021  0.33823  Biso   1.000  Hf
  Hf3      1.0000 0.36060  0.48106  0.84304  Biso   1.000  Hf
  Hf4      1.0000 0.63625  0.02209  0.15744  Biso   1.000  Hf
  Hf5      1.0000 0.63680  0.23117  0.65833  Biso   1.000  Hf
  Hf6      1.0000 0.86477  0.26933  0.16314  Biso   1.000  Hf
  Hf7      1.0000 0.86426  0.47791  0.66207  Biso   1.000  Hf
  O1       1.0000 0.04077  0.15475  0.16692  Biso   1.000  O 
  O2       1.0000 0.03046  0.08402  0.65712  Biso   1.000  O 
  O3       1.0000 0.46868  0.41717  0.16911  Biso   1.000  O 
  O4       1.0000 0.46669  0.33548  0.66884  Biso   1.000  O 
  O5       1.0000 0.27087  0.12533  0.57901  Biso   1.000  O 
  O6       1.0000 0.29456  0.13952  0.06124  Biso   1.000  O 
  O7       1.0000 0.22464  0.37595  0.59166  Biso   1.000  O 
  O8       1.0000 0.22326  0.37945  0.09013  Biso   1.000  O 
  O9       1.0000 0.53523  0.16906  0.32952  Biso   1.000  O 
  O10      1.0000 0.53457  0.08264  0.82447  Biso   1.000  O 
  O11      1.0000 0.97109  0.41215  0.33996  Biso   1.000  O 
  O12      1.0000 0.96747  0.33203  0.84298  Biso   1.000  O 
  O13      1.0000 0.77571  0.12407  0.91479  Biso   1.000  O 
  O14      1.0000 0.77675  0.12639  0.41318  Biso   1.000  O 
  O15      1.0000 0.72436  0.37410  0.91551  Biso   1.000  O 
  O16      1.0000 0.72686  0.37613  0.41269  Biso   1.000  O 
  Hf8      1.0000 0.14196  0.52269  0.34521  Biso   1.000  Hf
  Hf9      1.0000 0.14050  0.73259  0.84258  Biso   1.000  Hf
  Hf10     1.0000 0.36263  0.77634  0.33593  Biso   1.000  Hf
  Hf11     1.0000 0.36223  0.98344  0.83837  Biso   1.000  Hf
  Hf12     1.0000 0.64123  0.52063  0.15948  Biso   1.000  Hf
  Hf13     1.0000 0.63794  0.72899  0.65536  Biso   1.000  Hf
  Hf14     1.0000 0.86512  0.76815  0.15678  Biso   1.000  Hf
  Hf15     1.0000 0.85757  0.97912  0.66602  Biso   1.000  Hf
  O17      1.0000 0.03740  0.66725  0.16992  Biso   1.000  O 
  O18      1.0000 0.03429  0.58494  0.67042  Biso   1.000  O 
  O19      1.0000 0.47425  0.91744  0.16516  Biso   1.000  O 
  O20      1.0000 0.46821  0.83688  0.66172  Biso   1.000  O 
  O21      1.0000 0.27792  0.62752  0.58896  Biso   1.000  O 
  O22      1.0000 0.28022  0.62656  0.08992  Biso   1.000  O 
  O23      1.0000 0.22153  0.87706  0.58202  Biso   1.000  O 
  O24      1.0000 0.23384  0.87618  0.07426  Biso   1.000  O 
  O25      1.0000 0.53619  0.66790  0.32819  Biso   1.000  O 
  O26      1.0000 0.53401  0.58466  0.83035  Biso   1.000  O 
  O27      1.0000 0.97053  0.91927  0.33725  Biso   1.000  O 
  O28      1.0000 0.96702  0.83711  0.83578  Biso   1.000  O 
  O29      1.0000 0.77725  0.62463  0.91335  Biso   1.000  O 
  O30      1.0000 0.77914  0.62547  0.41288  Biso   1.000  O 
  O31      1.0000 0.72311  0.87356  0.91242  Biso   1.000  O 
  O32      1.0000 0.73101  0.87632  0.41245  Biso   1.000  O 
