data_image0
_cell_length_a       5.05293
_cell_length_b       10.2423
_cell_length_c       10.4698
_cell_angle_alpha    90
_cell_angle_beta     80
_cell_angle_gamma    90

_symmetry_space_group_name_H-M    "P 1"
_symmetry_int_tables_number       1

loop_
  _symmetry_equiv_pos_as_xyz
  'x, y, z'

loop_
  _atom_site_label
  _atom_site_occupancy
  _atom_site_fract_x
  _atom_site_fract_y
  _atom_site_fract_z
  _atom_site_thermal_displace_type
  _atom_site_B_iso_or_equiv
  _atom_site_type_symbol
  As1      1.0000 0.21765  0.02290  0.15930  Biso   1.000  As
  Hf1      1.0000 0.27696  0.22927  0.39526  Biso   1.000  Hf
  Hf2      1.0000 0.71746  0.26754  0.10460  Biso   1.000  Hf
  Hf3      1.0000 0.72090  0.47704  0.35327  Biso   1.000  Hf
  O1       1.0000 0.08344  0.16057  0.08126  Biso   1.000  O 
  O2       1.0000 0.06409  0.07888  0.32361  Biso   1.000  O 
  O3       1.0000 0.93213  0.41443  0.17162  Biso   1.000  O 
  O4       1.0000 0.92438  0.32930  0.42072  Biso   1.000  O 
  O5       1.0000 0.54790  0.12923  0.24295  Biso   1.000  O 
  O6       1.0000 0.54454  0.11895  0.49037  Biso   1.000  O 
  O7       1.0000 0.45619  0.38056  0.01020  Biso   1.000  O 
  O8       1.0000 0.44480  0.37024  0.25926  Biso   1.000  O 
  Hf4      1.0000 0.26102  0.01874  0.64746  Biso   1.000  Hf
  Hf5      1.0000 0.27189  0.22497  0.89575  Biso   1.000  Hf
  Hf6      1.0000 0.71582  0.26964  0.60463  Biso   1.000  Hf
  Hf7      1.0000 0.71735  0.47541  0.85748  Biso   1.000  Hf
  O9       1.0000 0.05912  0.16292  0.57452  Biso   1.000  O 
  O10      1.0000 0.05789  0.08084  0.82923  Biso   1.000  O 
  O11      1.0000 0.92716  0.41317  0.67424  Biso   1.000  O 
  O12      1.0000 0.92557  0.33152  0.92821  Biso   1.000  O 
  O13      1.0000 0.53947  0.12662  0.73698  Biso   1.000  O 
  O14      1.0000 0.55853  0.12939  0.98050  Biso   1.000  O 
  O15      1.0000 0.44082  0.37637  0.51005  Biso   1.000  O 
  O16      1.0000 0.44263  0.36888  0.76145  Biso   1.000  O 
  Hf8      1.0000 0.27723  0.52114  0.14516  Biso   1.000  Hf
  Hf9      1.0000 0.27635  0.72535  0.39676  Biso   1.000  Hf
  Hf10     1.0000 0.72253  0.77169  0.10300  Biso   1.000  Hf
  Hf11     1.0000 0.70964  0.97595  0.35716  Biso   1.000  Hf
  O17      1.0000 0.07695  0.67093  0.08068  Biso   1.000  O 
  O18      1.0000 0.06934  0.57972  0.32961  Biso   1.000  O 
  O19      1.0000 0.93328  0.92439  0.17035  Biso   1.000  O 
  O20      1.0000 0.93020  0.83177  0.42116  Biso   1.000  O 
  O21      1.0000 0.55405  0.62597  0.23974  Biso   1.000  O 
  O22      1.0000 0.55125  0.61862  0.49142  Biso   1.000  O 
  O23      1.0000 0.46051  0.88166  0.00752  Biso   1.000  O 
  O24      1.0000 0.45957  0.86462  0.26250  Biso   1.000  O 
  Hf12     1.0000 0.27369  0.51988  0.64844  Biso   1.000  Hf
  Hf13     1.0000 0.26884  0.72955  0.89809  Biso   1.000  Hf
  Hf14     1.0000 0.71985  0.76965  0.60616  Biso   1.000  Hf
  Hf15     1.0000 0.71608  0.97937  0.85721  Biso   1.000  Hf
  O25      1.0000 0.06662  0.66503  0.58032  Biso   1.000  O 
  O26      1.0000 0.06319  0.58081  0.83105  Biso   1.000  O 
  O27      1.0000 0.92687  0.91538  0.67302  Biso   1.000  O 
  O28      1.0000 0.91971  0.83142  0.92430  Biso   1.000  O 
  O29      1.0000 0.54832  0.62693  0.74218  Biso   1.000  O 
  O30      1.0000 0.54057  0.61993  0.99261  Biso   1.000  O 
  O31      1.0000 0.44348  0.87633  0.51151  Biso   1.000  O 
  O32      1.0000 0.44269  0.86928  0.76064  Biso   1.000  O 
