data_image0
_cell_length_a       9.94586
_cell_length_b       10.3656
_cell_length_c       4.99668
_cell_angle_alpha    90
_cell_angle_beta     90
_cell_angle_gamma    90

_symmetry_space_group_name_H-M    "P 1"
_symmetry_int_tables_number       1

loop_
  _symmetry_equiv_pos_as_xyz
  'x, y, z'

loop_
  _atom_site_label
  _atom_site_occupancy
  _atom_site_fract_x
  _atom_site_fract_y
  _atom_site_fract_z
  _atom_site_thermal_displace_type
  _atom_site_B_iso_or_equiv
  _atom_site_type_symbol
  As1      1.0000 0.11435  0.02352  0.21979  Biso   1.000  As
  Hf1      1.0000 0.14586  0.23382  0.74917  Biso   1.000  Hf
  Hf2      1.0000 0.36862  0.26526  0.25731  Biso   1.000  Hf
  Hf3      1.0000 0.37301  0.48377  0.75409  Biso   1.000  Hf
  O1       1.0000 0.04179  0.17745  0.38432  Biso   1.000  O 
  O2       1.0000 0.03987  0.06338  0.90055  Biso   1.000  O 
  O3       1.0000 0.46762  0.43370  0.39003  Biso   1.000  O 
  O4       1.0000 0.46927  0.31431  0.88712  Biso   1.000  O 
  O5       1.0000 0.28664  0.12713  0.52091  Biso   1.000  O 
  O6       1.0000 0.26405  0.13157  0.01309  Biso   1.000  O 
  O7       1.0000 0.23144  0.38203  0.00035  Biso   1.000  O 
  O8       1.0000 0.23209  0.36983  0.50004  Biso   1.000  O 
  Hf4      1.0000 0.13822  0.51673  0.25293  Biso   1.000  Hf
  Hf5      1.0000 0.14223  0.73267  0.75678  Biso   1.000  Hf
  Hf6      1.0000 0.36848  0.76823  0.26161  Biso   1.000  Hf
  Hf7      1.0000 0.36791  0.98308  0.75856  Biso   1.000  Hf
  O9       1.0000 0.04130  0.68474  0.38768  Biso   1.000  O 
  O10      1.0000 0.04206  0.56346  0.89114  Biso   1.000  O 
  O11      1.0000 0.47244  0.93352  0.39887  Biso   1.000  O 
  O12      1.0000 0.47159  0.81666  0.90054  Biso   1.000  O 
  O13      1.0000 0.27465  0.61480  0.50241  Biso   1.000  O 
  O14      1.0000 0.27349  0.63315  0.00374  Biso   1.000  O 
  O15      1.0000 0.22452  0.88359  0.01969  Biso   1.000  O 
  O16      1.0000 0.24463  0.86075  0.52694  Biso   1.000  O 
  Hf8      1.0000 0.63313  0.01595  0.24759  Biso   1.000  Hf
  Hf9      1.0000 0.63793  0.23184  0.74931  Biso   1.000  Hf
  Hf10     1.0000 0.86711  0.26551  0.24557  Biso   1.000  Hf
  Hf11     1.0000 0.87281  0.48140  0.74875  Biso   1.000  Hf
  O17      1.0000 0.54395  0.18660  0.38138  Biso   1.000  O 
  O18      1.0000 0.54026  0.06544  0.88881  Biso   1.000  O 
  O19      1.0000 0.96905  0.42927  0.38607  Biso   1.000  O 
  O20      1.0000 0.97052  0.31219  0.88256  Biso   1.000  O 
  O21      1.0000 0.77461  0.11564  0.49271  Biso   1.000  O 
  O22      1.0000 0.77782  0.13000  0.99193  Biso   1.000  O 
  O23      1.0000 0.73727  0.38020  0.99922  Biso   1.000  O 
  O24      1.0000 0.73409  0.36660  0.49830  Biso   1.000  O 
  Hf12     1.0000 0.63712  0.51633  0.25304  Biso   1.000  Hf
  Hf13     1.0000 0.63885  0.73356  0.75049  Biso   1.000  Hf
  Hf14     1.0000 0.87230  0.76302  0.24129  Biso   1.000  Hf
  Hf15     1.0000 0.87004  0.98229  0.74602  Biso   1.000  Hf
  O25      1.0000 0.54026  0.68352  0.39422  Biso   1.000  O 
  O26      1.0000 0.54421  0.56480  0.88994  Biso   1.000  O 
  O27      1.0000 0.97172  0.93793  0.36196  Biso   1.000  O 
  O28      1.0000 0.96897  0.81529  0.87446  Biso   1.000  O 
  O29      1.0000 0.77660  0.61550  0.49590  Biso   1.000  O 
  O30      1.0000 0.77734  0.63162  0.99591  Biso   1.000  O 
  O31      1.0000 0.73731  0.88162  0.99317  Biso   1.000  O 
  O32      1.0000 0.74157  0.86592  0.49347  Biso   1.000  O 
