data_image0
_cell_length_a       10.0649
_cell_length_b       10.2387
_cell_length_c       10.5339
_cell_angle_alpha    90
_cell_angle_beta     90
_cell_angle_gamma    90

_symmetry_space_group_name_H-M    "P 1"
_symmetry_int_tables_number       1

loop_
  _symmetry_equiv_pos_as_xyz
  'x, y, z'

loop_
  _atom_site_label
  _atom_site_occupancy
  _atom_site_fract_x
  _atom_site_fract_y
  _atom_site_fract_z
  _atom_site_thermal_displace_type
  _atom_site_B_iso_or_equiv
  _atom_site_type_symbol
  Hf1      1.0000 0.13153  0.01743  0.17538  Biso   1.000  Hf
  Hf2      1.0000 0.13279  0.22651  0.42652  Biso   1.000  Hf
  Hf3      1.0000 0.34806  0.26233  0.18580  Biso   1.000  Hf
  Hf4      1.0000 0.35885  0.47763  0.42180  Biso   1.000  Hf
  Hf5      1.0000 0.63968  0.01765  0.07836  Biso   1.000  Hf
  Hf6      1.0000 0.63430  0.22556  0.32978  Biso   1.000  Hf
  Hf7      1.0000 0.86084  0.27178  0.07589  Biso   1.000  Hf
  Hf8      1.0000 0.85963  0.47747  0.32770  Biso   1.000  Hf
  O1       1.0000 0.02978  0.16457  0.08521  Biso   1.000  O 
  O2       1.0000 0.02507  0.08552  0.33477  Biso   1.000  O 
  O3       1.0000 0.47312  0.42542  0.08985  Biso   1.000  O 
  O4       1.0000 0.46527  0.33776  0.32727  Biso   1.000  O 
  O5       1.0000 0.26592  0.12201  0.30219  Biso   1.000  O 
  O6       1.0000 0.26462  0.11243  0.05218  Biso   1.000  O 
  O7       1.0000 0.21669  0.37392  0.30186  Biso   1.000  O 
  O8       1.0000 0.22480  0.37570  0.05264  Biso   1.000  O 
  O9       1.0000 0.51573  0.13278  0.19664  Biso   1.000  O 
  O10      1.0000 0.52288  0.09317  0.43254  Biso   1.000  O 
  O11      1.0000 0.96565  0.41456  0.16827  Biso   1.000  O 
  O12      1.0000 0.96492  0.33579  0.41880  Biso   1.000  O 
  O13      1.0000 0.76980  0.12270  0.45386  Biso   1.000  O 
  O14      1.0000 0.77034  0.12694  0.20311  Biso   1.000  O 
  O15      1.0000 0.72173  0.37360  0.45319  Biso   1.000  O 
  O16      1.0000 0.72117  0.37521  0.20394  Biso   1.000  O 
  Hf9      1.0000 0.13152  0.02005  0.67480  Biso   1.000  Hf
  Hf10     1.0000 0.13029  0.22574  0.92659  Biso   1.000  Hf
  Hf11     1.0000 0.35686  0.27195  0.67272  Biso   1.000  Hf
  Hf12     1.0000 0.35146  0.47987  0.92412  Biso   1.000  Hf
  Hf13     1.0000 0.63231  0.01989  0.58068  Biso   1.000  Hf
  Hf14     1.0000 0.64310  0.23521  0.81668  Biso   1.000  Hf
  Hf15     1.0000 0.85836  0.27100  0.57596  Biso   1.000  Hf
  Hf16     1.0000 0.85963  0.48010  0.82710  Biso   1.000  Hf
  O17      1.0000 0.02624  0.16173  0.58367  Biso   1.000  O 
  O18      1.0000 0.02549  0.08296  0.83421  Biso   1.000  O 
  O19      1.0000 0.46827  0.40435  0.56996  Biso   1.000  O 
  O20      1.0000 0.47543  0.36474  0.80585  Biso   1.000  O 
  O21      1.0000 0.26997  0.12229  0.79854  Biso   1.000  O 
  O22      1.0000 0.26941  0.12392  0.54931  Biso   1.000  O 
  O23      1.0000 0.22082  0.37058  0.79937  Biso   1.000  O 
  O24      1.0000 0.22135  0.37482  0.54862  Biso   1.000  O 
  O25      1.0000 0.52588  0.15976  0.67523  Biso   1.000  O 
  O26      1.0000 0.51802  0.07209  0.91264  Biso   1.000  O 
  O27      1.0000 0.96608  0.41200  0.66772  Biso   1.000  O 
  O28      1.0000 0.96137  0.33296  0.91727  Biso   1.000  O 
  O29      1.0000 0.76635  0.12182  0.94984  Biso   1.000  O 
  O30      1.0000 0.77446  0.12360  0.70061  Biso   1.000  O 
  O31      1.0000 0.72654  0.38509  0.95031  Biso   1.000  O 
  O32      1.0000 0.72522  0.37552  0.70029  Biso   1.000  O 
  Hf17     1.0000 0.13796  0.52044  0.17310  Biso   1.000  Hf
  Hf18     1.0000 0.13687  0.72760  0.42266  Biso   1.000  Hf
  Hf19     1.0000 0.36432  0.77054  0.17459  Biso   1.000  Hf
  Hf20     1.0000 0.36258  0.97736  0.42684  Biso   1.000  Hf
  Hf21     1.0000 0.64744  0.52739  0.07802  Biso   1.000  Hf
  Hf22     1.0000 0.63892  0.72924  0.32951  Biso   1.000  Hf
  Hf23     1.0000 0.86563  0.77127  0.07866  Biso   1.000  Hf
  Hf24     1.0000 0.86096  0.97825  0.33018  Biso   1.000  Hf
  O33      1.0000 0.03524  0.66314  0.08240  Biso   1.000  O 
  O34      1.0000 0.03056  0.58544  0.33355  Biso   1.000  O 
  O35      1.0000 0.47345  0.90717  0.07934  Biso   1.000  O 
  O36      1.0000 0.47022  0.83957  0.33243  Biso   1.000  O 
  O37      1.0000 0.27479  0.62343  0.29533  Biso   1.000  O 
  O38      1.0000 0.27917  0.62426  0.04629  Biso   1.000  O 
  O39      1.0000 0.22516  0.87265  0.29877  Biso   1.000  O 
  O40      1.0000 0.22690  0.87046  0.04976  Biso   1.000  O 
  O41      1.0000 0.53593  0.66471  0.17141  Biso   1.000  O 
  O42      1.0000 0.52820  0.58904  0.41921  Biso   1.000  O 
  O43      1.0000 0.96738  0.91360  0.16967  Biso   1.000  O 
  O44      1.0000 0.96601  0.83477  0.41903  Biso   1.000  O 
  O45      1.0000 0.77335  0.62279  0.45472  Biso   1.000  O 
  O46      1.0000 0.77952  0.62755  0.20495  Biso   1.000  O 
  O47      1.0000 0.72335  0.87406  0.45687  Biso   1.000  O 
  O48      1.0000 0.72596  0.87553  0.20630  Biso   1.000  O 
  Hf25     1.0000 0.13536  0.51925  0.67231  Biso   1.000  Hf
  Hf26     1.0000 0.13068  0.72624  0.92382  Biso   1.000  Hf
  Hf27     1.0000 0.35740  0.76826  0.67299  Biso   1.000  Hf
  Hf28     1.0000 0.34886  0.97011  0.92447  Biso   1.000  Hf
  Hf29     1.0000 0.63374  0.52014  0.57564  Biso   1.000  Hf
  Hf30     1.0000 0.63199  0.72697  0.82789  Biso   1.000  Hf
  Hf31     1.0000 0.85946  0.76990  0.57983  Biso   1.000  Hf
  Hf32     1.0000 0.85836  0.97706  0.82938  Biso   1.000  Hf
  O49      1.0000 0.03031  0.66274  0.58346  Biso   1.000  O 
  O50      1.0000 0.02894  0.58391  0.83282  Biso   1.000  O 
  O51      1.0000 0.46811  0.90846  0.58328  Biso   1.000  O 
  O52      1.0000 0.46038  0.83280  0.83108  Biso   1.000  O 
  O53      1.0000 0.27036  0.62197  0.79619  Biso   1.000  O 
  O54      1.0000 0.27297  0.62345  0.54563  Biso   1.000  O 
  O55      1.0000 0.21679  0.86993  0.79754  Biso   1.000  O 
  O56      1.0000 0.22297  0.87472  0.54777  Biso   1.000  O 
  O57      1.0000 0.52609  0.65794  0.67007  Biso   1.000  O 
  O58      1.0000 0.52287  0.59033  0.92316  Biso   1.000  O 
  O59      1.0000 0.96575  0.91207  0.66895  Biso   1.000  O 
  O60      1.0000 0.96107  0.83436  0.92008  Biso   1.000  O 
  O61      1.0000 0.76942  0.62705  0.95273  Biso   1.000  O 
  O62      1.0000 0.77116  0.62486  0.70371  Biso   1.000  O 
  O63      1.0000 0.71714  0.87325  0.95620  Biso   1.000  O 
  O64      1.0000 0.72153  0.87408  0.70716  Biso   1.000  O 
  As1      1.0000 0.50270  0.24998  0.00128  Biso   1.000  As
