data_image0
_cell_length_a       5.10923
_cell_length_b       10.3935
_cell_length_c       10.5295
_cell_angle_alpha    90
_cell_angle_beta     80
_cell_angle_gamma    90

_symmetry_space_group_name_H-M    "P 1"
_symmetry_int_tables_number       1

loop_
  _symmetry_equiv_pos_as_xyz
  'x, y, z'

loop_
  _atom_site_label
  _atom_site_occupancy
  _atom_site_fract_x
  _atom_site_fract_y
  _atom_site_fract_z
  _atom_site_thermal_displace_type
  _atom_site_B_iso_or_equiv
  _atom_site_type_symbol
  Hf1      1.0000 0.26414  0.01403  0.14214  Biso   1.000  Hf
  Hf2      1.0000 0.36529  0.24680  0.40447  Biso   1.000  Hf
  Hf3      1.0000 0.71936  0.27085  0.10618  Biso   1.000  Hf
  Hf4      1.0000 0.74909  0.49504  0.35521  Biso   1.000  Hf
  O1       1.0000 0.05412  0.15558  0.07162  Biso   1.000  O 
  O2       1.0000 0.04330  0.05938  0.32842  Biso   1.000  O 
  O3       1.0000 0.95022  0.42471  0.17180  Biso   1.000  O 
  O4       1.0000 0.00325  0.38668  0.44696  Biso   1.000  O 
  O5       1.0000 0.52224  0.12148  0.23875  Biso   1.000  O 
  O6       1.0000 0.57763  0.11091  0.49558  Biso   1.000  O 
  O7       1.0000 0.44963  0.37778  0.01273  Biso   1.000  O 
  O8       1.0000 0.47408  0.38725  0.26062  Biso   1.000  O 
  Hf5      1.0000 0.28829  0.02811  0.64504  Biso   1.000  Hf
  Hf6      1.0000 0.29869  0.23697  0.89378  Biso   1.000  Hf
  Hf7      1.0000 0.76885  0.28313  0.60902  Biso   1.000  Hf
  Hf8      1.0000 0.75251  0.48597  0.85806  Biso   1.000  Hf
  O9       1.0000 0.10388  0.17632  0.56958  Biso   1.000  O 
  O10      1.0000 0.07943  0.09705  0.82198  Biso   1.000  O 
  O11      1.0000 0.97493  0.41519  0.68725  Biso   1.000  O 
  O12      1.0000 0.95903  0.34573  0.92945  Biso   1.000  O 
  O13      1.0000 0.56704  0.13904  0.73874  Biso   1.000  O 
  O14      1.0000 0.56530  0.13165  0.98800  Biso   1.000  O 
  O15      1.0000 0.49949  0.38719  0.51667  Biso   1.000  O 
  O16      1.0000 0.48449  0.38106  0.76301  Biso   1.000  O 
  Hf9      1.0000 0.29623  0.52536  0.14559  Biso   1.000  Hf
  Hf10     1.0000 0.29394  0.73083  0.39682  Biso   1.000  Hf
  Hf11     1.0000 0.74119  0.77016  0.10083  Biso   1.000  Hf
  Hf12     1.0000 0.72485  0.96728  0.35329  Biso   1.000  Hf
  O17      1.0000 0.08525  0.66744  0.07272  Biso   1.000  O 
  O18      1.0000 0.08440  0.60052  0.31762  Biso   1.000  O 
  O19      1.0000 0.94305  0.91121  0.16929  Biso   1.000  O 
  O20      1.0000 0.94424  0.83091  0.42341  Biso   1.000  O 
  O21      1.0000 0.57293  0.63427  0.24108  Biso   1.000  O 
  O22      1.0000 0.56787  0.62824  0.49183  Biso   1.000  O 
  O23      1.0000 0.46904  0.87758  0.00686  Biso   1.000  O 
  O24      1.0000 0.45621  0.86793  0.25719  Biso   1.000  O 
  Hf13     1.0000 0.30452  0.53020  0.64938  Biso   1.000  Hf
  Hf14     1.0000 0.31226  0.73753  0.89303  Biso   1.000  Hf
  Hf15     1.0000 0.75269  0.77914  0.60549  Biso   1.000  Hf
  Hf16     1.0000 0.76769  0.98931  0.85038  Biso   1.000  Hf
  O25      1.0000 0.08531  0.66685  0.57813  Biso   1.000  O 
  O26      1.0000 0.09716  0.59478  0.82696  Biso   1.000  O 
  O27      1.0000 0.96928  0.92494  0.66882  Biso   1.000  O 
  O28      1.0000 0.97334  0.84475  0.91693  Biso   1.000  O 
  O29      1.0000 0.58013  0.63626  0.73950  Biso   1.000  O 
  O30      1.0000 0.58772  0.63114  0.98845  Biso   1.000  O 
  O31      1.0000 0.46319  0.87777  0.51107  Biso   1.000  O 
  O32      1.0000 0.48925  0.88138  0.75866  Biso   1.000  O 
  As1      1.0000 0.95847  0.23606  0.30864  Biso   1.000  As
