data_image0
_cell_length_a       5.08752
_cell_length_b       10.4709
_cell_length_c       10.3071
_cell_angle_alpha    90
_cell_angle_beta     90
_cell_angle_gamma    90

_symmetry_space_group_name_H-M    "P 1"
_symmetry_int_tables_number       1

loop_
  _symmetry_equiv_pos_as_xyz
  'x, y, z'

loop_
  _atom_site_label
  _atom_site_occupancy
  _atom_site_fract_x
  _atom_site_fract_y
  _atom_site_fract_z
  _atom_site_thermal_displace_type
  _atom_site_B_iso_or_equiv
  _atom_site_type_symbol
  Hf1      1.0000 0.46880  0.98081  0.13639  Biso   1.000  Hf
  Hf2      1.0000 0.37443  0.20622  0.38135  Biso   1.000  Hf
  Hf3      1.0000 0.64753  0.24000  0.09543  Biso   1.000  Hf
  Hf4      1.0000 0.97143  0.96375  0.37087  Biso   1.000  Hf
  O1       1.0000 0.07376  0.19945  0.96578  Biso   1.000  O 
  O2       1.0000 0.12833  0.05710  0.29807  Biso   1.000  O 
  O3       1.0000 0.07007  0.31818  0.32769  Biso   1.000  O 
  O4       1.0000 0.22952  0.45010  0.95011  Biso   1.000  O 
  O5       1.0000 0.61805  0.10678  0.24778  Biso   1.000  O 
  O6       1.0000 0.60054  0.11109  0.99086  Biso   1.000  O 
  O7       1.0000 0.68580  0.38336  0.96259  Biso   1.000  O 
  O8       1.0000 0.56552  0.38445  0.22781  Biso   1.000  O 
  Hf5      1.0000 0.52086  0.99964  0.62428  Biso   1.000  Hf
  Hf6      1.0000 0.38514  0.27527  0.84968  Biso   1.000  Hf
  Hf7      1.0000 0.85188  0.27263  0.60506  Biso   1.000  Hf
  Hf8      1.0000 0.91453  0.03176  0.87130  Biso   1.000  Hf
  O9       1.0000 0.15499  0.16096  0.53683  Biso   1.000  O 
  O10      1.0000 0.21839  0.10593  0.77058  Biso   1.000  O 
  O11      1.0000 0.12530  0.35834  0.73003  Biso   1.000  O 
  O12      1.0000 0.02286  0.43407  0.51730  Biso   1.000  O 
  O13      1.0000 0.70181  0.17878  0.75786  Biso   1.000  O 
  O14      1.0000 0.63459  0.09653  0.50247  Biso   1.000  O 
  O15      1.0000 0.56379  0.34733  0.48098  Biso   1.000  O 
  O16      1.0000 0.62450  0.41810  0.72157  Biso   1.000  O 
  Hf9      1.0000 0.35268  0.51604  0.08647  Biso   1.000  Hf
  Hf10     1.0000 0.45463  0.74998  0.39777  Biso   1.000  Hf
  Hf11     1.0000 0.88704  0.72470  0.14332  Biso   1.000  Hf
  Hf12     1.0000 0.80970  0.48024  0.35287  Biso   1.000  Hf
  O17      1.0000 0.18526  0.68293  0.01569  Biso   1.000  O 
  O18      1.0000 0.06309  0.55669  0.22048  Biso   1.000  O 
  O19      1.0000 0.16810  0.81701  0.26214  Biso   1.000  O 
  O20      1.0000 0.20301  0.93249  0.00390  Biso   1.000  O 
  O21      1.0000 0.58915  0.63174  0.24460  Biso   1.000  O 
  O22      1.0000 0.79688  0.62263  0.99291  Biso   1.000  O 
  O23      1.0000 0.69786  0.85484  0.01697  Biso   1.000  O 
  O24      1.0000 0.68585  0.86697  0.26350  Biso   1.000  O 
  Hf13     1.0000 0.34774  0.50282  0.59553  Biso   1.000  Hf
  Hf14     1.0000 0.56167  0.78947  0.89164  Biso   1.000  Hf
  Hf15     1.0000 0.01281  0.77035  0.64986  Biso   1.000  Hf
  Hf16     1.0000 0.91305  0.50876  0.83611  Biso   1.000  Hf
  O25      1.0000 0.16346  0.66594  0.50008  Biso   1.000  O 
  O26      1.0000 0.19502  0.61233  0.73842  Biso   1.000  O 
  O27      1.0000 0.28869  0.86648  0.76020  Biso   1.000  O 
  O28      1.0000 0.24273  0.90394  0.51310  Biso   1.000  O 
  O29      1.0000 0.72722  0.67608  0.75414  Biso   1.000  O 
  O30      1.0000 0.62403  0.59363  0.48405  Biso   1.000  O 
  O31      1.0000 0.73604  0.84571  0.51147  Biso   1.000  O 
  O32      1.0000 0.79842  0.92270  0.75775  Biso   1.000  O 
  As1      1.0000 0.11465  0.27579  0.15726  Biso   1.000  As
