data_image0
_cell_length_a       5.00375
_cell_length_b       10.1871
_cell_length_c       10.0053
_cell_angle_alpha    90
_cell_angle_beta     90
_cell_angle_gamma    90

_symmetry_space_group_name_H-M    "P 1"
_symmetry_int_tables_number       1

loop_
  _symmetry_equiv_pos_as_xyz
  'x, y, z'

loop_
  _atom_site_label
  _atom_site_occupancy
  _atom_site_fract_x
  _atom_site_fract_y
  _atom_site_fract_z
  _atom_site_thermal_displace_type
  _atom_site_B_iso_or_equiv
  _atom_site_type_symbol
  As1      1.0000 0.24982  0.00005  0.12491  Biso   1.000  As
  Hf1      1.0000 0.25870  0.25033  0.37466  Biso   1.000  Hf
  Hf2      1.0000 0.74982  0.25291  0.12491  Biso   1.000  Hf
  Hf3      1.0000 0.74982  0.00005  0.37292  Biso   1.000  Hf
  O1       1.0000 0.95537  0.15225  0.98274  Biso   1.000  O 
  O2       1.0000 0.02946  0.09949  0.23923  Biso   1.000  O 
  O3       1.0000 0.00377  0.35093  0.25089  Biso   1.000  O 
  O4       1.0000 0.99745  0.39915  0.00144  Biso   1.000  O 
  O5       1.0000 0.54428  0.15225  0.26708  Biso   1.000  O 
  O6       1.0000 0.47018  0.09950  0.01059  Biso   1.000  O 
  O7       1.0000 0.49587  0.35092  0.99892  Biso   1.000  O 
  O8       1.0000 0.50218  0.39916  0.24838  Biso   1.000  O 
  Hf4      1.0000 0.24982  0.00005  0.62491  Biso   1.000  Hf
  Hf5      1.0000 0.24094  0.25033  0.87516  Biso   1.000  Hf
  Hf6      1.0000 0.74983  0.24708  0.62491  Biso   1.000  Hf
  Hf7      1.0000 0.74983  0.00005  0.87690  Biso   1.000  Hf
  O9       1.0000 0.98755  0.14633  0.48746  Biso   1.000  O 
  O10      1.0000 0.00300  0.10436  0.74113  Biso   1.000  O 
  O11      1.0000 0.99366  0.35427  0.75127  Biso   1.000  O 
  O12      1.0000 0.00410  0.39566  0.50110  Biso   1.000  O 
  O13      1.0000 0.51210  0.14633  0.76235  Biso   1.000  O 
  O14      1.0000 0.49664  0.10436  0.50868  Biso   1.000  O 
  O15      1.0000 0.50598  0.35427  0.49855  Biso   1.000  O 
  O16      1.0000 0.49555  0.39566  0.74871  Biso   1.000  O 
  Hf8      1.0000 0.24982  0.50005  0.12491  Biso   1.000  Hf
  Hf9      1.0000 0.24094  0.74978  0.37466  Biso   1.000  Hf
  Hf10     1.0000 0.74982  0.74720  0.12491  Biso   1.000  Hf
  Hf11     1.0000 0.74982  0.50005  0.37767  Biso   1.000  Hf
  O17      1.0000 0.00378  0.64918  0.99892  Biso   1.000  O 
  O18      1.0000 0.99745  0.60095  0.24838  Biso   1.000  O 
  O19      1.0000 0.95536  0.84786  0.26707  Biso   1.000  O 
  O20      1.0000 0.02945  0.90061  0.01059  Biso   1.000  O 
  O21      1.0000 0.49586  0.64918  0.25089  Biso   1.000  O 
  O22      1.0000 0.50219  0.60095  0.00144  Biso   1.000  O 
  O23      1.0000 0.54428  0.84785  0.98274  Biso   1.000  O 
  O24      1.0000 0.47018  0.90061  0.23923  Biso   1.000  O 
  Hf12     1.0000 0.24983  0.50005  0.62491  Biso   1.000  Hf
  Hf13     1.0000 0.25871  0.74978  0.87516  Biso   1.000  Hf
  Hf14     1.0000 0.74983  0.75303  0.62491  Biso   1.000  Hf
  Hf15     1.0000 0.74983  0.50005  0.87215  Biso   1.000  Hf
  O25      1.0000 0.99366  0.64584  0.49855  Biso   1.000  O 
  O26      1.0000 0.00410  0.60445  0.74871  Biso   1.000  O 
  O27      1.0000 0.98756  0.85378  0.76235  Biso   1.000  O 
  O28      1.0000 0.00301  0.89575  0.50868  Biso   1.000  O 
  O29      1.0000 0.50599  0.64584  0.75127  Biso   1.000  O 
  O30      1.0000 0.49555  0.60445  0.50110  Biso   1.000  O 
  O31      1.0000 0.51209  0.85378  0.48746  Biso   1.000  O 
  O32      1.0000 0.49665  0.89575  0.74114  Biso   1.000  O 
