data_image0
_cell_length_a       5.03408
_cell_length_b       10.3902
_cell_length_c       10.2063
_cell_angle_alpha    90
_cell_angle_beta     90
_cell_angle_gamma    90

_symmetry_space_group_name_H-M    "P 1"
_symmetry_int_tables_number       1

loop_
  _symmetry_equiv_pos_as_xyz
  'x, y, z'

loop_
  _atom_site_label
  _atom_site_occupancy
  _atom_site_fract_x
  _atom_site_fract_y
  _atom_site_fract_z
  _atom_site_thermal_displace_type
  _atom_site_B_iso_or_equiv
  _atom_site_type_symbol
  Hf1      1.0000 0.21656  0.99285  0.10084  Biso   1.000  Hf
  Hf2      1.0000 0.19286  0.23822  0.39868  Biso   1.000  Hf
  Hf3      1.0000 0.59133  0.25979  0.15308  Biso   1.000  Hf
  Hf4      1.0000 0.67910  0.49700  0.38183  Biso   1.000  Hf
  O1       1.0000 0.86308  0.18541  0.27842  Biso   1.000  O 
  O2       1.0000 0.02703  0.06992  0.46621  Biso   1.000  O 
  O3       1.0000 0.85738  0.44647  0.20815  Biso   1.000  O 
  O4       1.0000 0.89795  0.34595  0.46762  Biso   1.000  O 
  O5       1.0000 0.38559  0.11226  0.25138  Biso   1.000  O 
  O6       1.0000 0.50714  0.14917  0.49883  Biso   1.000  O 
  O7       1.0000 0.41639  0.39590  0.50469  Biso   1.000  O 
  O8       1.0000 0.36488  0.37816  0.26587  Biso   1.000  O 
  Hf5      1.0000 0.24421  0.02453  0.62596  Biso   1.000  Hf
  Hf6      1.0000 0.26029  0.24043  0.85985  Biso   1.000  Hf
  Hf7      1.0000 0.70060  0.28296  0.62894  Biso   1.000  Hf
  Hf8      1.0000 0.65523  0.50474  0.86876  Biso   1.000  Hf
  O9       1.0000 0.05790  0.19835  0.68047  Biso   1.000  O 
  O10      1.0000 0.03537  0.07495  0.91881  Biso   1.000  O 
  O11      1.0000 0.86556  0.45746  0.69308  Biso   1.000  O 
  O12      1.0000 0.89996  0.32852  0.89104  Biso   1.000  O 
  O13      1.0000 0.52259  0.12813  0.74781  Biso   1.000  O 
  O14      1.0000 0.57433  0.11453  0.00385  Biso   1.000  O 
  O15      1.0000 0.42196  0.40066  0.99377  Biso   1.000  O 
  O16      1.0000 0.41240  0.38222  0.74502  Biso   1.000  O 
  Hf9      1.0000 0.21384  0.52312  0.13439  Biso   1.000  Hf
  Hf10     1.0000 0.21026  0.75014  0.37635  Biso   1.000  Hf
  Hf11     1.0000 0.68936  0.76389  0.12877  Biso   1.000  Hf
  Hf12     1.0000 0.71265  0.00895  0.36075  Biso   1.000  Hf
  O17      1.0000 0.02739  0.68821  0.19863  Biso   1.000  O 
  O18      1.0000 0.00762  0.58783  0.44825  Biso   1.000  O 
  O19      1.0000 0.87208  0.94460  0.18698  Biso   1.000  O 
  O20      1.0000 0.86362  0.83276  0.43768  Biso   1.000  O 
  O21      1.0000 0.48742  0.62566  0.25284  Biso   1.000  O 
  O22      1.0000 0.47349  0.64833  0.49919  Biso   1.000  O 
  O23      1.0000 0.39661  0.90027  0.49318  Biso   1.000  O 
  O24      1.0000 0.41402  0.86935  0.24114  Biso   1.000  O 
  Hf13     1.0000 0.20309  0.52765  0.62003  Biso   1.000  Hf
  Hf14     1.0000 0.18103  0.74558  0.87051  Biso   1.000  Hf
  Hf15     1.0000 0.67084  0.78282  0.61619  Biso   1.000  Hf
  Hf16     1.0000 0.64898  0.98940  0.87151  Biso   1.000  Hf
  O25      1.0000 0.99233  0.69656  0.69619  Biso   1.000  O 
  O26      1.0000 0.97903  0.58305  0.95091  Biso   1.000  O 
  O27      1.0000 0.86452  0.94125  0.69941  Biso   1.000  O 
  O28      1.0000 0.85840  0.83521  0.95842  Biso   1.000  O 
  O29      1.0000 0.45762  0.63078  0.74846  Biso   1.000  O 
  O30      1.0000 0.52110  0.63049  0.00098  Biso   1.000  O 
  O31      1.0000 0.36982  0.89103  0.99048  Biso   1.000  O 
  O32      1.0000 0.39441  0.87604  0.74514  Biso   1.000  O 
  As1      1.0000 0.04154  0.26428  0.06288  Biso   1.000  As
