data_image0
_cell_length_a       9.93891
_cell_length_b       5.18472
_cell_length_c       9.99622
_cell_angle_alpha    90
_cell_angle_beta     90
_cell_angle_gamma    90

_symmetry_space_group_name_H-M    "P 1"
_symmetry_int_tables_number       1

loop_
  _symmetry_equiv_pos_as_xyz
  'x, y, z'

loop_
  _atom_site_label
  _atom_site_occupancy
  _atom_site_fract_x
  _atom_site_fract_y
  _atom_site_fract_z
  _atom_site_thermal_displace_type
  _atom_site_B_iso_or_equiv
  _atom_site_type_symbol
  As1      1.0000 0.11583  0.05160  0.11155  Biso   1.000  As
  Hf1      1.0000 0.14473  0.46008  0.37656  Biso   1.000  Hf
  Hf2      1.0000 0.36496  0.52871  0.12974  Biso   1.000  Hf
  Hf3      1.0000 0.36816  0.96217  0.37440  Biso   1.000  Hf
  O1       1.0000 0.04155  0.35846  0.18807  Biso   1.000  O 
  O2       1.0000 0.04222  0.12681  0.44679  Biso   1.000  O 
  O3       1.0000 0.47097  0.86246  0.19630  Biso   1.000  O 
  O4       1.0000 0.47323  0.63222  0.45063  Biso   1.000  O 
  O5       1.0000 0.27864  0.23508  0.25346  Biso   1.000  O 
  O6       1.0000 0.27740  0.26021  0.50373  Biso   1.000  O 
  O7       1.0000 0.23496  0.75861  0.50436  Biso   1.000  O 
  O8       1.0000 0.24256  0.71780  0.25884  Biso   1.000  O 
  Hf4      1.0000 0.14114  0.03076  0.62775  Biso   1.000  Hf
  Hf5      1.0000 0.14320  0.46917  0.87749  Biso   1.000  Hf
  Hf6      1.0000 0.37283  0.53230  0.62837  Biso   1.000  Hf
  Hf7      1.0000 0.37227  0.96403  0.88093  Biso   1.000  Hf
  O9       1.0000 0.04135  0.36199  0.69862  Biso   1.000  O 
  O10      1.0000 0.04120  0.12344  0.95104  Biso   1.000  O 
  O11      1.0000 0.46999  0.86683  0.69794  Biso   1.000  O 
  O12      1.0000 0.46835  0.62497  0.94271  Biso   1.000  O 
  O13      1.0000 0.27724  0.23393  0.75338  Biso   1.000  O 
  O14      1.0000 0.26425  0.26794  0.00214  Biso   1.000  O 
  O15      1.0000 0.22426  0.76708  0.00575  Biso   1.000  O 
  O16      1.0000 0.23562  0.73537  0.75380  Biso   1.000  O 
  Hf8      1.0000 0.63545  0.03359  0.12742  Biso   1.000  Hf
  Hf9      1.0000 0.63893  0.46631  0.37467  Biso   1.000  Hf
  Hf10     1.0000 0.86705  0.52870  0.12060  Biso   1.000  Hf
  Hf11     1.0000 0.87424  0.96693  0.37552  Biso   1.000  Hf
  O17      1.0000 0.54195  0.37091  0.19396  Biso   1.000  O 
  O18      1.0000 0.54226  0.12951  0.44162  Biso   1.000  O 
  O19      1.0000 0.97409  0.86939  0.18551  Biso   1.000  O 
  O20      1.0000 0.97035  0.62645  0.43982  Biso   1.000  O 
  O21      1.0000 0.77730  0.23220  0.24740  Biso   1.000  O 
  O22      1.0000 0.77647  0.26204  0.49724  Biso   1.000  O 
  O23      1.0000 0.73818  0.76363  0.49794  Biso   1.000  O 
  O24      1.0000 0.74063  0.73434  0.24769  Biso   1.000  O 
  Hf12     1.0000 0.63720  0.02706  0.62223  Biso   1.000  Hf
  Hf13     1.0000 0.63880  0.46000  0.87472  Biso   1.000  Hf
  Hf14     1.0000 0.87357  0.52645  0.62281  Biso   1.000  Hf
  Hf15     1.0000 0.86912  0.95764  0.87152  Biso   1.000  Hf
  O25      1.0000 0.54253  0.36323  0.69435  Biso   1.000  O 
  O26      1.0000 0.54300  0.12663  0.94727  Biso   1.000  O 
  O27      1.0000 0.97088  0.86229  0.69335  Biso   1.000  O 
  O28      1.0000 0.96951  0.62499  0.94002  Biso   1.000  O 
  O29      1.0000 0.77524  0.22638  0.74679  Biso   1.000  O 
  O30      1.0000 0.77926  0.25774  0.99678  Biso   1.000  O 
  O31      1.0000 0.73665  0.75626  0.99814  Biso   1.000  O 
  O32      1.0000 0.73620  0.72652  0.74772  Biso   1.000  O 
