data_image0
_cell_length_a       9.94853
_cell_length_b       10.3693
_cell_length_c       9.99691
_cell_angle_alpha    90
_cell_angle_beta     90
_cell_angle_gamma    90

_symmetry_space_group_name_H-M    "P 1"
_symmetry_int_tables_number       1

loop_
  _symmetry_equiv_pos_as_xyz
  'x, y, z'

loop_
  _atom_site_label
  _atom_site_occupancy
  _atom_site_fract_x
  _atom_site_fract_y
  _atom_site_fract_z
  _atom_site_thermal_displace_type
  _atom_site_B_iso_or_equiv
  _atom_site_type_symbol
  As1      1.0000 0.11143  0.02591  0.10886  Biso   1.000  As
  Hf1      1.0000 0.14191  0.23039  0.37556  Biso   1.000  Hf
  Hf2      1.0000 0.36655  0.26493  0.12808  Biso   1.000  Hf
  Hf3      1.0000 0.36936  0.48293  0.37661  Biso   1.000  Hf
  O1       1.0000 0.04214  0.17988  0.18644  Biso   1.000  O 
  O2       1.0000 0.04037  0.06504  0.44470  Biso   1.000  O 
  O3       1.0000 0.46550  0.43326  0.19491  Biso   1.000  O 
  O4       1.0000 0.46729  0.31517  0.44521  Biso   1.000  O 
  O5       1.0000 0.28366  0.12582  0.25686  Biso   1.000  O 
  O6       1.0000 0.27284  0.13077  0.50448  Biso   1.000  O 
  O7       1.0000 0.23301  0.38038  0.50015  Biso   1.000  O 
  O8       1.0000 0.22985  0.36873  0.24998  Biso   1.000  O 
  Hf4      1.0000 0.13799  0.01570  0.62847  Biso   1.000  Hf
  Hf5      1.0000 0.14068  0.23656  0.87583  Biso   1.000  Hf
  Hf6      1.0000 0.37016  0.26579  0.62669  Biso   1.000  Hf
  Hf7      1.0000 0.37154  0.48327  0.87651  Biso   1.000  Hf
  O9       1.0000 0.03833  0.18200  0.69898  Biso   1.000  O 
  O10      1.0000 0.03829  0.06304  0.94852  Biso   1.000  O 
  O11      1.0000 0.46773  0.43398  0.69407  Biso   1.000  O 
  O12      1.0000 0.46703  0.31327  0.94184  Biso   1.000  O 
  O13      1.0000 0.27448  0.11777  0.75301  Biso   1.000  O 
  O14      1.0000 0.26547  0.13343  0.00168  Biso   1.000  O 
  O15      1.0000 0.22997  0.38338  0.00016  Biso   1.000  O 
  O16      1.0000 0.23341  0.36781  0.75007  Biso   1.000  O 
  Hf8      1.0000 0.13602  0.51625  0.12715  Biso   1.000  Hf
  Hf9      1.0000 0.13988  0.73323  0.37749  Biso   1.000  Hf
  Hf10     1.0000 0.36613  0.76641  0.12853  Biso   1.000  Hf
  Hf11     1.0000 0.36635  0.98228  0.37394  Biso   1.000  Hf
  O17      1.0000 0.03898  0.68504  0.19432  Biso   1.000  O 
  O18      1.0000 0.04032  0.56370  0.44441  Biso   1.000  O 
  O19      1.0000 0.47030  0.93294  0.19538  Biso   1.000  O 
  O20      1.0000 0.47145  0.81674  0.45028  Biso   1.000  O 
  O21      1.0000 0.27281  0.61389  0.25026  Biso   1.000  O 
  O22      1.0000 0.27615  0.63138  0.50108  Biso   1.000  O 
  O23      1.0000 0.23294  0.88114  0.50463  Biso   1.000  O 
  O24      1.0000 0.24358  0.85805  0.25989  Biso   1.000  O 
  Hf12     1.0000 0.13829  0.51625  0.62560  Biso   1.000  Hf
  Hf13     1.0000 0.13893  0.73204  0.87777  Biso   1.000  Hf
  Hf14     1.0000 0.37027  0.76718  0.62819  Biso   1.000  Hf
  Hf15     1.0000 0.36854  0.98295  0.88121  Biso   1.000  Hf
  O25      1.0000 0.04114  0.68372  0.69359  Biso   1.000  O 
  O26      1.0000 0.04023  0.56430  0.94520  Biso   1.000  O 
  O27      1.0000 0.46712  0.93433  0.69798  Biso   1.000  O 
  O28      1.0000 0.46551  0.81440  0.94393  Biso   1.000  O 
  O29      1.0000 0.27452  0.61722  0.75108  Biso   1.000  O 
  O30      1.0000 0.27057  0.63254  0.00095  Biso   1.000  O 
  O31      1.0000 0.22430  0.88280  0.00569  Biso   1.000  O 
  O32      1.0000 0.23291  0.86810  0.75407  Biso   1.000  O 
  Hf16     1.0000 0.63556  0.01693  0.12627  Biso   1.000  Hf
  Hf17     1.0000 0.63633  0.23265  0.37544  Biso   1.000  Hf
  Hf18     1.0000 0.86435  0.26713  0.12407  Biso   1.000  Hf
  Hf19     1.0000 0.87016  0.48188  0.37597  Biso   1.000  Hf
  O33      1.0000 0.54250  0.18645  0.19125  Biso   1.000  O 
  O34      1.0000 0.53924  0.06509  0.44211  Biso   1.000  O 
  O35      1.0000 0.96641  0.43019  0.19394  Biso   1.000  O 
  O36      1.0000 0.96761  0.31289  0.44200  Biso   1.000  O 
  O37      1.0000 0.77545  0.11790  0.24870  Biso   1.000  O 
  O38      1.0000 0.77425  0.13109  0.49828  Biso   1.000  O 
  O39      1.0000 0.73362  0.38125  0.49960  Biso   1.000  O 
  O40      1.0000 0.73131  0.36790  0.24982  Biso   1.000  O 
  Hf20     1.0000 0.63390  0.01432  0.62329  Biso   1.000  Hf
  Hf21     1.0000 0.63747  0.23147  0.87500  Biso   1.000  Hf
  Hf22     1.0000 0.87012  0.26446  0.62457  Biso   1.000  Hf
  Hf23     1.0000 0.87063  0.48208  0.87459  Biso   1.000  Hf
  O41      1.0000 0.54031  0.18353  0.69304  Biso   1.000  O 
  O42      1.0000 0.53975  0.06459  0.94576  Biso   1.000  O 
  O43      1.0000 0.96815  0.43258  0.69314  Biso   1.000  O 
  O44      1.0000 0.96837  0.31392  0.94332  Biso   1.000  O 
  O45      1.0000 0.77205  0.11469  0.74743  Biso   1.000  O 
  O46      1.0000 0.77630  0.13003  0.99748  Biso   1.000  O 
  O47      1.0000 0.73467  0.38002  0.99996  Biso   1.000  O 
  O48      1.0000 0.73395  0.36561  0.74935  Biso   1.000  O 
  Hf24     1.0000 0.63509  0.51654  0.12765  Biso   1.000  Hf
  Hf25     1.0000 0.63808  0.73422  0.37533  Biso   1.000  Hf
  Hf26     1.0000 0.86957  0.76338  0.12243  Biso   1.000  Hf
  Hf27     1.0000 0.87137  0.98502  0.37645  Biso   1.000  Hf
  O49      1.0000 0.53912  0.68457  0.19567  Biso   1.000  O 
  O50      1.0000 0.54106  0.56524  0.44322  Biso   1.000  O 
  O51      1.0000 0.96910  0.93929  0.18192  Biso   1.000  O 
  O52      1.0000 0.96803  0.81610  0.44147  Biso   1.000  O 
  O53      1.0000 0.77466  0.61611  0.24886  Biso   1.000  O 
  O54      1.0000 0.77438  0.63211  0.49899  Biso   1.000  O 
  O55      1.0000 0.73555  0.88278  0.49854  Biso   1.000  O 
  O56      1.0000 0.74007  0.86743  0.24836  Biso   1.000  O 
  Hf28     1.0000 0.63807  0.51558  0.62506  Biso   1.000  Hf
  Hf29     1.0000 0.63681  0.73167  0.87593  Biso   1.000  Hf
  Hf30     1.0000 0.87106  0.76524  0.62422  Biso   1.000  Hf
  Hf31     1.0000 0.86547  0.97978  0.87268  Biso   1.000  Hf
  O57      1.0000 0.54003  0.68242  0.69560  Biso   1.000  O 
  O58      1.0000 0.54165  0.56396  0.94579  Biso   1.000  O 
  O59      1.0000 0.96731  0.93340  0.69348  Biso   1.000  O 
  O60      1.0000 0.96613  0.81379  0.93980  Biso   1.000  O 
  O61      1.0000 0.77494  0.61619  0.74918  Biso   1.000  O 
  O62      1.0000 0.77558  0.63056  0.99910  Biso   1.000  O 
  O63      1.0000 0.73248  0.87980  0.99820  Biso   1.000  O 
  O64      1.0000 0.73284  0.86519  0.74826  Biso   1.000  O 
