data_image0
_cell_length_a       10.0177
_cell_length_b       10.2242
_cell_length_c       10.4537
_cell_angle_alpha    90
_cell_angle_beta     90
_cell_angle_gamma    90

_symmetry_space_group_name_H-M    "P 1"
_symmetry_int_tables_number       1

loop_
  _symmetry_equiv_pos_as_xyz
  'x, y, z'

loop_
  _atom_site_label
  _atom_site_occupancy
  _atom_site_fract_x
  _atom_site_fract_y
  _atom_site_fract_z
  _atom_site_thermal_displace_type
  _atom_site_B_iso_or_equiv
  _atom_site_type_symbol
  As1      1.0000 0.11110  0.02093  0.18645  Biso   1.000  As
  Hf1      1.0000 0.14044  0.23296  0.42137  Biso   1.000  Hf
  Hf2      1.0000 0.35861  0.26901  0.16913  Biso   1.000  Hf
  Hf3      1.0000 0.36086  0.48080  0.42070  Biso   1.000  Hf
  Hf4      1.0000 0.63888  0.02201  0.07758  Biso   1.000  Hf
  Hf5      1.0000 0.63610  0.23052  0.32855  Biso   1.000  Hf
  Hf6      1.0000 0.86299  0.27020  0.08102  Biso   1.000  Hf
  Hf7      1.0000 0.86130  0.47964  0.32898  Biso   1.000  Hf
  O1       1.0000 0.04118  0.15924  0.08945  Biso   1.000  O 
  O2       1.0000 0.03105  0.08246  0.33069  Biso   1.000  O 
  O3       1.0000 0.46747  0.41588  0.08462  Biso   1.000  O 
  O4       1.0000 0.46552  0.33457  0.33490  Biso   1.000  O 
  O5       1.0000 0.27322  0.12752  0.29556  Biso   1.000  O 
  O6       1.0000 0.29271  0.13796  0.03230  Biso   1.000  O 
  O7       1.0000 0.22311  0.37667  0.29518  Biso   1.000  O 
  O8       1.0000 0.22217  0.37886  0.04518  Biso   1.000  O 
  O9       1.0000 0.53464  0.16751  0.16523  Biso   1.000  O 
  O10      1.0000 0.53168  0.08412  0.41497  Biso   1.000  O 
  O11      1.0000 0.96793  0.41549  0.16697  Biso   1.000  O 
  O12      1.0000 0.96541  0.33357  0.41552  Biso   1.000  O 
  O13      1.0000 0.77397  0.12345  0.45624  Biso   1.000  O 
  O14      1.0000 0.77690  0.12620  0.20663  Biso   1.000  O 
  O15      1.0000 0.72292  0.37435  0.45597  Biso   1.000  O 
  O16      1.0000 0.72457  0.37591  0.20540  Biso   1.000  O 
  Hf8      1.0000 0.13574  0.02177  0.66973  Biso   1.000  Hf
  Hf9      1.0000 0.14139  0.22773  0.92152  Biso   1.000  Hf
  Hf10     1.0000 0.35993  0.27269  0.67129  Biso   1.000  Hf
  Hf11     1.0000 0.35870  0.48003  0.92208  Biso   1.000  Hf
  Hf12     1.0000 0.63381  0.02194  0.58002  Biso   1.000  Hf
  Hf13     1.0000 0.63703  0.23050  0.82930  Biso   1.000  Hf
  Hf14     1.0000 0.85978  0.27164  0.57895  Biso   1.000  Hf
  Hf15     1.0000 0.86191  0.47825  0.83064  Biso   1.000  Hf
  O17      1.0000 0.03025  0.16393  0.57886  Biso   1.000  O 
  O18      1.0000 0.03091  0.08623  0.83283  Biso   1.000  O 
  O19      1.0000 0.46510  0.41850  0.58435  Biso   1.000  O 
  O20      1.0000 0.46528  0.33547  0.83396  Biso   1.000  O 
  O21      1.0000 0.27340  0.12380  0.78986  Biso   1.000  O 
  O22      1.0000 0.27497  0.12843  0.54342  Biso   1.000  O 
  O23      1.0000 0.22233  0.37415  0.79528  Biso   1.000  O 
  O24      1.0000 0.22196  0.37753  0.54453  Biso   1.000  O 
  O25      1.0000 0.53187  0.16879  0.66523  Biso   1.000  O 
  O26      1.0000 0.53399  0.08330  0.91321  Biso   1.000  O 
  O27      1.0000 0.96701  0.41409  0.66827  Biso   1.000  O 
  O28      1.0000 0.96616  0.33288  0.92133  Biso   1.000  O 
  O29      1.0000 0.77589  0.12548  0.95644  Biso   1.000  O 
  O30      1.0000 0.77419  0.12749  0.70533  Biso   1.000  O 
  O31      1.0000 0.72243  0.37468  0.95699  Biso   1.000  O 
  O32      1.0000 0.72301  0.37757  0.70617  Biso   1.000  O 
  Hf16     1.0000 0.14029  0.52217  0.17127  Biso   1.000  Hf
  Hf17     1.0000 0.13793  0.73006  0.42108  Biso   1.000  Hf
  Hf18     1.0000 0.35999  0.77529  0.16873  Biso   1.000  Hf
  Hf19     1.0000 0.36075  0.98161  0.41865  Biso   1.000  Hf
  Hf20     1.0000 0.63879  0.52094  0.07898  Biso   1.000  Hf
  Hf21     1.0000 0.63692  0.72831  0.32771  Biso   1.000  Hf
  Hf22     1.0000 0.86374  0.76874  0.07702  Biso   1.000  Hf
  Hf23     1.0000 0.85408  0.97833  0.33316  Biso   1.000  Hf
  O33      1.0000 0.03632  0.66838  0.08512  Biso   1.000  O 
  O34      1.0000 0.03280  0.58491  0.33443  Biso   1.000  O 
  O35      1.0000 0.47258  0.91653  0.08368  Biso   1.000  O 
  O36      1.0000 0.46567  0.83604  0.33263  Biso   1.000  O 
  O37      1.0000 0.27631  0.62700  0.29465  Biso   1.000  O 
  O38      1.0000 0.27886  0.62558  0.04486  Biso   1.000  O 
  O39      1.0000 0.22006  0.87647  0.29291  Biso   1.000  O 
  O40      1.0000 0.23195  0.87355  0.03904  Biso   1.000  O 
  O41      1.0000 0.53367  0.66724  0.16500  Biso   1.000  O 
  O42      1.0000 0.53318  0.58461  0.41558  Biso   1.000  O 
  O43      1.0000 0.96726  0.92098  0.16763  Biso   1.000  O 
  O44      1.0000 0.96502  0.83573  0.41606  Biso   1.000  O 
  O45      1.0000 0.77590  0.62445  0.45547  Biso   1.000  O 
  O46      1.0000 0.77677  0.62618  0.20525  Biso   1.000  O 
  O47      1.0000 0.72067  0.87337  0.45619  Biso   1.000  O 
  O48      1.0000 0.72848  0.87616  0.20607  Biso   1.000  O 
  Hf24     1.0000 0.13788  0.52268  0.67242  Biso   1.000  Hf
  Hf25     1.0000 0.13966  0.73252  0.92099  Biso   1.000  Hf
  Hf26     1.0000 0.36113  0.77292  0.67061  Biso   1.000  Hf
  Hf27     1.0000 0.36008  0.98186  0.92215  Biso   1.000  Hf
  Hf28     1.0000 0.63840  0.52185  0.57956  Biso   1.000  Hf
  Hf29     1.0000 0.63742  0.73059  0.82872  Biso   1.000  Hf
  Hf30     1.0000 0.86024  0.77124  0.57986  Biso   1.000  Hf
  Hf31     1.0000 0.86235  0.98090  0.82880  Biso   1.000  Hf
  O49      1.0000 0.03224  0.66640  0.58413  Biso   1.000  O 
  O50      1.0000 0.03267  0.58444  0.83513  Biso   1.000  O 
  O51      1.0000 0.46546  0.91840  0.58351  Biso   1.000  O 
  O52      1.0000 0.46641  0.83551  0.83288  Biso   1.000  O 
  O53      1.0000 0.27591  0.62490  0.79439  Biso   1.000  O 
  O54      1.0000 0.27539  0.62745  0.54469  Biso   1.000  O 
  O55      1.0000 0.22286  0.87463  0.79212  Biso   1.000  O 
  O56      1.0000 0.22330  0.87792  0.54252  Biso   1.000  O 
  O57      1.0000 0.53372  0.66800  0.66497  Biso   1.000  O 
  O58      1.0000 0.53191  0.58479  0.91535  Biso   1.000  O 
  O59      1.0000 0.96658  0.91620  0.66623  Biso   1.000  O 
  O60      1.0000 0.96611  0.83586  0.91708  Biso   1.000  O 
  O61      1.0000 0.77552  0.62502  0.95642  Biso   1.000  O 
  O62      1.0000 0.77660  0.62650  0.70646  Biso   1.000  O 
  O63      1.0000 0.72333  0.87507  0.95543  Biso   1.000  O 
  O64      1.0000 0.72347  0.87743  0.70562  Biso   1.000  O 
