data_image0
_cell_length_a       10.2944
_cell_length_b       5.15333
_cell_length_c       10.4995
_cell_angle_alpha    90
_cell_angle_beta     80
_cell_angle_gamma    90

_symmetry_space_group_name_H-M    "P 1"
_symmetry_int_tables_number       1

loop_
  _symmetry_equiv_pos_as_xyz
  'x, y, z'

loop_
  _atom_site_label
  _atom_site_occupancy
  _atom_site_fract_x
  _atom_site_fract_y
  _atom_site_fract_z
  _atom_site_thermal_displace_type
  _atom_site_B_iso_or_equiv
  _atom_site_type_symbol
  Hf1      1.0000 0.13493  0.04288  0.14350  Biso   1.000  Hf
  Hf2      1.0000 0.14467  0.45322  0.39572  Biso   1.000  Hf
  Hf3      1.0000 0.34432  0.54508  0.09722  Biso   1.000  Hf
  Hf4      1.0000 0.35499  0.96039  0.34482  Biso   1.000  Hf
  O1       1.0000 0.03068  0.33434  0.07847  Biso   1.000  O 
  O2       1.0000 0.03803  0.16864  0.32794  Biso   1.000  O 
  O3       1.0000 0.44366  0.90081  0.12813  Biso   1.000  O 
  O4       1.0000 0.48341  0.67337  0.43762  Biso   1.000  O 
  O5       1.0000 0.26905  0.25042  0.23854  Biso   1.000  O 
  O6       1.0000 0.28466  0.23715  0.48706  Biso   1.000  O 
  O7       1.0000 0.21426  0.76163  0.00407  Biso   1.000  O 
  O8       1.0000 0.21497  0.74158  0.25531  Biso   1.000  O 
  Hf5      1.0000 0.15080  0.03044  0.64465  Biso   1.000  Hf
  Hf6      1.0000 0.14896  0.44530  0.89145  Biso   1.000  Hf
  Hf7      1.0000 0.37285  0.53164  0.60593  Biso   1.000  Hf
  Hf8      1.0000 0.37638  0.94266  0.85379  Biso   1.000  Hf
  O9       1.0000 0.04654  0.32255  0.57940  Biso   1.000  O 
  O10      1.0000 0.04659  0.15274  0.82684  Biso   1.000  O 
  O11      1.0000 0.47821  0.82112  0.67423  Biso   1.000  O 
  O12      1.0000 0.47377  0.63092  0.90988  Biso   1.000  O 
  O13      1.0000 0.28704  0.24082  0.73766  Biso   1.000  O 
  O14      1.0000 0.28595  0.23516  0.98481  Biso   1.000  O 
  O15      1.0000 0.23661  0.74749  0.50430  Biso   1.000  O 
  O16      1.0000 0.23686  0.72914  0.75495  Biso   1.000  O 
  Hf9      1.0000 0.63330  0.03061  0.15031  Biso   1.000  Hf
  Hf10     1.0000 0.66054  0.44995  0.40942  Biso   1.000  Hf
  Hf11     1.0000 0.85953  0.53899  0.11123  Biso   1.000  Hf
  Hf12     1.0000 0.87298  0.95137  0.35860  Biso   1.000  Hf
  O17      1.0000 0.53076  0.35438  0.08210  Biso   1.000  O 
  O18      1.0000 0.53313  0.13336  0.32985  Biso   1.000  O 
  O19      1.0000 0.96941  0.82953  0.17173  Biso   1.000  O 
  O20      1.0000 0.97378  0.65892  0.42689  Biso   1.000  O 
  O21      1.0000 0.77869  0.25231  0.24809  Biso   1.000  O 
  O22      1.0000 0.78931  0.22481  0.49893  Biso   1.000  O 
  O23      1.0000 0.71988  0.74690  0.01798  Biso   1.000  O 
  O24      1.0000 0.74434  0.74738  0.27078  Biso   1.000  O 
  Hf13     1.0000 0.64953  0.02812  0.65191  Biso   1.000  Hf
  Hf14     1.0000 0.65185  0.44676  0.89609  Biso   1.000  Hf
  Hf15     1.0000 0.87593  0.53176  0.61022  Biso   1.000  Hf
  Hf16     1.0000 0.87488  0.94538  0.85780  Biso   1.000  Hf
  O25      1.0000 0.54568  0.31635  0.58255  Biso   1.000  O 
  O26      1.0000 0.54986  0.14289  0.83448  Biso   1.000  O 
  O27      1.0000 0.97866  0.82299  0.67395  Biso   1.000  O 
  O28      1.0000 0.97672  0.65119  0.92126  Biso   1.000  O 
  O29      1.0000 0.78732  0.24707  0.74469  Biso   1.000  O 
  O30      1.0000 0.78684  0.22391  0.99422  Biso   1.000  O 
  O31      1.0000 0.73688  0.74032  0.51887  Biso   1.000  O 
  O32      1.0000 0.73908  0.73302  0.76506  Biso   1.000  O 
  As1      1.0000 0.50958  0.56050  0.25262  Biso   1.000  As
