data_image0
_cell_length_a       4.97147
_cell_length_b       10.381
_cell_length_c       10.0327
_cell_angle_alpha    90
_cell_angle_beta     90
_cell_angle_gamma    90

_symmetry_space_group_name_H-M    "P 1"
_symmetry_int_tables_number       1

loop_
  _symmetry_equiv_pos_as_xyz
  'x, y, z'

loop_
  _atom_site_label
  _atom_site_occupancy
  _atom_site_fract_x
  _atom_site_fract_y
  _atom_site_fract_z
  _atom_site_thermal_displace_type
  _atom_site_B_iso_or_equiv
  _atom_site_type_symbol
  Au1      1.0000 0.24697  0.02531  0.10522  Biso   1.000  Au
  Hf1      1.0000 0.29162  0.22851  0.37752  Biso   1.000  Hf
  Hf2      1.0000 0.73218  0.26776  0.12899  Biso   1.000  Hf
  Hf3      1.0000 0.74994  0.48231  0.37723  Biso   1.000  Hf
  O1       1.0000 0.09309  0.18342  0.18914  Biso   1.000  O 
  O2       1.0000 0.09201  0.06454  0.44613  Biso   1.000  O 
  O3       1.0000 0.93845  0.42911  0.19560  Biso   1.000  O 
  O4       1.0000 0.94643  0.31429  0.44234  Biso   1.000  O 
  O5       1.0000 0.58267  0.12860  0.25866  Biso   1.000  O 
  O6       1.0000 0.55955  0.12978  0.50403  Biso   1.000  O 
  O7       1.0000 0.47952  0.38029  0.50068  Biso   1.000  O 
  O8       1.0000 0.46421  0.36983  0.25140  Biso   1.000  O 
  Hf4      1.0000 0.28533  0.01597  0.62900  Biso   1.000  Hf
  Hf5      1.0000 0.29705  0.23668  0.87218  Biso   1.000  Hf
  Hf6      1.0000 0.75520  0.26559  0.62403  Biso   1.000  Hf
  Hf7      1.0000 0.76096  0.48252  0.87552  Biso   1.000  Hf
  O9       1.0000 0.10418  0.18913  0.68832  Biso   1.000  O 
  O10      1.0000 0.10155  0.06323  0.90651  Biso   1.000  O 
  O11      1.0000 0.95184  0.43346  0.69508  Biso   1.000  O 
  O12      1.0000 0.95251  0.31083  0.94261  Biso   1.000  O 
  O13      1.0000 0.57070  0.11902  0.75114  Biso   1.000  O 
  O14      1.0000 0.53032  0.12809  0.00305  Biso   1.000  O 
  O15      1.0000 0.45782  0.38110  0.00109  Biso   1.000  O 
  O16      1.0000 0.48441  0.36858  0.74944  Biso   1.000  O 
  Hf8      1.0000 0.27712  0.51613  0.12965  Biso   1.000  Hf
  Hf9      1.0000 0.29021  0.73473  0.37700  Biso   1.000  Hf
  Hf10     1.0000 0.74496  0.76335  0.12719  Biso   1.000  Hf
  Hf11     1.0000 0.75130  0.98371  0.37644  Biso   1.000  Hf
  O17      1.0000 0.08653  0.68334  0.19723  Biso   1.000  O 
  O18      1.0000 0.09152  0.56429  0.44566  Biso   1.000  O 
  O19      1.0000 0.95089  0.93336  0.19250  Biso   1.000  O 
  O20      1.0000 0.95251  0.81518  0.44797  Biso   1.000  O 
  O21      1.0000 0.55717  0.61262  0.24955  Biso   1.000  O 
  O22      1.0000 0.56106  0.63166  0.50023  Biso   1.000  O 
  O23      1.0000 0.47932  0.88222  0.50457  Biso   1.000  O 
  O24      1.0000 0.51207  0.85735  0.26013  Biso   1.000  O 
  Hf12     1.0000 0.29001  0.51640  0.62532  Biso   1.000  Hf
  Hf13     1.0000 0.29154  0.72917  0.87844  Biso   1.000  Hf
  Hf14     1.0000 0.75491  0.76527  0.62538  Biso   1.000  Hf
  Hf15     1.0000 0.74763  0.97780  0.87306  Biso   1.000  Hf
  O25      1.0000 0.09364  0.68229  0.69800  Biso   1.000  O 
  O26      1.0000 0.10054  0.56261  0.94842  Biso   1.000  O 
  O27      1.0000 0.94219  0.93332  0.69005  Biso   1.000  O 
  O28      1.0000 0.94769  0.81435  0.94166  Biso   1.000  O 
  O29      1.0000 0.56343  0.61611  0.75100  Biso   1.000  O 
  O30      1.0000 0.53855  0.63264  0.00049  Biso   1.000  O 
  O31      1.0000 0.44270  0.88064  0.00857  Biso   1.000  O 
  O32      1.0000 0.47920  0.86563  0.75387  Biso   1.000  O 
