data_image0
_cell_length_a       10.2312
_cell_length_b       5.16149
_cell_length_c       10.5691
_cell_angle_alpha    90
_cell_angle_beta     80
_cell_angle_gamma    90

_symmetry_space_group_name_H-M    "P 1"
_symmetry_int_tables_number       1

loop_
  _symmetry_equiv_pos_as_xyz
  'x, y, z'

loop_
  _atom_site_label
  _atom_site_occupancy
  _atom_site_fract_x
  _atom_site_fract_y
  _atom_site_fract_z
  _atom_site_thermal_displace_type
  _atom_site_B_iso_or_equiv
  _atom_site_type_symbol
  Hf1      1.0000 0.13166  0.04394  0.14339  Biso   1.000  Hf
  Hf2      1.0000 0.13925  0.45038  0.39376  Biso   1.000  Hf
  Hf3      1.0000 0.35455  0.55286  0.09689  Biso   1.000  Hf
  Hf4      1.0000 0.36335  0.92815  0.35400  Biso   1.000  Hf
  O1       1.0000 0.03057  0.33512  0.07385  Biso   1.000  O 
  O2       1.0000 0.02884  0.16666  0.32737  Biso   1.000  O 
  O3       1.0000 0.46105  0.86215  0.16578  Biso   1.000  O 
  O4       1.0000 0.48618  0.71106  0.45094  Biso   1.000  O 
  O5       1.0000 0.25798  0.25901  0.23255  Biso   1.000  O 
  O6       1.0000 0.27203  0.21320  0.49082  Biso   1.000  O 
  O7       1.0000 0.22016  0.76769  0.00634  Biso   1.000  O 
  O8       1.0000 0.21440  0.75204  0.25736  Biso   1.000  O 
  Hf5      1.0000 0.14166  0.03129  0.64479  Biso   1.000  Hf
  Hf6      1.0000 0.14080  0.44668  0.89325  Biso   1.000  Hf
  Hf7      1.0000 0.36609  0.53655  0.60984  Biso   1.000  Hf
  Hf8      1.0000 0.36609  0.95098  0.85432  Biso   1.000  Hf
  O9       1.0000 0.03728  0.32112  0.57687  Biso   1.000  O 
  O10      1.0000 0.03717  0.16071  0.82450  Biso   1.000  O 
  O11      1.0000 0.47307  0.81278  0.68254  Biso   1.000  O 
  O12      1.0000 0.47219  0.66586  0.92310  Biso   1.000  O 
  O13      1.0000 0.27866  0.24527  0.73856  Biso   1.000  O 
  O14      1.0000 0.27933  0.24062  0.98548  Biso   1.000  O 
  O15      1.0000 0.22978  0.73203  0.51125  Biso   1.000  O 
  O16      1.0000 0.22988  0.73392  0.75944  Biso   1.000  O 
  Hf9      1.0000 0.63949  0.04239  0.14564  Biso   1.000  Hf
  Hf10     1.0000 0.65734  0.45557  0.40568  Biso   1.000  Hf
  Hf11     1.0000 0.85921  0.54296  0.10476  Biso   1.000  Hf
  Hf12     1.0000 0.86479  0.95051  0.35402  Biso   1.000  Hf
  O17      1.0000 0.53259  0.33384  0.07233  Biso   1.000  O 
  O18      1.0000 0.55999  0.10753  0.34051  Biso   1.000  O 
  O19      1.0000 0.96328  0.83110  0.17210  Biso   1.000  O 
  O20      1.0000 0.96796  0.66088  0.42365  Biso   1.000  O 
  O21      1.0000 0.77989  0.25750  0.24029  Biso   1.000  O 
  O22      1.0000 0.78265  0.23054  0.49442  Biso   1.000  O 
  O23      1.0000 0.72290  0.76106  0.01281  Biso   1.000  O 
  O24      1.0000 0.72797  0.73484  0.26151  Biso   1.000  O 
  Hf13     1.0000 0.64077  0.03380  0.64847  Biso   1.000  Hf
  Hf14     1.0000 0.64310  0.44807  0.89546  Biso   1.000  Hf
  Hf15     1.0000 0.86897  0.53391  0.60763  Biso   1.000  Hf
  Hf16     1.0000 0.86685  0.94799  0.85451  Biso   1.000  Hf
  O25      1.0000 0.53735  0.31766  0.57703  Biso   1.000  O 
  O26      1.0000 0.53624  0.16687  0.82545  Biso   1.000  O 
  O27      1.0000 0.97157  0.82193  0.67349  Biso   1.000  O 
  O28      1.0000 0.97029  0.66020  0.92136  Biso   1.000  O 
  O29      1.0000 0.77835  0.24837  0.74094  Biso   1.000  O 
  O30      1.0000 0.78049  0.23275  0.98933  Biso   1.000  O 
  O31      1.0000 0.73252  0.74631  0.51501  Biso   1.000  O 
  O32      1.0000 0.73071  0.73592  0.76259  Biso   1.000  O 
  Au1      1.0000 0.44004  0.42683  0.30866  Biso   1.000  Au
