data_image0
_cell_length_a       10.3319
_cell_length_b       5.40981
_cell_length_c       10.3319
_cell_angle_alpha    80
_cell_angle_beta     80
_cell_angle_gamma    80

_symmetry_space_group_name_H-M    "P 1"
_symmetry_int_tables_number       1

loop_
  _symmetry_equiv_pos_as_xyz
  'x, y, z'

loop_
  _atom_site_label
  _atom_site_occupancy
  _atom_site_fract_x
  _atom_site_fract_y
  _atom_site_fract_z
  _atom_site_thermal_displace_type
  _atom_site_B_iso_or_equiv
  _atom_site_type_symbol
  Hf1      1.0000 0.10531  0.96512  0.09853  Biso   1.000  Hf
  Hf2      1.0000 0.11650  0.56529  0.41007  Biso   1.000  Hf
  Hf3      1.0000 0.40587  0.54492  0.14094  Biso   1.000  Hf
  Hf4      1.0000 0.34610  0.01776  0.36030  Biso   1.000  Hf
  O1       1.0000 0.92186  0.39056  0.99896  Biso   1.000  O 
  O2       1.0000 0.97005  0.17440  0.24071  Biso   1.000  O 
  O3       1.0000 0.98390  0.70621  0.25865  Biso   1.000  O 
  O4       1.0000 0.92638  0.86905  0.99577  Biso   1.000  O 
  O5       1.0000 0.30327  0.42155  0.32368  Biso   1.000  O 
  O6       1.0000 0.16447  0.23106  0.98996  Biso   1.000  O 
  O7       1.0000 0.19004  0.76205  0.99702  Biso   1.000  O 
  O8       1.0000 0.23610  0.86898  0.24283  Biso   1.000  O 
  Hf5      1.0000 0.06376  0.02027  0.60668  Biso   1.000  Hf
  Hf6      1.0000 0.07867  0.58014  0.89684  Biso   1.000  Hf
  Hf7      1.0000 0.35049  0.57006  0.64840  Biso   1.000  Hf
  Hf8      1.0000 0.29963  0.03565  0.84870  Biso   1.000  Hf
  O9       1.0000 0.96315  0.37490  0.50782  Biso   1.000  O 
  O10      1.0000 0.93432  0.22212  0.74911  Biso   1.000  O 
  O11      1.0000 0.95061  0.73562  0.75541  Biso   1.000  O 
  O12      1.0000 0.96354  0.85212  0.49795  Biso   1.000  O 
  O13      1.0000 0.19802  0.38865  0.75318  Biso   1.000  O 
  O14      1.0000 0.19586  0.20053  0.50209  Biso   1.000  O 
  O15      1.0000 0.21965  0.73120  0.51217  Biso   1.000  O 
  O16      1.0000 0.19494  0.86442  0.74758  Biso   1.000  O 
  Hf9      1.0000 0.61210  0.98169  0.09667  Biso   1.000  Hf
  Hf10     1.0000 0.62322  0.55088  0.39474  Biso   1.000  Hf
  Hf11     1.0000 0.89056  0.52304  0.14172  Biso   1.000  Hf
  Hf12     1.0000 0.83312  0.99814  0.35250  Biso   1.000  Hf
  O17      1.0000 0.43255  0.41220  0.00130  Biso   1.000  O 
  O18      1.0000 0.48450  0.18021  0.23361  Biso   1.000  O 
  O19      1.0000 0.50150  0.71134  0.25003  Biso   1.000  O 
  O20      1.0000 0.43077  0.88958  0.99347  Biso   1.000  O 
  O21      1.0000 0.73584  0.35081  0.25296  Biso   1.000  O 
  O22      1.0000 0.67094  0.24065  0.99408  Biso   1.000  O 
  O23      1.0000 0.68448  0.75433  0.00293  Biso   1.000  O 
  O24      1.0000 0.73851  0.82620  0.24201  Biso   1.000  O 
  Hf13     1.0000 0.56955  0.02740  0.60388  Biso   1.000  Hf
  Hf14     1.0000 0.58364  0.58576  0.89442  Biso   1.000  Hf
  Hf15     1.0000 0.84841  0.56715  0.64816  Biso   1.000  Hf
  Hf16     1.0000 0.79827  0.03719  0.85321  Biso   1.000  Hf
  O25      1.0000 0.46937  0.37909  0.50557  Biso   1.000  O 
  O26      1.0000 0.43748  0.22503  0.74570  Biso   1.000  O 
  O27      1.0000 0.45269  0.74376  0.75275  Biso   1.000  O 
  O28      1.0000 0.46847  0.85523  0.49652  Biso   1.000  O 
  O29      1.0000 0.69539  0.38769  0.75197  Biso   1.000  O 
  O30      1.0000 0.70682  0.20609  0.49520  Biso   1.000  O 
  O31      1.0000 0.72127  0.72487  0.50294  Biso   1.000  O 
  O32      1.0000 0.69698  0.86752  0.74558  Biso   1.000  O 
  Au1      1.0000 0.17298  0.36262  0.18256  Biso   1.000  Au
