data_image0
_cell_length_a       10.1456
_cell_length_b       10.4445
_cell_length_c       5.07879
_cell_angle_alpha    90
_cell_angle_beta     90
_cell_angle_gamma    90

_symmetry_space_group_name_H-M    "P 1"
_symmetry_int_tables_number       1

loop_
  _symmetry_equiv_pos_as_xyz
  'x, y, z'

loop_
  _atom_site_label
  _atom_site_occupancy
  _atom_site_fract_x
  _atom_site_fract_y
  _atom_site_fract_z
  _atom_site_thermal_displace_type
  _atom_site_B_iso_or_equiv
  _atom_site_type_symbol
  Hf1      1.0000 0.15837  0.93639  0.28104  Biso   1.000  Hf
  Hf2      1.0000 0.13933  0.27408  0.74512  Biso   1.000  Hf
  Hf3      1.0000 0.36974  0.22437  0.31120  Biso   1.000  Hf
  Hf4      1.0000 0.39294  0.98517  0.78933  Biso   1.000  Hf
  O1       1.0000 0.99449  0.14495  0.86227  Biso   1.000  O 
  O2       1.0000 0.95852  0.04087  0.38765  Biso   1.000  O 
  O3       1.0000 0.99322  0.34560  0.49595  Biso   1.000  O 
  O4       1.0000 0.02097  0.39328  0.99592  Biso   1.000  O 
  O5       1.0000 0.28787  0.14462  0.65836  Biso   1.000  O 
  O6       1.0000 0.29238  0.04988  0.15072  Biso   1.000  O 
  O7       1.0000 0.25740  0.34458  0.04286  Biso   1.000  O 
  O8       1.0000 0.26589  0.38891  0.51846  Biso   1.000  O 
  Hf5      1.0000 0.15029  0.50086  0.23721  Biso   1.000  Hf
  Hf6      1.0000 0.16321  0.71650  0.76767  Biso   1.000  Hf
  Hf7      1.0000 0.42450  0.75114  0.27772  Biso   1.000  Hf
  Hf8      1.0000 0.41310  0.49586  0.69925  Biso   1.000  Hf
  O9       1.0000 0.03239  0.65336  0.07262  Biso   1.000  O 
  O10      1.0000 0.05805  0.57185  0.57182  Biso   1.000  O 
  O11      1.0000 0.03325  0.81596  0.50140  Biso   1.000  O 
  O12      1.0000 0.05055  0.86963  0.97201  Biso   1.000  O 
  O13      1.0000 0.29310  0.63422  0.46526  Biso   1.000  O 
  O14      1.0000 0.27353  0.56132  0.94407  Biso   1.000  O 
  O15      1.0000 0.27364  0.81610  0.05738  Biso   1.000  O 
  O16      1.0000 0.27496  0.88077  0.58496  Biso   1.000  O 
  Hf9      1.0000 0.64369  0.01999  0.23344  Biso   1.000  Hf
  Hf10     1.0000 0.62229  0.23354  0.74056  Biso   1.000  Hf
  Hf11     1.0000 0.86447  0.26980  0.19705  Biso   1.000  Hf
  Hf12     1.0000 0.92411  0.97984  0.74164  Biso   1.000  Hf
  O17      1.0000 0.50262  0.15429  0.02296  Biso   1.000  O 
  O18      1.0000 0.51270  0.08921  0.52254  Biso   1.000  O 
  O19      1.0000 0.51527  0.34753  0.45521  Biso   1.000  O 
  O20      1.0000 0.52680  0.38567  0.93913  Biso   1.000  O 
  O21      1.0000 0.73729  0.17506  0.43007  Biso   1.000  O 
  O22      1.0000 0.75876  0.09623  0.94039  Biso   1.000  O 
  O23      1.0000 0.76963  0.34721  0.92214  Biso   1.000  O 
  O24      1.0000 0.77478  0.42245  0.41330  Biso   1.000  O 
  Hf13     1.0000 0.63275  0.49723  0.18642  Biso   1.000  Hf
  Hf14     1.0000 0.66644  0.74818  0.76360  Biso   1.000  Hf
  Hf15     1.0000 0.89058  0.75738  0.24131  Biso   1.000  Hf
  Hf16     1.0000 0.89320  0.49133  0.71107  Biso   1.000  Hf
  O25      1.0000 0.53133  0.63098  0.97824  Biso   1.000  O 
  O26      1.0000 0.54683  0.60295  0.47759  Biso   1.000  O 
  O27      1.0000 0.52082  0.84078  0.56860  Biso   1.000  O 
  O28      1.0000 0.53514  0.89819  0.05292  Biso   1.000  O 
  O29      1.0000 0.80804  0.65923  0.54173  Biso   1.000  O 
  O30      1.0000 0.76679  0.62016  0.01611  Biso   1.000  O 
  O31      1.0000 0.79818  0.85197  0.99284  Biso   1.000  O 
  O32      1.0000 0.77018  0.90076  0.49972  Biso   1.000  O 
  Au1      1.0000 0.10811  0.18021  0.23233  Biso   1.000  Au
