data_image0
_cell_length_a       10.1685
_cell_length_b       10.2953
_cell_length_c       10.5043
_cell_angle_alpha    90
_cell_angle_beta     80
_cell_angle_gamma    90

_symmetry_space_group_name_H-M    "P 1"
_symmetry_int_tables_number       1

loop_
  _symmetry_equiv_pos_as_xyz
  'x, y, z'

loop_
  _atom_site_label
  _atom_site_occupancy
  _atom_site_fract_x
  _atom_site_fract_y
  _atom_site_fract_z
  _atom_site_thermal_displace_type
  _atom_site_B_iso_or_equiv
  _atom_site_type_symbol
  Hf1      1.0000 0.13191  0.02085  0.14402  Biso   1.000  Hf
  Hf2      1.0000 0.13778  0.22693  0.39385  Biso   1.000  Hf
  Hf3      1.0000 0.35547  0.27408  0.09684  Biso   1.000  Hf
  Hf4      1.0000 0.36190  0.47760  0.34978  Biso   1.000  Hf
  O1       1.0000 0.03225  0.16791  0.07635  Biso   1.000  O 
  O2       1.0000 0.02954  0.08030  0.32987  Biso   1.000  O 
  O3       1.0000 0.45988  0.43047  0.15902  Biso   1.000  O 
  O4       1.0000 0.48833  0.37001  0.44851  Biso   1.000  O 
  O5       1.0000 0.26027  0.12714  0.23411  Biso   1.000  O 
  O6       1.0000 0.27202  0.11081  0.49196  Biso   1.000  O 
  O7       1.0000 0.22015  0.38209  0.00585  Biso   1.000  O 
  O8       1.0000 0.21410  0.37544  0.25597  Biso   1.000  O 
  Hf5      1.0000 0.13817  0.01754  0.64632  Biso   1.000  Hf
  Hf6      1.0000 0.13678  0.22587  0.89339  Biso   1.000  Hf
  Hf7      1.0000 0.36289  0.27393  0.60689  Biso   1.000  Hf
  Hf8      1.0000 0.36120  0.47691  0.85620  Biso   1.000  Hf
  O9       1.0000 0.03718  0.16582  0.57929  Biso   1.000  O 
  O10      1.0000 0.03344  0.07993  0.82779  Biso   1.000  O 
  O11      1.0000 0.46806  0.41107  0.68292  Biso   1.000  O 
  O12      1.0000 0.46544  0.32996  0.92121  Biso   1.000  O 
  O13      1.0000 0.27543  0.12725  0.73880  Biso   1.000  O 
  O14      1.0000 0.27340  0.11988  0.98629  Biso   1.000  O 
  O15      1.0000 0.22753  0.37335  0.50844  Biso   1.000  O 
  O16      1.0000 0.22466  0.36965  0.75862  Biso   1.000  O 
  Hf9      1.0000 0.13878  0.52289  0.14536  Biso   1.000  Hf
  Hf10     1.0000 0.13877  0.72619  0.39676  Biso   1.000  Hf
  Hf11     1.0000 0.36085  0.77303  0.10435  Biso   1.000  Hf
  Hf12     1.0000 0.36234  0.96571  0.35851  Biso   1.000  Hf
  O17      1.0000 0.03409  0.66896  0.07813  Biso   1.000  O 
  O18      1.0000 0.03436  0.58348  0.32758  Biso   1.000  O 
  O19      1.0000 0.46450  0.91970  0.17388  Biso   1.000  O 
  O20      1.0000 0.46146  0.82038  0.42238  Biso   1.000  O 
  O21      1.0000 0.27586  0.63002  0.24082  Biso   1.000  O 
  O22      1.0000 0.27453  0.61608  0.49066  Biso   1.000  O 
  O23      1.0000 0.22382  0.88032  0.01018  Biso   1.000  O 
  O24      1.0000 0.22362  0.86942  0.26131  Biso   1.000  O 
  Hf13     1.0000 0.13961  0.51923  0.64540  Biso   1.000  Hf
  Hf14     1.0000 0.13841  0.72627  0.89663  Biso   1.000  Hf
  Hf15     1.0000 0.36186  0.76593  0.60609  Biso   1.000  Hf
  Hf16     1.0000 0.36159  0.97695  0.85327  Biso   1.000  Hf
  O25      1.0000 0.03363  0.66382  0.57870  Biso   1.000  O 
  O26      1.0000 0.03542  0.58089  0.82810  Biso   1.000  O 
  O27      1.0000 0.46541  0.91439  0.66983  Biso   1.000  O 
  O28      1.0000 0.46565  0.83260  0.92166  Biso   1.000  O 
  O29      1.0000 0.27651  0.62515  0.74104  Biso   1.000  O 
  O30      1.0000 0.27688  0.62083  0.99136  Biso   1.000  O 
  O31      1.0000 0.22353  0.87170  0.51221  Biso   1.000  O 
  O32      1.0000 0.22465  0.86836  0.76076  Biso   1.000  O 
  Hf17     1.0000 0.63958  0.01899  0.14813  Biso   1.000  Hf
  Hf18     1.0000 0.65653  0.23313  0.40672  Biso   1.000  Hf
  Hf19     1.0000 0.85983  0.27323  0.10493  Biso   1.000  Hf
  Hf20     1.0000 0.86441  0.47885  0.35359  Biso   1.000  Hf
  O33      1.0000 0.53087  0.16139  0.07371  Biso   1.000  O 
  O34      1.0000 0.55693  0.04972  0.34856  Biso   1.000  O 
  O35      1.0000 0.96475  0.41908  0.16972  Biso   1.000  O 
  O36      1.0000 0.96540  0.33020  0.42151  Biso   1.000  O 
  O37      1.0000 0.77673  0.13093  0.24194  Biso   1.000  O 
  O38      1.0000 0.78177  0.11761  0.49523  Biso   1.000  O 
  O39      1.0000 0.72244  0.37913  0.01165  Biso   1.000  O 
  O40      1.0000 0.72538  0.37301  0.26239  Biso   1.000  O 
  Hf21     1.0000 0.63697  0.01911  0.64577  Biso   1.000  Hf
  Hf22     1.0000 0.63884  0.22483  0.89655  Biso   1.000  Hf
  Hf23     1.0000 0.86622  0.26871  0.60896  Biso   1.000  Hf
  Hf24     1.0000 0.86156  0.47660  0.85510  Biso   1.000  Hf
  O41      1.0000 0.53608  0.16761  0.57811  Biso   1.000  O 
  O42      1.0000 0.53329  0.08134  0.82592  Biso   1.000  O 
  O43      1.0000 0.96753  0.41550  0.67264  Biso   1.000  O 
  O44      1.0000 0.96384  0.33011  0.92065  Biso   1.000  O 
  O45      1.0000 0.77526  0.12632  0.74218  Biso   1.000  O 
  O46      1.0000 0.77563  0.11852  0.99188  Biso   1.000  O 
  O47      1.0000 0.73217  0.37680  0.51532  Biso   1.000  O 
  O48      1.0000 0.72594  0.36899  0.76264  Biso   1.000  O 
  Hf25     1.0000 0.63735  0.52410  0.14427  Biso   1.000  Hf
  Hf26     1.0000 0.64004  0.72424  0.39545  Biso   1.000  Hf
  Hf27     1.0000 0.86027  0.76993  0.10381  Biso   1.000  Hf
  Hf28     1.0000 0.86034  0.97509  0.35483  Biso   1.000  Hf
  O49      1.0000 0.53680  0.67395  0.07822  Biso   1.000  O 
  O50      1.0000 0.53357  0.58658  0.32225  Biso   1.000  O 
  O51      1.0000 0.96228  0.91621  0.17195  Biso   1.000  O 
  O52      1.0000 0.96490  0.83029  0.42193  Biso   1.000  O 
  O53      1.0000 0.77752  0.62719  0.24006  Biso   1.000  O 
  O54      1.0000 0.77564  0.61838  0.49014  Biso   1.000  O 
  O55      1.0000 0.72392  0.88073  0.01068  Biso   1.000  O 
  O56      1.0000 0.72517  0.86600  0.25846  Biso   1.000  O 
  Hf29     1.0000 0.63874  0.51897  0.64832  Biso   1.000  Hf
  Hf30     1.0000 0.63827  0.72767  0.89570  Biso   1.000  Hf
  Hf31     1.0000 0.86133  0.76945  0.60415  Biso   1.000  Hf
  Hf32     1.0000 0.86158  0.97611  0.85452  Biso   1.000  Hf
  O57      1.0000 0.53472  0.66171  0.57897  Biso   1.000  O 
  O58      1.0000 0.53453  0.58235  0.83015  Biso   1.000  O 
  O59      1.0000 0.96511  0.91479  0.67143  Biso   1.000  O 
  O60      1.0000 0.96541  0.83037  0.92123  Biso   1.000  O 
  O61      1.0000 0.77585  0.62664  0.73997  Biso   1.000  O 
  O62      1.0000 0.77585  0.61888  0.98947  Biso   1.000  O 
  O63      1.0000 0.72313  0.87562  0.51026  Biso   1.000  O 
  O64      1.0000 0.72403  0.86978  0.76011  Biso   1.000  O 
  Au1      1.0000 0.44004  0.21705  0.31251  Biso   1.000  Au
