data_image0
_cell_length_a       10.0215
_cell_length_b       10.2475
_cell_length_c       10.4366
_cell_angle_alpha    90
_cell_angle_beta     90
_cell_angle_gamma    90

_symmetry_space_group_name_H-M    "P 1"
_symmetry_int_tables_number       1

loop_
  _symmetry_equiv_pos_as_xyz
  'x, y, z'

loop_
  _atom_site_label
  _atom_site_occupancy
  _atom_site_fract_x
  _atom_site_fract_y
  _atom_site_fract_z
  _atom_site_thermal_displace_type
  _atom_site_B_iso_or_equiv
  _atom_site_type_symbol
  Au1      1.0000 0.12347  0.01685  0.19101  Biso   1.000  Au
  Hf1      1.0000 0.13617  0.23585  0.42169  Biso   1.000  Hf
  Hf2      1.0000 0.35923  0.27101  0.16607  Biso   1.000  Hf
  Hf3      1.0000 0.35897  0.48121  0.42025  Biso   1.000  Hf
  Hf4      1.0000 0.63960  0.02176  0.07814  Biso   1.000  Hf
  Hf5      1.0000 0.63468  0.23115  0.32886  Biso   1.000  Hf
  Hf6      1.0000 0.86466  0.26861  0.08237  Biso   1.000  Hf
  Hf7      1.0000 0.85871  0.48069  0.32923  Biso   1.000  Hf
  O1       1.0000 0.04329  0.16524  0.09224  Biso   1.000  O 
  O2       1.0000 0.02097  0.08539  0.36030  Biso   1.000  O 
  O3       1.0000 0.46753  0.41713  0.08429  Biso   1.000  O 
  O4       1.0000 0.46144  0.33169  0.33574  Biso   1.000  O 
  O5       1.0000 0.26933  0.12170  0.28675  Biso   1.000  O 
  O6       1.0000 0.29667  0.14061  0.02833  Biso   1.000  O 
  O7       1.0000 0.22185  0.37533  0.29402  Biso   1.000  O 
  O8       1.0000 0.22209  0.38007  0.04419  Biso   1.000  O 
  O9       1.0000 0.53499  0.16894  0.16368  Biso   1.000  O 
  O10      1.0000 0.52952  0.08319  0.41366  Biso   1.000  O 
  O11      1.0000 0.96523  0.41876  0.16567  Biso   1.000  O 
  O12      1.0000 0.96258  0.33658  0.41749  Biso   1.000  O 
  O13      1.0000 0.76991  0.12565  0.45830  Biso   1.000  O 
  O14      1.0000 0.77589  0.12690  0.20840  Biso   1.000  O 
  O15      1.0000 0.71994  0.37600  0.45592  Biso   1.000  O 
  O16      1.0000 0.72345  0.37577  0.20601  Biso   1.000  O 
  Hf8      1.0000 0.13295  0.02310  0.66779  Biso   1.000  Hf
  Hf9      1.0000 0.13788  0.22805  0.92119  Biso   1.000  Hf
  Hf10     1.0000 0.35714  0.27343  0.67051  Biso   1.000  Hf
  Hf11     1.0000 0.35536  0.48154  0.92077  Biso   1.000  Hf
  Hf12     1.0000 0.63246  0.02334  0.58081  Biso   1.000  Hf
  Hf13     1.0000 0.63422  0.23192  0.82985  Biso   1.000  Hf
  Hf14     1.0000 0.85658  0.27361  0.58058  Biso   1.000  Hf
  Hf15     1.0000 0.85903  0.47960  0.83151  Biso   1.000  Hf
  O17      1.0000 0.03186  0.17511  0.58935  Biso   1.000  O 
  O18      1.0000 0.03023  0.08325  0.83548  Biso   1.000  O 
  O19      1.0000 0.46244  0.42012  0.58455  Biso   1.000  O 
  O20      1.0000 0.46195  0.33591  0.83395  Biso   1.000  O 
  O21      1.0000 0.27081  0.12450  0.78727  Biso   1.000  O 
  O22      1.0000 0.27328  0.12971  0.53906  Biso   1.000  O 
  O23      1.0000 0.21947  0.37493  0.79472  Biso   1.000  O 
  O24      1.0000 0.21966  0.37937  0.54473  Biso   1.000  O 
  O25      1.0000 0.52976  0.17061  0.66398  Biso   1.000  O 
  O26      1.0000 0.53234  0.08315  0.91155  Biso   1.000  O 
  O27      1.0000 0.96213  0.41920  0.66757  Biso   1.000  O 
  O28      1.0000 0.96235  0.33202  0.92026  Biso   1.000  O 
  O29      1.0000 0.77304  0.12673  0.95716  Biso   1.000  O 
  O30      1.0000 0.77179  0.12895  0.70666  Biso   1.000  O 
  O31      1.0000 0.71944  0.37575  0.95728  Biso   1.000  O 
  O32      1.0000 0.71993  0.37873  0.70649  Biso   1.000  O 
  Hf16     1.0000 0.13881  0.52227  0.17041  Biso   1.000  Hf
  Hf17     1.0000 0.13419  0.72859  0.42153  Biso   1.000  Hf
  Hf18     1.0000 0.36188  0.77278  0.16615  Biso   1.000  Hf
  Hf19     1.0000 0.36063  0.98041  0.41982  Biso   1.000  Hf
  Hf20     1.0000 0.64009  0.52023  0.07813  Biso   1.000  Hf
  Hf21     1.0000 0.63607  0.72919  0.32755  Biso   1.000  Hf
  Hf22     1.0000 0.86287  0.76917  0.07707  Biso   1.000  Hf
  Hf23     1.0000 0.85333  0.97960  0.33425  Biso   1.000  Hf
  O33      1.0000 0.03749  0.67155  0.08689  Biso   1.000  O 
  O34      1.0000 0.03238  0.58244  0.33591  Biso   1.000  O 
  O35      1.0000 0.47186  0.91756  0.08404  Biso   1.000  O 
  O36      1.0000 0.46174  0.83289  0.33371  Biso   1.000  O 
  O37      1.0000 0.27463  0.62749  0.29409  Biso   1.000  O 
  O38      1.0000 0.27898  0.62517  0.04393  Biso   1.000  O 
  O39      1.0000 0.21781  0.87417  0.29017  Biso   1.000  O 
  O40      1.0000 0.23384  0.87294  0.03708  Biso   1.000  O 
  O41      1.0000 0.53423  0.66744  0.16323  Biso   1.000  O 
  O42      1.0000 0.53175  0.58344  0.41348  Biso   1.000  O 
  O43      1.0000 0.95705  0.92459  0.16251  Biso   1.000  O 
  O44      1.0000 0.96115  0.83142  0.41308  Biso   1.000  O 
  O45      1.0000 0.77339  0.62573  0.45558  Biso   1.000  O 
  O46      1.0000 0.77584  0.62664  0.20522  Biso   1.000  O 
  O47      1.0000 0.71838  0.87501  0.45618  Biso   1.000  O 
  O48      1.0000 0.72497  0.87562  0.20563  Biso   1.000  O 
  Hf24     1.0000 0.13497  0.52295  0.67266  Biso   1.000  Hf
  Hf25     1.0000 0.13577  0.73424  0.92011  Biso   1.000  Hf
  Hf26     1.0000 0.35772  0.77320  0.67012  Biso   1.000  Hf
  Hf27     1.0000 0.35751  0.98370  0.92009  Biso   1.000  Hf
  Hf28     1.0000 0.63570  0.52283  0.57944  Biso   1.000  Hf
  Hf29     1.0000 0.63444  0.73188  0.82833  Biso   1.000  Hf
  Hf30     1.0000 0.85743  0.77230  0.57994  Biso   1.000  Hf
  Hf31     1.0000 0.85919  0.98238  0.82955  Biso   1.000  Hf
  O49      1.0000 0.03048  0.66928  0.58624  Biso   1.000  O 
  O50      1.0000 0.03114  0.58311  0.83769  Biso   1.000  O 
  O51      1.0000 0.46262  0.91977  0.58415  Biso   1.000  O 
  O52      1.0000 0.46263  0.83563  0.83290  Biso   1.000  O 
  O53      1.0000 0.27285  0.62631  0.79380  Biso   1.000  O 
  O54      1.0000 0.27272  0.62749  0.54434  Biso   1.000  O 
  O55      1.0000 0.21927  0.87580  0.79051  Biso   1.000  O 
  O56      1.0000 0.22103  0.87825  0.54093  Biso   1.000  O 
  O57      1.0000 0.53111  0.66997  0.66339  Biso   1.000  O 
  O58      1.0000 0.52917  0.58535  0.91395  Biso   1.000  O 
  O59      1.0000 0.96185  0.92110  0.66248  Biso   1.000  O 
  O60      1.0000 0.96101  0.83357  0.91327  Biso   1.000  O 
  O61      1.0000 0.77213  0.62596  0.95610  Biso   1.000  O 
  O62      1.0000 0.77372  0.62787  0.70656  Biso   1.000  O 
  O63      1.0000 0.71938  0.87647  0.95499  Biso   1.000  O 
  O64      1.0000 0.72054  0.87863  0.70553  Biso   1.000  O 
