data_image0
_cell_length_a       9.93377
_cell_length_b       5.19011
_cell_length_c       10.0305
_cell_angle_alpha    90
_cell_angle_beta     90
_cell_angle_gamma    90

_symmetry_space_group_name_H-M    "P 1"
_symmetry_int_tables_number       1

loop_
  _symmetry_equiv_pos_as_xyz
  'x, y, z'

loop_
  _atom_site_label
  _atom_site_occupancy
  _atom_site_fract_x
  _atom_site_fract_y
  _atom_site_fract_z
  _atom_site_thermal_displace_type
  _atom_site_B_iso_or_equiv
  _atom_site_type_symbol
  Au1      1.0000 0.12232  0.05041  0.10567  Biso   1.000  Au
  Hf1      1.0000 0.14779  0.45978  0.38019  Biso   1.000  Hf
  Hf2      1.0000 0.36902  0.53291  0.13461  Biso   1.000  Hf
  Hf3      1.0000 0.37033  0.96335  0.37859  Biso   1.000  Hf
  O1       1.0000 0.04223  0.36121  0.19196  Biso   1.000  O 
  O2       1.0000 0.04662  0.12513  0.44835  Biso   1.000  O 
  O3       1.0000 0.47312  0.86371  0.19823  Biso   1.000  O 
  O4       1.0000 0.47562  0.63210  0.45102  Biso   1.000  O 
  O5       1.0000 0.28829  0.24705  0.25956  Biso   1.000  O 
  O6       1.0000 0.28086  0.25829  0.50751  Biso   1.000  O 
  O7       1.0000 0.23745  0.75909  0.50813  Biso   1.000  O 
  O8       1.0000 0.24476  0.72151  0.26263  Biso   1.000  O 
  Hf4      1.0000 0.14395  0.03432  0.63289  Biso   1.000  Hf
  Hf5      1.0000 0.14737  0.47145  0.87472  Biso   1.000  Hf
  Hf6      1.0000 0.37744  0.53192  0.62962  Biso   1.000  Hf
  Hf7      1.0000 0.38095  0.96263  0.87994  Biso   1.000  Hf
  O9       1.0000 0.05175  0.38064  0.68861  Biso   1.000  O 
  O10      1.0000 0.05125  0.12230  0.90257  Biso   1.000  O 
  O11      1.0000 0.47558  0.86661  0.69858  Biso   1.000  O 
  O12      1.0000 0.47001  0.61660  0.94212  Biso   1.000  O 
  O13      1.0000 0.28651  0.23912  0.75599  Biso   1.000  O 
  O14      1.0000 0.26223  0.26240  0.00685  Biso   1.000  O 
  O15      1.0000 0.22515  0.76749  0.01011  Biso   1.000  O 
  O16      1.0000 0.24161  0.73929  0.75587  Biso   1.000  O 
  Hf8      1.0000 0.63854  0.03183  0.12930  Biso   1.000  Hf
  Hf9      1.0000 0.64190  0.46629  0.37561  Biso   1.000  Hf
  Hf10     1.0000 0.86761  0.52954  0.12295  Biso   1.000  Hf
  Hf11     1.0000 0.87971  0.96716  0.37588  Biso   1.000  Hf
  O17      1.0000 0.54625  0.37234  0.19320  Biso   1.000  O 
  O18      1.0000 0.54466  0.13050  0.44326  Biso   1.000  O 
  O19      1.0000 0.97228  0.86098  0.18987  Biso   1.000  O 
  O20      1.0000 0.97164  0.62369  0.43771  Biso   1.000  O 
  O21      1.0000 0.77883  0.23246  0.24891  Biso   1.000  O 
  O22      1.0000 0.77898  0.26214  0.49742  Biso   1.000  O 
  O23      1.0000 0.74095  0.76363  0.49809  Biso   1.000  O 
  O24      1.0000 0.74122  0.73563  0.24931  Biso   1.000  O 
  Hf12     1.0000 0.64193  0.02905  0.62233  Biso   1.000  Hf
  Hf13     1.0000 0.64584  0.45643  0.87633  Biso   1.000  Hf
  Hf14     1.0000 0.87641  0.52764  0.62045  Biso   1.000  Hf
  Hf15     1.0000 0.87291  0.95328  0.86875  Biso   1.000  Hf
  O25      1.0000 0.54791  0.36394  0.69572  Biso   1.000  O 
  O26      1.0000 0.55064  0.12234  0.94816  Biso   1.000  O 
  O27      1.0000 0.97026  0.86584  0.68550  Biso   1.000  O 
  O28      1.0000 0.97628  0.62641  0.94174  Biso   1.000  O 
  O29      1.0000 0.78041  0.22920  0.74695  Biso   1.000  O 
  O30      1.0000 0.78997  0.25040  0.99732  Biso   1.000  O 
  O31      1.0000 0.74055  0.74793  0.99984  Biso   1.000  O 
  O32      1.0000 0.73939  0.72652  0.74829  Biso   1.000  O 
