data_image0
_cell_length_a       10.229
_cell_length_b       10.3363
_cell_length_c       5.26666
_cell_angle_alpha    90
_cell_angle_beta     80
_cell_angle_gamma    90

_symmetry_space_group_name_H-M    "P 1"
_symmetry_int_tables_number       1

loop_
  _symmetry_equiv_pos_as_xyz
  'x, y, z'

loop_
  _atom_site_label
  _atom_site_occupancy
  _atom_site_fract_x
  _atom_site_fract_y
  _atom_site_fract_z
  _atom_site_thermal_displace_type
  _atom_site_B_iso_or_equiv
  _atom_site_type_symbol
  Hf1      1.0000 0.13217  0.01877  0.28923  Biso   1.000  Hf
  Hf2      1.0000 0.13812  0.22597  0.78212  Biso   1.000  Hf
  Hf3      1.0000 0.35858  0.27853  0.19493  Biso   1.000  Hf
  Hf4      1.0000 0.36366  0.47803  0.70425  Biso   1.000  Hf
  O1       1.0000 0.03354  0.16690  0.15296  Biso   1.000  O 
  O2       1.0000 0.02930  0.08071  0.65605  Biso   1.000  O 
  O3       1.0000 0.46540  0.42343  0.34526  Biso   1.000  O 
  O4       1.0000 0.49180  0.37295  0.89274  Biso   1.000  O 
  O5       1.0000 0.26070  0.12840  0.46327  Biso   1.000  O 
  O6       1.0000 0.26863  0.10978  0.97613  Biso   1.000  O 
  O7       1.0000 0.22254  0.37918  0.00948  Biso   1.000  O 
  O8       1.0000 0.21807  0.37553  0.50703  Biso   1.000  O 
  Hf5      1.0000 0.14027  0.52251  0.29020  Biso   1.000  Hf
  Hf6      1.0000 0.14048  0.72585  0.79461  Biso   1.000  Hf
  Hf7      1.0000 0.36216  0.76877  0.21207  Biso   1.000  Hf
  Hf8      1.0000 0.36451  0.96505  0.71482  Biso   1.000  Hf
  O9       1.0000 0.03285  0.66634  0.15492  Biso   1.000  O 
  O10      1.0000 0.03641  0.58431  0.65302  Biso   1.000  O 
  O11      1.0000 0.46614  0.91784  0.34395  Biso   1.000  O 
  O12      1.0000 0.46466  0.82246  0.84583  Biso   1.000  O 
  O13      1.0000 0.27716  0.62815  0.48267  Biso   1.000  O 
  O14      1.0000 0.27760  0.61795  0.98300  Biso   1.000  O 
  O15      1.0000 0.22393  0.87408  0.02558  Biso   1.000  O 
  O16      1.0000 0.22637  0.86852  0.52410  Biso   1.000  O 
  Hf9      1.0000 0.63810  0.01791  0.29630  Biso   1.000  Hf
  Hf10     1.0000 0.65883  0.23276  0.81452  Biso   1.000  Hf
  Hf11     1.0000 0.86573  0.27229  0.21919  Biso   1.000  Hf
  Hf12     1.0000 0.86706  0.47889  0.70885  Biso   1.000  Hf
  O17      1.0000 0.53157  0.16541  0.14866  Biso   1.000  O 
  O18      1.0000 0.55730  0.04792  0.69052  Biso   1.000  O 
  O19      1.0000 0.96823  0.41845  0.34316  Biso   1.000  O 
  O20      1.0000 0.96699  0.33046  0.84172  Biso   1.000  O 
  O21      1.0000 0.77658  0.13068  0.48795  Biso   1.000  O 
  O22      1.0000 0.78214  0.11722  0.99308  Biso   1.000  O 
  O23      1.0000 0.73095  0.37873  0.03420  Biso   1.000  O 
  O24      1.0000 0.72953  0.37299  0.53039  Biso   1.000  O 
  Hf13     1.0000 0.63884  0.52401  0.29384  Biso   1.000  Hf
  Hf14     1.0000 0.64183  0.72518  0.78988  Biso   1.000  Hf
  Hf15     1.0000 0.86154  0.77005  0.20747  Biso   1.000  Hf
  Hf16     1.0000 0.86314  0.97501  0.70936  Biso   1.000  Hf
  O25      1.0000 0.53639  0.66825  0.15457  Biso   1.000  O 
  O26      1.0000 0.53470  0.59014  0.64452  Biso   1.000  O 
  O27      1.0000 0.96401  0.91478  0.34505  Biso   1.000  O 
  O28      1.0000 0.96820  0.83113  0.84395  Biso   1.000  O 
  O29      1.0000 0.77854  0.62699  0.47955  Biso   1.000  O 
  O30      1.0000 0.77790  0.61841  0.97829  Biso   1.000  O 
  O31      1.0000 0.72392  0.87928  0.02253  Biso   1.000  O 
  O32      1.0000 0.72775  0.86668  0.51676  Biso   1.000  O 
  Au1      1.0000 0.44085  0.21432  0.62932  Biso   1.000  Au
