data_image0
_cell_length_a       10.111
_cell_length_b       10.3064
_cell_length_c       5.26502
_cell_angle_alpha    90
_cell_angle_beta     90
_cell_angle_gamma    90

_symmetry_space_group_name_H-M    "P 1"
_symmetry_int_tables_number       1

loop_
  _symmetry_equiv_pos_as_xyz
  'x, y, z'

loop_
  _atom_site_label
  _atom_site_occupancy
  _atom_site_fract_x
  _atom_site_fract_y
  _atom_site_fract_z
  _atom_site_thermal_displace_type
  _atom_site_B_iso_or_equiv
  _atom_site_type_symbol
  Hf1      1.0000 0.13546  0.01873  0.34753  Biso   1.000  Hf
  Hf2      1.0000 0.13256  0.22837  0.85319  Biso   1.000  Hf
  Hf3      1.0000 0.34562  0.26598  0.36923  Biso   1.000  Hf
  Hf4      1.0000 0.35917  0.48523  0.84582  Biso   1.000  Hf
  Hf5      1.0000 0.63963  0.01871  0.14960  Biso   1.000  Hf
  Hf6      1.0000 0.63804  0.22186  0.63360  Biso   1.000  Hf
  Hf7      1.0000 0.86452  0.27280  0.15572  Biso   1.000  Hf
  Hf8      1.0000 0.86592  0.48361  0.65957  Biso   1.000  Hf
  O1       1.0000 0.03282  0.16292  0.16833  Biso   1.000  O 
  O2       1.0000 0.02952  0.08512  0.66625  Biso   1.000  O 
  O3       1.0000 0.45054  0.44808  0.20630  Biso   1.000  O 
  O4       1.0000 0.46780  0.33712  0.65601  Biso   1.000  O 
  O5       1.0000 0.26691  0.12560  0.60276  Biso   1.000  O 
  O6       1.0000 0.27501  0.12121  0.10053  Biso   1.000  O 
  O7       1.0000 0.22074  0.37560  0.60210  Biso   1.000  O 
  O8       1.0000 0.22655  0.37238  0.09783  Biso   1.000  O 
  O9       1.0000 0.51134  0.12427  0.39071  Biso   1.000  O 
  O10      1.0000 0.52702  0.07881  0.83537  Biso   1.000  O 
  O11      1.0000 0.97148  0.41399  0.33814  Biso   1.000  O 
  O12      1.0000 0.96916  0.33799  0.83747  Biso   1.000  O 
  O13      1.0000 0.77732  0.12547  0.88945  Biso   1.000  O 
  O14      1.0000 0.77640  0.12425  0.39588  Biso   1.000  O 
  O15      1.0000 0.73934  0.39109  0.91827  Biso   1.000  O 
  O16      1.0000 0.73136  0.38037  0.42577  Biso   1.000  O 
  Hf9      1.0000 0.14069  0.52137  0.34187  Biso   1.000  Hf
  Hf10     1.0000 0.13715  0.73178  0.84335  Biso   1.000  Hf
  Hf11     1.0000 0.36462  0.77142  0.34503  Biso   1.000  Hf
  Hf12     1.0000 0.36052  0.97691  0.84923  Biso   1.000  Hf
  Hf13     1.0000 0.64430  0.53051  0.16180  Biso   1.000  Hf
  Hf14     1.0000 0.63981  0.73362  0.65701  Biso   1.000  Hf
  Hf15     1.0000 0.86659  0.77185  0.15778  Biso   1.000  Hf
  Hf16     1.0000 0.86384  0.97959  0.65637  Biso   1.000  Hf
  O17      1.0000 0.03583  0.66310  0.16284  Biso   1.000  O 
  O18      1.0000 0.03607  0.58891  0.66185  Biso   1.000  O 
  O19      1.0000 0.47325  0.90615  0.15654  Biso   1.000  O 
  O20      1.0000 0.46681  0.83478  0.66583  Biso   1.000  O 
  O21      1.0000 0.27770  0.62433  0.58947  Biso   1.000  O 
  O22      1.0000 0.27703  0.62663  0.08583  Biso   1.000  O 
  O23      1.0000 0.22590  0.87443  0.59356  Biso   1.000  O 
  O24      1.0000 0.22758  0.87424  0.09522  Biso   1.000  O 
  O25      1.0000 0.53980  0.67357  0.33371  Biso   1.000  O 
  O26      1.0000 0.53310  0.58533  0.83297  Biso   1.000  O 
  O27      1.0000 0.97152  0.91375  0.33531  Biso   1.000  O 
  O28      1.0000 0.96732  0.83769  0.83747  Biso   1.000  O 
  O29      1.0000 0.77392  0.63306  0.90916  Biso   1.000  O 
  O30      1.0000 0.78012  0.62868  0.41019  Biso   1.000  O 
  O31      1.0000 0.72470  0.87799  0.91138  Biso   1.000  O 
  O32      1.0000 0.72893  0.87599  0.41212  Biso   1.000  O 
  Au1      1.0000 0.56267  0.28057  0.09681  Biso   1.000  Au
