data_image0
_cell_length_a       10.0725
_cell_length_b       10.5118
_cell_length_c       5.08545
_cell_angle_alpha    90
_cell_angle_beta     90
_cell_angle_gamma    90

_symmetry_space_group_name_H-M    "P 1"
_symmetry_int_tables_number       1

loop_
  _symmetry_equiv_pos_as_xyz
  'x, y, z'

loop_
  _atom_site_label
  _atom_site_occupancy
  _atom_site_fract_x
  _atom_site_fract_y
  _atom_site_fract_z
  _atom_site_thermal_displace_type
  _atom_site_B_iso_or_equiv
  _atom_site_type_symbol
  Hf1      1.0000 0.14997  0.01396  0.29323  Biso   1.000  Hf
  Hf2      1.0000 0.16476  0.21150  0.81290  Biso   1.000  Hf
  Hf3      1.0000 0.37964  0.26541  0.26362  Biso   1.000  Hf
  Hf4      1.0000 0.39209  0.48353  0.74839  Biso   1.000  Hf
  O1       1.0000 0.06325  0.06579  0.65559  Biso   1.000  O 
  O2       1.0000 0.01338  0.12664  0.11264  Biso   1.000  O 
  O3       1.0000 0.48642  0.42711  0.40079  Biso   1.000  O 
  O4       1.0000 0.49754  0.31300  0.89505  Biso   1.000  O 
  O5       1.0000 0.29811  0.10908  0.52055  Biso   1.000  O 
  O6       1.0000 0.28030  0.12213  0.02577  Biso   1.000  O 
  O7       1.0000 0.25453  0.40097  0.05320  Biso   1.000  O 
  O8       1.0000 0.27606  0.34248  0.58060  Biso   1.000  O 
  Hf5      1.0000 0.13148  0.54134  0.21210  Biso   1.000  Hf
  Hf6      1.0000 0.15465  0.73579  0.73451  Biso   1.000  Hf
  Hf7      1.0000 0.37833  0.76067  0.23989  Biso   1.000  Hf
  Hf8      1.0000 0.38938  0.97472  0.75289  Biso   1.000  Hf
  O9       1.0000 0.04374  0.69448  0.37737  Biso   1.000  O 
  O10      1.0000 0.05687  0.57005  0.86182  Biso   1.000  O 
  O11      1.0000 0.47883  0.92581  0.37765  Biso   1.000  O 
  O12      1.0000 0.49116  0.81134  0.88429  Biso   1.000  O 
  O13      1.0000 0.27863  0.60812  0.47715  Biso   1.000  O 
  O14      1.0000 0.29469  0.63953  0.97131  Biso   1.000  O 
  O15      1.0000 0.22281  0.88545  0.00195  Biso   1.000  O 
  O16      1.0000 0.25340  0.85956  0.49801  Biso   1.000  O 
  Hf9      1.0000 0.63795  0.01144  0.21854  Biso   1.000  Hf
  Hf10     1.0000 0.64815  0.22862  0.71470  Biso   1.000  Hf
  Hf11     1.0000 0.85083  0.25914  0.17725  Biso   1.000  Hf
  Hf12     1.0000 0.88526  0.48287  0.71956  Biso   1.000  Hf
  O17      1.0000 0.55024  0.17899  0.36921  Biso   1.000  O 
  O18      1.0000 0.56057  0.05865  0.86955  Biso   1.000  O 
  O19      1.0000 0.95626  0.45933  0.33496  Biso   1.000  O 
  O20      1.0000 0.99390  0.32390  0.84817  Biso   1.000  O 
  O21      1.0000 0.78381  0.10958  0.44004  Biso   1.000  O 
  O22      1.0000 0.79050  0.12646  0.93396  Biso   1.000  O 
  O23      1.0000 0.75535  0.37711  0.96649  Biso   1.000  O 
  O24      1.0000 0.74490  0.36212  0.47227  Biso   1.000  O 
  Hf13     1.0000 0.64221  0.51509  0.23835  Biso   1.000  Hf
  Hf14     1.0000 0.65619  0.72761  0.73711  Biso   1.000  Hf
  Hf15     1.0000 0.87080  0.76576  0.21664  Biso   1.000  Hf
  Hf16     1.0000 0.88296  0.97565  0.69218  Biso   1.000  Hf
  O25      1.0000 0.54173  0.67715  0.39605  Biso   1.000  O 
  O26      1.0000 0.55898  0.56533  0.90223  Biso   1.000  O 
  O27      1.0000 0.97061  0.91869  0.34603  Biso   1.000  O 
  O28      1.0000 0.98739  0.82037  0.85741  Biso   1.000  O 
  O29      1.0000 0.77800  0.61530  0.47700  Biso   1.000  O 
  O30      1.0000 0.79703  0.62599  0.97022  Biso   1.000  O 
  O31      1.0000 0.75546  0.87341  0.97248  Biso   1.000  O 
  O32      1.0000 0.74098  0.86253  0.47491  Biso   1.000  O 
  Au1      1.0000 0.08920  0.29621  0.35319  Biso   1.000  Au
