data_image0
_cell_length_a       5.07383
_cell_length_b       10.1565
_cell_length_c       10.0662
_cell_angle_alpha    90
_cell_angle_beta     90
_cell_angle_gamma    90

_symmetry_space_group_name_H-M    "P 1"
_symmetry_int_tables_number       1

loop_
  _symmetry_equiv_pos_as_xyz
  'x, y, z'

loop_
  _atom_site_label
  _atom_site_occupancy
  _atom_site_fract_x
  _atom_site_fract_y
  _atom_site_fract_z
  _atom_site_thermal_displace_type
  _atom_site_B_iso_or_equiv
  _atom_site_type_symbol
  Au1      1.0000 0.22056  0.01676  0.11102  Biso   1.000  Au
  Hf1      1.0000 0.20168  0.24762  0.38524  Biso   1.000  Hf
  Hf2      1.0000 0.71233  0.25952  0.13840  Biso   1.000  Hf
  Hf3      1.0000 0.67125  0.98788  0.35296  Biso   1.000  Hf
  O1       1.0000 0.00492  0.15106  0.01180  Biso   1.000  O 
  O2       1.0000 0.88662  0.13464  0.28009  Biso   1.000  O 
  O3       1.0000 0.99510  0.37015  0.26549  Biso   1.000  O 
  O4       1.0000 0.88732  0.40842  0.03296  Biso   1.000  O 
  O5       1.0000 0.39744  0.13241  0.24348  Biso   1.000  O 
  O6       1.0000 0.40665  0.10895  0.99436  Biso   1.000  O 
  O7       1.0000 0.38622  0.33868  0.03486  Biso   1.000  O 
  O8       1.0000 0.49040  0.38362  0.26877  Biso   1.000  O 
  Hf4      1.0000 0.20146  0.99531  0.61904  Biso   1.000  Hf
  Hf5      1.0000 0.15024  0.24101  0.86550  Biso   1.000  Hf
  Hf6      1.0000 0.69648  0.23783  0.62185  Biso   1.000  Hf
  Hf7      1.0000 0.65062  0.00088  0.87458  Biso   1.000  Hf
  O9       1.0000 0.00247  0.15350  0.52823  Biso   1.000  O 
  O10      1.0000 0.93653  0.08959  0.75761  Biso   1.000  O 
  O11      1.0000 0.83595  0.33909  0.78275  Biso   1.000  O 
  O12      1.0000 0.92657  0.39545  0.51961  Biso   1.000  O 
  O13      1.0000 0.42141  0.14742  0.74717  Biso   1.000  O 
  O14      1.0000 0.48227  0.10303  0.49364  Biso   1.000  O 
  O15      1.0000 0.42441  0.35392  0.52343  Biso   1.000  O 
  O16      1.0000 0.33701  0.40542  0.78004  Biso   1.000  O 
  Hf8      1.0000 0.21234  0.49229  0.13108  Biso   1.000  Hf
  Hf9      1.0000 0.17043  0.76078  0.35438  Biso   1.000  Hf
  Hf10     1.0000 0.69723  0.73094  0.12097  Biso   1.000  Hf
  Hf11     1.0000 0.72328  0.50110  0.38087  Biso   1.000  Hf
  O17      1.0000 0.86911  0.64445  0.99717  Biso   1.000  O 
  O18      1.0000 0.93585  0.61232  0.24739  Biso   1.000  O 
  O19      1.0000 0.92017  0.86209  0.23269  Biso   1.000  O 
  O20      1.0000 0.95613  0.89909  0.97007  Biso   1.000  O 
  O21      1.0000 0.43539  0.63719  0.25108  Biso   1.000  O 
  O22      1.0000 0.48489  0.59293  0.00099  Biso   1.000  O 
  O23      1.0000 0.45895  0.83814  0.95818  Biso   1.000  O 
  O24      1.0000 0.42980  0.88279  0.21621  Biso   1.000  O 
  Hf12     1.0000 0.20892  0.51100  0.61866  Biso   1.000  Hf
  Hf13     1.0000 0.14623  0.73536  0.87584  Biso   1.000  Hf
  Hf14     1.0000 0.70048  0.75256  0.61535  Biso   1.000  Hf
  Hf15     1.0000 0.64635  0.50578  0.86564  Biso   1.000  Hf
  O25      1.0000 0.98708  0.64789  0.49489  Biso   1.000  O 
  O26      1.0000 0.92056  0.59640  0.74590  Biso   1.000  O 
  O27      1.0000 0.01967  0.83748  0.71685  Biso   1.000  O 
  O28      1.0000 0.94593  0.90342  0.47908  Biso   1.000  O 
  O29      1.0000 0.43258  0.65346  0.74725  Biso   1.000  O 
  O30      1.0000 0.49548  0.60001  0.51061  Biso   1.000  O 
  O31      1.0000 0.44691  0.84721  0.47276  Biso   1.000  O 
  O32      1.0000 0.52670  0.91013  0.70942  Biso   1.000  O 
