data_image0
_cell_length_a       10.1355
_cell_length_b       10.2997
_cell_length_c       10.452
_cell_angle_alpha    90
_cell_angle_beta     80
_cell_angle_gamma    90

_symmetry_space_group_name_H-M    "P 1"
_symmetry_int_tables_number       1

loop_
  _symmetry_equiv_pos_as_xyz
  'x, y, z'

loop_
  _atom_site_label
  _atom_site_occupancy
  _atom_site_fract_x
  _atom_site_fract_y
  _atom_site_fract_z
  _atom_site_thermal_displace_type
  _atom_site_B_iso_or_equiv
  _atom_site_type_symbol
  Hf1      1.0000 0.13246  0.01951  0.14168  Biso   1.000  Hf
  Hf2      1.0000 0.13883  0.23371  0.38792  Biso   1.000  Hf
  Hf3      1.0000 0.36184  0.26757  0.11972  Biso   1.000  Hf
  Hf4      1.0000 0.34867  0.47829  0.34783  Biso   1.000  Hf
  O1       1.0000 0.03298  0.17052  0.08031  Biso   1.000  O 
  O2       1.0000 0.03059  0.08195  0.32937  Biso   1.000  O 
  O3       1.0000 0.45434  0.43238  0.16305  Biso   1.000  O 
  O4       1.0000 0.46820  0.33337  0.42613  Biso   1.000  O 
  O5       1.0000 0.26352  0.11731  0.23452  Biso   1.000  O 
  O6       1.0000 0.31734  0.15363  0.45383  Biso   1.000  O 
  O7       1.0000 0.22170  0.37814  0.01024  Biso   1.000  O 
  O8       1.0000 0.19717  0.37994  0.25524  Biso   1.000  O 
  Hf5      1.0000 0.12376  0.01634  0.65569  Biso   1.000  Hf
  Hf6      1.0000 0.13277  0.23029  0.89972  Biso   1.000  Hf
  Hf7      1.0000 0.35707  0.27543  0.61607  Biso   1.000  Hf
  Hf8      1.0000 0.35493  0.47728  0.86151  Biso   1.000  Hf
  O9       1.0000 0.04636  0.16906  0.57590  Biso   1.000  O 
  O10      1.0000 0.02729  0.07971  0.83574  Biso   1.000  O 
  O11      1.0000 0.46075  0.41940  0.67533  Biso   1.000  O 
  O12      1.0000 0.45714  0.32942  0.92537  Biso   1.000  O 
  O13      1.0000 0.26907  0.12769  0.73533  Biso   1.000  O 
  O14      1.0000 0.26821  0.12010  0.98853  Biso   1.000  O 
  O15      1.0000 0.22269  0.38192  0.51487  Biso   1.000  O 
  O16      1.0000 0.21891  0.37217  0.76421  Biso   1.000  O 
  Hf9      1.0000 0.13409  0.52171  0.14206  Biso   1.000  Hf
  Hf10     1.0000 0.13202  0.72904  0.39524  Biso   1.000  Hf
  Hf11     1.0000 0.35699  0.77053  0.10390  Biso   1.000  Hf
  Hf12     1.0000 0.36091  0.97549  0.34793  Biso   1.000  Hf
  O17      1.0000 0.03129  0.67135  0.07861  Biso   1.000  O 
  O18      1.0000 0.02797  0.58593  0.32924  Biso   1.000  O 
  O19      1.0000 0.46173  0.91931  0.16832  Biso   1.000  O 
  O20      1.0000 0.45635  0.82585  0.41813  Biso   1.000  O 
  O21      1.0000 0.27000  0.62954  0.24004  Biso   1.000  O 
  O22      1.0000 0.26783  0.62538  0.49006  Biso   1.000  O 
  O23      1.0000 0.22090  0.87752  0.00821  Biso   1.000  O 
  O24      1.0000 0.21959  0.86777  0.25842  Biso   1.000  O 
  Hf13     1.0000 0.13433  0.52441  0.64701  Biso   1.000  Hf
  Hf14     1.0000 0.12944  0.72886  0.89667  Biso   1.000  Hf
  Hf15     1.0000 0.35559  0.77198  0.60391  Biso   1.000  Hf
  Hf16     1.0000 0.35320  0.97830  0.85514  Biso   1.000  Hf
  O25      1.0000 0.02943  0.67184  0.58247  Biso   1.000  O 
  O26      1.0000 0.02843  0.58054  0.83168  Biso   1.000  O 
  O27      1.0000 0.45714  0.91989  0.66998  Biso   1.000  O 
  O28      1.0000 0.45500  0.83060  0.92030  Biso   1.000  O 
  O29      1.0000 0.27086  0.62940  0.74140  Biso   1.000  O 
  O30      1.0000 0.26768  0.62207  0.99138  Biso   1.000  O 
  O31      1.0000 0.22171  0.89657  0.50871  Biso   1.000  O 
  O32      1.0000 0.21556  0.87008  0.76004  Biso   1.000  O 
  Hf17     1.0000 0.64109  0.01923  0.14684  Biso   1.000  Hf
  Hf18     1.0000 0.64690  0.22432  0.39784  Biso   1.000  Hf
  Hf19     1.0000 0.85856  0.27236  0.10463  Biso   1.000  Hf
  Hf20     1.0000 0.85716  0.47902  0.35430  Biso   1.000  Hf
  O33      1.0000 0.53676  0.16698  0.08389  Biso   1.000  O 
  O34      1.0000 0.54591  0.06806  0.33523  Biso   1.000  O 
  O35      1.0000 0.95565  0.42380  0.16797  Biso   1.000  O 
  O36      1.0000 0.96068  0.33242  0.42126  Biso   1.000  O 
  O37      1.0000 0.77841  0.12870  0.24097  Biso   1.000  O 
  O38      1.0000 0.77725  0.11929  0.49282  Biso   1.000  O 
  O39      1.0000 0.72094  0.37868  0.01092  Biso   1.000  O 
  O40      1.0000 0.71815  0.36899  0.26175  Biso   1.000  O 
  Hf21     1.0000 0.63410  0.02145  0.64716  Biso   1.000  Hf
  Hf22     1.0000 0.63016  0.22921  0.89890  Biso   1.000  Hf
  Hf23     1.0000 0.86242  0.27100  0.60548  Biso   1.000  Hf
  Hf24     1.0000 0.85396  0.47807  0.85648  Biso   1.000  Hf
  O41      1.0000 0.53404  0.17132  0.58261  Biso   1.000  O 
  O42      1.0000 0.52999  0.08032  0.83165  Biso   1.000  O 
  O43      1.0000 0.96126  0.41836  0.67183  Biso   1.000  O 
  O44      1.0000 0.95668  0.33083  0.92124  Biso   1.000  O 
  O45      1.0000 0.77281  0.12879  0.74156  Biso   1.000  O 
  O46      1.0000 0.76922  0.12123  0.99284  Biso   1.000  O 
  O47      1.0000 0.72212  0.37718  0.51280  Biso   1.000  O 
  O48      1.0000 0.71968  0.37001  0.76081  Biso   1.000  O 
  Hf25     1.0000 0.63321  0.52141  0.14722  Biso   1.000  Hf
  Hf26     1.0000 0.63193  0.72583  0.39601  Biso   1.000  Hf
  Hf27     1.0000 0.85615  0.76864  0.10428  Biso   1.000  Hf
  Hf28     1.0000 0.85784  0.97664  0.35452  Biso   1.000  Hf
  O49      1.0000 0.53448  0.67334  0.08221  Biso   1.000  O 
  O50      1.0000 0.52943  0.57749  0.33252  Biso   1.000  O 
  O51      1.0000 0.95746  0.91648  0.17080  Biso   1.000  O 
  O52      1.0000 0.95908  0.83236  0.42383  Biso   1.000  O 
  O53      1.0000 0.77052  0.62761  0.24175  Biso   1.000  O 
  O54      1.0000 0.77026  0.62016  0.49187  Biso   1.000  O 
  O55      1.0000 0.72052  0.87824  0.00964  Biso   1.000  O 
  O56      1.0000 0.71944  0.86736  0.26002  Biso   1.000  O 
  Hf29     1.0000 0.63456  0.52106  0.64825  Biso   1.000  Hf
  Hf30     1.0000 0.62955  0.72845  0.89776  Biso   1.000  Hf
  Hf31     1.0000 0.85177  0.76995  0.60523  Biso   1.000  Hf
  Hf32     1.0000 0.84850  0.97849  0.85865  Biso   1.000  Hf
  O57      1.0000 0.52951  0.66927  0.58319  Biso   1.000  O 
  O58      1.0000 0.53023  0.57942  0.83354  Biso   1.000  O 
  O59      1.0000 0.95263  0.91828  0.67417  Biso   1.000  O 
  O60      1.0000 0.95439  0.83106  0.92023  Biso   1.000  O 
  O61      1.0000 0.77020  0.62844  0.74186  Biso   1.000  O 
  O62      1.0000 0.76658  0.62022  0.99191  Biso   1.000  O 
  O63      1.0000 0.71644  0.87848  0.51061  Biso   1.000  O 
  O64      1.0000 0.71405  0.87026  0.76122  Biso   1.000  O 
  B1       1.0000 0.39285  0.24781  0.35760  Biso   1.000  B 
