data_image0
_cell_length_a       10.0177
_cell_length_b       4.98798
_cell_length_c       10.018
_cell_angle_alpha    90
_cell_angle_beta     90
_cell_angle_gamma    90

_symmetry_space_group_name_H-M    "P 1"
_symmetry_int_tables_number       1

loop_
  _symmetry_equiv_pos_as_xyz
  'x, y, z'

loop_
  _atom_site_label
  _atom_site_occupancy
  _atom_site_fract_x
  _atom_site_fract_y
  _atom_site_fract_z
  _atom_site_thermal_displace_type
  _atom_site_B_iso_or_equiv
  _atom_site_type_symbol
  B1       1.0000 0.12491  0.00011  0.12491  Biso   1.000  B 
  Hf1      1.0000 0.12491  0.50011  0.37514  Biso   1.000  Hf
  Hf2      1.0000 0.37512  0.50010  0.12491  Biso   1.000  Hf
  Hf3      1.0000 0.36867  0.01327  0.36867  Biso   1.000  Hf
  O1       1.0000 0.97217  0.32708  0.97216  Biso   1.000  O 
  O2       1.0000 0.03558  0.17111  0.21422  Biso   1.000  O 
  O3       1.0000 0.97217  0.67313  0.27766  Biso   1.000  O 
  O4       1.0000 0.03558  0.82911  0.03560  Biso   1.000  O 
  O5       1.0000 0.27765  0.32709  0.27766  Biso   1.000  O 
  O6       1.0000 0.21424  0.17111  0.03560  Biso   1.000  O 
  O7       1.0000 0.27765  0.67312  0.97215  Biso   1.000  O 
  O8       1.0000 0.21423  0.82911  0.21422  Biso   1.000  O 
  Hf4      1.0000 0.12491  0.00011  0.62491  Biso   1.000  Hf
  Hf5      1.0000 0.12491  0.50010  0.87468  Biso   1.000  Hf
  Hf6      1.0000 0.37756  0.50011  0.62491  Biso   1.000  Hf
  Hf7      1.0000 0.36867  0.98694  0.88115  Biso   1.000  Hf
  O9       1.0000 0.98881  0.25614  0.47603  Biso   1.000  O 
  O10      1.0000 0.01096  0.25213  0.73038  Biso   1.000  O 
  O11      1.0000 0.98881  0.74407  0.77379  Biso   1.000  O 
  O12      1.0000 0.01096  0.74807  0.51944  Biso   1.000  O 
  O13      1.0000 0.26101  0.25613  0.77379  Biso   1.000  O 
  O14      1.0000 0.23886  0.25214  0.51944  Biso   1.000  O 
  O15      1.0000 0.26101  0.74408  0.47603  Biso   1.000  O 
  O16      1.0000 0.23886  0.74806  0.73038  Biso   1.000  O 
  Hf8      1.0000 0.62491  0.00011  0.12491  Biso   1.000  Hf
  Hf9      1.0000 0.62491  0.50011  0.37755  Biso   1.000  Hf
  Hf10     1.0000 0.87470  0.50011  0.12491  Biso   1.000  Hf
  Hf11     1.0000 0.88114  0.98694  0.36867  Biso   1.000  Hf
  O17      1.0000 0.47603  0.25616  0.98879  Biso   1.000  O 
  O18      1.0000 0.51942  0.25212  0.23884  Biso   1.000  O 
  O19      1.0000 0.47603  0.74404  0.26103  Biso   1.000  O 
  O20      1.0000 0.51942  0.74809  0.01098  Biso   1.000  O 
  O21      1.0000 0.77378  0.25617  0.26103  Biso   1.000  O 
  O22      1.0000 0.73040  0.25213  0.01098  Biso   1.000  O 
  O23      1.0000 0.77378  0.74403  0.98879  Biso   1.000  O 
  O24      1.0000 0.73039  0.74809  0.23884  Biso   1.000  O 
  Hf12     1.0000 0.62491  0.00011  0.62491  Biso   1.000  Hf
  Hf13     1.0000 0.62491  0.50010  0.87227  Biso   1.000  Hf
  Hf14     1.0000 0.87226  0.50011  0.62491  Biso   1.000  Hf
  Hf15     1.0000 0.88115  0.01326  0.88115  Biso   1.000  Hf
  O25      1.0000 0.48707  0.24772  0.48705  Biso   1.000  O 
  O26      1.0000 0.51280  0.25957  0.73700  Biso   1.000  O 
  O27      1.0000 0.48707  0.75249  0.76277  Biso   1.000  O 
  O28      1.0000 0.51279  0.74064  0.51281  Biso   1.000  O 
  O29      1.0000 0.76275  0.24771  0.76277  Biso   1.000  O 
  O30      1.0000 0.73702  0.25958  0.51281  Biso   1.000  O 
  O31      1.0000 0.76275  0.75249  0.48705  Biso   1.000  O 
  O32      1.0000 0.73702  0.74063  0.73701  Biso   1.000  O 
