data_image0
_cell_length_a       5.07514
_cell_length_b       10.2195
_cell_length_c       10.1122
_cell_angle_alpha    90
_cell_angle_beta     90
_cell_angle_gamma    90

_symmetry_space_group_name_H-M    "P 1"
_symmetry_int_tables_number       1

loop_
  _symmetry_equiv_pos_as_xyz
  'x, y, z'

loop_
  _atom_site_label
  _atom_site_occupancy
  _atom_site_fract_x
  _atom_site_fract_y
  _atom_site_fract_z
  _atom_site_thermal_displace_type
  _atom_site_B_iso_or_equiv
  _atom_site_type_symbol
  Hf1      1.0000 0.25495  0.99226  0.12927  Biso   1.000  Hf
  Hf2      1.0000 0.17851  0.25789  0.34500  Biso   1.000  Hf
  Hf3      1.0000 0.71185  0.22884  0.12148  Biso   1.000  Hf
  Hf4      1.0000 0.72517  0.00433  0.38425  Biso   1.000  Hf
  O1       1.0000 0.89102  0.14431  0.98809  Biso   1.000  O 
  O2       1.0000 0.94947  0.09553  0.24701  Biso   1.000  O 
  O3       1.0000 0.84718  0.34753  0.27378  Biso   1.000  O 
  O4       1.0000 0.10873  0.39927  0.00941  Biso   1.000  O 
  O5       1.0000 0.46025  0.13427  0.26185  Biso   1.000  O 
  O6       1.0000 0.49092  0.07470  0.00215  Biso   1.000  O 
  O7       1.0000 0.53585  0.34673  0.94944  Biso   1.000  O 
  O8       1.0000 0.37763  0.38877  0.19873  Biso   1.000  O 
  Hf5      1.0000 0.24097  0.02626  0.62154  Biso   1.000  Hf
  Hf6      1.0000 0.19808  0.24179  0.89187  Biso   1.000  Hf
  Hf7      1.0000 0.74763  0.25454  0.63049  Biso   1.000  Hf
  Hf8      1.0000 0.68520  0.01284  0.86527  Biso   1.000  Hf
  O9       1.0000 0.01175  0.14837  0.49507  Biso   1.000  O 
  O10      1.0000 0.95477  0.11266  0.74280  Biso   1.000  O 
  O11      1.0000 0.01973  0.36332  0.75444  Biso   1.000  O 
  O12      1.0000 0.93006  0.39686  0.51141  Biso   1.000  O 
  O13      1.0000 0.46089  0.16007  0.75399  Biso   1.000  O 
  O14      1.0000 0.52475  0.12035  0.51606  Biso   1.000  O 
  O15      1.0000 0.41796  0.38366  0.45283  Biso   1.000  O 
  O16      1.0000 0.54063  0.41612  0.70332  Biso   1.000  O 
  Hf9      1.0000 0.24614  0.56164  0.11721  Biso   1.000  Hf
  Hf10     1.0000 0.27315  0.77050  0.39945  Biso   1.000  Hf
  Hf11     1.0000 0.74897  0.75780  0.13248  Biso   1.000  Hf
  Hf12     1.0000 0.71876  0.50874  0.37850  Biso   1.000  Hf
  O17      1.0000 0.92452  0.66466  0.97952  Biso   1.000  O 
  O18      1.0000 0.92311  0.59745  0.22566  Biso   1.000  O 
  O19      1.0000 0.01294  0.84734  0.26855  Biso   1.000  O 
  O20      1.0000 0.92879  0.90308  0.03242  Biso   1.000  O 
  O21      1.0000 0.45676  0.64444  0.26563  Biso   1.000  O 
  O22      1.0000 0.45502  0.60671  0.99479  Biso   1.000  O 
  O23      1.0000 0.40805  0.82169  0.04041  Biso   1.000  O 
  O24      1.0000 0.51851  0.89215  0.26732  Biso   1.000  O 
  Hf13     1.0000 0.22750  0.49108  0.60804  Biso   1.000  Hf
  Hf14     1.0000 0.22465  0.75152  0.86018  Biso   1.000  Hf
  Hf15     1.0000 0.76715  0.74416  0.62380  Biso   1.000  Hf
  Hf16     1.0000 0.72074  0.50688  0.86397  Biso   1.000  Hf
  O25      1.0000 0.98694  0.64188  0.48034  Biso   1.000  O 
  O26      1.0000 0.01359  0.61265  0.73443  Biso   1.000  O 
  O27      1.0000 0.91528  0.85570  0.77525  Biso   1.000  O 
  O28      1.0000 0.02380  0.89525  0.52057  Biso   1.000  O 
  O29      1.0000 0.52177  0.66009  0.76173  Biso   1.000  O 
  O30      1.0000 0.48948  0.62591  0.51509  Biso   1.000  O 
  O31      1.0000 0.52162  0.87553  0.51942  Biso   1.000  O 
  O32      1.0000 0.40944  0.91347  0.77851  Biso   1.000  O 
  B1       1.0000 0.22963  0.31429  0.10700  Biso   1.000  B 
