data_image0
_cell_length_a       10.0233
_cell_length_b       10.2304
_cell_length_c       10.4987
_cell_angle_alpha    90
_cell_angle_beta     90
_cell_angle_gamma    90

_symmetry_space_group_name_H-M    "P 1"
_symmetry_int_tables_number       1

loop_
  _symmetry_equiv_pos_as_xyz
  'x, y, z'

loop_
  _atom_site_label
  _atom_site_occupancy
  _atom_site_fract_x
  _atom_site_fract_y
  _atom_site_fract_z
  _atom_site_thermal_displace_type
  _atom_site_B_iso_or_equiv
  _atom_site_type_symbol
  Hf1      1.0000 0.13481  0.02100  0.17280  Biso   1.000  Hf
  Hf2      1.0000 0.13288  0.22688  0.42707  Biso   1.000  Hf
  Hf3      1.0000 0.34221  0.27061  0.18183  Biso   1.000  Hf
  Hf4      1.0000 0.35714  0.47974  0.42393  Biso   1.000  Hf
  Hf5      1.0000 0.64334  0.02863  0.07020  Biso   1.000  Hf
  Hf6      1.0000 0.63623  0.22718  0.34051  Biso   1.000  Hf
  Hf7      1.0000 0.85340  0.26764  0.07091  Biso   1.000  Hf
  Hf8      1.0000 0.86212  0.47883  0.32979  Biso   1.000  Hf
  O1       1.0000 0.03352  0.16909  0.08637  Biso   1.000  O 
  O2       1.0000 0.02961  0.08288  0.33572  Biso   1.000  O 
  O3       1.0000 0.48912  0.37926  0.07131  Biso   1.000  O 
  O4       1.0000 0.46081  0.33616  0.33242  Biso   1.000  O 
  O5       1.0000 0.27275  0.12364  0.29799  Biso   1.000  O 
  O6       1.0000 0.27633  0.12634  0.04833  Biso   1.000  O 
  O7       1.0000 0.21272  0.37377  0.29914  Biso   1.000  O 
  O8       1.0000 0.22865  0.37967  0.04942  Biso   1.000  O 
  O9       1.0000 0.52735  0.17415  0.17022  Biso   1.000  O 
  O10      1.0000 0.52829  0.08465  0.41865  Biso   1.000  O 
  O11      1.0000 0.95295  0.41806  0.16581  Biso   1.000  O 
  O12      1.0000 0.96271  0.33291  0.41915  Biso   1.000  O 
  O13      1.0000 0.77333  0.12277  0.45924  Biso   1.000  O 
  O14      1.0000 0.77083  0.12575  0.20929  Biso   1.000  O 
  O15      1.0000 0.71839  0.37444  0.45099  Biso   1.000  O 
  O16      1.0000 0.69131  0.36003  0.18319  Biso   1.000  O 
  Hf9      1.0000 0.13690  0.02046  0.67326  Biso   1.000  Hf
  Hf10     1.0000 0.13124  0.22744  0.92253  Biso   1.000  Hf
  Hf11     1.0000 0.35936  0.27016  0.67293  Biso   1.000  Hf
  Hf12     1.0000 0.35330  0.47788  0.91912  Biso   1.000  Hf
  Hf13     1.0000 0.63511  0.02123  0.58295  Biso   1.000  Hf
  Hf14     1.0000 0.63609  0.23208  0.83702  Biso   1.000  Hf
  Hf15     1.0000 0.85671  0.27046  0.58132  Biso   1.000  Hf
  Hf16     1.0000 0.86052  0.48194  0.82325  Biso   1.000  Hf
  O17      1.0000 0.02967  0.16595  0.58826  Biso   1.000  O 
  O18      1.0000 0.03249  0.08122  0.83496  Biso   1.000  O 
  O19      1.0000 0.46426  0.41433  0.58219  Biso   1.000  O 
  O20      1.0000 0.46414  0.33838  0.83148  Biso   1.000  O 
  O21      1.0000 0.27405  0.12381  0.79762  Biso   1.000  O 
  O22      1.0000 0.27386  0.12451  0.54796  Biso   1.000  O 
  O23      1.0000 0.21928  0.37321  0.79783  Biso   1.000  O 
  O24      1.0000 0.22038  0.37574  0.54803  Biso   1.000  O 
  O25      1.0000 0.53090  0.16615  0.66871  Biso   1.000  O 
  O26      1.0000 0.52874  0.07860  0.91001  Biso   1.000  O 
  O27      1.0000 0.96511  0.41601  0.66500  Biso   1.000  O 
  O28      1.0000 0.96362  0.33466  0.91497  Biso   1.000  O 
  O29      1.0000 0.78665  0.11659  0.94838  Biso   1.000  O 
  O30      1.0000 0.77322  0.12627  0.70669  Biso   1.000  O 
  O31      1.0000 0.72725  0.38971  0.94448  Biso   1.000  O 
  O32      1.0000 0.71997  0.37607  0.70199  Biso   1.000  O 
  Hf17     1.0000 0.13299  0.52214  0.17230  Biso   1.000  Hf
  Hf18     1.0000 0.13619  0.72947  0.42258  Biso   1.000  Hf
  Hf19     1.0000 0.36062  0.77307  0.17272  Biso   1.000  Hf
  Hf20     1.0000 0.35745  0.97656  0.42464  Biso   1.000  Hf
  Hf21     1.0000 0.64581  0.53212  0.07091  Biso   1.000  Hf
  Hf22     1.0000 0.63668  0.72852  0.32776  Biso   1.000  Hf
  Hf23     1.0000 0.86095  0.77464  0.07799  Biso   1.000  Hf
  Hf24     1.0000 0.85655  0.97845  0.32882  Biso   1.000  Hf
  O33      1.0000 0.03247  0.66692  0.08538  Biso   1.000  O 
  O34      1.0000 0.03017  0.58112  0.33756  Biso   1.000  O 
  O35      1.0000 0.46879  0.91930  0.08643  Biso   1.000  O 
  O36      1.0000 0.46488  0.83403  0.33436  Biso   1.000  O 
  O37      1.0000 0.27099  0.62402  0.29551  Biso   1.000  O 
  O38      1.0000 0.27801  0.62376  0.04693  Biso   1.000  O 
  O39      1.0000 0.22134  0.87432  0.29692  Biso   1.000  O 
  O40      1.0000 0.22374  0.87598  0.04770  Biso   1.000  O 
  O41      1.0000 0.52825  0.65922  0.16767  Biso   1.000  O 
  O42      1.0000 0.52903  0.58585  0.41741  Biso   1.000  O 
  O43      1.0000 0.96447  0.91809  0.16614  Biso   1.000  O 
  O44      1.0000 0.96282  0.83168  0.41348  Biso   1.000  O 
  O45      1.0000 0.77348  0.62379  0.45310  Biso   1.000  O 
  O46      1.0000 0.77528  0.62360  0.20327  Biso   1.000  O 
  O47      1.0000 0.71942  0.87431  0.45452  Biso   1.000  O 
  O48      1.0000 0.72238  0.87488  0.20363  Biso   1.000  O 
  Hf25     1.0000 0.13664  0.52114  0.67118  Biso   1.000  Hf
  Hf26     1.0000 0.13465  0.72895  0.92343  Biso   1.000  Hf
  Hf27     1.0000 0.35703  0.77051  0.67332  Biso   1.000  Hf
  Hf28     1.0000 0.35584  0.97858  0.92371  Biso   1.000  Hf
  Hf29     1.0000 0.63523  0.52164  0.57784  Biso   1.000  Hf
  Hf30     1.0000 0.63336  0.73090  0.82681  Biso   1.000  Hf
  Hf31     1.0000 0.85804  0.77088  0.57657  Biso   1.000  Hf
  Hf32     1.0000 0.85909  0.97637  0.82555  Biso   1.000  Hf
  O49      1.0000 0.03006  0.66520  0.58356  Biso   1.000  O 
  O50      1.0000 0.03195  0.58554  0.83383  Biso   1.000  O 
  O51      1.0000 0.46336  0.91412  0.58530  Biso   1.000  O 
  O52      1.0000 0.46081  0.83314  0.83529  Biso   1.000  O 
  O53      1.0000 0.27491  0.62136  0.79654  Biso   1.000  O 
  O54      1.0000 0.27380  0.62639  0.54649  Biso   1.000  O 
  O55      1.0000 0.21868  0.87203  0.79709  Biso   1.000  O 
  O56      1.0000 0.21973  0.87484  0.54669  Biso   1.000  O 
  O57      1.0000 0.52808  0.66337  0.66853  Biso   1.000  O 
  O58      1.0000 0.52399  0.58682  0.92018  Biso   1.000  O 
  O59      1.0000 0.96462  0.91496  0.66342  Biso   1.000  O 
  O60      1.0000 0.96276  0.83392  0.91763  Biso   1.000  O 
  O61      1.0000 0.77168  0.63106  0.95132  Biso   1.000  O 
  O62      1.0000 0.77281  0.62744  0.70295  Biso   1.000  O 
  O63      1.0000 0.71757  0.87639  0.95369  Biso   1.000  O 
  O64      1.0000 0.71919  0.87503  0.70403  Biso   1.000  O 
  B1       1.0000 0.59129  0.27688  0.09481  Biso   1.000  B 
