data_image0
_cell_length_a       5.08989
_cell_length_b       10.2793
_cell_length_c       10.4911
_cell_angle_alpha    90
_cell_angle_beta     80
_cell_angle_gamma    90

_symmetry_space_group_name_H-M    "P 1"
_symmetry_int_tables_number       1

loop_
  _symmetry_equiv_pos_as_xyz
  'x, y, z'

loop_
  _atom_site_label
  _atom_site_occupancy
  _atom_site_fract_x
  _atom_site_fract_y
  _atom_site_fract_z
  _atom_site_thermal_displace_type
  _atom_site_B_iso_or_equiv
  _atom_site_type_symbol
  Hf1      1.0000 0.26868  0.02051  0.14153  Biso   1.000  Hf
  Hf2      1.0000 0.34651  0.22798  0.39964  Biso   1.000  Hf
  Hf3      1.0000 0.72122  0.27079  0.11172  Biso   1.000  Hf
  Hf4      1.0000 0.72735  0.47270  0.34337  Biso   1.000  Hf
  O1       1.0000 0.06253  0.16419  0.07687  Biso   1.000  O 
  O2       1.0000 0.00960  0.11958  0.32663  Biso   1.000  O 
  O3       1.0000 0.92447  0.43043  0.15747  Biso   1.000  O 
  O4       1.0000 0.98083  0.33346  0.41881  Biso   1.000  O 
  O5       1.0000 0.52365  0.11275  0.24214  Biso   1.000  O 
  O6       1.0000 0.56103  0.09849  0.50176  Biso   1.000  O 
  O7       1.0000 0.44682  0.37937  0.00853  Biso   1.000  O 
  O8       1.0000 0.42611  0.37500  0.25443  Biso   1.000  O 
  Hf5      1.0000 0.27826  0.01063  0.65018  Biso   1.000  Hf
  Hf6      1.0000 0.28740  0.22146  0.89634  Biso   1.000  Hf
  Hf7      1.0000 0.74169  0.25979  0.60662  Biso   1.000  Hf
  Hf8      1.0000 0.73689  0.46633  0.85419  Biso   1.000  Hf
  O9       1.0000 0.08873  0.15790  0.57262  Biso   1.000  O 
  O10      1.0000 0.07399  0.07560  0.82812  Biso   1.000  O 
  O11      1.0000 0.94998  0.40527  0.67339  Biso   1.000  O 
  O12      1.0000 0.93869  0.32191  0.92331  Biso   1.000  O 
  O13      1.0000 0.56049  0.12067  0.74302  Biso   1.000  O 
  O14      1.0000 0.55671  0.11196  0.99216  Biso   1.000  O 
  O15      1.0000 0.47510  0.37284  0.51141  Biso   1.000  O 
  O16      1.0000 0.45951  0.36315  0.75865  Biso   1.000  O 
  Hf9      1.0000 0.28021  0.52225  0.14209  Biso   1.000  Hf
  Hf10     1.0000 0.28220  0.71868  0.39668  Biso   1.000  Hf
  Hf11     1.0000 0.72576  0.77068  0.10409  Biso   1.000  Hf
  Hf12     1.0000 0.71552  0.96409  0.35750  Biso   1.000  Hf
  O17      1.0000 0.07503  0.67307  0.07810  Biso   1.000  O 
  O18      1.0000 0.06751  0.58172  0.32477  Biso   1.000  O 
  O19      1.0000 0.93551  0.91424  0.17944  Biso   1.000  O 
  O20      1.0000 0.94542  0.83385  0.42530  Biso   1.000  O 
  O21      1.0000 0.55753  0.62712  0.24000  Biso   1.000  O 
  O22      1.0000 0.55873  0.61309  0.48827  Biso   1.000  O 
  O23      1.0000 0.45173  0.88101  0.01072  Biso   1.000  O 
  O24      1.0000 0.44442  0.86668  0.26199  Biso   1.000  O 
  Hf13     1.0000 0.29134  0.51407  0.64653  Biso   1.000  Hf
  Hf14     1.0000 0.28915  0.71916  0.89548  Biso   1.000  Hf
  Hf15     1.0000 0.73155  0.76233  0.60481  Biso   1.000  Hf
  Hf16     1.0000 0.73640  0.97085  0.85499  Biso   1.000  Hf
  O25      1.0000 0.07329  0.65550  0.57682  Biso   1.000  O 
  O26      1.0000 0.08006  0.57547  0.82809  Biso   1.000  O 
  O27      1.0000 0.94153  0.90647  0.67375  Biso   1.000  O 
  O28      1.0000 0.94571  0.82693  0.92389  Biso   1.000  O 
  O29      1.0000 0.56400  0.62002  0.73967  Biso   1.000  O 
  O30      1.0000 0.56667  0.61275  0.98881  Biso   1.000  O 
  O31      1.0000 0.45135  0.86483  0.51145  Biso   1.000  O 
  O32      1.0000 0.46114  0.86268  0.76109  Biso   1.000  O 
  B1       1.0000 0.86006  0.23968  0.34483  Biso   1.000  B 
