data_image0
_cell_length_a       10.1507
_cell_length_b       10.2316
_cell_length_c       10.4662
_cell_angle_alpha    90
_cell_angle_beta     80
_cell_angle_gamma    90

_symmetry_space_group_name_H-M    "P 1"
_symmetry_int_tables_number       1

loop_
  _symmetry_equiv_pos_as_xyz
  'x, y, z'

loop_
  _atom_site_label
  _atom_site_occupancy
  _atom_site_fract_x
  _atom_site_fract_y
  _atom_site_fract_z
  _atom_site_thermal_displace_type
  _atom_site_B_iso_or_equiv
  _atom_site_type_symbol
  B1       1.0000 0.02095  0.05909  0.17285  Biso   1.000  B 
  Hf1      1.0000 0.14208  0.22600  0.39123  Biso   1.000  Hf
  Hf2      1.0000 0.35541  0.26301  0.10553  Biso   1.000  Hf
  Hf3      1.0000 0.35802  0.47641  0.35217  Biso   1.000  Hf
  O1       1.0000 0.03084  0.15505  0.08149  Biso   1.000  O 
  O2       1.0000 0.02921  0.08991  0.30082  Biso   1.000  O 
  O3       1.0000 0.46462  0.41342  0.17154  Biso   1.000  O 
  O4       1.0000 0.46411  0.33210  0.42218  Biso   1.000  O 
  O5       1.0000 0.28879  0.13657  0.25251  Biso   1.000  O 
  O6       1.0000 0.27355  0.11927  0.49356  Biso   1.000  O 
  O7       1.0000 0.22180  0.37722  0.00976  Biso   1.000  O 
  O8       1.0000 0.21870  0.37213  0.25817  Biso   1.000  O 
  Hf4      1.0000 0.13725  0.01860  0.64454  Biso   1.000  Hf
  Hf5      1.0000 0.14029  0.22288  0.89728  Biso   1.000  Hf
  Hf6      1.0000 0.35858  0.26878  0.60427  Biso   1.000  Hf
  Hf7      1.0000 0.35744  0.47602  0.85589  Biso   1.000  Hf
  O9       1.0000 0.02841  0.15421  0.56475  Biso   1.000  O 
  O10      1.0000 0.03108  0.08441  0.82499  Biso   1.000  O 
  O11      1.0000 0.46404  0.41463  0.67234  Biso   1.000  O 
  O12      1.0000 0.46573  0.33497  0.92292  Biso   1.000  O 
  O13      1.0000 0.27310  0.12557  0.73860  Biso   1.000  O 
  O14      1.0000 0.28469  0.12999  0.97928  Biso   1.000  O 
  O15      1.0000 0.22091  0.37526  0.50808  Biso   1.000  O 
  O16      1.0000 0.22239  0.36710  0.76012  Biso   1.000  O 
  Hf8      1.0000 0.13898  0.52085  0.14450  Biso   1.000  Hf
  Hf9      1.0000 0.14004  0.72750  0.39365  Biso   1.000  Hf
  Hf10     1.0000 0.35514  0.77616  0.10467  Biso   1.000  Hf
  Hf11     1.0000 0.35595  0.97828  0.35024  Biso   1.000  Hf
  O17      1.0000 0.03643  0.67311  0.08211  Biso   1.000  O 
  O18      1.0000 0.03235  0.58319  0.32783  Biso   1.000  O 
  O19      1.0000 0.46994  0.91506  0.17161  Biso   1.000  O 
  O20      1.0000 0.46639  0.83339  0.42320  Biso   1.000  O 
  O21      1.0000 0.27557  0.62341  0.23843  Biso   1.000  O 
  O22      1.0000 0.27496  0.61905  0.48973  Biso   1.000  O 
  O23      1.0000 0.22979  0.86905  0.99867  Biso   1.000  O 
  O24      1.0000 0.23261  0.86111  0.26441  Biso   1.000  O 
  Hf12     1.0000 0.13770  0.52008  0.64664  Biso   1.000  Hf
  Hf13     1.0000 0.13922  0.73104  0.89669  Biso   1.000  Hf
  Hf14     1.0000 0.35906  0.77067  0.60348  Biso   1.000  Hf
  Hf15     1.0000 0.35401  0.97754  0.85828  Biso   1.000  Hf
  O25      1.0000 0.03253  0.66411  0.57911  Biso   1.000  O 
  O26      1.0000 0.03420  0.57929  0.83005  Biso   1.000  O 
  O27      1.0000 0.46336  0.91341  0.67478  Biso   1.000  O 
  O28      1.0000 0.47066  0.83867  0.92472  Biso   1.000  O 
  O29      1.0000 0.27504  0.62717  0.74018  Biso   1.000  O 
  O30      1.0000 0.27296  0.61671  0.99101  Biso   1.000  O 
  O31      1.0000 0.22177  0.87675  0.50985  Biso   1.000  O 
  O32      1.0000 0.21994  0.87025  0.75625  Biso   1.000  O 
  Hf16     1.0000 0.63990  0.02216  0.14627  Biso   1.000  Hf
  Hf17     1.0000 0.63656  0.22811  0.39658  Biso   1.000  Hf
  Hf18     1.0000 0.85604  0.27523  0.10451  Biso   1.000  Hf
  Hf19     1.0000 0.86123  0.47771  0.35403  Biso   1.000  Hf
  O33      1.0000 0.53649  0.16718  0.07901  Biso   1.000  O 
  O34      1.0000 0.53761  0.07951  0.33028  Biso   1.000  O 
  O35      1.0000 0.96387  0.41664  0.17086  Biso   1.000  O 
  O36      1.0000 0.96476  0.33121  0.41986  Biso   1.000  O 
  O37      1.0000 0.77641  0.13066  0.24142  Biso   1.000  O 
  O38      1.0000 0.77313  0.11836  0.49132  Biso   1.000  O 
  O39      1.0000 0.72430  0.38081  0.00988  Biso   1.000  O 
  O40      1.0000 0.72133  0.37180  0.26017  Biso   1.000  O 
  Hf20     1.0000 0.63582  0.01918  0.64924  Biso   1.000  Hf
  Hf21     1.0000 0.63637  0.22762  0.89613  Biso   1.000  Hf
  Hf22     1.0000 0.86155  0.26913  0.60246  Biso   1.000  Hf
  Hf23     1.0000 0.86219  0.47610  0.85544  Biso   1.000  Hf
  O41      1.0000 0.53271  0.16540  0.58016  Biso   1.000  O 
  O42      1.0000 0.53350  0.08201  0.82980  Biso   1.000  O 
  O43      1.0000 0.96696  0.41034  0.67388  Biso   1.000  O 
  O44      1.0000 0.96439  0.32995  0.92720  Biso   1.000  O 
  O45      1.0000 0.77508  0.12724  0.74000  Biso   1.000  O 
  O46      1.0000 0.77391  0.12109  0.99060  Biso   1.000  O 
  O47      1.0000 0.72343  0.37626  0.51083  Biso   1.000  O 
  O48      1.0000 0.72357  0.36999  0.76043  Biso   1.000  O 
  Hf24     1.0000 0.63560  0.52244  0.14650  Biso   1.000  Hf
  Hf25     1.0000 0.63613  0.72623  0.39734  Biso   1.000  Hf
  Hf26     1.0000 0.86343  0.77168  0.10295  Biso   1.000  Hf
  Hf27     1.0000 0.85197  0.97527  0.36215  Biso   1.000  Hf
  O49      1.0000 0.53268  0.66643  0.07831  Biso   1.000  O 
  O50      1.0000 0.53160  0.58195  0.32887  Biso   1.000  O 
  O51      1.0000 0.96056  0.93955  0.16401  Biso   1.000  O 
  O52      1.0000 0.96494  0.83525  0.42012  Biso   1.000  O 
  O53      1.0000 0.77424  0.62918  0.24044  Biso   1.000  O 
  O54      1.0000 0.77453  0.61919  0.49132  Biso   1.000  O 
  O55      1.0000 0.72593  0.87938  0.01133  Biso   1.000  O 
  O56      1.0000 0.72840  0.87053  0.26204  Biso   1.000  O 
  Hf28     1.0000 0.63760  0.51874  0.64762  Biso   1.000  Hf
  Hf29     1.0000 0.63672  0.72759  0.89846  Biso   1.000  Hf
  Hf30     1.0000 0.86003  0.76810  0.60573  Biso   1.000  Hf
  Hf31     1.0000 0.85875  0.97764  0.85443  Biso   1.000  Hf
  O57      1.0000 0.53250  0.66371  0.57923  Biso   1.000  O 
  O58      1.0000 0.53131  0.58317  0.82939  Biso   1.000  O 
  O59      1.0000 0.96246  0.91361  0.67240  Biso   1.000  O 
  O60      1.0000 0.96240  0.83084  0.92111  Biso   1.000  O 
  O61      1.0000 0.77521  0.62603  0.74200  Biso   1.000  O 
  O62      1.0000 0.77578  0.62159  0.99299  Biso   1.000  O 
  O63      1.0000 0.72066  0.87530  0.51301  Biso   1.000  O 
  O64      1.0000 0.72215  0.86915  0.76112  Biso   1.000  O 
