data_image0
_cell_length_a       10.0709
_cell_length_b       10.188
_cell_length_c       5.2152
_cell_angle_alpha    90
_cell_angle_beta     90
_cell_angle_gamma    90

_symmetry_space_group_name_H-M    "P 1"
_symmetry_int_tables_number       1

loop_
  _symmetry_equiv_pos_as_xyz
  'x, y, z'

loop_
  _atom_site_label
  _atom_site_occupancy
  _atom_site_fract_x
  _atom_site_fract_y
  _atom_site_fract_z
  _atom_site_thermal_displace_type
  _atom_site_B_iso_or_equiv
  _atom_site_type_symbol
  B1       1.0000 0.02188  0.05627  0.34737  Biso   1.000  B 
  Hf1      1.0000 0.14209  0.22388  0.83982  Biso   1.000  Hf
  Hf2      1.0000 0.35575  0.26464  0.34475  Biso   1.000  Hf
  Hf3      1.0000 0.35611  0.47686  0.84713  Biso   1.000  Hf
  Hf4      1.0000 0.63849  0.02045  0.15840  Biso   1.000  Hf
  Hf5      1.0000 0.63483  0.22942  0.65640  Biso   1.000  Hf
  Hf6      1.0000 0.85771  0.27394  0.15569  Biso   1.000  Hf
  Hf7      1.0000 0.86274  0.47800  0.66044  Biso   1.000  Hf
  O1       1.0000 0.02975  0.14568  0.15240  Biso   1.000  O 
  O2       1.0000 0.02714  0.09517  0.60264  Biso   1.000  O 
  O3       1.0000 0.46656  0.41125  0.16824  Biso   1.000  O 
  O4       1.0000 0.46748  0.33788  0.66533  Biso   1.000  O 
  O5       1.0000 0.28309  0.12860  0.60729  Biso   1.000  O 
  O6       1.0000 0.28860  0.13402  0.07117  Biso   1.000  O 
  O7       1.0000 0.22032  0.37144  0.59356  Biso   1.000  O 
  O8       1.0000 0.21950  0.37327  0.09150  Biso   1.000  O 
  O9       1.0000 0.53225  0.16342  0.33543  Biso   1.000  O 
  O10      1.0000 0.53460  0.08477  0.83556  Biso   1.000  O 
  O11      1.0000 0.96817  0.41019  0.33861  Biso   1.000  O 
  O12      1.0000 0.96572  0.33076  0.84189  Biso   1.000  O 
  O13      1.0000 0.77604  0.12310  0.91055  Biso   1.000  O 
  O14      1.0000 0.77513  0.12685  0.41066  Biso   1.000  O 
  O15      1.0000 0.72192  0.37421  0.91175  Biso   1.000  O 
  O16      1.0000 0.72371  0.37643  0.40961  Biso   1.000  O 
  Hf8      1.0000 0.13875  0.52048  0.34624  Biso   1.000  Hf
  Hf9      1.0000 0.13996  0.73244  0.84334  Biso   1.000  Hf
  Hf10     1.0000 0.35494  0.77506  0.34472  Biso   1.000  Hf
  Hf11     1.0000 0.35342  0.97698  0.84396  Biso   1.000  Hf
  Hf12     1.0000 0.63571  0.52106  0.16155  Biso   1.000  Hf
  Hf13     1.0000 0.63492  0.72720  0.65726  Biso   1.000  Hf
  Hf14     1.0000 0.86339  0.76932  0.15742  Biso   1.000  Hf
  Hf15     1.0000 0.85043  0.97744  0.66971  Biso   1.000  Hf
  O17      1.0000 0.03353  0.66997  0.17801  Biso   1.000  O 
  O18      1.0000 0.03160  0.58268  0.67260  Biso   1.000  O 
  O19      1.0000 0.47267  0.91008  0.16361  Biso   1.000  O 
  O20      1.0000 0.47260  0.84234  0.65704  Biso   1.000  O 
  O21      1.0000 0.27541  0.62033  0.59157  Biso   1.000  O 
  O22      1.0000 0.27428  0.62037  0.09450  Biso   1.000  O 
  O23      1.0000 0.22806  0.86667  0.59814  Biso   1.000  O 
  O24      1.0000 0.23545  0.86667  0.07837  Biso   1.000  O 
  O25      1.0000 0.53046  0.66263  0.33836  Biso   1.000  O 
  O26      1.0000 0.52807  0.58611  0.83850  Biso   1.000  O 
  O27      1.0000 0.96190  0.93550  0.31854  Biso   1.000  O 
  O28      1.0000 0.96412  0.83740  0.82865  Biso   1.000  O 
  O29      1.0000 0.77401  0.62440  0.91579  Biso   1.000  O 
  O30      1.0000 0.77607  0.62552  0.41297  Biso   1.000  O 
  O31      1.0000 0.72013  0.87265  0.91595  Biso   1.000  O 
  O32      1.0000 0.72872  0.87455  0.41640  Biso   1.000  O 
