data_image0
_cell_length_a       10.0321
_cell_length_b       5.13971
_cell_length_c       9.94772
_cell_angle_alpha    90
_cell_angle_beta     90
_cell_angle_gamma    90

_symmetry_space_group_name_H-M    "P 1"
_symmetry_int_tables_number       1

loop_
  _symmetry_equiv_pos_as_xyz
  'x, y, z'

loop_
  _atom_site_label
  _atom_site_occupancy
  _atom_site_fract_x
  _atom_site_fract_y
  _atom_site_fract_z
  _atom_site_thermal_displace_type
  _atom_site_B_iso_or_equiv
  _atom_site_type_symbol
  B1       1.0000 0.07054  0.02055  0.09204  Biso   1.000  B 
  Hf1      1.0000 0.17281  0.39930  0.36486  Biso   1.000  Hf
  Hf2      1.0000 0.39556  0.49397  0.12831  Biso   1.000  Hf
  Hf3      1.0000 0.39570  0.92024  0.37570  Biso   1.000  Hf
  O1       1.0000 0.06728  0.26799  0.18711  Biso   1.000  O 
  O2       1.0000 0.06636  0.08189  0.45049  Biso   1.000  O 
  O3       1.0000 0.49984  0.82373  0.20308  Biso   1.000  O 
  O4       1.0000 0.51005  0.60615  0.46363  Biso   1.000  O 
  O5       1.0000 0.31631  0.19693  0.25060  Biso   1.000  O 
  O6       1.0000 0.30248  0.21574  0.50246  Biso   1.000  O 
  O7       1.0000 0.26459  0.70787  0.50541  Biso   1.000  O 
  O8       1.0000 0.27116  0.67491  0.25668  Biso   1.000  O 
  Hf4      1.0000 0.16839  0.98173  0.62579  Biso   1.000  Hf
  Hf5      1.0000 0.17112  0.42752  0.87407  Biso   1.000  Hf
  Hf6      1.0000 0.40170  0.49145  0.63189  Biso   1.000  Hf
  Hf7      1.0000 0.39231  0.93860  0.89342  Biso   1.000  Hf
  O9       1.0000 0.06409  0.30120  0.70571  Biso   1.000  O 
  O10      1.0000 0.05094  0.07470  0.97453  Biso   1.000  O 
  O11      1.0000 0.49968  0.82190  0.70775  Biso   1.000  O 
  O12      1.0000 0.49939  0.59824  0.94532  Biso   1.000  O 
  O13      1.0000 0.30115  0.18561  0.75152  Biso   1.000  O 
  O14      1.0000 0.30957  0.26875  0.99252  Biso   1.000  O 
  O15      1.0000 0.18806  0.88671  0.02361  Biso   1.000  O 
  O16      1.0000 0.26676  0.69294  0.76231  Biso   1.000  O 
  Hf8      1.0000 0.64839  0.02047  0.12991  Biso   1.000  Hf
  Hf9      1.0000 0.67035  0.43740  0.37546  Biso   1.000  Hf
  Hf10     1.0000 0.90055  0.47544  0.11686  Biso   1.000  Hf
  Hf11     1.0000 0.90802  0.92487  0.36300  Biso   1.000  Hf
  O17      1.0000 0.56307  0.34892  0.20777  Biso   1.000  O 
  O18      1.0000 0.56624  0.09720  0.44140  Biso   1.000  O 
  O19      1.0000 0.99947  0.83033  0.17149  Biso   1.000  O 
  O20      1.0000 0.00044  0.57801  0.42729  Biso   1.000  O 
  O21      1.0000 0.80054  0.19017  0.24132  Biso   1.000  O 
  O22      1.0000 0.80283  0.21868  0.49114  Biso   1.000  O 
  O23      1.0000 0.77441  0.72796  0.48883  Biso   1.000  O 
  O24      1.0000 0.76777  0.68972  0.23602  Biso   1.000  O 
  Hf12     1.0000 0.65788  0.97177  0.61622  Biso   1.000  Hf
  Hf13     1.0000 0.66958  0.41187  0.87133  Biso   1.000  Hf
  Hf14     1.0000 0.90499  0.47267  0.61349  Biso   1.000  Hf
  Hf15     1.0000 0.89949  0.90756  0.86300  Biso   1.000  Hf
  O25      1.0000 0.56518  0.30742  0.69890  Biso   1.000  O 
  O26      1.0000 0.55842  0.10747  0.97282  Biso   1.000  O 
  O27      1.0000 0.00511  0.80329  0.69018  Biso   1.000  O 
  O28      1.0000 0.99746  0.56837  0.93440  Biso   1.000  O 
  O29      1.0000 0.79679  0.16800  0.74089  Biso   1.000  O 
  O30      1.0000 0.80660  0.20912  0.99261  Biso   1.000  O 
  O31      1.0000 0.76161  0.71362  0.97613  Biso   1.000  O 
  O32      1.0000 0.76753  0.66449  0.73399  Biso   1.000  O 
