data_image0
_cell_length_a       10.1694
_cell_length_b       10.1354
_cell_length_c       10.1694
_cell_angle_alpha    90
_cell_angle_beta     80
_cell_angle_gamma    90

_symmetry_space_group_name_H-M    "P 1"
_symmetry_int_tables_number       1

loop_
  _symmetry_equiv_pos_as_xyz
  'x, y, z'

loop_
  _atom_site_label
  _atom_site_occupancy
  _atom_site_fract_x
  _atom_site_fract_y
  _atom_site_fract_z
  _atom_site_thermal_displace_type
  _atom_site_B_iso_or_equiv
  _atom_site_type_symbol
  Hf1      1.0000 0.12120  0.99023  0.13231  Biso   1.000  Hf
  Hf2      1.0000 0.11495  0.25063  0.37010  Biso   1.000  Hf
  Hf3      1.0000 0.35932  0.25129  0.13620  Biso   1.000  Hf
  Hf4      1.0000 0.35776  0.99158  0.38404  Biso   1.000  Hf
  O1       1.0000 0.04663  0.16360  0.05014  Biso   1.000  O 
  O2       1.0000 0.03070  0.07868  0.30622  Biso   1.000  O 
  O3       1.0000 0.01536  0.32915  0.21688  Biso   1.000  O 
  O4       1.0000 0.93332  0.39372  0.99449  Biso   1.000  O 
  O5       1.0000 0.29878  0.16354  0.31845  Biso   1.000  O 
  O6       1.0000 0.30115  0.07941  0.04736  Biso   1.000  O 
  O7       1.0000 0.21272  0.32968  0.02798  Biso   1.000  O 
  O8       1.0000 0.23608  0.41024  0.25257  Biso   1.000  O 
  Hf5      1.0000 0.08701  0.99145  0.62998  Biso   1.000  Hf
  Hf6      1.0000 0.07144  0.25879  0.86746  Biso   1.000  Hf
  Hf7      1.0000 0.34055  0.25385  0.63039  Biso   1.000  Hf
  Hf8      1.0000 0.32427  0.98955  0.88130  Biso   1.000  Hf
  O9       1.0000 0.01667  0.15764  0.54909  Biso   1.000  O 
  O10      1.0000 0.99791  0.08974  0.80304  Biso   1.000  O 
  O11      1.0000 0.96010  0.34949  0.74536  Biso   1.000  O 
  O12      1.0000 0.97302  0.39625  0.48240  Biso   1.000  O 
  O13      1.0000 0.24924  0.16206  0.80718  Biso   1.000  O 
  O14      1.0000 0.26673  0.08411  0.55899  Biso   1.000  O 
  O15      1.0000 0.22460  0.34905  0.50949  Biso   1.000  O 
  O16      1.0000 0.20255  0.39927  0.75725  Biso   1.000  O 
  Hf9      1.0000 0.11766  0.50705  0.12689  Biso   1.000  Hf
  Hf10     1.0000 0.10324  0.75830  0.38100  Biso   1.000  Hf
  Hf11     1.0000 0.36899  0.75901  0.12661  Biso   1.000  Hf
  Hf12     1.0000 0.35573  0.49274  0.38018  Biso   1.000  Hf
  O17      1.0000 0.90319  0.65671  0.96332  Biso   1.000  O 
  O18      1.0000 0.94088  0.58328  0.20766  Biso   1.000  O 
  O19      1.0000 0.98351  0.84417  0.24975  Biso   1.000  O 
  O20      1.0000 0.00064  0.90478  0.00372  Biso   1.000  O 
  O21      1.0000 0.19221  0.66645  0.20676  Biso   1.000  O 
  O22      1.0000 0.15375  0.58117  0.96106  Biso   1.000  O 
  O23      1.0000 0.19226  0.84205  0.00711  Biso   1.000  O 
  O24      1.0000 0.24043  0.90184  0.25888  Biso   1.000  O 
  Hf13     1.0000 0.09002  0.49223  0.62489  Biso   1.000  Hf
  Hf14     1.0000 0.07586  0.75533  0.88255  Biso   1.000  Hf
  Hf15     1.0000 0.33806  0.75605  0.63037  Biso   1.000  Hf
  Hf16     1.0000 0.33036  0.49662  0.87470  Biso   1.000  Hf
  O25      1.0000 0.92847  0.65969  0.45819  Biso   1.000  O 
  O26      1.0000 0.91561  0.58782  0.70696  Biso   1.000  O 
  O27      1.0000 0.95382  0.84694  0.75503  Biso   1.000  O 
  O28      1.0000 0.97137  0.89845  0.50809  Biso   1.000  O 
  O29      1.0000 0.16598  0.65621  0.71234  Biso   1.000  O 
  O30      1.0000 0.18052  0.59120  0.45819  Biso   1.000  O 
  O31      1.0000 0.21766  0.84928  0.50484  Biso   1.000  O 
  O32      1.0000 0.20595  0.89877  0.76118  Biso   1.000  O 
  Hf17     1.0000 0.61543  0.99287  0.12419  Biso   1.000  Hf
  Hf18     1.0000 0.60489  0.25456  0.37736  Biso   1.000  Hf
  Hf19     1.0000 0.85369  0.26090  0.11870  Biso   1.000  Hf
  Hf20     1.0000 0.85155  0.99097  0.37661  Biso   1.000  Hf
  O33      1.0000 0.54194  0.15905  0.04633  Biso   1.000  O 
  O34      1.0000 0.53873  0.08484  0.29864  Biso   1.000  O 
  O35      1.0000 0.49110  0.34976  0.25441  Biso   1.000  O 
  O36      1.0000 0.42452  0.39478  0.00741  Biso   1.000  O 
  O37      1.0000 0.78496  0.16350  0.29439  Biso   1.000  O 
  O38      1.0000 0.79442  0.09189  0.04065  Biso   1.000  O 
  O39      1.0000 0.73847  0.35159  0.00033  Biso   1.000  O 
  O40      1.0000 0.73724  0.40071  0.24546  Biso   1.000  O 
  Hf21     1.0000 0.58849  0.99124  0.62959  Biso   1.000  Hf
  Hf22     1.0000 0.57197  0.25247  0.88150  Biso   1.000  Hf
  Hf23     1.0000 0.84112  0.25320  0.62389  Biso   1.000  Hf
  Hf24     1.0000 0.82346  0.98810  0.87961  Biso   1.000  Hf
  O41      1.0000 0.51408  0.15836  0.54755  Biso   1.000  O 
  O42      1.0000 0.49862  0.08746  0.79821  Biso   1.000  O 
  O43      1.0000 0.45971  0.34865  0.75803  Biso   1.000  O 
  O44      1.0000 0.47068  0.39808  0.50219  Biso   1.000  O 
  O45      1.0000 0.74868  0.15714  0.79721  Biso   1.000  O 
  O46      1.0000 0.76315  0.08816  0.54500  Biso   1.000  O 
  O47      1.0000 0.72456  0.34936  0.50452  Biso   1.000  O 
  O48      1.0000 0.70485  0.39601  0.75136  Biso   1.000  O 
  Hf25     1.0000 0.61192  0.49363  0.12534  Biso   1.000  Hf
  Hf26     1.0000 0.60331  0.75676  0.37647  Biso   1.000  Hf
  Hf27     1.0000 0.86672  0.75745  0.12558  Biso   1.000  Hf
  Hf28     1.0000 0.84636  0.49801  0.38081  Biso   1.000  Hf
  O49      1.0000 0.40203  0.65827  0.96207  Biso   1.000  O 
  O50      1.0000 0.44185  0.59190  0.20805  Biso   1.000  O 
  O51      1.0000 0.48517  0.85000  0.24878  Biso   1.000  O 
  O52      1.0000 0.50125  0.89987  0.00090  Biso   1.000  O 
  O53      1.0000 0.69387  0.65762  0.20706  Biso   1.000  O 
  O54      1.0000 0.64910  0.58710  0.96205  Biso   1.000  O 
  O55      1.0000 0.69377  0.84625  0.00394  Biso   1.000  O 
  O56      1.0000 0.73926  0.90020  0.25071  Biso   1.000  O 
  Hf29     1.0000 0.59086  0.48917  0.63039  Biso   1.000  Hf
  Hf30     1.0000 0.57601  0.75503  0.88114  Biso   1.000  Hf
  Hf31     1.0000 0.83886  0.75575  0.62956  Biso   1.000  Hf
  Hf32     1.0000 0.82212  0.49323  0.87650  Biso   1.000  Hf
  O57      1.0000 0.42966  0.66124  0.45944  Biso   1.000  O 
  O58      1.0000 0.41775  0.58881  0.70902  Biso   1.000  O 
  O59      1.0000 0.45375  0.84605  0.75355  Biso   1.000  O 
  O60      1.0000 0.47475  0.89827  0.50823  Biso   1.000  O 
  O61      1.0000 0.66640  0.65664  0.71133  Biso   1.000  O 
  O62      1.0000 0.67748  0.58949  0.46040  Biso   1.000  O 
  O63      1.0000 0.71878  0.84676  0.49988  Biso   1.000  O 
  O64      1.0000 0.70818  0.89821  0.75663  Biso   1.000  O 
  B1       1.0000 0.11959  0.24876  0.12807  Biso   1.000  B 
