data_image0
_cell_length_a       10.0064
_cell_length_b       5.1864
_cell_length_c       10.0572
_cell_angle_alpha    90
_cell_angle_beta     90
_cell_angle_gamma    90

_symmetry_space_group_name_H-M    "P 1"
_symmetry_int_tables_number       1

loop_
  _symmetry_equiv_pos_as_xyz
  'x, y, z'

loop_
  _atom_site_label
  _atom_site_occupancy
  _atom_site_fract_x
  _atom_site_fract_y
  _atom_site_fract_z
  _atom_site_thermal_displace_type
  _atom_site_B_iso_or_equiv
  _atom_site_type_symbol
  Hf1      1.0000 0.13640  0.03587  0.11273  Biso   1.000  Hf
  Hf2      1.0000 0.13686  0.44739  0.39741  Biso   1.000  Hf
  Hf3      1.0000 0.36437  0.51639  0.11780  Biso   1.000  Hf
  Hf4      1.0000 0.37341  0.96522  0.37903  Biso   1.000  Hf
  O1       1.0000 0.02238  0.36703  0.22219  Biso   1.000  O 
  O2       1.0000 0.03908  0.12421  0.45510  Biso   1.000  O 
  O3       1.0000 0.45237  0.85740  0.19683  Biso   1.000  O 
  O4       1.0000 0.46534  0.62275  0.44319  Biso   1.000  O 
  O5       1.0000 0.26338  0.20580  0.25708  Biso   1.000  O 
  O6       1.0000 0.28047  0.25156  0.50627  Biso   1.000  O 
  O7       1.0000 0.23288  0.75875  0.49602  Biso   1.000  O 
  O8       1.0000 0.19523  0.67961  0.22872  Biso   1.000  O 
  Hf5      1.0000 0.14399  0.02528  0.63277  Biso   1.000  Hf
  Hf6      1.0000 0.14291  0.46683  0.88893  Biso   1.000  Hf
  Hf7      1.0000 0.37259  0.52483  0.62907  Biso   1.000  Hf
  Hf8      1.0000 0.37926  0.96188  0.86839  Biso   1.000  Hf
  O9       1.0000 0.04545  0.36615  0.69286  Biso   1.000  O 
  O10      1.0000 0.04671  0.12222  0.94228  Biso   1.000  O 
  O11      1.0000 0.46913  0.86164  0.68666  Biso   1.000  O 
  O12      1.0000 0.47642  0.62067  0.94286  Biso   1.000  O 
  O13      1.0000 0.27725  0.23329  0.75287  Biso   1.000  O 
  O14      1.0000 0.29964  0.23654  0.99124  Biso   1.000  O 
  O15      1.0000 0.25059  0.76819  0.99346  Biso   1.000  O 
  O16      1.0000 0.23493  0.72915  0.74952  Biso   1.000  O 
  Hf9      1.0000 0.63246  0.03279  0.12718  Biso   1.000  Hf
  Hf10     1.0000 0.63830  0.46704  0.37516  Biso   1.000  Hf
  Hf11     1.0000 0.86126  0.54742  0.11658  Biso   1.000  Hf
  Hf12     1.0000 0.86493  0.96953  0.37333  Biso   1.000  Hf
  O17      1.0000 0.53023  0.35698  0.19761  Biso   1.000  O 
  O18      1.0000 0.54313  0.12816  0.44590  Biso   1.000  O 
  O19      1.0000 0.95228  0.88603  0.19084  Biso   1.000  O 
  O20      1.0000 0.96761  0.63491  0.44787  Biso   1.000  O 
  O21      1.0000 0.76741  0.23771  0.24934  Biso   1.000  O 
  O22      1.0000 0.77556  0.26632  0.49862  Biso   1.000  O 
  O23      1.0000 0.73202  0.76369  0.49690  Biso   1.000  O 
  O24      1.0000 0.72402  0.73724  0.24706  Biso   1.000  O 
  Hf13     1.0000 0.64668  0.02976  0.62441  Biso   1.000  Hf
  Hf14     1.0000 0.64489  0.45858  0.87495  Biso   1.000  Hf
  Hf15     1.0000 0.87573  0.53136  0.62715  Biso   1.000  Hf
  Hf16     1.0000 0.86663  0.96386  0.87238  Biso   1.000  Hf
  O25      1.0000 0.54193  0.35803  0.69655  Biso   1.000  O 
  O26      1.0000 0.55427  0.11885  0.94361  Biso   1.000  O 
  O27      1.0000 0.96510  0.86922  0.69402  Biso   1.000  O 
  O28      1.0000 0.95696  0.62211  0.92504  Biso   1.000  O 
  O29      1.0000 0.77937  0.23378  0.74799  Biso   1.000  O 
  O30      1.0000 0.76964  0.26491  0.00027  Biso   1.000  O 
  O31      1.0000 0.73401  0.75675  0.99950  Biso   1.000  O 
  O32      1.0000 0.73168  0.73427  0.74717  Biso   1.000  O 
  B1       1.0000 0.10864  0.51752  0.14198  Biso   1.000  B 
