data_image0
_cell_length_a       9.99745
_cell_length_b       10.376
_cell_length_c       5.03145
_cell_angle_alpha    90
_cell_angle_beta     90
_cell_angle_gamma    90

_symmetry_space_group_name_H-M    "P 1"
_symmetry_int_tables_number       1

loop_
  _symmetry_equiv_pos_as_xyz
  'x, y, z'

loop_
  _atom_site_label
  _atom_site_occupancy
  _atom_site_fract_x
  _atom_site_fract_y
  _atom_site_fract_z
  _atom_site_thermal_displace_type
  _atom_site_B_iso_or_equiv
  _atom_site_type_symbol
  Hf1      1.0000 0.14631  0.01491  0.25652  Biso   1.000  Hf
  Hf2      1.0000 0.13670  0.22929  0.81919  Biso   1.000  Hf
  Hf3      1.0000 0.36397  0.26078  0.24159  Biso   1.000  Hf
  Hf4      1.0000 0.37420  0.48936  0.74353  Biso   1.000  Hf
  O1       1.0000 0.02549  0.18288  0.45338  Biso   1.000  O 
  O2       1.0000 0.03732  0.06513  0.92675  Biso   1.000  O 
  O3       1.0000 0.45330  0.43005  0.38544  Biso   1.000  O 
  O4       1.0000 0.46521  0.31339  0.87896  Biso   1.000  O 
  O5       1.0000 0.27047  0.11495  0.51845  Biso   1.000  O 
  O6       1.0000 0.29677  0.11361  0.99875  Biso   1.000  O 
  O7       1.0000 0.24168  0.38998  0.97555  Biso   1.000  O 
  O8       1.0000 0.19255  0.34801  0.46224  Biso   1.000  O 
  Hf5      1.0000 0.12050  0.51650  0.22982  Biso   1.000  Hf
  Hf6      1.0000 0.12588  0.73154  0.74474  Biso   1.000  Hf
  Hf7      1.0000 0.35768  0.76106  0.24713  Biso   1.000  Hf
  Hf8      1.0000 0.36164  0.97585  0.74785  Biso   1.000  Hf
  O9       1.0000 0.02925  0.68488  0.37856  Biso   1.000  O 
  O10      1.0000 0.02873  0.56558  0.87875  Biso   1.000  O 
  O11      1.0000 0.45666  0.92904  0.38199  Biso   1.000  O 
  O12      1.0000 0.46087  0.81146  0.89426  Biso   1.000  O 
  O13      1.0000 0.25816  0.60598  0.48953  Biso   1.000  O 
  O14      1.0000 0.26451  0.63315  0.98737  Biso   1.000  O 
  O15      1.0000 0.22190  0.87712  0.99903  Biso   1.000  O 
  O16      1.0000 0.22657  0.86089  0.49804  Biso   1.000  O 
  Hf9      1.0000 0.63677  0.01716  0.24572  Biso   1.000  Hf
  Hf10     1.0000 0.63424  0.22982  0.74541  Biso   1.000  Hf
  Hf11     1.0000 0.86102  0.27223  0.23917  Biso   1.000  Hf
  Hf12     1.0000 0.85779  0.48324  0.74601  Biso   1.000  Hf
  O17      1.0000 0.53408  0.18061  0.38222  Biso   1.000  O 
  O18      1.0000 0.54761  0.05927  0.87709  Biso   1.000  O 
  O19      1.0000 0.94591  0.44442  0.37727  Biso   1.000  O 
  O20      1.0000 0.95510  0.31895  0.86866  Biso   1.000  O 
  O21      1.0000 0.77197  0.11763  0.49069  Biso   1.000  O 
  O22      1.0000 0.77483  0.13291  0.99138  Biso   1.000  O 
  O23      1.0000 0.72389  0.38043  0.99740  Biso   1.000  O 
  O24      1.0000 0.72023  0.36924  0.49410  Biso   1.000  O 
  Hf13     1.0000 0.62808  0.51639  0.25616  Biso   1.000  Hf
  Hf14     1.0000 0.63215  0.73535  0.75287  Biso   1.000  Hf
  Hf15     1.0000 0.86023  0.76936  0.24911  Biso   1.000  Hf
  Hf16     1.0000 0.85839  0.98594  0.74716  Biso   1.000  Hf
  O25      1.0000 0.52236  0.67705  0.40828  Biso   1.000  O 
  O26      1.0000 0.53313  0.56696  0.90267  Biso   1.000  O 
  O27      1.0000 0.96105  0.93305  0.40041  Biso   1.000  O 
  O28      1.0000 0.95729  0.81582  0.88574  Biso   1.000  O 
  O29      1.0000 0.76141  0.62088  0.50081  Biso   1.000  O 
  O30      1.0000 0.76017  0.63395  0.00340  Biso   1.000  O 
  O31      1.0000 0.72691  0.88228  0.99735  Biso   1.000  O 
  O32      1.0000 0.72243  0.86857  0.49631  Biso   1.000  O 
  B1       1.0000 0.11157  0.25983  0.29925  Biso   1.000  B 
