data_image0
_cell_length_a       10.0822
_cell_length_b       5.07367
_cell_length_c       10.4741
_cell_angle_alpha    90
_cell_angle_beta     90
_cell_angle_gamma    90

_symmetry_space_group_name_H-M    "P 1"
_symmetry_int_tables_number       1

loop_
  _symmetry_equiv_pos_as_xyz
  'x, y, z'

loop_
  _atom_site_label
  _atom_site_occupancy
  _atom_site_fract_x
  _atom_site_fract_y
  _atom_site_fract_z
  _atom_site_thermal_displace_type
  _atom_site_B_iso_or_equiv
  _atom_site_type_symbol
  B1       1.0000 0.02124  0.12140  0.17918  Biso   1.000  B 
  Hf1      1.0000 0.14066  0.45810  0.41735  Biso   1.000  Hf
  Hf2      1.0000 0.35272  0.53926  0.17294  Biso   1.000  Hf
  Hf3      1.0000 0.35477  0.95851  0.41853  Biso   1.000  Hf
  Hf4      1.0000 0.63865  0.04666  0.07859  Biso   1.000  Hf
  Hf5      1.0000 0.63324  0.45644  0.32781  Biso   1.000  Hf
  Hf6      1.0000 0.86022  0.55274  0.07642  Biso   1.000  Hf
  Hf7      1.0000 0.85053  0.95530  0.33557  Biso   1.000  Hf
  O1       1.0000 0.03118  0.31463  0.08871  Biso   1.000  O 
  O2       1.0000 0.02507  0.18911  0.30732  Biso   1.000  O 
  O3       1.0000 0.47421  0.81873  0.08297  Biso   1.000  O 
  O4       1.0000 0.47208  0.68585  0.32955  Biso   1.000  O 
  O5       1.0000 0.28246  0.25788  0.30610  Biso   1.000  O 
  O6       1.0000 0.28815  0.25936  0.03820  Biso   1.000  O 
  O7       1.0000 0.22786  0.73698  0.30146  Biso   1.000  O 
  O8       1.0000 0.23492  0.73287  0.03915  Biso   1.000  O 
  O9       1.0000 0.53104  0.32600  0.16857  Biso   1.000  O 
  O10      1.0000 0.53158  0.17194  0.41925  Biso   1.000  O 
  O11      1.0000 0.96366  0.87844  0.16003  Biso   1.000  O 
  O12      1.0000 0.96515  0.67784  0.41522  Biso   1.000  O 
  O13      1.0000 0.77331  0.24209  0.45552  Biso   1.000  O 
  O14      1.0000 0.77561  0.25818  0.20550  Biso   1.000  O 
  O15      1.0000 0.72040  0.74103  0.45794  Biso   1.000  O 
  O16      1.0000 0.72857  0.75485  0.20664  Biso   1.000  O 
  Hf8      1.0000 0.13607  0.03953  0.67153  Biso   1.000  Hf
  Hf9      1.0000 0.14033  0.45384  0.92446  Biso   1.000  Hf
  Hf10     1.0000 0.35666  0.54108  0.67260  Biso   1.000  Hf
  Hf11     1.0000 0.35281  0.95605  0.92723  Biso   1.000  Hf
  Hf12     1.0000 0.63372  0.03815  0.58057  Biso   1.000  Hf
  Hf13     1.0000 0.63403  0.45967  0.82811  Biso   1.000  Hf
  Hf14     1.0000 0.86024  0.53595  0.57826  Biso   1.000  Hf
  Hf15     1.0000 0.85959  0.95768  0.82861  Biso   1.000  Hf
  O17      1.0000 0.02500  0.30388  0.56927  Biso   1.000  O 
  O18      1.0000 0.02703  0.17885  0.82840  Biso   1.000  O 
  O19      1.0000 0.46332  0.82430  0.58221  Biso   1.000  O 
  O20      1.0000 0.46522  0.67591  0.83121  Biso   1.000  O 
  O21      1.0000 0.27134  0.24258  0.79416  Biso   1.000  O 
  O22      1.0000 0.27200  0.25122  0.54775  Biso   1.000  O 
  O23      1.0000 0.21893  0.74162  0.79465  Biso   1.000  O 
  O24      1.0000 0.21870  0.74920  0.54588  Biso   1.000  O 
  O25      1.0000 0.52866  0.32529  0.66891  Biso   1.000  O 
  O26      1.0000 0.52995  0.17273  0.91804  Biso   1.000  O 
  O27      1.0000 0.96632  0.81241  0.67195  Biso   1.000  O 
  O28      1.0000 0.96590  0.67302  0.92423  Biso   1.000  O 
  O29      1.0000 0.77360  0.25696  0.95658  Biso   1.000  O 
  O30      1.0000 0.77292  0.24987  0.70516  Biso   1.000  O 
  O31      1.0000 0.72041  0.75410  0.95551  Biso   1.000  O 
  O32      1.0000 0.72201  0.75059  0.70552  Biso   1.000  O 
