data_image0
_cell_length_a       9.97788
_cell_length_b       10.3565
_cell_length_c       9.9823
_cell_angle_alpha    90
_cell_angle_beta     90
_cell_angle_gamma    90

_symmetry_space_group_name_H-M    "P 1"
_symmetry_int_tables_number       1

loop_
  _symmetry_equiv_pos_as_xyz
  'x, y, z'

loop_
  _atom_site_label
  _atom_site_occupancy
  _atom_site_fract_x
  _atom_site_fract_y
  _atom_site_fract_z
  _atom_site_thermal_displace_type
  _atom_site_B_iso_or_equiv
  _atom_site_type_symbol
  B1       1.0000 0.02001  0.05477  0.11405  Biso   1.000  B 
  Hf1      1.0000 0.13898  0.22920  0.37357  Biso   1.000  Hf
  Hf2      1.0000 0.36386  0.26336  0.12780  Biso   1.000  Hf
  Hf3      1.0000 0.36510  0.48324  0.37636  Biso   1.000  Hf
  O1       1.0000 0.03274  0.17072  0.18436  Biso   1.000  O 
  O2       1.0000 0.03602  0.06768  0.44793  Biso   1.000  O 
  O3       1.0000 0.46221  0.43398  0.19503  Biso   1.000  O 
  O4       1.0000 0.46404  0.31632  0.44603  Biso   1.000  O 
  O5       1.0000 0.28509  0.13019  0.25902  Biso   1.000  O 
  O6       1.0000 0.26923  0.13219  0.50397  Biso   1.000  O 
  O7       1.0000 0.22889  0.38035  0.50021  Biso   1.000  O 
  O8       1.0000 0.22446  0.36847  0.24921  Biso   1.000  O 
  Hf4      1.0000 0.13645  0.01598  0.62730  Biso   1.000  Hf
  Hf5      1.0000 0.13797  0.23329  0.88329  Biso   1.000  Hf
  Hf6      1.0000 0.36551  0.26694  0.62780  Biso   1.000  Hf
  Hf7      1.0000 0.36622  0.48408  0.87691  Biso   1.000  Hf
  O9       1.0000 0.03077  0.17728  0.71021  Biso   1.000  O 
  O10      1.0000 0.02981  0.06494  0.97523  Biso   1.000  O 
  O11      1.0000 0.46302  0.43529  0.69342  Biso   1.000  O 
  O12      1.0000 0.46613  0.31784  0.94227  Biso   1.000  O 
  O13      1.0000 0.26957  0.11776  0.75202  Biso   1.000  O 
  O14      1.0000 0.28069  0.13706  0.99509  Biso   1.000  O 
  O15      1.0000 0.22875  0.38131  0.00132  Biso   1.000  O 
  O16      1.0000 0.22852  0.36684  0.75256  Biso   1.000  O 
  Hf8      1.0000 0.13356  0.51588  0.12664  Biso   1.000  Hf
  Hf9      1.0000 0.13585  0.73464  0.37600  Biso   1.000  Hf
  Hf10     1.0000 0.36076  0.76710  0.12608  Biso   1.000  Hf
  Hf11     1.0000 0.35952  0.98277  0.36986  Biso   1.000  Hf
  O17      1.0000 0.03626  0.68740  0.19267  Biso   1.000  O 
  O18      1.0000 0.03601  0.56525  0.44482  Biso   1.000  O 
  O19      1.0000 0.46766  0.93312  0.19596  Biso   1.000  O 
  O20      1.0000 0.46753  0.81800  0.45018  Biso   1.000  O 
  O21      1.0000 0.26819  0.61341  0.24996  Biso   1.000  O 
  O22      1.0000 0.27198  0.63193  0.50029  Biso   1.000  O 
  O23      1.0000 0.22758  0.88226  0.50254  Biso   1.000  O 
  O24      1.0000 0.24153  0.85688  0.25921  Biso   1.000  O 
  Hf12     1.0000 0.13484  0.51730  0.62600  Biso   1.000  Hf
  Hf13     1.0000 0.13621  0.73505  0.87898  Biso   1.000  Hf
  Hf14     1.0000 0.36593  0.76827  0.62700  Biso   1.000  Hf
  Hf15     1.0000 0.35961  0.98302  0.88348  Biso   1.000  Hf
  O25      1.0000 0.03664  0.68449  0.69196  Biso   1.000  O 
  O26      1.0000 0.03570  0.56704  0.94540  Biso   1.000  O 
  O27      1.0000 0.46129  0.93456  0.69881  Biso   1.000  O 
  O28      1.0000 0.46904  0.81830  0.94693  Biso   1.000  O 
  O29      1.0000 0.27048  0.61882  0.75089  Biso   1.000  O 
  O30      1.0000 0.27084  0.62706  0.00103  Biso   1.000  O 
  O31      1.0000 0.23412  0.87202  0.99770  Biso   1.000  O 
  O32      1.0000 0.22654  0.86953  0.75007  Biso   1.000  O 
  Hf16     1.0000 0.63600  0.01738  0.12393  Biso   1.000  Hf
  Hf17     1.0000 0.63250  0.23363  0.37583  Biso   1.000  Hf
  Hf18     1.0000 0.85746  0.27391  0.12432  Biso   1.000  Hf
  Hf19     1.0000 0.86636  0.48368  0.37694  Biso   1.000  Hf
  O33      1.0000 0.54186  0.18695  0.19017  Biso   1.000  O 
  O34      1.0000 0.53639  0.06616  0.44230  Biso   1.000  O 
  O35      1.0000 0.96388  0.43051  0.19610  Biso   1.000  O 
  O36      1.0000 0.96529  0.31355  0.44267  Biso   1.000  O 
  O37      1.0000 0.77278  0.12063  0.24865  Biso   1.000  O 
  O38      1.0000 0.77107  0.13244  0.49812  Biso   1.000  O 
  O39      1.0000 0.73075  0.38207  0.49975  Biso   1.000  O 
  O40      1.0000 0.72602  0.37140  0.25043  Biso   1.000  O 
  Hf20     1.0000 0.63100  0.01453  0.62311  Biso   1.000  Hf
  Hf21     1.0000 0.63347  0.23277  0.87377  Biso   1.000  Hf
  Hf22     1.0000 0.86839  0.26445  0.62544  Biso   1.000  Hf
  Hf23     1.0000 0.86774  0.48448  0.87374  Biso   1.000  Hf
  O41      1.0000 0.53602  0.18432  0.69267  Biso   1.000  O 
  O42      1.0000 0.53925  0.06588  0.94419  Biso   1.000  O 
  O43      1.0000 0.96540  0.43234  0.69321  Biso   1.000  O 
  O44      1.0000 0.96592  0.31807  0.94690  Biso   1.000  O 
  O45      1.0000 0.76777  0.11521  0.74663  Biso   1.000  O 
  O46      1.0000 0.77315  0.13524  0.99681  Biso   1.000  O 
  O47      1.0000 0.73016  0.38497  0.99925  Biso   1.000  O 
  O48      1.0000 0.73152  0.36615  0.74864  Biso   1.000  O 
  Hf24     1.0000 0.63130  0.51894  0.12713  Biso   1.000  Hf
  Hf25     1.0000 0.63391  0.73559  0.37393  Biso   1.000  Hf
  Hf26     1.0000 0.86825  0.76626  0.12060  Biso   1.000  Hf
  Hf27     1.0000 0.86327  0.98739  0.37678  Biso   1.000  Hf
  O49      1.0000 0.53578  0.68484  0.19527  Biso   1.000  O 
  O50      1.0000 0.53652  0.56633  0.44285  Biso   1.000  O 
  O51      1.0000 0.96456  0.95051  0.17942  Biso   1.000  O 
  O52      1.0000 0.96305  0.81852  0.43871  Biso   1.000  O 
  O53      1.0000 0.77228  0.61790  0.24816  Biso   1.000  O 
  O54      1.0000 0.76950  0.63331  0.49815  Biso   1.000  O 
  O55      1.0000 0.73005  0.88402  0.49792  Biso   1.000  O 
  O56      1.0000 0.73656  0.86856  0.24702  Biso   1.000  O 
  Hf28     1.0000 0.63364  0.51618  0.62457  Biso   1.000  Hf
  Hf29     1.0000 0.63392  0.73435  0.87451  Biso   1.000  Hf
  Hf30     1.0000 0.86720  0.76572  0.62330  Biso   1.000  Hf
  Hf31     1.0000 0.86196  0.98356  0.87118  Biso   1.000  Hf
  O57      1.0000 0.53599  0.68369  0.69461  Biso   1.000  O 
  O58      1.0000 0.53714  0.56649  0.94415  Biso   1.000  O 
  O59      1.0000 0.96241  0.93363  0.69427  Biso   1.000  O 
  O60      1.0000 0.96136  0.81614  0.93779  Biso   1.000  O 
  O61      1.0000 0.77129  0.61668  0.74764  Biso   1.000  O 
  O62      1.0000 0.77127  0.63474  0.99895  Biso   1.000  O 
  O63      1.0000 0.73057  0.88508  0.99666  Biso   1.000  O 
  O64      1.0000 0.72913  0.86640  0.74696  Biso   1.000  O 
