data_image0
_cell_length_a       10.0506
_cell_length_b       10.1941
_cell_length_c       10.4637
_cell_angle_alpha    90
_cell_angle_beta     90
_cell_angle_gamma    90

_symmetry_space_group_name_H-M    "P 1"
_symmetry_int_tables_number       1

loop_
  _symmetry_equiv_pos_as_xyz
  'x, y, z'

loop_
  _atom_site_label
  _atom_site_occupancy
  _atom_site_fract_x
  _atom_site_fract_y
  _atom_site_fract_z
  _atom_site_thermal_displace_type
  _atom_site_B_iso_or_equiv
  _atom_site_type_symbol
  B1       1.0000 0.02178  0.05912  0.17757  Biso   1.000  B 
  Hf1      1.0000 0.14166  0.22708  0.41844  Biso   1.000  Hf
  Hf2      1.0000 0.35428  0.26274  0.17270  Biso   1.000  Hf
  Hf3      1.0000 0.35882  0.47829  0.42123  Biso   1.000  Hf
  Hf4      1.0000 0.64063  0.02186  0.07743  Biso   1.000  Hf
  Hf5      1.0000 0.63573  0.22976  0.32815  Biso   1.000  Hf
  Hf6      1.0000 0.85699  0.27509  0.07804  Biso   1.000  Hf
  Hf7      1.0000 0.86129  0.47950  0.32862  Biso   1.000  Hf
  O1       1.0000 0.03118  0.15397  0.08616  Biso   1.000  O 
  O2       1.0000 0.02649  0.09319  0.30615  Biso   1.000  O 
  O3       1.0000 0.46698  0.41117  0.08414  Biso   1.000  O 
  O4       1.0000 0.46851  0.33887  0.33259  Biso   1.000  O 
  O5       1.0000 0.28423  0.13215  0.30769  Biso   1.000  O 
  O6       1.0000 0.29080  0.13683  0.03308  Biso   1.000  O 
  O7       1.0000 0.22104  0.37477  0.29585  Biso   1.000  O 
  O8       1.0000 0.21964  0.37558  0.04741  Biso   1.000  O 
  O9       1.0000 0.53274  0.16402  0.16724  Biso   1.000  O 
  O10      1.0000 0.53260  0.08581  0.41759  Biso   1.000  O 
  O11      1.0000 0.96681  0.41383  0.16756  Biso   1.000  O 
  O12      1.0000 0.96719  0.33549  0.41658  Biso   1.000  O 
  O13      1.0000 0.77459  0.12188  0.45465  Biso   1.000  O 
  O14      1.0000 0.77552  0.12788  0.20540  Biso   1.000  O 
  O15      1.0000 0.72363  0.37271  0.45534  Biso   1.000  O 
  O16      1.0000 0.72270  0.37746  0.20435  Biso   1.000  O 
  Hf8      1.0000 0.13722  0.01963  0.67084  Biso   1.000  Hf
  Hf9      1.0000 0.14121  0.22452  0.92379  Biso   1.000  Hf
  Hf10     1.0000 0.35838  0.27003  0.67235  Biso   1.000  Hf
  Hf11     1.0000 0.35655  0.47700  0.92481  Biso   1.000  Hf
  Hf12     1.0000 0.63461  0.01961  0.57919  Biso   1.000  Hf
  Hf13     1.0000 0.63672  0.22882  0.82760  Biso   1.000  Hf
  Hf14     1.0000 0.86137  0.26960  0.57653  Biso   1.000  Hf
  Hf15     1.0000 0.86146  0.47765  0.82950  Biso   1.000  Hf
  O17      1.0000 0.02681  0.15297  0.56916  Biso   1.000  O 
  O18      1.0000 0.02868  0.08878  0.82947  Biso   1.000  O 
  O19      1.0000 0.46586  0.41343  0.58321  Biso   1.000  O 
  O20      1.0000 0.46633  0.33612  0.83267  Biso   1.000  O 
  O21      1.0000 0.27238  0.12201  0.79263  Biso   1.000  O 
  O22      1.0000 0.27330  0.12539  0.54807  Biso   1.000  O 
  O23      1.0000 0.22164  0.37119  0.79712  Biso   1.000  O 
  O24      1.0000 0.22160  0.37414  0.54472  Biso   1.000  O 
  O25      1.0000 0.52975  0.16370  0.66748  Biso   1.000  O 
  O26      1.0000 0.53352  0.08450  0.91632  Biso   1.000  O 
  O27      1.0000 0.96872  0.40867  0.67020  Biso   1.000  O 
  O28      1.0000 0.96632  0.33413  0.92285  Biso   1.000  O 
  O29      1.0000 0.77542  0.12569  0.95444  Biso   1.000  O 
  O30      1.0000 0.77369  0.12532  0.70368  Biso   1.000  O 
  O31      1.0000 0.72078  0.37544  0.95489  Biso   1.000  O 
  O32      1.0000 0.72374  0.37552  0.70459  Biso   1.000  O 
  Hf16     1.0000 0.13951  0.52080  0.17231  Biso   1.000  Hf
  Hf17     1.0000 0.13986  0.73058  0.41995  Biso   1.000  Hf
  Hf18     1.0000 0.35491  0.77664  0.17292  Biso   1.000  Hf
  Hf19     1.0000 0.35486  0.97975  0.41783  Biso   1.000  Hf
  Hf20     1.0000 0.63588  0.52223  0.07959  Biso   1.000  Hf
  Hf21     1.0000 0.63612  0.72770  0.32740  Biso   1.000  Hf
  Hf22     1.0000 0.86415  0.77171  0.07699  Biso   1.000  Hf
  Hf23     1.0000 0.85147  0.97705  0.33495  Biso   1.000  Hf
  O33      1.0000 0.03434  0.67023  0.08730  Biso   1.000  O 
  O34      1.0000 0.03085  0.58680  0.33319  Biso   1.000  O 
  O35      1.0000 0.47406  0.91288  0.08326  Biso   1.000  O 
  O36      1.0000 0.47361  0.84328  0.32899  Biso   1.000  O 
  O37      1.0000 0.27648  0.62091  0.29518  Biso   1.000  O 
  O38      1.0000 0.27533  0.62071  0.04745  Biso   1.000  O 
  O39      1.0000 0.22915  0.86589  0.30282  Biso   1.000  O 
  O40      1.0000 0.23807  0.86578  0.03641  Biso   1.000  O 
  O41      1.0000 0.52954  0.66370  0.16848  Biso   1.000  O 
  O42      1.0000 0.53013  0.58679  0.41860  Biso   1.000  O 
  O43      1.0000 0.96407  0.93847  0.15893  Biso   1.000  O 
  O44      1.0000 0.96548  0.83823  0.41547  Biso   1.000  O 
  O45      1.0000 0.77442  0.62272  0.45532  Biso   1.000  O 
  O46      1.0000 0.77558  0.62705  0.20450  Biso   1.000  O 
  O47      1.0000 0.72045  0.87173  0.45717  Biso   1.000  O 
  O48      1.0000 0.72980  0.87587  0.20685  Biso   1.000  O 
  Hf24     1.0000 0.13727  0.52109  0.67297  Biso   1.000  Hf
  Hf25     1.0000 0.14009  0.73173  0.92342  Biso   1.000  Hf
  Hf26     1.0000 0.35890  0.77133  0.67208  Biso   1.000  Hf
  Hf27     1.0000 0.35578  0.97918  0.92566  Biso   1.000  Hf
  Hf28     1.0000 0.63736  0.51981  0.57934  Biso   1.000  Hf
  Hf29     1.0000 0.63586  0.72933  0.82895  Biso   1.000  Hf
  Hf30     1.0000 0.85971  0.76891  0.57959  Biso   1.000  Hf
  Hf31     1.0000 0.85892  0.97940  0.82787  Biso   1.000  Hf
  O49      1.0000 0.03003  0.66292  0.58396  Biso   1.000  O 
  O50      1.0000 0.03109  0.58355  0.83449  Biso   1.000  O 
  O51      1.0000 0.46469  0.91290  0.58157  Biso   1.000  O 
  O52      1.0000 0.46660  0.83690  0.83159  Biso   1.000  O 
  O53      1.0000 0.27458  0.62265  0.79613  Biso   1.000  O 
  O54      1.0000 0.27439  0.62579  0.54573  Biso   1.000  O 
  O55      1.0000 0.22096  0.87310  0.79289  Biso   1.000  O 
  O56      1.0000 0.22047  0.87622  0.54692  Biso   1.000  O 
  O57      1.0000 0.53096  0.66313  0.66787  Biso   1.000  O 
  O58      1.0000 0.52840  0.58571  0.91817  Biso   1.000  O 
  O59      1.0000 0.96442  0.91230  0.66798  Biso   1.000  O 
  O60      1.0000 0.96571  0.83557  0.91678  Biso   1.000  O 
  O61      1.0000 0.77406  0.62573  0.95695  Biso   1.000  O 
  O62      1.0000 0.77490  0.62482  0.70610  Biso   1.000  O 
  O63      1.0000 0.72243  0.87480  0.95526  Biso   1.000  O 
  O64      1.0000 0.72159  0.87489  0.70543  Biso   1.000  O 
