data_image0
_cell_length_a       10.2229
_cell_length_b       5.13712
_cell_length_c       10.4842
_cell_angle_alpha    90
_cell_angle_beta     80
_cell_angle_gamma    90

_symmetry_space_group_name_H-M    "P 1"
_symmetry_int_tables_number       1

loop_
  _symmetry_equiv_pos_as_xyz
  'x, y, z'

loop_
  _atom_site_label
  _atom_site_occupancy
  _atom_site_fract_x
  _atom_site_fract_y
  _atom_site_fract_z
  _atom_site_thermal_displace_type
  _atom_site_B_iso_or_equiv
  _atom_site_type_symbol
  Hf1      1.0000 0.12996  0.03647  0.13657  Biso   1.000  Hf
  Hf2      1.0000 0.13669  0.46908  0.38589  Biso   1.000  Hf
  Hf3      1.0000 0.36016  0.53103  0.11882  Biso   1.000  Hf
  Hf4      1.0000 0.35303  0.95348  0.33805  Biso   1.000  Hf
  O1       1.0000 0.03031  0.34306  0.07762  Biso   1.000  O 
  O2       1.0000 0.02652  0.17617  0.32721  Biso   1.000  O 
  O3       1.0000 0.45993  0.85729  0.16287  Biso   1.000  O 
  O4       1.0000 0.46916  0.65103  0.41886  Biso   1.000  O 
  O5       1.0000 0.25634  0.23737  0.23204  Biso   1.000  O 
  O6       1.0000 0.30896  0.31236  0.45556  Biso   1.000  O 
  O7       1.0000 0.22202  0.75142  0.00791  Biso   1.000  O 
  O8       1.0000 0.19776  0.75715  0.25156  Biso   1.000  O 
  Hf5      1.0000 0.13088  0.04081  0.65482  Biso   1.000  Hf
  Hf6      1.0000 0.13768  0.46346  0.89823  Biso   1.000  Hf
  Hf7      1.0000 0.36198  0.55439  0.61294  Biso   1.000  Hf
  Hf8      1.0000 0.36133  0.95543  0.85970  Biso   1.000  Hf
  O9       1.0000 0.04792  0.34066  0.57568  Biso   1.000  O 
  O10      1.0000 0.03271  0.16403  0.83425  Biso   1.000  O 
  O11      1.0000 0.46606  0.83995  0.67379  Biso   1.000  O 
  O12      1.0000 0.46350  0.66346  0.92481  Biso   1.000  O 
  O13      1.0000 0.27463  0.25991  0.73385  Biso   1.000  O 
  O14      1.0000 0.27405  0.24414  0.98635  Biso   1.000  O 
  O15      1.0000 0.23180  0.79892  0.51318  Biso   1.000  O 
  O16      1.0000 0.22442  0.74651  0.76258  Biso   1.000  O 
  Hf9      1.0000 0.63915  0.04006  0.14937  Biso   1.000  Hf
  Hf10     1.0000 0.64937  0.44463  0.39915  Biso   1.000  Hf
  Hf11     1.0000 0.85701  0.53943  0.10433  Biso   1.000  Hf
  Hf12     1.0000 0.86066  0.95598  0.35421  Biso   1.000  Hf
  O17      1.0000 0.53733  0.33935  0.08477  Biso   1.000  O 
  O18      1.0000 0.54382  0.14587  0.33639  Biso   1.000  O 
  O19      1.0000 0.95343  0.83921  0.16979  Biso   1.000  O 
  O20      1.0000 0.96329  0.67181  0.42564  Biso   1.000  O 
  O21      1.0000 0.77778  0.25425  0.24240  Biso   1.000  O 
  O22      1.0000 0.77970  0.23936  0.49457  Biso   1.000  O 
  O23      1.0000 0.72089  0.75627  0.01168  Biso   1.000  O 
  O24      1.0000 0.72002  0.73283  0.26253  Biso   1.000  O 
  Hf13     1.0000 0.64009  0.04477  0.64926  Biso   1.000  Hf
  Hf14     1.0000 0.63485  0.46077  0.89969  Biso   1.000  Hf
  Hf15     1.0000 0.86354  0.54176  0.60634  Biso   1.000  Hf
  Hf16     1.0000 0.85608  0.95857  0.85900  Biso   1.000  Hf
  O25      1.0000 0.53687  0.34238  0.58406  Biso   1.000  O 
  O26      1.0000 0.53680  0.16274  0.83260  Biso   1.000  O 
  O27      1.0000 0.96323  0.83277  0.67615  Biso   1.000  O 
  O28      1.0000 0.96265  0.66796  0.92094  Biso   1.000  O 
  O29      1.0000 0.77808  0.25810  0.74204  Biso   1.000  O 
  O30      1.0000 0.77423  0.24426  0.99275  Biso   1.000  O 
  O31      1.0000 0.72443  0.75345  0.51383  Biso   1.000  O 
  O32      1.0000 0.72372  0.74235  0.76164  Biso   1.000  O 
  B1       1.0000 0.38712  0.48441  0.35582  Biso   1.000  B 
