data_image0
_cell_length_a       10.0657
_cell_length_b       10.4376
_cell_length_c       5.04151
_cell_angle_alpha    90
_cell_angle_beta     90
_cell_angle_gamma    90

_symmetry_space_group_name_H-M    "P 1"
_symmetry_int_tables_number       1

loop_
  _symmetry_equiv_pos_as_xyz
  'x, y, z'

loop_
  _atom_site_label
  _atom_site_occupancy
  _atom_site_fract_x
  _atom_site_fract_y
  _atom_site_fract_z
  _atom_site_thermal_displace_type
  _atom_site_B_iso_or_equiv
  _atom_site_type_symbol
  Ba1      1.0000 0.11001  0.99931  0.25021  Biso   1.000  Ba
  Hf1      1.0000 0.13323  0.51528  0.25189  Biso   1.000  Hf
  Hf2      1.0000 0.63535  0.01729  0.25260  Biso   1.000  Hf
  Hf3      1.0000 0.63015  0.51259  0.25576  Biso   1.000  Hf
  Hf4      1.0000 0.13274  0.23465  0.74510  Biso   1.000  Hf
  Hf5      1.0000 0.13531  0.72993  0.75748  Biso   1.000  Hf
  Hf6      1.0000 0.63112  0.23323  0.75119  Biso   1.000  Hf
  Hf7      1.0000 0.62946  0.72827  0.75818  Biso   1.000  Hf
  Hf8      1.0000 0.36413  0.26474  0.25563  Biso   1.000  Hf
  Hf9      1.0000 0.36958  0.76116  0.25371  Biso   1.000  Hf
  Hf10     1.0000 0.86040  0.27138  0.25151  Biso   1.000  Hf
  Hf11     1.0000 0.85972  0.75585  0.24597  Biso   1.000  Hf
  Hf12     1.0000 0.36263  0.47980  0.75497  Biso   1.000  Hf
  Hf13     1.0000 0.36745  0.98281  0.74861  Biso   1.000  Hf
  Hf14     1.0000 0.86463  0.48172  0.75427  Biso   1.000  Hf
  Hf15     1.0000 0.85127  0.98354  0.76006  Biso   1.000  Hf
  O1       1.0000 0.03475  0.21263  0.37978  Biso   1.000  O 
  O2       1.0000 0.03675  0.69410  0.38843  Biso   1.000  O 
  O3       1.0000 0.53857  0.18540  0.38298  Biso   1.000  O 
  O4       1.0000 0.53585  0.67925  0.39884  Biso   1.000  O 
  O5       1.0000 0.03010  0.06768  0.79112  Biso   1.000  O 
  O6       1.0000 0.03160  0.56749  0.89377  Biso   1.000  O 
  O7       1.0000 0.54102  0.06423  0.88791  Biso   1.000  O 
  O8       1.0000 0.53080  0.56402  0.89884  Biso   1.000  O 
  O9       1.0000 0.46340  0.43171  0.39596  Biso   1.000  O 
  O10      1.0000 0.46645  0.93318  0.39112  Biso   1.000  O 
  O11      1.0000 0.95863  0.44344  0.38803  Biso   1.000  O 
  O12      1.0000 0.90874  0.93609  0.38038  Biso   1.000  O 
  O13      1.0000 0.46254  0.31471  0.89070  Biso   1.000  O 
  O14      1.0000 0.47045  0.81602  0.90196  Biso   1.000  O 
  O15      1.0000 0.96174  0.31844  0.89050  Biso   1.000  O 
  O16      1.0000 0.96713  0.82101  0.90056  Biso   1.000  O 
  O17      1.0000 0.28636  0.12955  0.51960  Biso   1.000  O 
  O18      1.0000 0.26621  0.61053  0.50175  Biso   1.000  O 
  O19      1.0000 0.76561  0.12135  0.50696  Biso   1.000  O 
  O20      1.0000 0.76845  0.61551  0.49871  Biso   1.000  O 
  O21      1.0000 0.27329  0.13192  0.99310  Biso   1.000  O 
  O22      1.0000 0.27011  0.62830  0.00368  Biso   1.000  O 
  O23      1.0000 0.77257  0.13300  0.00468  Biso   1.000  O 
  O24      1.0000 0.76574  0.62678  0.99612  Biso   1.000  O 
  O25      1.0000 0.22899  0.38275  0.00290  Biso   1.000  O 
  O26      1.0000 0.24383  0.86933  0.99025  Biso   1.000  O 
  O27      1.0000 0.72587  0.38145  0.99970  Biso   1.000  O 
  O28      1.0000 0.72526  0.87576  0.00608  Biso   1.000  O 
  O29      1.0000 0.22757  0.36983  0.50000  Biso   1.000  O 
  O30      1.0000 0.24929  0.85034  0.52165  Biso   1.000  O 
  O31      1.0000 0.72745  0.36929  0.50297  Biso   1.000  O 
  O32      1.0000 0.71856  0.86479  0.50435  Biso   1.000  O 
