data_image0
_cell_length_a       10.1636
_cell_length_b       10.6747
_cell_length_c       5.13861
_cell_angle_alpha    90
_cell_angle_beta     90
_cell_angle_gamma    90

_symmetry_space_group_name_H-M    "P 1"
_symmetry_int_tables_number       1

loop_
  _symmetry_equiv_pos_as_xyz
  'x, y, z'

loop_
  _atom_site_label
  _atom_site_occupancy
  _atom_site_fract_x
  _atom_site_fract_y
  _atom_site_fract_z
  _atom_site_thermal_displace_type
  _atom_site_B_iso_or_equiv
  _atom_site_type_symbol
  Hf1      1.0000 0.06680  0.96579  0.30680  Biso   1.000  Hf
  Hf2      1.0000 0.08352  0.19944  0.75053  Biso   1.000  Hf
  Hf3      1.0000 0.35573  0.28457  0.20677  Biso   1.000  Hf
  Hf4      1.0000 0.35239  0.02037  0.79530  Biso   1.000  Hf
  O1       1.0000 0.91593  0.17060  0.97058  Biso   1.000  O 
  O2       1.0000 0.99767  0.05747  0.53971  Biso   1.000  O 
  O3       1.0000 0.92492  0.32197  0.58900  Biso   1.000  O 
  O4       1.0000 0.93600  0.43846  0.08377  Biso   1.000  O 
  O5       1.0000 0.24133  0.12990  0.50724  Biso   1.000  O 
  O6       1.0000 0.20825  0.09006  0.00983  Biso   1.000  O 
  O7       1.0000 0.21471  0.34402  0.87001  Biso   1.000  O 
  O8       1.0000 0.23497  0.43332  0.36971  Biso   1.000  O 
  Hf5      1.0000 0.08586  0.55311  0.23363  Biso   1.000  Hf
  Hf6      1.0000 0.09597  0.74053  0.73305  Biso   1.000  Hf
  Hf7      1.0000 0.34009  0.75762  0.20834  Biso   1.000  Hf
  Hf8      1.0000 0.32681  0.49073  0.70167  Biso   1.000  Hf
  O9       1.0000 0.98084  0.68452  0.03730  Biso   1.000  O 
  O10      1.0000 0.99461  0.57265  0.58021  Biso   1.000  O 
  O11      1.0000 0.96617  0.81392  0.48022  Biso   1.000  O 
  O12      1.0000 0.91288  0.92524  0.04470  Biso   1.000  O 
  O13      1.0000 0.22395  0.65771  0.47021  Biso   1.000  O 
  O14      1.0000 0.21958  0.61393  0.95987  Biso   1.000  O 
  O15      1.0000 0.18183  0.85165  0.03151  Biso   1.000  O 
  O16      1.0000 0.20489  0.88721  0.54210  Biso   1.000  O 
  Hf9      1.0000 0.55579  0.98006  0.30004  Biso   1.000  Hf
  Hf10     1.0000 0.58978  0.23407  0.71870  Biso   1.000  Hf
  Hf11     1.0000 0.80395  0.26265  0.23971  Biso   1.000  Hf
  Hf12     1.0000 0.84070  0.01269  0.80121  Biso   1.000  Hf
  O17      1.0000 0.44632  0.17716  0.96927  Biso   1.000  O 
  O18      1.0000 0.50165  0.07362  0.53789  Biso   1.000  O 
  O19      1.0000 0.44559  0.33140  0.53939  Biso   1.000  O 
  O20      1.0000 0.44909  0.43066  0.02904  Biso   1.000  O 
  O21      1.0000 0.73687  0.13477  0.51222  Biso   1.000  O 
  O22      1.0000 0.69855  0.10503  0.01387  Biso   1.000  O 
  O23      1.0000 0.68759  0.36376  0.96317  Biso   1.000  O 
  O24      1.0000 0.69431  0.39265  0.46748  Biso   1.000  O 
  Hf13     1.0000 0.60020  0.51789  0.21065  Biso   1.000  Hf
  Hf14     1.0000 0.59619  0.72798  0.70690  Biso   1.000  Hf
  Hf15     1.0000 0.82195  0.76732  0.21202  Biso   1.000  Hf
  Hf16     1.0000 0.83416  0.47918  0.72761  Biso   1.000  Hf
  O25      1.0000 0.48918  0.67171  0.02055  Biso   1.000  O 
  O26      1.0000 0.48708  0.57805  0.52671  Biso   1.000  O 
  O27      1.0000 0.46560  0.82279  0.48423  Biso   1.000  O 
  O28      1.0000 0.41529  0.92256  0.04345  Biso   1.000  O 
  O29      1.0000 0.73092  0.63751  0.46424  Biso   1.000  O 
  O30      1.0000 0.72047  0.61321  0.96388  Biso   1.000  O 
  O31      1.0000 0.66531  0.85980  0.99271  Biso   1.000  O 
  O32      1.0000 0.70590  0.88407  0.49979  Biso   1.000  O 
  Ba1      1.0000 0.08261  0.26685  0.25196  Biso   1.000  Ba
