data_image0
_cell_length_a       10.106
_cell_length_b       10.3905
_cell_length_c       10.106
_cell_angle_alpha    90
_cell_angle_beta     90
_cell_angle_gamma    90

_symmetry_space_group_name_H-M    "P 1"
_symmetry_int_tables_number       1

loop_
  _symmetry_equiv_pos_as_xyz
  'x, y, z'

loop_
  _atom_site_label
  _atom_site_occupancy
  _atom_site_fract_x
  _atom_site_fract_y
  _atom_site_fract_z
  _atom_site_thermal_displace_type
  _atom_site_B_iso_or_equiv
  _atom_site_type_symbol
  Hf1      1.0000 0.12490  0.95369  0.12492  Biso   1.000  Hf
  Hf2      1.0000 0.12489  0.25004  0.40060  Biso   1.000  Hf
  Hf3      1.0000 0.40055  0.25006  0.12492  Biso   1.000  Hf
  Hf4      1.0000 0.37655  0.01488  0.37658  Biso   1.000  Hf
  O1       1.0000 0.96348  0.17370  0.96349  Biso   1.000  O 
  O2       1.0000 0.00773  0.07517  0.24208  Biso   1.000  O 
  O3       1.0000 0.96348  0.32640  0.28635  Biso   1.000  O 
  O4       1.0000 0.00770  0.42493  0.00778  Biso   1.000  O 
  O5       1.0000 0.28631  0.17370  0.28634  Biso   1.000  O 
  O6       1.0000 0.24210  0.07518  0.00778  Biso   1.000  O 
  O7       1.0000 0.28631  0.32642  0.96349  Biso   1.000  O 
  O8       1.0000 0.24212  0.42493  0.24202  Biso   1.000  O 
  Hf5      1.0000 0.12489  0.98997  0.62492  Biso   1.000  Hf
  Hf6      1.0000 0.12489  0.25005  0.84924  Biso   1.000  Hf
  Hf7      1.0000 0.37615  0.25005  0.62492  Biso   1.000  Hf
  Hf8      1.0000 0.37447  0.00437  0.87536  Biso   1.000  Hf
  O9       1.0000 0.99042  0.14255  0.49821  Biso   1.000  O 
  O10      1.0000 0.00365  0.10146  0.73976  Biso   1.000  O 
  O11      1.0000 0.99042  0.35754  0.75164  Biso   1.000  O 
  O12      1.0000 0.00365  0.39864  0.51008  Biso   1.000  O 
  O13      1.0000 0.25938  0.14256  0.75164  Biso   1.000  O 
  O14      1.0000 0.24615  0.10147  0.51008  Biso   1.000  O 
  O15      1.0000 0.25938  0.35755  0.49818  Biso   1.000  O 
  O16      1.0000 0.24615  0.39863  0.73975  Biso   1.000  O 
  Hf9      1.0000 0.12492  0.54642  0.12490  Biso   1.000  Hf
  Hf10     1.0000 0.12491  0.75006  0.38748  Biso   1.000  Hf
  Hf11     1.0000 0.38751  0.75005  0.12490  Biso   1.000  Hf
  Hf12     1.0000 0.37449  0.49573  0.37446  Biso   1.000  Hf
  O17      1.0000 0.00916  0.66965  0.00915  Biso   1.000  O 
  O18      1.0000 0.98934  0.59468  0.26053  Biso   1.000  O 
  O19      1.0000 0.00915  0.83045  0.24065  Biso   1.000  O 
  O20      1.0000 0.98931  0.90542  0.98930  Biso   1.000  O 
  O21      1.0000 0.24067  0.66965  0.24064  Biso   1.000  O 
  O22      1.0000 0.26048  0.59470  0.98926  Biso   1.000  O 
  O23      1.0000 0.24066  0.83047  0.00916  Biso   1.000  O 
  O24      1.0000 0.26048  0.90541  0.26054  Biso   1.000  O 
  Hf13     1.0000 0.12493  0.51013  0.62489  Biso   1.000  Hf
  Hf14     1.0000 0.12492  0.75004  0.86232  Biso   1.000  Hf
  Hf15     1.0000 0.37934  0.75005  0.62490  Biso   1.000  Hf
  Hf16     1.0000 0.37655  0.48523  0.87324  Biso   1.000  Hf
  O25      1.0000 0.00095  0.64926  0.51096  Biso   1.000  O 
  O26      1.0000 0.00430  0.60314  0.76028  Biso   1.000  O 
  O27      1.0000 0.00095  0.85083  0.73885  Biso   1.000  O 
  O28      1.0000 0.00428  0.89695  0.48953  Biso   1.000  O 
  O29      1.0000 0.24887  0.64926  0.73883  Biso   1.000  O 
  O30      1.0000 0.24552  0.60315  0.48951  Biso   1.000  O 
  O31      1.0000 0.24886  0.85085  0.51097  Biso   1.000  O 
  O32      1.0000 0.24552  0.89696  0.76030  Biso   1.000  O 
  Hf17     1.0000 0.62489  0.99000  0.12492  Biso   1.000  Hf
  Hf18     1.0000 0.62490  0.25005  0.37618  Biso   1.000  Hf
  Hf19     1.0000 0.84923  0.25006  0.12491  Biso   1.000  Hf
  Hf20     1.0000 0.87533  0.00438  0.37448  Biso   1.000  Hf
  O33      1.0000 0.49819  0.14257  0.99045  Biso   1.000  O 
  O34      1.0000 0.51005  0.10147  0.24617  Biso   1.000  O 
  O35      1.0000 0.49821  0.35754  0.25938  Biso   1.000  O 
  O36      1.0000 0.51004  0.39864  0.00366  Biso   1.000  O 
  O37      1.0000 0.75161  0.14256  0.25939  Biso   1.000  O 
  O38      1.0000 0.73975  0.10148  0.00367  Biso   1.000  O 
  O39      1.0000 0.75160  0.35756  0.99044  Biso   1.000  O 
  O40      1.0000 0.73976  0.39865  0.24616  Biso   1.000  O 
  Hf21     1.0000 0.62489  0.99889  0.62492  Biso   1.000  Hf
  Hf22     1.0000 0.62489  0.25006  0.87365  Biso   1.000  Hf
  Hf23     1.0000 0.87363  0.25005  0.62492  Biso   1.000  Hf
  Hf24     1.0000 0.87324  0.01487  0.87327  Biso   1.000  Hf
  O41      1.0000 0.49781  0.15220  0.49783  Biso   1.000  O 
  O42      1.0000 0.50300  0.09983  0.74683  Biso   1.000  O 
  O43      1.0000 0.49781  0.34791  0.75200  Biso   1.000  O 
  O44      1.0000 0.50300  0.40027  0.50300  Biso   1.000  O 
  O45      1.0000 0.75198  0.15219  0.75201  Biso   1.000  O 
  O46      1.0000 0.74680  0.09984  0.50301  Biso   1.000  O 
  O47      1.0000 0.75199  0.34792  0.49783  Biso   1.000  O 
  O48      1.0000 0.74681  0.40027  0.74682  Biso   1.000  O 
  Hf25     1.0000 0.62492  0.51011  0.12489  Biso   1.000  Hf
  Hf26     1.0000 0.62492  0.75005  0.37931  Biso   1.000  Hf
  Hf27     1.0000 0.86232  0.75006  0.12489  Biso   1.000  Hf
  Hf28     1.0000 0.87326  0.48524  0.37656  Biso   1.000  Hf
  O49      1.0000 0.51095  0.64925  0.00093  Biso   1.000  O 
  O50      1.0000 0.48956  0.60315  0.24551  Biso   1.000  O 
  O51      1.0000 0.51095  0.85085  0.24887  Biso   1.000  O 
  O52      1.0000 0.48954  0.89696  0.00429  Biso   1.000  O 
  O53      1.0000 0.73887  0.64926  0.24886  Biso   1.000  O 
  O54      1.0000 0.76027  0.60317  0.00427  Biso   1.000  O 
  O55      1.0000 0.73886  0.85087  0.00093  Biso   1.000  O 
  O56      1.0000 0.76026  0.89696  0.24552  Biso   1.000  O 
  Hf29     1.0000 0.62492  0.50122  0.62490  Biso   1.000  Hf
  Hf30     1.0000 0.62492  0.75005  0.87048  Biso   1.000  Hf
  Hf31     1.0000 0.87049  0.75006  0.62490  Biso   1.000  Hf
  Hf32     1.0000 0.87533  0.49574  0.87534  Biso   1.000  Hf
  O57      1.0000 0.49783  0.64957  0.49781  Biso   1.000  O 
  O58      1.0000 0.50089  0.59917  0.74892  Biso   1.000  O 
  O59      1.0000 0.49783  0.85054  0.75199  Biso   1.000  O 
  O60      1.0000 0.50088  0.90094  0.50089  Biso   1.000  O 
  O61      1.0000 0.75199  0.64957  0.75198  Biso   1.000  O 
  O62      1.0000 0.74893  0.59917  0.50088  Biso   1.000  O 
  O63      1.0000 0.75199  0.85054  0.49782  Biso   1.000  O 
  O64      1.0000 0.74893  0.90094  0.74892  Biso   1.000  O 
  Ba1      1.0000 0.12489  0.25005  0.12492  Biso   1.000  Ba
