data_image0
_cell_length_a       10.0826
_cell_length_b       5.18429
_cell_length_c       10.5585
_cell_angle_alpha    90
_cell_angle_beta     90
_cell_angle_gamma    90

_symmetry_space_group_name_H-M    "P 1"
_symmetry_int_tables_number       1

loop_
  _symmetry_equiv_pos_as_xyz
  'x, y, z'

loop_
  _atom_site_label
  _atom_site_occupancy
  _atom_site_fract_x
  _atom_site_fract_y
  _atom_site_fract_z
  _atom_site_thermal_displace_type
  _atom_site_B_iso_or_equiv
  _atom_site_type_symbol
  Ba1      1.0000 0.09871  0.98712  0.14986  Biso   1.000  Ba
  Hf1      1.0000 0.13317  0.05476  0.66892  Biso   1.000  Hf
  Hf2      1.0000 0.13605  0.46007  0.42083  Biso   1.000  Hf
  Hf3      1.0000 0.13789  0.47182  0.91477  Biso   1.000  Hf
  Hf4      1.0000 0.35734  0.52260  0.16981  Biso   1.000  Hf
  Hf5      1.0000 0.34971  0.55453  0.66679  Biso   1.000  Hf
  Hf6      1.0000 0.35048  0.96093  0.41393  Biso   1.000  Hf
  Hf7      1.0000 0.35060  0.96985  0.91841  Biso   1.000  Hf
  Hf8      1.0000 0.63295  0.04926  0.07496  Biso   1.000  Hf
  Hf9      1.0000 0.62632  0.04916  0.58374  Biso   1.000  Hf
  Hf10     1.0000 0.63013  0.45712  0.33380  Biso   1.000  Hf
  Hf11     1.0000 0.62490  0.47471  0.82407  Biso   1.000  Hf
  Hf12     1.0000 0.86220  0.50038  0.05821  Biso   1.000  Hf
  Hf13     1.0000 0.85730  0.55415  0.58361  Biso   1.000  Hf
  Hf14     1.0000 0.84992  0.98887  0.35902  Biso   1.000  Hf
  Hf15     1.0000 0.85020  0.96562  0.82523  Biso   1.000  Hf
  O1       1.0000 0.04571  0.43440  0.09270  Biso   1.000  O 
  O2       1.0000 0.03143  0.36452  0.59797  Biso   1.000  O 
  O3       1.0000 0.02076  0.17028  0.36191  Biso   1.000  O 
  O4       1.0000 0.02824  0.16313  0.84509  Biso   1.000  O 
  O5       1.0000 0.47442  0.82028  0.07836  Biso   1.000  O 
  O6       1.0000 0.45713  0.83269  0.57750  Biso   1.000  O 
  O7       1.0000 0.47385  0.69112  0.32403  Biso   1.000  O 
  O8       1.0000 0.45892  0.69003  0.82321  Biso   1.000  O 
  O9       1.0000 0.27814  0.24738  0.29879  Biso   1.000  O 
  O10      1.0000 0.26785  0.25986  0.78843  Biso   1.000  O 
  O11      1.0000 0.28473  0.24413  0.03268  Biso   1.000  O 
  O12      1.0000 0.26938  0.25895  0.54283  Biso   1.000  O 
  O13      1.0000 0.23018  0.72074  0.29901  Biso   1.000  O 
  O14      1.0000 0.21326  0.75944  0.78794  Biso   1.000  O 
  O15      1.0000 0.25017  0.71699  0.02720  Biso   1.000  O 
  O16      1.0000 0.21373  0.76656  0.54252  Biso   1.000  O 
  O17      1.0000 0.53400  0.32624  0.16999  Biso   1.000  O 
  O18      1.0000 0.52126  0.33791  0.66619  Biso   1.000  O 
  O19      1.0000 0.52892  0.17611  0.41883  Biso   1.000  O 
  O20      1.0000 0.52472  0.18992  0.91627  Biso   1.000  O 
  O21      1.0000 0.85209  0.81825  0.17694  Biso   1.000  O 
  O22      1.0000 0.95227  0.86615  0.65931  Biso   1.000  O 
  O23      1.0000 0.95738  0.67335  0.41572  Biso   1.000  O 
  O24      1.0000 0.95518  0.67214  0.90482  Biso   1.000  O 
  O25      1.0000 0.76762  0.23659  0.95316  Biso   1.000  O 
  O26      1.0000 0.76456  0.26521  0.46749  Biso   1.000  O 
  O27      1.0000 0.77716  0.27849  0.21193  Biso   1.000  O 
  O28      1.0000 0.76615  0.26566  0.70922  Biso   1.000  O 
  O29      1.0000 0.71128  0.74784  0.95463  Biso   1.000  O 
  O30      1.0000 0.71542  0.75795  0.46394  Biso   1.000  O 
  O31      1.0000 0.71235  0.79106  0.21610  Biso   1.000  O 
  O32      1.0000 0.71468  0.76157  0.70591  Biso   1.000  O 
