data_image0
_cell_length_a       10.1792
_cell_length_b       10.403
_cell_length_c       5.28221
_cell_angle_alpha    90
_cell_angle_beta     80
_cell_angle_gamma    90

_symmetry_space_group_name_H-M    "P 1"
_symmetry_int_tables_number       1

loop_
  _symmetry_equiv_pos_as_xyz
  'x, y, z'

loop_
  _atom_site_label
  _atom_site_occupancy
  _atom_site_fract_x
  _atom_site_fract_y
  _atom_site_fract_z
  _atom_site_thermal_displace_type
  _atom_site_B_iso_or_equiv
  _atom_site_type_symbol
  Ba1      1.0000 0.08720  0.99585  0.26855  Biso   1.000  Ba
  Hf1      1.0000 0.14037  0.52198  0.28545  Biso   1.000  Hf
  Hf2      1.0000 0.63509  0.03240  0.30113  Biso   1.000  Hf
  Hf3      1.0000 0.62612  0.51387  0.28978  Biso   1.000  Hf
  Hf4      1.0000 0.13270  0.23488  0.79369  Biso   1.000  Hf
  Hf5      1.0000 0.14458  0.73086  0.77899  Biso   1.000  Hf
  Hf6      1.0000 0.62956  0.23911  0.79877  Biso   1.000  Hf
  Hf7      1.0000 0.62025  0.72412  0.78741  Biso   1.000  Hf
  Hf8      1.0000 0.34870  0.26212  0.20725  Biso   1.000  Hf
  Hf9      1.0000 0.36329  0.77489  0.20076  Biso   1.000  Hf
  Hf10     1.0000 0.86217  0.28101  0.20925  Biso   1.000  Hf
  Hf11     1.0000 0.86229  0.73990  0.15561  Biso   1.000  Hf
  Hf12     1.0000 0.35128  0.47639  0.70447  Biso   1.000  Hf
  Hf13     1.0000 0.34888  0.98800  0.69852  Biso   1.000  Hf
  Hf14     1.0000 0.85791  0.48217  0.69397  Biso   1.000  Hf
  Hf15     1.0000 0.84276  0.99551  0.77163  Biso   1.000  Hf
  O1       1.0000 0.03944  0.21055  0.17471  Biso   1.000  O 
  O2       1.0000 0.04639  0.68397  0.16754  Biso   1.000  O 
  O3       1.0000 0.52989  0.16880  0.15520  Biso   1.000  O 
  O4       1.0000 0.53222  0.66199  0.14336  Biso   1.000  O 
  O5       1.0000 0.02208  0.08169  0.74188  Biso   1.000  O 
  O6       1.0000 0.02930  0.58747  0.66123  Biso   1.000  O 
  O7       1.0000 0.53477  0.09084  0.65464  Biso   1.000  O 
  O8       1.0000 0.52208  0.58396  0.64812  Biso   1.000  O 
  O9       1.0000 0.45710  0.41206  0.34354  Biso   1.000  O 
  O10      1.0000 0.46590  0.91799  0.34243  Biso   1.000  O 
  O11      1.0000 0.95204  0.44457  0.31943  Biso   1.000  O 
  O12      1.0000 0.85096  0.88335  0.43404  Biso   1.000  O 
  O13      1.0000 0.45859  0.33871  0.84384  Biso   1.000  O 
  O14      1.0000 0.47269  0.84688  0.83880  Biso   1.000  O 
  O15      1.0000 0.95148  0.33605  0.82300  Biso   1.000  O 
  O16      1.0000 0.96597  0.84240  0.85299  Biso   1.000  O 
  O17      1.0000 0.27335  0.13449  0.49101  Biso   1.000  O 
  O18      1.0000 0.27430  0.62658  0.46915  Biso   1.000  O 
  O19      1.0000 0.78119  0.13381  0.49822  Biso   1.000  O 
  O20      1.0000 0.75907  0.63646  0.46760  Biso   1.000  O 
  O21      1.0000 0.27538  0.13138  0.96481  Biso   1.000  O 
  O22      1.0000 0.27025  0.62106  0.97318  Biso   1.000  O 
  O23      1.0000 0.77062  0.12983  0.00746  Biso   1.000  O 
  O24      1.0000 0.76433  0.61993  0.96056  Biso   1.000  O 
  O25      1.0000 0.22310  0.38142  0.01202  Biso   1.000  O 
  O26      1.0000 0.23659  0.86997  0.98307  Biso   1.000  O 
  O27      1.0000 0.71978  0.38168  0.01533  Biso   1.000  O 
  O28      1.0000 0.72614  0.87869  0.04463  Biso   1.000  O 
  O29      1.0000 0.21263  0.37534  0.51379  Biso   1.000  O 
  O30      1.0000 0.23171  0.86129  0.51169  Biso   1.000  O 
  O31      1.0000 0.71792  0.37551  0.51718  Biso   1.000  O 
  O32      1.0000 0.70960  0.88859  0.55069  Biso   1.000  O 
