data_image0
_cell_length_a       10.1466
_cell_length_b       10.3263
_cell_length_c       10.4466
_cell_angle_alpha    90
_cell_angle_beta     80
_cell_angle_gamma    90

_symmetry_space_group_name_H-M    "P 1"
_symmetry_int_tables_number       1

loop_
  _symmetry_equiv_pos_as_xyz
  'x, y, z'

loop_
  _atom_site_label
  _atom_site_occupancy
  _atom_site_fract_x
  _atom_site_fract_y
  _atom_site_fract_z
  _atom_site_thermal_displace_type
  _atom_site_B_iso_or_equiv
  _atom_site_type_symbol
  Ba1      1.0000 0.10796  0.99552  0.12919  Biso   1.000  Ba
  Hf1      1.0000 0.13058  0.02120  0.64722  Biso   1.000  Hf
  Hf2      1.0000 0.13556  0.52076  0.14464  Biso   1.000  Hf
  Hf3      1.0000 0.12904  0.52128  0.64603  Biso   1.000  Hf
  Hf4      1.0000 0.64144  0.02215  0.14686  Biso   1.000  Hf
  Hf5      1.0000 0.62986  0.02278  0.64960  Biso   1.000  Hf
  Hf6      1.0000 0.63142  0.51627  0.14819  Biso   1.000  Hf
  Hf7      1.0000 0.62749  0.51957  0.64750  Biso   1.000  Hf
  Hf8      1.0000 0.13254  0.22517  0.39390  Biso   1.000  Hf
  Hf9      1.0000 0.12564  0.23286  0.89633  Biso   1.000  Hf
  Hf10     1.0000 0.13132  0.72727  0.39639  Biso   1.000  Hf
  Hf11     1.0000 0.12700  0.72714  0.89531  Biso   1.000  Hf
  Hf12     1.0000 0.62900  0.23136  0.39845  Biso   1.000  Hf
  Hf13     1.0000 0.62617  0.22957  0.89960  Biso   1.000  Hf
  Hf14     1.0000 0.62527  0.72403  0.40015  Biso   1.000  Hf
  Hf15     1.0000 0.62653  0.72827  0.89447  Biso   1.000  Hf
  Hf16     1.0000 0.35546  0.26465  0.10471  Biso   1.000  Hf
  Hf17     1.0000 0.35055  0.27047  0.60459  Biso   1.000  Hf
  Hf18     1.0000 0.36688  0.76716  0.10646  Biso   1.000  Hf
  Hf19     1.0000 0.34915  0.77230  0.60487  Biso   1.000  Hf
  Hf20     1.0000 0.85602  0.27538  0.10589  Biso   1.000  Hf
  Hf21     1.0000 0.85323  0.27212  0.60574  Biso   1.000  Hf
  Hf22     1.0000 0.85094  0.76025  0.10115  Biso   1.000  Hf
  Hf23     1.0000 0.85148  0.77087  0.60493  Biso   1.000  Hf
  Hf24     1.0000 0.35028  0.47606  0.35357  Biso   1.000  Hf
  Hf25     1.0000 0.34951  0.47691  0.85626  Biso   1.000  Hf
  Hf26     1.0000 0.35274  0.98048  0.35285  Biso   1.000  Hf
  Hf27     1.0000 0.35078  0.98058  0.85245  Biso   1.000  Hf
  Hf28     1.0000 0.85545  0.47945  0.35598  Biso   1.000  Hf
  Hf29     1.0000 0.84799  0.47813  0.85424  Biso   1.000  Hf
  Hf30     1.0000 0.83970  0.98119  0.36754  Biso   1.000  Hf
  Hf31     1.0000 0.84662  0.97920  0.85763  Biso   1.000  Hf
  O1       1.0000 0.03748  0.19962  0.08272  Biso   1.000  O 
  O2       1.0000 0.02758  0.17086  0.58371  Biso   1.000  O 
  O3       1.0000 0.03817  0.68532  0.08835  Biso   1.000  O 
  O4       1.0000 0.02638  0.67131  0.58310  Biso   1.000  O 
  O5       1.0000 0.53617  0.16858  0.08078  Biso   1.000  O 
  O6       1.0000 0.52569  0.16987  0.58330  Biso   1.000  O 
  O7       1.0000 0.53905  0.66733  0.07878  Biso   1.000  O 
  O8       1.0000 0.52368  0.66774  0.58318  Biso   1.000  O 
  O9       1.0000 0.01987  0.07722  0.34505  Biso   1.000  O 
  O10      1.0000 0.02684  0.07831  0.83719  Biso   1.000  O 
  O11      1.0000 0.03093  0.57857  0.33208  Biso   1.000  O 
  O12      1.0000 0.02288  0.57982  0.83385  Biso   1.000  O 
  O13      1.0000 0.53349  0.07910  0.33248  Biso   1.000  O 
  O14      1.0000 0.52855  0.08012  0.83213  Biso   1.000  O 
  O15      1.0000 0.52545  0.57845  0.33123  Biso   1.000  O 
  O16      1.0000 0.52381  0.57893  0.83222  Biso   1.000  O 
  O17      1.0000 0.45839  0.41558  0.17061  Biso   1.000  O 
  O18      1.0000 0.45293  0.41883  0.67068  Biso   1.000  O 
  O19      1.0000 0.46411  0.91953  0.16868  Biso   1.000  O 
  O20      1.0000 0.45254  0.91974  0.67013  Biso   1.000  O 
  O21      1.0000 0.95318  0.43250  0.16502  Biso   1.000  O 
  O22      1.0000 0.95303  0.42244  0.66889  Biso   1.000  O 
  O23      1.0000 0.89409  0.93795  0.17116  Biso   1.000  O 
  O24      1.0000 0.95126  0.91980  0.67226  Biso   1.000  O 
  O25      1.0000 0.45420  0.32952  0.42027  Biso   1.000  O 
  O26      1.0000 0.45216  0.33023  0.92146  Biso   1.000  O 
  O27      1.0000 0.45530  0.83022  0.42250  Biso   1.000  O 
  O28      1.0000 0.45840  0.83222  0.91889  Biso   1.000  O 
  O29      1.0000 0.95525  0.32879  0.41835  Biso   1.000  O 
  O30      1.0000 0.94635  0.32966  0.91641  Biso   1.000  O 
  O31      1.0000 0.95317  0.82951  0.41554  Biso   1.000  O 
  O32      1.0000 0.95383  0.83490  0.92777  Biso   1.000  O 
  O33      1.0000 0.27807  0.13298  0.24872  Biso   1.000  O 
  O34      1.0000 0.26580  0.12919  0.73931  Biso   1.000  O 
  O35      1.0000 0.27261  0.62239  0.23872  Biso   1.000  O 
  O36      1.0000 0.26453  0.62903  0.74115  Biso   1.000  O 
  O37      1.0000 0.76852  0.13786  0.24741  Biso   1.000  O 
  O38      1.0000 0.76822  0.13006  0.74426  Biso   1.000  O 
  O39      1.0000 0.76684  0.62895  0.24287  Biso   1.000  O 
  O40      1.0000 0.76483  0.62956  0.74063  Biso   1.000  O 
  O41      1.0000 0.26728  0.11993  0.49320  Biso   1.000  O 
  O42      1.0000 0.27044  0.12708  0.98022  Biso   1.000  O 
  O43      1.0000 0.26654  0.62013  0.49099  Biso   1.000  O 
  O44      1.0000 0.25948  0.61768  0.99192  Biso   1.000  O 
  O45      1.0000 0.76459  0.12285  0.49716  Biso   1.000  O 
  O46      1.0000 0.76402  0.12114  0.99498  Biso   1.000  O 
  O47      1.0000 0.76624  0.62018  0.49224  Biso   1.000  O 
  O48      1.0000 0.76271  0.61888  0.99117  Biso   1.000  O 
  O49      1.0000 0.22467  0.38078  0.00743  Biso   1.000  O 
  O50      1.0000 0.21311  0.37867  0.50914  Biso   1.000  O 
  O51      1.0000 0.23354  0.86404  0.99644  Biso   1.000  O 
  O52      1.0000 0.21292  0.87959  0.51143  Biso   1.000  O 
  O53      1.0000 0.72114  0.38036  0.00913  Biso   1.000  O 
  O54      1.0000 0.71524  0.37934  0.51154  Biso   1.000  O 
  O55      1.0000 0.72136  0.87658  0.00729  Biso   1.000  O 
  O56      1.0000 0.71105  0.87830  0.51505  Biso   1.000  O 
  O57      1.0000 0.21368  0.37047  0.25740  Biso   1.000  O 
  O58      1.0000 0.21175  0.37200  0.75946  Biso   1.000  O 
  O59      1.0000 0.23330  0.85576  0.26404  Biso   1.000  O 
  O60      1.0000 0.21026  0.87061  0.75958  Biso   1.000  O 
  O61      1.0000 0.71677  0.37429  0.26225  Biso   1.000  O 
  O62      1.0000 0.71228  0.37074  0.76065  Biso   1.000  O 
  O63      1.0000 0.70394  0.86932  0.26725  Biso   1.000  O 
  O64      1.0000 0.71293  0.87075  0.76065  Biso   1.000  O 
