data_image0
_cell_length_a       10.1537
_cell_length_b       10.326
_cell_length_c       10.5746
_cell_angle_alpha    90
_cell_angle_beta     80
_cell_angle_gamma    90

_symmetry_space_group_name_H-M    "P 1"
_symmetry_int_tables_number       1

loop_
  _symmetry_equiv_pos_as_xyz
  'x, y, z'

loop_
  _atom_site_label
  _atom_site_occupancy
  _atom_site_fract_x
  _atom_site_fract_y
  _atom_site_fract_z
  _atom_site_thermal_displace_type
  _atom_site_B_iso_or_equiv
  _atom_site_type_symbol
  Hf1      1.0000 0.13310  0.02064  0.14474  Biso   1.000  Hf
  Hf2      1.0000 0.13544  0.22702  0.39215  Biso   1.000  Hf
  Hf3      1.0000 0.34336  0.27168  0.07680  Biso   1.000  Hf
  Hf4      1.0000 0.35929  0.49339  0.35617  Biso   1.000  Hf
  O1       1.0000 0.03215  0.16742  0.07501  Biso   1.000  O 
  O2       1.0000 0.02897  0.08316  0.32760  Biso   1.000  O 
  O3       1.0000 0.45618  0.43576  0.15413  Biso   1.000  O 
  O4       1.0000 0.48404  0.37583  0.45419  Biso   1.000  O 
  O5       1.0000 0.26510  0.12492  0.23170  Biso   1.000  O 
  O6       1.0000 0.28808  0.12515  0.47938  Biso   1.000  O 
  O7       1.0000 0.20921  0.38669  0.00102  Biso   1.000  O 
  O8       1.0000 0.22621  0.36986  0.25643  Biso   1.000  O 
  Hf5      1.0000 0.14502  0.02331  0.64279  Biso   1.000  Hf
  Hf6      1.0000 0.13734  0.23041  0.88835  Biso   1.000  Hf
  Hf7      1.0000 0.36706  0.28223  0.60605  Biso   1.000  Hf
  Hf8      1.0000 0.36331  0.48496  0.85401  Biso   1.000  Hf
  O9       1.0000 0.04380  0.16929  0.57718  Biso   1.000  O 
  O10      1.0000 0.03725  0.08491  0.82360  Biso   1.000  O 
  O11      1.0000 0.47124  0.41751  0.68566  Biso   1.000  O 
  O12      1.0000 0.46945  0.33584  0.91494  Biso   1.000  O 
  O13      1.0000 0.27917  0.13077  0.73457  Biso   1.000  O 
  O14      1.0000 0.27390  0.12167  0.97982  Biso   1.000  O 
  O15      1.0000 0.22699  0.38035  0.50677  Biso   1.000  O 
  O16      1.0000 0.22700  0.37456  0.75636  Biso   1.000  O 
  Hf9      1.0000 0.13854  0.52203  0.14800  Biso   1.000  Hf
  Hf10     1.0000 0.13542  0.73053  0.39661  Biso   1.000  Hf
  Hf11     1.0000 0.35776  0.77407  0.10381  Biso   1.000  Hf
  Hf12     1.0000 0.36493  0.96616  0.35692  Biso   1.000  Hf
  O17      1.0000 0.03224  0.66493  0.07852  Biso   1.000  O 
  O18      1.0000 0.03396  0.58374  0.32874  Biso   1.000  O 
  O19      1.0000 0.46421  0.91695  0.17527  Biso   1.000  O 
  O20      1.0000 0.46189  0.82110  0.42356  Biso   1.000  O 
  O21      1.0000 0.27347  0.63264  0.24207  Biso   1.000  O 
  O22      1.0000 0.27308  0.62580  0.49312  Biso   1.000  O 
  O23      1.0000 0.22005  0.87946  0.01036  Biso   1.000  O 
  O24      1.0000 0.22116  0.87028  0.26050  Biso   1.000  O 
  Hf13     1.0000 0.14045  0.52354  0.64568  Biso   1.000  Hf
  Hf14     1.0000 0.14126  0.73000  0.89669  Biso   1.000  Hf
  Hf15     1.0000 0.36311  0.77069  0.60617  Biso   1.000  Hf
  Hf16     1.0000 0.36283  0.97970  0.85037  Biso   1.000  Hf
  O25      1.0000 0.03332  0.66696  0.57785  Biso   1.000  O 
  O26      1.0000 0.03708  0.58612  0.82725  Biso   1.000  O 
  O27      1.0000 0.46707  0.91729  0.66942  Biso   1.000  O 
  O28      1.0000 0.46855  0.83855  0.92108  Biso   1.000  O 
  O29      1.0000 0.27862  0.62955  0.74099  Biso   1.000  O 
  O30      1.0000 0.28137  0.62735  0.99182  Biso   1.000  O 
  O31      1.0000 0.22473  0.87965  0.51122  Biso   1.000  O 
  O32      1.0000 0.22565  0.87189  0.75968  Biso   1.000  O 
  Hf17     1.0000 0.64304  0.01453  0.14904  Biso   1.000  Hf
  Hf18     1.0000 0.66130  0.22961  0.41893  Biso   1.000  Hf
  Hf19     1.0000 0.85851  0.27235  0.10688  Biso   1.000  Hf
  Hf20     1.0000 0.86157  0.47926  0.35431  Biso   1.000  Hf
  O33      1.0000 0.52624  0.15542  0.06531  Biso   1.000  O 
  O34      1.0000 0.56162  0.05028  0.35044  Biso   1.000  O 
  O35      1.0000 0.96500  0.41589  0.17399  Biso   1.000  O 
  O36      1.0000 0.96520  0.33196  0.42283  Biso   1.000  O 
  O37      1.0000 0.77803  0.13053  0.24322  Biso   1.000  O 
  O38      1.0000 0.79123  0.11539  0.50114  Biso   1.000  O 
  O39      1.0000 0.71927  0.37760  0.01443  Biso   1.000  O 
  O40      1.0000 0.72018  0.37056  0.26552  Biso   1.000  O 
  Hf21     1.0000 0.64256  0.02117  0.64695  Biso   1.000  Hf
  Hf22     1.0000 0.64297  0.22665  0.89598  Biso   1.000  Hf
  Hf23     1.0000 0.86923  0.27259  0.61095  Biso   1.000  Hf
  Hf24     1.0000 0.86322  0.48065  0.85585  Biso   1.000  Hf
  O41      1.0000 0.54102  0.17224  0.58400  Biso   1.000  O 
  O42      1.0000 0.53713  0.08488  0.82324  Biso   1.000  O 
  O43      1.0000 0.97076  0.41793  0.67452  Biso   1.000  O 
  O44      1.0000 0.96549  0.33444  0.92076  Biso   1.000  O 
  O45      1.0000 0.78055  0.13014  0.74432  Biso   1.000  O 
  O46      1.0000 0.78204  0.12257  0.99269  Biso   1.000  O 
  O47      1.0000 0.73461  0.38086  0.51922  Biso   1.000  O 
  O48      1.0000 0.72912  0.37331  0.76373  Biso   1.000  O 
  Hf25     1.0000 0.63355  0.52549  0.14318  Biso   1.000  Hf
  Hf26     1.0000 0.64110  0.72591  0.39683  Biso   1.000  Hf
  Hf27     1.0000 0.85937  0.76844  0.10457  Biso   1.000  Hf
  Hf28     1.0000 0.85577  0.97622  0.35479  Biso   1.000  Hf
  O49      1.0000 0.53487  0.67622  0.07810  Biso   1.000  O 
  O50      1.0000 0.53370  0.59032  0.32146  Biso   1.000  O 
  O51      1.0000 0.96089  0.91366  0.17446  Biso   1.000  O 
  O52      1.0000 0.96417  0.83448  0.42310  Biso   1.000  O 
  O53      1.0000 0.77735  0.62598  0.24061  Biso   1.000  O 
  O54      1.0000 0.77673  0.62067  0.49029  Biso   1.000  O 
  O55      1.0000 0.72247  0.87771  0.01039  Biso   1.000  O 
  O56      1.0000 0.72414  0.86435  0.25785  Biso   1.000  O 
  Hf29     1.0000 0.64117  0.52362  0.64943  Biso   1.000  Hf
  Hf30     1.0000 0.64123  0.73272  0.89579  Biso   1.000  Hf
  Hf31     1.0000 0.86260  0.77383  0.60501  Biso   1.000  Hf
  Hf32     1.0000 0.86389  0.97962  0.85446  Biso   1.000  Hf
  O57      1.0000 0.53516  0.66453  0.57938  Biso   1.000  O 
  O58      1.0000 0.53688  0.58893  0.83023  Biso   1.000  O 
  O59      1.0000 0.96835  0.91760  0.67236  Biso   1.000  O 
  O60      1.0000 0.97003  0.83592  0.92276  Biso   1.000  O 
  O61      1.0000 0.77847  0.63136  0.74028  Biso   1.000  O 
  O62      1.0000 0.77934  0.62318  0.98887  Biso   1.000  O 
  O63      1.0000 0.72277  0.87563  0.51079  Biso   1.000  O 
  O64      1.0000 0.72629  0.87440  0.76017  Biso   1.000  O 
  Ba1      1.0000 0.46053  0.23940  0.28076  Biso   1.000  Ba
