data_image0
_cell_length_a       5.07278
_cell_length_b       10.4048
_cell_length_c       10.7114
_cell_angle_alpha    90
_cell_angle_beta     80
_cell_angle_gamma    90

_symmetry_space_group_name_H-M    "P 1"
_symmetry_int_tables_number       1

loop_
  _symmetry_equiv_pos_as_xyz
  'x, y, z'

loop_
  _atom_site_label
  _atom_site_occupancy
  _atom_site_fract_x
  _atom_site_fract_y
  _atom_site_fract_z
  _atom_site_thermal_displace_type
  _atom_site_B_iso_or_equiv
  _atom_site_type_symbol
  Hf1      1.0000 0.28399  0.01006  0.14938  Biso   1.000  Hf
  Hf2      1.0000 0.32525  0.23040  0.42397  Biso   1.000  Hf
  Hf3      1.0000 0.67400  0.26975  0.07957  Biso   1.000  Hf
  Hf4      1.0000 0.71530  0.49010  0.35411  Biso   1.000  Hf
  O1       1.0000 0.02475  0.14644  0.05173  Biso   1.000  O 
  O2       1.0000 0.09768  0.05384  0.35461  Biso   1.000  O 
  O3       1.0000 0.90150  0.44642  0.14891  Biso   1.000  O 
  O4       1.0000 0.97447  0.35361  0.45176  Biso   1.000  O 
  O5       1.0000 0.53917  0.12983  0.24064  Biso   1.000  O 
  O6       1.0000 0.60051  0.11594  0.49675  Biso   1.000  O 
  O7       1.0000 0.39869  0.38419  0.00680  Biso   1.000  O 
  O8       1.0000 0.46020  0.37035  0.26289  Biso   1.000  O 
  Hf5      1.0000 0.30420  0.01789  0.64533  Biso   1.000  Hf
  Hf6      1.0000 0.28238  0.22239  0.88736  Biso   1.000  Hf
  Hf7      1.0000 0.75347  0.27809  0.61300  Biso   1.000  Hf
  Hf8      1.0000 0.73166  0.48259  0.85505  Biso   1.000  Hf
  O9       1.0000 0.10112  0.16977  0.58999  Biso   1.000  O 
  O10      1.0000 0.08480  0.08035  0.81647  Biso   1.000  O 
  O11      1.0000 0.95104  0.42015  0.68389  Biso   1.000  O 
  O12      1.0000 0.93471  0.33072  0.91039  Biso   1.000  O 
  O13      1.0000 0.57068  0.12767  0.74083  Biso   1.000  O 
  O14      1.0000 0.55719  0.11852  0.98343  Biso   1.000  O 
  O15      1.0000 0.47865  0.38198  0.51693  Biso   1.000  O 
  O16      1.0000 0.46516  0.37281  0.75955  Biso   1.000  O 
  Hf9      1.0000 0.26263  0.53072  0.14287  Biso   1.000  Hf
  Hf10     1.0000 0.27465  0.72705  0.39781  Biso   1.000  Hf
  Hf11     1.0000 0.70891  0.77310  0.10571  Biso   1.000  Hf
  Hf12     1.0000 0.72093  0.96946  0.36064  Biso   1.000  Hf
  O17      1.0000 0.06586  0.68107  0.08085  Biso   1.000  O 
  O18      1.0000 0.06962  0.58298  0.32493  Biso   1.000  O 
  O19      1.0000 0.91395  0.91715  0.17860  Biso   1.000  O 
  O20      1.0000 0.91773  0.81909  0.42265  Biso   1.000  O 
  O21      1.0000 0.54789  0.63297  0.24412  Biso   1.000  O 
  O22      1.0000 0.54887  0.62174  0.49223  Biso   1.000  O 
  O23      1.0000 0.43470  0.87839  0.01126  Biso   1.000  O 
  O24      1.0000 0.43565  0.86719  0.25939  Biso   1.000  O 
  Hf13     1.0000 0.28978  0.52345  0.64969  Biso   1.000  Hf
  Hf14     1.0000 0.29042  0.73126  0.89527  Biso   1.000  Hf
  Hf15     1.0000 0.72972  0.76921  0.60507  Biso   1.000  Hf
  Hf16     1.0000 0.73037  0.97701  0.85067  Biso   1.000  Hf
  O25      1.0000 0.07130  0.66315  0.57858  Biso   1.000  O 
  O26      1.0000 0.08224  0.58740  0.83032  Biso   1.000  O 
  O27      1.0000 0.93790  0.91306  0.67003  Biso   1.000  O 
  O28      1.0000 0.94884  0.83733  0.92176  Biso   1.000  O 
  O29      1.0000 0.56463  0.62943  0.74056  Biso   1.000  O 
  O30      1.0000 0.57408  0.62599  0.98909  Biso   1.000  O 
  O31      1.0000 0.44605  0.87448  0.51125  Biso   1.000  O 
  O32      1.0000 0.45549  0.87104  0.75980  Biso   1.000  O 
  Ba1      1.0000 0.99991  0.25014  0.25166  Biso   1.000  Ba
