data_image0
_cell_length_a       10.085
_cell_length_b       5.17164
_cell_length_c       10.7543
_cell_angle_alpha    90
_cell_angle_beta     90
_cell_angle_gamma    90

_symmetry_space_group_name_H-M    "P 1"
_symmetry_int_tables_number       1

loop_
  _symmetry_equiv_pos_as_xyz
  'x, y, z'

loop_
  _atom_site_label
  _atom_site_occupancy
  _atom_site_fract_x
  _atom_site_fract_y
  _atom_site_fract_z
  _atom_site_thermal_displace_type
  _atom_site_B_iso_or_equiv
  _atom_site_type_symbol
  Hf1      1.0000 0.13106  0.05333  0.17608  Biso   1.000  Hf
  Hf2      1.0000 0.12255  0.46454  0.42647  Biso   1.000  Hf
  Hf3      1.0000 0.34122  0.56294  0.19472  Biso   1.000  Hf
  Hf4      1.0000 0.34345  0.96880  0.42782  Biso   1.000  Hf
  Hf5      1.0000 0.64427  0.07424  0.08867  Biso   1.000  Hf
  Hf6      1.0000 0.62703  0.46709  0.33379  Biso   1.000  Hf
  Hf7      1.0000 0.86233  0.54978  0.07816  Biso   1.000  Hf
  Hf8      1.0000 0.84627  0.96616  0.32854  Biso   1.000  Hf
  O1       1.0000 0.02930  0.31954  0.07788  Biso   1.000  O 
  O2       1.0000 0.01957  0.18976  0.33145  Biso   1.000  O 
  O3       1.0000 0.43077  0.89828  0.11251  Biso   1.000  O 
  O4       1.0000 0.45442  0.68419  0.34042  Biso   1.000  O 
  O5       1.0000 0.25936  0.26263  0.30177  Biso   1.000  O 
  O6       1.0000 0.27739  0.28269  0.04635  Biso   1.000  O 
  O7       1.0000 0.20639  0.76435  0.30723  Biso   1.000  O 
  O8       1.0000 0.20620  0.76664  0.05352  Biso   1.000  O 
  O9       1.0000 0.51625  0.31945  0.19427  Biso   1.000  O 
  O10      1.0000 0.51767  0.18798  0.42511  Biso   1.000  O 
  O11      1.0000 0.95918  0.82807  0.17797  Biso   1.000  O 
  O12      1.0000 0.95609  0.69225  0.42483  Biso   1.000  O 
  O13      1.0000 0.76334  0.25847  0.45089  Biso   1.000  O 
  O14      1.0000 0.77786  0.26656  0.20734  Biso   1.000  O 
  O15      1.0000 0.71255  0.75766  0.45724  Biso   1.000  O 
  O16      1.0000 0.70945  0.75968  0.21032  Biso   1.000  O 
  Hf9      1.0000 0.12483  0.06141  0.67596  Biso   1.000  Hf
  Hf10     1.0000 0.11272  0.50468  0.92238  Biso   1.000  Hf
  Hf11     1.0000 0.34054  0.56084  0.67054  Biso   1.000  Hf
  Hf12     1.0000 0.31751  0.02094  0.93476  Biso   1.000  Hf
  Hf13     1.0000 0.62709  0.04158  0.56879  Biso   1.000  Hf
  Hf14     1.0000 0.62145  0.45396  0.78771  Biso   1.000  Hf
  Hf15     1.0000 0.85280  0.56069  0.57741  Biso   1.000  Hf
  Hf16     1.0000 0.84129  0.99508  0.83064  Biso   1.000  Hf
  O17      1.0000 0.01676  0.33587  0.58119  Biso   1.000  O 
  O18      1.0000 0.01251  0.21300  0.82978  Biso   1.000  O 
  O19      1.0000 0.45500  0.81502  0.56989  Biso   1.000  O 
  O20      1.0000 0.45900  0.69599  0.80054  Biso   1.000  O 
  O21      1.0000 0.25184  0.28824  0.79600  Biso   1.000  O 
  O22      1.0000 0.25871  0.25955  0.54608  Biso   1.000  O 
  O23      1.0000 0.20514  0.78346  0.80265  Biso   1.000  O 
  O24      1.0000 0.20560  0.76592  0.55281  Biso   1.000  O 
  O25      1.0000 0.50440  0.29994  0.66156  Biso   1.000  O 
  O26      1.0000 0.50667  0.17348  0.91955  Biso   1.000  O 
  O27      1.0000 0.95268  0.83905  0.67536  Biso   1.000  O 
  O28      1.0000 0.94568  0.71469  0.92046  Biso   1.000  O 
  O29      1.0000 0.74430  0.32644  0.94033  Biso   1.000  O 
  O30      1.0000 0.76370  0.24899  0.68886  Biso   1.000  O 
  O31      1.0000 0.72207  0.85173  0.97237  Biso   1.000  O 
  O32      1.0000 0.71240  0.75829  0.70364  Biso   1.000  O 
  Ba1      1.0000 0.54581  0.57019  0.00994  Biso   1.000  Ba
