data_image0
_cell_length_a       10.0653
_cell_length_b       10.277
_cell_length_c       10.5621
_cell_angle_alpha    90
_cell_angle_beta     90
_cell_angle_gamma    90

_symmetry_space_group_name_H-M    "P 1"
_symmetry_int_tables_number       1

loop_
  _symmetry_equiv_pos_as_xyz
  'x, y, z'

loop_
  _atom_site_label
  _atom_site_occupancy
  _atom_site_fract_x
  _atom_site_fract_y
  _atom_site_fract_z
  _atom_site_thermal_displace_type
  _atom_site_B_iso_or_equiv
  _atom_site_type_symbol
  Hf1      1.0000 0.13734  0.02038  0.17256  Biso   1.000  Hf
  Hf2      1.0000 0.13010  0.22743  0.42742  Biso   1.000  Hf
  Hf3      1.0000 0.33994  0.27396  0.19227  Biso   1.000  Hf
  Hf4      1.0000 0.35475  0.47982  0.42382  Biso   1.000  Hf
  Hf5      1.0000 0.63866  0.00473  0.08033  Biso   1.000  Hf
  Hf6      1.0000 0.62884  0.22052  0.33138  Biso   1.000  Hf
  Hf7      1.0000 0.86942  0.27154  0.07505  Biso   1.000  Hf
  Hf8      1.0000 0.85252  0.47786  0.32615  Biso   1.000  Hf
  O1       1.0000 0.03620  0.16303  0.08117  Biso   1.000  O 
  O2       1.0000 0.02489  0.08896  0.33039  Biso   1.000  O 
  O3       1.0000 0.43883  0.44718  0.10856  Biso   1.000  O 
  O4       1.0000 0.45829  0.33090  0.34002  Biso   1.000  O 
  O5       1.0000 0.26397  0.12437  0.30338  Biso   1.000  O 
  O6       1.0000 0.28298  0.12848  0.04715  Biso   1.000  O 
  O7       1.0000 0.20970  0.37811  0.30570  Biso   1.000  O 
  O8       1.0000 0.21700  0.37670  0.04910  Biso   1.000  O 
  O9       1.0000 0.51439  0.11897  0.20313  Biso   1.000  O 
  O10      1.0000 0.52262  0.08849  0.43351  Biso   1.000  O 
  O11      1.0000 0.96417  0.41380  0.17038  Biso   1.000  O 
  O12      1.0000 0.96138  0.33790  0.41865  Biso   1.000  O 
  O13      1.0000 0.76914  0.12251  0.45140  Biso   1.000  O 
  O14      1.0000 0.77003  0.12922  0.20010  Biso   1.000  O 
  O15      1.0000 0.71691  0.37431  0.45308  Biso   1.000  O 
  O16      1.0000 0.71375  0.37682  0.20151  Biso   1.000  O 
  Hf9      1.0000 0.13053  0.02086  0.67362  Biso   1.000  Hf
  Hf10     1.0000 0.13077  0.22902  0.92184  Biso   1.000  Hf
  Hf11     1.0000 0.35273  0.27354  0.67345  Biso   1.000  Hf
  Hf12     1.0000 0.34359  0.48676  0.92654  Biso   1.000  Hf
  Hf13     1.0000 0.63307  0.01626  0.57759  Biso   1.000  Hf
  Hf14     1.0000 0.64007  0.22686  0.80103  Biso   1.000  Hf
  Hf15     1.0000 0.85591  0.27335  0.57317  Biso   1.000  Hf
  Hf16     1.0000 0.85377  0.48099  0.82791  Biso   1.000  Hf
  O17      1.0000 0.02284  0.16165  0.58168  Biso   1.000  O 
  O18      1.0000 0.02372  0.08622  0.83222  Biso   1.000  O 
  O19      1.0000 0.46112  0.41428  0.58107  Biso   1.000  O 
  O20      1.0000 0.46081  0.34164  0.82670  Biso   1.000  O 
  O21      1.0000 0.26733  0.12483  0.79613  Biso   1.000  O 
  O22      1.0000 0.26726  0.12506  0.54901  Biso   1.000  O 
  O23      1.0000 0.21446  0.37457  0.79879  Biso   1.000  O 
  O24      1.0000 0.21675  0.37566  0.54998  Biso   1.000  O 
  O25      1.0000 0.52221  0.16152  0.66356  Biso   1.000  O 
  O26      1.0000 0.52566  0.06909  0.90339  Biso   1.000  O 
  O27      1.0000 0.96103  0.41255  0.66885  Biso   1.000  O 
  O28      1.0000 0.96133  0.33586  0.91700  Biso   1.000  O 
  O29      1.0000 0.76295  0.12622  0.94948  Biso   1.000  O 
  O30      1.0000 0.77533  0.12049  0.69498  Biso   1.000  O 
  O31      1.0000 0.72617  0.38534  0.95186  Biso   1.000  O 
  O32      1.0000 0.71958  0.37772  0.69875  Biso   1.000  O 
  Hf17     1.0000 0.13475  0.52357  0.17329  Biso   1.000  Hf
  Hf18     1.0000 0.12937  0.72866  0.42228  Biso   1.000  Hf
  Hf19     1.0000 0.35484  0.77271  0.17465  Biso   1.000  Hf
  Hf20     1.0000 0.35330  0.97838  0.42601  Biso   1.000  Hf
  Hf21     1.0000 0.63659  0.53596  0.07996  Biso   1.000  Hf
  Hf22     1.0000 0.63253  0.73099  0.33086  Biso   1.000  Hf
  Hf23     1.0000 0.86169  0.77059  0.07870  Biso   1.000  Hf
  Hf24     1.0000 0.85589  0.98059  0.32788  Biso   1.000  Hf
  O33      1.0000 0.02971  0.66324  0.08126  Biso   1.000  O 
  O34      1.0000 0.02339  0.58794  0.33127  Biso   1.000  O 
  O35      1.0000 0.46446  0.90393  0.07548  Biso   1.000  O 
  O36      1.0000 0.46175  0.83915  0.33367  Biso   1.000  O 
  O37      1.0000 0.26774  0.62678  0.29641  Biso   1.000  O 
  O38      1.0000 0.27063  0.63191  0.04427  Biso   1.000  O 
  O39      1.0000 0.21744  0.87521  0.29708  Biso   1.000  O 
  O40      1.0000 0.21932  0.87900  0.04732  Biso   1.000  O 
  O41      1.0000 0.53101  0.67415  0.17007  Biso   1.000  O 
  O42      1.0000 0.52467  0.58725  0.41683  Biso   1.000  O 
  O43      1.0000 0.96374  0.91562  0.16835  Biso   1.000  O 
  O44      1.0000 0.95979  0.83800  0.41938  Biso   1.000  O 
  O45      1.0000 0.76867  0.62429  0.45409  Biso   1.000  O 
  O46      1.0000 0.77378  0.62797  0.20592  Biso   1.000  O 
  O47      1.0000 0.71674  0.87413  0.45652  Biso   1.000  O 
  O48      1.0000 0.72349  0.87295  0.20760  Biso   1.000  O 
  Hf25     1.0000 0.12980  0.52073  0.67257  Biso   1.000  Hf
  Hf26     1.0000 0.12398  0.73225  0.92141  Biso   1.000  Hf
  Hf27     1.0000 0.35095  0.76909  0.67193  Biso   1.000  Hf
  Hf28     1.0000 0.34845  0.97592  0.91950  Biso   1.000  Hf
  Hf29     1.0000 0.63094  0.52218  0.57542  Biso   1.000  Hf
  Hf30     1.0000 0.62694  0.72836  0.82598  Biso   1.000  Hf
  Hf31     1.0000 0.85407  0.77085  0.57960  Biso   1.000  Hf
  Hf32     1.0000 0.84922  0.98001  0.82999  Biso   1.000  Hf
  O49      1.0000 0.02382  0.66305  0.58187  Biso   1.000  O 
  O50      1.0000 0.02242  0.58805  0.83201  Biso   1.000  O 
  O51      1.0000 0.45947  0.90898  0.58327  Biso   1.000  O 
  O52      1.0000 0.45318  0.82976  0.83118  Biso   1.000  O 
  O53      1.0000 0.26372  0.62526  0.79552  Biso   1.000  O 
  O54      1.0000 0.26656  0.62486  0.54527  Biso   1.000  O 
  O55      1.0000 0.21176  0.87386  0.79551  Biso   1.000  O 
  O56      1.0000 0.21486  0.87553  0.54665  Biso   1.000  O 
  O57      1.0000 0.52239  0.66170  0.66722  Biso   1.000  O 
  O58      1.0000 0.51810  0.58674  0.91990  Biso   1.000  O 
  O59      1.0000 0.95840  0.91180  0.67048  Biso   1.000  O 
  O60      1.0000 0.95425  0.83861  0.92010  Biso   1.000  O 
  O61      1.0000 0.76323  0.62962  0.95233  Biso   1.000  O 
  O62      1.0000 0.76670  0.62548  0.70334  Biso   1.000  O 
  O63      1.0000 0.71135  0.87241  0.95574  Biso   1.000  O 
  O64      1.0000 0.71468  0.87358  0.70714  Biso   1.000  O 
  Ba1      1.0000 0.55412  0.26314  0.03299  Biso   1.000  Ba
