data_image0
_cell_length_a       10.2019
_cell_length_b       5.19328
_cell_length_c       10.7126
_cell_angle_alpha    90
_cell_angle_beta     80
_cell_angle_gamma    90

_symmetry_space_group_name_H-M    "P 1"
_symmetry_int_tables_number       1

loop_
  _symmetry_equiv_pos_as_xyz
  'x, y, z'

loop_
  _atom_site_label
  _atom_site_occupancy
  _atom_site_fract_x
  _atom_site_fract_y
  _atom_site_fract_z
  _atom_site_thermal_displace_type
  _atom_site_B_iso_or_equiv
  _atom_site_type_symbol
  Hf1      1.0000 0.13350  0.04151  0.14764  Biso   1.000  Hf
  Hf2      1.0000 0.13949  0.45600  0.39208  Biso   1.000  Hf
  Hf3      1.0000 0.34298  0.54795  0.07465  Biso   1.000  Hf
  Hf4      1.0000 0.36526  0.95246  0.36076  Biso   1.000  Hf
  O1       1.0000 0.03133  0.32826  0.07371  Biso   1.000  O 
  O2       1.0000 0.03112  0.16812  0.32756  Biso   1.000  O 
  O3       1.0000 0.46393  0.87827  0.17091  Biso   1.000  O 
  O4       1.0000 0.48493  0.71450  0.45302  Biso   1.000  O 
  O5       1.0000 0.26416  0.24822  0.23560  Biso   1.000  O 
  O6       1.0000 0.28917  0.25727  0.48413  Biso   1.000  O 
  O7       1.0000 0.20844  0.77615  0.00058  Biso   1.000  O 
  O8       1.0000 0.22848  0.73300  0.25236  Biso   1.000  O 
  Hf5      1.0000 0.15112  0.04922  0.64164  Biso   1.000  Hf
  Hf6      1.0000 0.14673  0.46041  0.88806  Biso   1.000  Hf
  Hf7      1.0000 0.37240  0.55546  0.60774  Biso   1.000  Hf
  Hf8      1.0000 0.37234  0.96998  0.84694  Biso   1.000  Hf
  O9       1.0000 0.04592  0.33191  0.57435  Biso   1.000  O 
  O10      1.0000 0.04533  0.17610  0.82072  Biso   1.000  O 
  O11      1.0000 0.48076  0.82755  0.68203  Biso   1.000  O 
  O12      1.0000 0.48312  0.69478  0.91747  Biso   1.000  O 
  O13      1.0000 0.28656  0.25838  0.73479  Biso   1.000  O 
  O14      1.0000 0.28774  0.25518  0.97906  Biso   1.000  O 
  O15      1.0000 0.22946  0.76101  0.50899  Biso   1.000  O 
  O16      1.0000 0.23594  0.74712  0.75509  Biso   1.000  O 
  Hf9      1.0000 0.64720  0.03440  0.14998  Biso   1.000  Hf
  Hf10     1.0000 0.66153  0.45149  0.41854  Biso   1.000  Hf
  Hf11     1.0000 0.85883  0.53707  0.10706  Biso   1.000  Hf
  Hf12     1.0000 0.86095  0.95242  0.35539  Biso   1.000  Hf
  O17      1.0000 0.52300  0.32534  0.05846  Biso   1.000  O 
  O18      1.0000 0.57016  0.11295  0.34654  Biso   1.000  O 
  O19      1.0000 0.96360  0.82178  0.17794  Biso   1.000  O 
  O20      1.0000 0.97118  0.66958  0.42492  Biso   1.000  O 
  O21      1.0000 0.78785  0.25313  0.24304  Biso   1.000  O 
  O22      1.0000 0.79326  0.23256  0.50017  Biso   1.000  O 
  O23      1.0000 0.72015  0.75246  0.01447  Biso   1.000  O 
  O24      1.0000 0.72358  0.72492  0.26199  Biso   1.000  O 
  Hf13     1.0000 0.65162  0.04559  0.65073  Biso   1.000  Hf
  Hf14     1.0000 0.65362  0.45921  0.89395  Biso   1.000  Hf
  Hf15     1.0000 0.87636  0.54847  0.60896  Biso   1.000  Hf
  Hf16     1.0000 0.87335  0.95976  0.85503  Biso   1.000  Hf
  O25      1.0000 0.54444  0.33113  0.58307  Biso   1.000  O 
  O26      1.0000 0.54421  0.18818  0.81989  Biso   1.000  O 
  O27      1.0000 0.97997  0.83156  0.67558  Biso   1.000  O 
  O28      1.0000 0.97948  0.67528  0.92180  Biso   1.000  O 
  O29      1.0000 0.78950  0.26353  0.74326  Biso   1.000  O 
  O30      1.0000 0.79366  0.24677  0.99029  Biso   1.000  O 
  O31      1.0000 0.73755  0.75385  0.51838  Biso   1.000  O 
  O32      1.0000 0.73851  0.75276  0.76243  Biso   1.000  O 
  Ba1      1.0000 0.46473  0.46554  0.27316  Biso   1.000  Ba
