data_image0
_cell_length_a       5.10136
_cell_length_b       10.3586
_cell_length_c       10.6299
_cell_angle_alpha    90
_cell_angle_beta     80
_cell_angle_gamma    90

_symmetry_space_group_name_H-M    "P 1"
_symmetry_int_tables_number       1

loop_
  _symmetry_equiv_pos_as_xyz
  'x, y, z'

loop_
  _atom_site_label
  _atom_site_occupancy
  _atom_site_fract_x
  _atom_site_fract_y
  _atom_site_fract_z
  _atom_site_thermal_displace_type
  _atom_site_B_iso_or_equiv
  _atom_site_type_symbol
  Ba1      1.0000 0.19067  0.98801  0.13142  Biso   1.000  Ba
  Hf1      1.0000 0.26171  0.03669  0.65399  Biso   1.000  Hf
  Hf2      1.0000 0.26167  0.51190  0.14539  Biso   1.000  Hf
  Hf3      1.0000 0.26012  0.53269  0.64442  Biso   1.000  Hf
  Hf4      1.0000 0.25687  0.23685  0.39888  Biso   1.000  Hf
  Hf5      1.0000 0.25444  0.24543  0.90059  Biso   1.000  Hf
  Hf6      1.0000 0.24421  0.72682  0.39901  Biso   1.000  Hf
  Hf7      1.0000 0.26640  0.74254  0.88496  Biso   1.000  Hf
  Hf8      1.0000 0.70752  0.26547  0.10483  Biso   1.000  Hf
  Hf9      1.0000 0.70573  0.28482  0.60700  Biso   1.000  Hf
  Hf10     1.0000 0.73164  0.73460  0.07410  Biso   1.000  Hf
  Hf11     1.0000 0.70265  0.78631  0.60290  Biso   1.000  Hf
  Hf12     1.0000 0.70028  0.48416  0.35309  Biso   1.000  Hf
  Hf13     1.0000 0.70598  0.48479  0.84865  Biso   1.000  Hf
  Hf14     1.0000 0.68442  0.00469  0.37943  Biso   1.000  Hf
  Hf15     1.0000 0.69527  0.99431  0.85595  Biso   1.000  Hf
  O1       1.0000 0.06571  0.19341  0.07655  Biso   1.000  O 
  O2       1.0000 0.04924  0.18191  0.58657  Biso   1.000  O 
  O3       1.0000 0.09556  0.67229  0.07399  Biso   1.000  O 
  O4       1.0000 0.04565  0.67496  0.57567  Biso   1.000  O 
  O5       1.0000 0.04867  0.09089  0.35041  Biso   1.000  O 
  O6       1.0000 0.06045  0.09472  0.83442  Biso   1.000  O 
  O7       1.0000 0.04677  0.58797  0.32536  Biso   1.000  O 
  O8       1.0000 0.03911  0.60026  0.82504  Biso   1.000  O 
  O9       1.0000 0.89971  0.42814  0.16883  Biso   1.000  O 
  O10      1.0000 0.91259  0.43181  0.66866  Biso   1.000  O 
  O11      1.0000 0.70712  0.88749  0.20250  Biso   1.000  O 
  O12      1.0000 0.90921  0.92504  0.67838  Biso   1.000  O 
  O13      1.0000 0.90940  0.34321  0.42282  Biso   1.000  O 
  O14      1.0000 0.90498  0.34776  0.91558  Biso   1.000  O 
  O15      1.0000 0.91991  0.84595  0.42164  Biso   1.000  O 
  O16      1.0000 0.94711  0.86176  0.93533  Biso   1.000  O 
  O17      1.0000 0.56485  0.14216  0.25759  Biso   1.000  O 
  O18      1.0000 0.54042  0.14249  0.74296  Biso   1.000  O 
  O19      1.0000 0.52483  0.63490  0.23367  Biso   1.000  O 
  O20      1.0000 0.52989  0.64345  0.73332  Biso   1.000  O 
  O21      1.0000 0.52456  0.13871  0.50410  Biso   1.000  O 
  O22      1.0000 0.54377  0.13711  0.98467  Biso   1.000  O 
  O23      1.0000 0.53051  0.63163  0.48588  Biso   1.000  O 
  O24      1.0000 0.52192  0.62016  0.98113  Biso   1.000  O 
  O25      1.0000 0.44468  0.37675  0.00878  Biso   1.000  O 
  O26      1.0000 0.42920  0.39171  0.51088  Biso   1.000  O 
  O27      1.0000 0.47169  0.86691  0.98640  Biso   1.000  O 
  O28      1.0000 0.42839  0.89475  0.52047  Biso   1.000  O 
  O29      1.0000 0.42177  0.37861  0.26202  Biso   1.000  O 
  O30      1.0000 0.42629  0.38520  0.75891  Biso   1.000  O 
  O31      1.0000 0.45233  0.87958  0.28536  Biso   1.000  O 
  O32      1.0000 0.42611  0.88618  0.75680  Biso   1.000  O 
