data_image0
_cell_length_a       9.97879
_cell_length_b       10.3878
_cell_length_c       10.0166
_cell_angle_alpha    90
_cell_angle_beta     90
_cell_angle_gamma    90

_symmetry_space_group_name_H-M    "P 1"
_symmetry_int_tables_number       1

loop_
  _symmetry_equiv_pos_as_xyz
  'x, y, z'

loop_
  _atom_site_label
  _atom_site_occupancy
  _atom_site_fract_x
  _atom_site_fract_y
  _atom_site_fract_z
  _atom_site_thermal_displace_type
  _atom_site_B_iso_or_equiv
  _atom_site_type_symbol
  Hf1      1.0000 0.13617  0.02730  0.11595  Biso   1.000  Hf
  Hf2      1.0000 0.12728  0.23377  0.38490  Biso   1.000  Hf
  Hf3      1.0000 0.35508  0.26318  0.11760  Biso   1.000  Hf
  Hf4      1.0000 0.36519  0.48839  0.37415  Biso   1.000  Hf
  O1       1.0000 0.01456  0.18453  0.20957  Biso   1.000  O 
  O2       1.0000 0.03000  0.06952  0.44998  Biso   1.000  O 
  O3       1.0000 0.45038  0.43347  0.19394  Biso   1.000  O 
  O4       1.0000 0.45547  0.31774  0.44149  Biso   1.000  O 
  O5       1.0000 0.26478  0.12093  0.25216  Biso   1.000  O 
  O6       1.0000 0.26598  0.13384  0.50048  Biso   1.000  O 
  O7       1.0000 0.22439  0.38620  0.49175  Biso   1.000  O 
  O8       1.0000 0.19278  0.35837  0.22787  Biso   1.000  O 
  Hf5      1.0000 0.12996  0.01912  0.62820  Biso   1.000  Hf
  Hf6      1.0000 0.14128  0.23090  0.87915  Biso   1.000  Hf
  Hf7      1.0000 0.36180  0.26852  0.62459  Biso   1.000  Hf
  Hf8      1.0000 0.36036  0.48960  0.87127  Biso   1.000  Hf
  O9       1.0000 0.03058  0.18556  0.69687  Biso   1.000  O 
  O10      1.0000 0.03300  0.06892  0.93741  Biso   1.000  O 
  O11      1.0000 0.45982  0.43604  0.69209  Biso   1.000  O 
  O12      1.0000 0.45761  0.31925  0.93989  Biso   1.000  O 
  O13      1.0000 0.26891  0.11854  0.74616  Biso   1.000  O 
  O14      1.0000 0.29083  0.12168  0.98740  Biso   1.000  O 
  O15      1.0000 0.22781  0.39539  0.99286  Biso   1.000  O 
  O16      1.0000 0.22586  0.36951  0.74479  Biso   1.000  O 
  Hf9      1.0000 0.12373  0.52516  0.12123  Biso   1.000  Hf
  Hf10     1.0000 0.12676  0.73674  0.37622  Biso   1.000  Hf
  Hf11     1.0000 0.35756  0.76716  0.12651  Biso   1.000  Hf
  Hf12     1.0000 0.35523  0.98447  0.37422  Biso   1.000  Hf
  O17      1.0000 0.02918  0.68676  0.19570  Biso   1.000  O 
  O18      1.0000 0.02617  0.57045  0.44802  Biso   1.000  O 
  O19      1.0000 0.45710  0.93413  0.19414  Biso   1.000  O 
  O20      1.0000 0.45546  0.81649  0.44255  Biso   1.000  O 
  O21      1.0000 0.26062  0.61567  0.24892  Biso   1.000  O 
  O22      1.0000 0.26306  0.63459  0.49792  Biso   1.000  O 
  O23      1.0000 0.22052  0.88508  0.49953  Biso   1.000  O 
  O24      1.0000 0.22451  0.86757  0.24990  Biso   1.000  O 
  Hf13     1.0000 0.12624  0.51733  0.62522  Biso   1.000  Hf
  Hf14     1.0000 0.12315  0.74065  0.87353  Biso   1.000  Hf
  Hf15     1.0000 0.35954  0.76704  0.62312  Biso   1.000  Hf
  Hf16     1.0000 0.36075  0.97919  0.87156  Biso   1.000  Hf
  O25      1.0000 0.02835  0.68553  0.69193  Biso   1.000  O 
  O26      1.0000 0.02351  0.57504  0.94274  Biso   1.000  O 
  O27      1.0000 0.45812  0.93345  0.68997  Biso   1.000  O 
  O28      1.0000 0.45653  0.81706  0.94837  Biso   1.000  O 
  O29      1.0000 0.26120  0.62000  0.74746  Biso   1.000  O 
  O30      1.0000 0.25759  0.63980  0.99768  Biso   1.000  O 
  O31      1.0000 0.21737  0.88491  0.99810  Biso   1.000  O 
  O32      1.0000 0.22323  0.86859  0.74708  Biso   1.000  O 
  Hf17     1.0000 0.62890  0.01666  0.12323  Biso   1.000  Hf
  Hf18     1.0000 0.62370  0.23219  0.37695  Biso   1.000  Hf
  Hf19     1.0000 0.84397  0.27027  0.13432  Biso   1.000  Hf
  Hf20     1.0000 0.85807  0.48785  0.37837  Biso   1.000  Hf
  O33      1.0000 0.52997  0.18287  0.19167  Biso   1.000  O 
  O34      1.0000 0.52981  0.06640  0.44522  Biso   1.000  O 
  O35      1.0000 0.94883  0.44155  0.19901  Biso   1.000  O 
  O36      1.0000 0.95990  0.32239  0.45130  Biso   1.000  O 
  O37      1.0000 0.75963  0.11849  0.25125  Biso   1.000  O 
  O38      1.0000 0.76591  0.13549  0.49862  Biso   1.000  O 
  O39      1.0000 0.72284  0.38447  0.50252  Biso   1.000  O 
  O40      1.0000 0.71365  0.37286  0.25464  Biso   1.000  O 
  Hf21     1.0000 0.63183  0.01844  0.62449  Biso   1.000  Hf
  Hf22     1.0000 0.62475  0.23538  0.87351  Biso   1.000  Hf
  Hf23     1.0000 0.86173  0.26777  0.62752  Biso   1.000  Hf
  Hf24     1.0000 0.85697  0.48729  0.88027  Biso   1.000  Hf
  O41      1.0000 0.53301  0.18721  0.69011  Biso   1.000  O 
  O42      1.0000 0.53955  0.06360  0.93507  Biso   1.000  O 
  O43      1.0000 0.96104  0.43316  0.70737  Biso   1.000  O 
  O44      1.0000 0.98129  0.32328  0.98684  Biso   1.000  O 
  O45      1.0000 0.76654  0.11962  0.74864  Biso   1.000  O 
  O46      1.0000 0.76603  0.13956  0.99946  Biso   1.000  O 
  O47      1.0000 0.72900  0.38224  0.00094  Biso   1.000  O 
  O48      1.0000 0.72665  0.36946  0.75290  Biso   1.000  O 
  Hf25     1.0000 0.62484  0.51862  0.12819  Biso   1.000  Hf
  Hf26     1.0000 0.62756  0.73746  0.37605  Biso   1.000  Hf
  Hf27     1.0000 0.86086  0.77082  0.12684  Biso   1.000  Hf
  Hf28     1.0000 0.85950  0.98666  0.37259  Biso   1.000  Hf
  O49      1.0000 0.52629  0.68178  0.19823  Biso   1.000  O 
  O50      1.0000 0.52855  0.56823  0.44737  Biso   1.000  O 
  O51      1.0000 0.95914  0.93837  0.19295  Biso   1.000  O 
  O52      1.0000 0.95590  0.81919  0.44370  Biso   1.000  O 
  O53      1.0000 0.76140  0.62157  0.25233  Biso   1.000  O 
  O54      1.0000 0.76089  0.63619  0.50246  Biso   1.000  O 
  O55      1.0000 0.72280  0.88602  0.49826  Biso   1.000  O 
  O56      1.0000 0.72211  0.86968  0.24872  Biso   1.000  O 
  Hf29     1.0000 0.62993  0.51821  0.62815  Biso   1.000  Hf
  Hf30     1.0000 0.62625  0.73751  0.87668  Biso   1.000  Hf
  Hf31     1.0000 0.85965  0.76983  0.62565  Biso   1.000  Hf
  Hf32     1.0000 0.85529  0.98746  0.87602  Biso   1.000  Hf
  O57      1.0000 0.52858  0.68496  0.69658  Biso   1.000  O 
  O58      1.0000 0.52721  0.57012  0.94589  Biso   1.000  O 
  O59      1.0000 0.95661  0.93456  0.69691  Biso   1.000  O 
  O60      1.0000 0.95229  0.81993  0.94487  Biso   1.000  O 
  O61      1.0000 0.76509  0.61903  0.75385  Biso   1.000  O 
  O62      1.0000 0.76754  0.63165  0.00317  Biso   1.000  O 
  O63      1.0000 0.71903  0.88701  0.99969  Biso   1.000  O 
  O64      1.0000 0.72200  0.86951  0.74915  Biso   1.000  O 
  Be1      1.0000 0.09538  0.27559  0.11434  Biso   1.000  Be
