data_image0
_cell_length_a       10.0595
_cell_length_b       10.1561
_cell_length_c       10.0463
_cell_angle_alpha    90
_cell_angle_beta     90
_cell_angle_gamma    90

_symmetry_space_group_name_H-M    "P 1"
_symmetry_int_tables_number       1

loop_
  _symmetry_equiv_pos_as_xyz
  'x, y, z'

loop_
  _atom_site_label
  _atom_site_occupancy
  _atom_site_fract_x
  _atom_site_fract_y
  _atom_site_fract_z
  _atom_site_thermal_displace_type
  _atom_site_B_iso_or_equiv
  _atom_site_type_symbol
  Be1      1.0000 0.12721  0.96450  0.07325  Biso   1.000  Be
  Hf1      1.0000 0.11082  0.02367  0.64109  Biso   1.000  Hf
  Hf2      1.0000 0.12868  0.51229  0.12107  Biso   1.000  Hf
  Hf3      1.0000 0.12266  0.50658  0.60648  Biso   1.000  Hf
  Hf4      1.0000 0.58862  0.98968  0.11334  Biso   1.000  Hf
  Hf5      1.0000 0.61265  0.99497  0.63744  Biso   1.000  Hf
  Hf6      1.0000 0.64583  0.50617  0.11994  Biso   1.000  Hf
  Hf7      1.0000 0.62533  0.51130  0.63253  Biso   1.000  Hf
  Hf8      1.0000 0.12236  0.24885  0.38399  Biso   1.000  Hf
  Hf9      1.0000 0.11721  0.27200  0.88354  Biso   1.000  Hf
  Hf10     1.0000 0.10295  0.76629  0.36880  Biso   1.000  Hf
  Hf11     1.0000 0.14760  0.75288  0.85683  Biso   1.000  Hf
  Hf12     1.0000 0.64063  0.25455  0.37785  Biso   1.000  Hf
  Hf13     1.0000 0.62247  0.27388  0.89476  Biso   1.000  Hf
  Hf14     1.0000 0.62128  0.75694  0.38635  Biso   1.000  Hf
  Hf15     1.0000 0.62424  0.76019  0.87377  Biso   1.000  Hf
  Hf16     1.0000 0.39484  0.28287  0.14260  Biso   1.000  Hf
  Hf17     1.0000 0.37406  0.24800  0.62062  Biso   1.000  Hf
  Hf18     1.0000 0.37147  0.74674  0.11260  Biso   1.000  Hf
  Hf19     1.0000 0.36172  0.77596  0.59785  Biso   1.000  Hf
  Hf20     1.0000 0.88104  0.26367  0.12908  Biso   1.000  Hf
  Hf21     1.0000 0.85303  0.24635  0.64086  Biso   1.000  Hf
  Hf22     1.0000 0.88173  0.74723  0.11494  Biso   1.000  Hf
  Hf23     1.0000 0.88555  0.77482  0.64141  Biso   1.000  Hf
  Hf24     1.0000 0.36727  0.02544  0.36891  Biso   1.000  Hf
  Hf25     1.0000 0.34440  0.03200  0.88582  Biso   1.000  Hf
  Hf26     1.0000 0.38907  0.50837  0.39200  Biso   1.000  Hf
  Hf27     1.0000 0.36831  0.49581  0.86168  Biso   1.000  Hf
  Hf28     1.0000 0.85823  0.99762  0.38542  Biso   1.000  Hf
  Hf29     1.0000 0.86380  0.02387  0.90552  Biso   1.000  Hf
  Hf30     1.0000 0.86470  0.51894  0.38498  Biso   1.000  Hf
  Hf31     1.0000 0.87853  0.51515  0.85777  Biso   1.000  Hf
  O1       1.0000 0.95624  0.19359  0.97584  Biso   1.000  O 
  O2       1.0000 0.98545  0.15735  0.50685  Biso   1.000  O 
  O3       1.0000 0.02104  0.68506  0.99894  Biso   1.000  O 
  O4       1.0000 0.98407  0.65506  0.50262  Biso   1.000  O 
  O5       1.0000 0.46575  0.16485  0.98965  Biso   1.000  O 
  O6       1.0000 0.48641  0.15564  0.47706  Biso   1.000  O 
  O7       1.0000 0.52986  0.65098  0.03758  Biso   1.000  O 
  O8       1.0000 0.49222  0.64009  0.52879  Biso   1.000  O 
  O9       1.0000 0.05197  0.06198  0.28493  Biso   1.000  O 
  O10      1.0000 0.97517  0.11496  0.75188  Biso   1.000  O 
  O11      1.0000 0.98448  0.59208  0.23979  Biso   1.000  O 
  O12      1.0000 0.01840  0.62179  0.74726  Biso   1.000  O 
  O13      1.0000 0.54073  0.15050  0.23016  Biso   1.000  O 
  O14      1.0000 0.46630  0.08680  0.72494  Biso   1.000  O 
  O15      1.0000 0.46404  0.66750  0.28427  Biso   1.000  O 
  O16      1.0000 0.53217  0.58954  0.79434  Biso   1.000  O 
  O17      1.0000 0.04567  0.33157  0.21614  Biso   1.000  O 
  O18      1.0000 0.98869  0.37164  0.73008  Biso   1.000  O 
  O19      1.0000 0.92718  0.83194  0.29025  Biso   1.000  O 
  O20      1.0000 0.00228  0.87322  0.77347  Biso   1.000  O 
  O21      1.0000 0.52362  0.39711  0.26472  Biso   1.000  O 
  O22      1.0000 0.48415  0.34461  0.76214  Biso   1.000  O 
  O23      1.0000 0.41392  0.91895  0.20648  Biso   1.000  O 
  O24      1.0000 0.51670  0.83009  0.71719  Biso   1.000  O 
  O25      1.0000 0.01342  0.43504  0.98202  Biso   1.000  O 
  O26      1.0000 0.01643  0.41111  0.46490  Biso   1.000  O 
  O27      1.0000 0.97833  0.91642  0.03942  Biso   1.000  O 
  O28      1.0000 0.00195  0.90482  0.51581  Biso   1.000  O 
  O29      1.0000 0.51046  0.39593  0.00642  Biso   1.000  O 
  O30      1.0000 0.50810  0.39341  0.51484  Biso   1.000  O 
  O31      1.0000 0.48563  0.90590  0.96467  Biso   1.000  O 
  O32      1.0000 0.49597  0.90294  0.47987  Biso   1.000  O 
  O33      1.0000 0.28479  0.18584  0.27321  Biso   1.000  O 
  O34      1.0000 0.23346  0.16060  0.75414  Biso   1.000  O 
  O35      1.0000 0.20457  0.69876  0.21329  Biso   1.000  O 
  O36      1.0000 0.27431  0.64806  0.73426  Biso   1.000  O 
  O37      1.0000 0.80701  0.15980  0.27974  Biso   1.000  O 
  O38      1.0000 0.72032  0.15010  0.76240  Biso   1.000  O 
  O39      1.0000 0.73113  0.65335  0.24288  Biso   1.000  O 
  O40      1.0000 0.76267  0.65085  0.74062  Biso   1.000  O 
  O41      1.0000 0.19395  0.11406  0.99384  Biso   1.000  O 
  O42      1.0000 0.23807  0.11472  0.50981  Biso   1.000  O 
  O43      1.0000 0.26926  0.62596  0.98582  Biso   1.000  O 
  O44      1.0000 0.23638  0.62423  0.47884  Biso   1.000  O 
  O45      1.0000 0.72605  0.11206  0.01876  Biso   1.000  O 
  O46      1.0000 0.73430  0.11527  0.51184  Biso   1.000  O 
  O47      1.0000 0.77149  0.63249  0.99038  Biso   1.000  O 
  O48      1.0000 0.72890  0.61756  0.49206  Biso   1.000  O 
  O49      1.0000 0.25953  0.36736  0.99483  Biso   1.000  O 
  O50      1.0000 0.25759  0.36775  0.49127  Biso   1.000  O 
  O51      1.0000 0.23016  0.88161  0.99622  Biso   1.000  O 
  O52      1.0000 0.25286  0.87120  0.45753  Biso   1.000  O 
  O53      1.0000 0.75475  0.36544  0.00522  Biso   1.000  O 
  O54      1.0000 0.76177  0.37265  0.50713  Biso   1.000  O 
  O55      1.0000 0.73422  0.85710  0.01830  Biso   1.000  O 
  O56      1.0000 0.75097  0.86498  0.51661  Biso   1.000  O 
  O57      1.0000 0.28584  0.44653  0.22905  Biso   1.000  O 
  O58      1.0000 0.23703  0.40364  0.74147  Biso   1.000  O 
  O59      1.0000 0.14253  0.96564  0.24359  Biso   1.000  O 
  O60      1.0000 0.24955  0.90203  0.73278  Biso   1.000  O 
  O61      1.0000 0.77117  0.39976  0.25064  Biso   1.000  O 
  O62      1.0000 0.74098  0.39664  0.76086  Biso   1.000  O 
  O63      1.0000 0.68323  0.92004  0.27720  Biso   1.000  O 
  O64      1.0000 0.74949  0.90498  0.76664  Biso   1.000  O 
