data_image0
_cell_length_a       10.0271
_cell_length_b       10.2404
_cell_length_c       10.4821
_cell_angle_alpha    90
_cell_angle_beta     90
_cell_angle_gamma    90

_symmetry_space_group_name_H-M    "P 1"
_symmetry_int_tables_number       1

loop_
  _symmetry_equiv_pos_as_xyz
  'x, y, z'

loop_
  _atom_site_label
  _atom_site_occupancy
  _atom_site_fract_x
  _atom_site_fract_y
  _atom_site_fract_z
  _atom_site_thermal_displace_type
  _atom_site_B_iso_or_equiv
  _atom_site_type_symbol
  Hf1      1.0000 0.13505  0.02143  0.17206  Biso   1.000  Hf
  Hf2      1.0000 0.13157  0.22781  0.42534  Biso   1.000  Hf
  Hf3      1.0000 0.34564  0.27055  0.17966  Biso   1.000  Hf
  Hf4      1.0000 0.35632  0.48000  0.42341  Biso   1.000  Hf
  Hf5      1.0000 0.64298  0.03162  0.07050  Biso   1.000  Hf
  Hf6      1.0000 0.63342  0.22598  0.33924  Biso   1.000  Hf
  Hf7      1.0000 0.85253  0.26669  0.07175  Biso   1.000  Hf
  Hf8      1.0000 0.85804  0.47720  0.32702  Biso   1.000  Hf
  O1       1.0000 0.03327  0.16708  0.08502  Biso   1.000  O 
  O2       1.0000 0.02986  0.08224  0.33634  Biso   1.000  O 
  O3       1.0000 0.48116  0.39357  0.07507  Biso   1.000  O 
  O4       1.0000 0.46014  0.33598  0.33439  Biso   1.000  O 
  O5       1.0000 0.27097  0.12430  0.29788  Biso   1.000  O 
  O6       1.0000 0.27650  0.12656  0.04708  Biso   1.000  O 
  O7       1.0000 0.21427  0.37408  0.29805  Biso   1.000  O 
  O8       1.0000 0.22582  0.37873  0.04860  Biso   1.000  O 
  O9       1.0000 0.52377  0.16800  0.17430  Biso   1.000  O 
  O10      1.0000 0.52666  0.08458  0.42055  Biso   1.000  O 
  O11      1.0000 0.95610  0.41608  0.16566  Biso   1.000  O 
  O12      1.0000 0.96010  0.33263  0.41719  Biso   1.000  O 
  O13      1.0000 0.77098  0.12238  0.45964  Biso   1.000  O 
  O14      1.0000 0.77315  0.12810  0.21244  Biso   1.000  O 
  O15      1.0000 0.71805  0.37351  0.45234  Biso   1.000  O 
  O16      1.0000 0.70109  0.36818  0.19297  Biso   1.000  O 
  Hf9      1.0000 0.13508  0.02051  0.67238  Biso   1.000  Hf
  Hf10     1.0000 0.12854  0.22745  0.92208  Biso   1.000  Hf
  Hf11     1.0000 0.35842  0.26989  0.67368  Biso   1.000  Hf
  Hf12     1.0000 0.35218  0.47739  0.92099  Biso   1.000  Hf
  Hf13     1.0000 0.63347  0.02114  0.58335  Biso   1.000  Hf
  Hf14     1.0000 0.63579  0.23038  0.83716  Biso   1.000  Hf
  Hf15     1.0000 0.85510  0.27035  0.58135  Biso   1.000  Hf
  Hf16     1.0000 0.85774  0.48158  0.82488  Biso   1.000  Hf
  O17      1.0000 0.02808  0.16623  0.58691  Biso   1.000  O 
  O18      1.0000 0.03096  0.08106  0.83349  Biso   1.000  O 
  O19      1.0000 0.46264  0.41485  0.58313  Biso   1.000  O 
  O20      1.0000 0.46245  0.33680  0.83343  Biso   1.000  O 
  O21      1.0000 0.27185  0.12400  0.79630  Biso   1.000  O 
  O22      1.0000 0.27134  0.12457  0.54641  Biso   1.000  O 
  O23      1.0000 0.21798  0.37346  0.79725  Biso   1.000  O 
  O24      1.0000 0.21943  0.37544  0.54691  Biso   1.000  O 
  O25      1.0000 0.52860  0.16522  0.66887  Biso   1.000  O 
  O26      1.0000 0.52746  0.07709  0.90861  Biso   1.000  O 
  O27      1.0000 0.96295  0.41587  0.66501  Biso   1.000  O 
  O28      1.0000 0.96071  0.33446  0.91387  Biso   1.000  O 
  O29      1.0000 0.78861  0.11498  0.94778  Biso   1.000  O 
  O30      1.0000 0.77196  0.12607  0.70620  Biso   1.000  O 
  O31      1.0000 0.72343  0.38898  0.94721  Biso   1.000  O 
  O32      1.0000 0.71876  0.37644  0.70293  Biso   1.000  O 
  Hf17     1.0000 0.13172  0.52150  0.17142  Biso   1.000  Hf
  Hf18     1.0000 0.13371  0.72839  0.42145  Biso   1.000  Hf
  Hf19     1.0000 0.35958  0.77409  0.17185  Biso   1.000  Hf
  Hf20     1.0000 0.35514  0.97671  0.42399  Biso   1.000  Hf
  Hf21     1.0000 0.64270  0.53247  0.07314  Biso   1.000  Hf
  Hf22     1.0000 0.63564  0.72994  0.32816  Biso   1.000  Hf
  Hf23     1.0000 0.86033  0.77513  0.07817  Biso   1.000  Hf
  Hf24     1.0000 0.85516  0.97863  0.32903  Biso   1.000  Hf
  O33      1.0000 0.03202  0.66683  0.08493  Biso   1.000  O 
  O34      1.0000 0.02696  0.58136  0.33553  Biso   1.000  O 
  O35      1.0000 0.46669  0.91867  0.08546  Biso   1.000  O 
  O36      1.0000 0.46368  0.83502  0.33417  Biso   1.000  O 
  O37      1.0000 0.26972  0.62367  0.29469  Biso   1.000  O 
  O38      1.0000 0.27681  0.62433  0.04628  Biso   1.000  O 
  O39      1.0000 0.22017  0.87386  0.29611  Biso   1.000  O 
  O40      1.0000 0.22221  0.87610  0.04678  Biso   1.000  O 
  O41      1.0000 0.52830  0.66236  0.16774  Biso   1.000  O 
  O42      1.0000 0.52754  0.58642  0.41739  Biso   1.000  O 
  O43      1.0000 0.96378  0.91802  0.16656  Biso   1.000  O 
  O44      1.0000 0.96144  0.83136  0.41378  Biso   1.000  O 
  O45      1.0000 0.77170  0.62267  0.45327  Biso   1.000  O 
  O46      1.0000 0.77407  0.62530  0.20344  Biso   1.000  O 
  O47      1.0000 0.71817  0.87396  0.45546  Biso   1.000  O 
  O48      1.0000 0.72231  0.87572  0.20473  Biso   1.000  O 
  Hf25     1.0000 0.13455  0.52049  0.67144  Biso   1.000  Hf
  Hf26     1.0000 0.13231  0.72913  0.92272  Biso   1.000  Hf
  Hf27     1.0000 0.35504  0.77011  0.67278  Biso   1.000  Hf
  Hf28     1.0000 0.35379  0.97874  0.92322  Biso   1.000  Hf
  Hf29     1.0000 0.63345  0.52143  0.57830  Biso   1.000  Hf
  Hf30     1.0000 0.63128  0.73114  0.82724  Biso   1.000  Hf
  Hf31     1.0000 0.85656  0.77031  0.57676  Biso   1.000  Hf
  Hf32     1.0000 0.85644  0.97556  0.82584  Biso   1.000  Hf
  O49      1.0000 0.02833  0.66442  0.58310  Biso   1.000  O 
  O50      1.0000 0.02919  0.58548  0.83360  Biso   1.000  O 
  O51      1.0000 0.46092  0.91369  0.58471  Biso   1.000  O 
  O52      1.0000 0.45858  0.83302  0.83416  Biso   1.000  O 
  O53      1.0000 0.27169  0.62208  0.79567  Biso   1.000  O 
  O54      1.0000 0.27114  0.62569  0.54565  Biso   1.000  O 
  O55      1.0000 0.21671  0.87232  0.79575  Biso   1.000  O 
  O56      1.0000 0.21792  0.87440  0.54536  Biso   1.000  O 
  O57      1.0000 0.52649  0.66371  0.66750  Biso   1.000  O 
  O58      1.0000 0.52172  0.58836  0.91922  Biso   1.000  O 
  O59      1.0000 0.96275  0.91434  0.66276  Biso   1.000  O 
  O60      1.0000 0.96069  0.83387  0.91752  Biso   1.000  O 
  O61      1.0000 0.76859  0.63031  0.95270  Biso   1.000  O 
  O62      1.0000 0.77063  0.62731  0.70341  Biso   1.000  O 
  O63      1.0000 0.71515  0.87500  0.95420  Biso   1.000  O 
  O64      1.0000 0.71734  0.87481  0.70384  Biso   1.000  O 
  Be1      1.0000 0.59167  0.28165  0.09568  Biso   1.000  Be
