data_image0
_cell_length_a       10.1493
_cell_length_b       10.264
_cell_length_c       10.5014
_cell_angle_alpha    90
_cell_angle_beta     80
_cell_angle_gamma    90

_symmetry_space_group_name_H-M    "P 1"
_symmetry_int_tables_number       1

loop_
  _symmetry_equiv_pos_as_xyz
  'x, y, z'

loop_
  _atom_site_label
  _atom_site_occupancy
  _atom_site_fract_x
  _atom_site_fract_y
  _atom_site_fract_z
  _atom_site_thermal_displace_type
  _atom_site_B_iso_or_equiv
  _atom_site_type_symbol
  Hf1      1.0000 0.13464  0.02104  0.14192  Biso   1.000  Hf
  Hf2      1.0000 0.14735  0.23180  0.38824  Biso   1.000  Hf
  Hf3      1.0000 0.35666  0.27029  0.11219  Biso   1.000  Hf
  Hf4      1.0000 0.35791  0.46768  0.34584  Biso   1.000  Hf
  O1       1.0000 0.03110  0.16772  0.07760  Biso   1.000  O 
  O2       1.0000 0.03543  0.08276  0.32654  Biso   1.000  O 
  O3       1.0000 0.46310  0.42372  0.16483  Biso   1.000  O 
  O4       1.0000 0.47668  0.33076  0.42838  Biso   1.000  O 
  O5       1.0000 0.27173  0.11433  0.23364  Biso   1.000  O 
  O6       1.0000 0.30058  0.13151  0.47405  Biso   1.000  O 
  O7       1.0000 0.22141  0.37936  0.00783  Biso   1.000  O 
  O8       1.0000 0.20184  0.37796  0.25153  Biso   1.000  O 
  Hf5      1.0000 0.13899  0.01980  0.64703  Biso   1.000  Hf
  Hf6      1.0000 0.14200  0.22802  0.89612  Biso   1.000  Hf
  Hf7      1.0000 0.36545  0.27263  0.61245  Biso   1.000  Hf
  Hf8      1.0000 0.36513  0.47658  0.85684  Biso   1.000  Hf
  O9       1.0000 0.04675  0.16684  0.57437  Biso   1.000  O 
  O10      1.0000 0.03759  0.08146  0.82770  Biso   1.000  O 
  O11      1.0000 0.47089  0.41550  0.67487  Biso   1.000  O 
  O12      1.0000 0.46819  0.33165  0.92343  Biso   1.000  O 
  O13      1.0000 0.27893  0.12674  0.73731  Biso   1.000  O 
  O14      1.0000 0.27749  0.11956  0.98717  Biso   1.000  O 
  O15      1.0000 0.22918  0.37625  0.51246  Biso   1.000  O 
  O16      1.0000 0.22803  0.37084  0.76109  Biso   1.000  O 
  Hf9      1.0000 0.13671  0.52302  0.14156  Biso   1.000  Hf
  Hf10     1.0000 0.13961  0.72292  0.39540  Biso   1.000  Hf
  Hf11     1.0000 0.35990  0.76941  0.10344  Biso   1.000  Hf
  Hf12     1.0000 0.35686  0.96745  0.34984  Biso   1.000  Hf
  O17      1.0000 0.03140  0.67051  0.07655  Biso   1.000  O 
  O18      1.0000 0.03230  0.58571  0.32559  Biso   1.000  O 
  O19      1.0000 0.46735  0.91346  0.17441  Biso   1.000  O 
  O20      1.0000 0.46771  0.83411  0.42219  Biso   1.000  O 
  O21      1.0000 0.27583  0.62607  0.23877  Biso   1.000  O 
  O22      1.0000 0.27685  0.61961  0.48896  Biso   1.000  O 
  O23      1.0000 0.22299  0.87812  0.00901  Biso   1.000  O 
  O24      1.0000 0.22213  0.86497  0.25845  Biso   1.000  O 
  Hf13     1.0000 0.14384  0.52119  0.64496  Biso   1.000  Hf
  Hf14     1.0000 0.14032  0.72766  0.89487  Biso   1.000  Hf
  Hf15     1.0000 0.36320  0.76959  0.60357  Biso   1.000  Hf
  Hf16     1.0000 0.36402  0.97621  0.85385  Biso   1.000  Hf
  O25      1.0000 0.03556  0.66430  0.57837  Biso   1.000  O 
  O26      1.0000 0.03801  0.58150  0.82785  Biso   1.000  O 
  O27      1.0000 0.46830  0.91408  0.67237  Biso   1.000  O 
  O28      1.0000 0.46915  0.83252  0.92224  Biso   1.000  O 
  O29      1.0000 0.27993  0.62751  0.73963  Biso   1.000  O 
  O30      1.0000 0.27956  0.62095  0.98863  Biso   1.000  O 
  O31      1.0000 0.22472  0.88170  0.50851  Biso   1.000  O 
  O32      1.0000 0.22608  0.86994  0.75859  Biso   1.000  O 
  Hf17     1.0000 0.63874  0.02333  0.14578  Biso   1.000  Hf
  Hf18     1.0000 0.65489  0.22836  0.40245  Biso   1.000  Hf
  Hf19     1.0000 0.85914  0.27288  0.10472  Biso   1.000  Hf
  Hf20     1.0000 0.86372  0.47824  0.35347  Biso   1.000  Hf
  O33      1.0000 0.53224  0.16595  0.07858  Biso   1.000  O 
  O34      1.0000 0.52065  0.10487  0.32266  Biso   1.000  O 
  O35      1.0000 0.95951  0.42186  0.16800  Biso   1.000  O 
  O36      1.0000 0.96786  0.33418  0.42181  Biso   1.000  O 
  O37      1.0000 0.77383  0.12701  0.24363  Biso   1.000  O 
  O38      1.0000 0.78415  0.11787  0.49292  Biso   1.000  O 
  O39      1.0000 0.72197  0.37931  0.01173  Biso   1.000  O 
  O40      1.0000 0.72343  0.37012  0.26261  Biso   1.000  O 
  Hf21     1.0000 0.64246  0.01894  0.64775  Biso   1.000  Hf
  Hf22     1.0000 0.63992  0.22821  0.89693  Biso   1.000  Hf
  Hf23     1.0000 0.87040  0.27038  0.60498  Biso   1.000  Hf
  Hf24     1.0000 0.86464  0.47701  0.85477  Biso   1.000  Hf
  O41      1.0000 0.54015  0.16402  0.57894  Biso   1.000  O 
  O42      1.0000 0.53759  0.08151  0.82839  Biso   1.000  O 
  O43      1.0000 0.97112  0.41493  0.67288  Biso   1.000  O 
  O44      1.0000 0.96750  0.33080  0.92130  Biso   1.000  O 
  O45      1.0000 0.78057  0.12791  0.74085  Biso   1.000  O 
  O46      1.0000 0.77850  0.11997  0.99153  Biso   1.000  O 
  O47      1.0000 0.72907  0.37619  0.51289  Biso   1.000  O 
  O48      1.0000 0.72855  0.37039  0.76040  Biso   1.000  O 
  Hf25     1.0000 0.63683  0.52244  0.14777  Biso   1.000  Hf
  Hf26     1.0000 0.63860  0.72491  0.39587  Biso   1.000  Hf
  Hf27     1.0000 0.85765  0.77173  0.10423  Biso   1.000  Hf
  Hf28     1.0000 0.86493  0.97510  0.35470  Biso   1.000  Hf
  O49      1.0000 0.53489  0.66917  0.07906  Biso   1.000  O 
  O50      1.0000 0.53391  0.57906  0.33016  Biso   1.000  O 
  O51      1.0000 0.96214  0.91532  0.17235  Biso   1.000  O 
  O52      1.0000 0.96780  0.83156  0.42311  Biso   1.000  O 
  O53      1.0000 0.77529  0.63037  0.24105  Biso   1.000  O 
  O54      1.0000 0.77740  0.61954  0.49063  Biso   1.000  O 
  O55      1.0000 0.72141  0.88109  0.01063  Biso   1.000  O 
  O56      1.0000 0.71993  0.87309  0.26212  Biso   1.000  O 
  Hf29     1.0000 0.64292  0.52131  0.64741  Biso   1.000  Hf
  Hf30     1.0000 0.64195  0.72722  0.89634  Biso   1.000  Hf
  Hf31     1.0000 0.86329  0.77009  0.60394  Biso   1.000  Hf
  Hf32     1.0000 0.86276  0.97800  0.85471  Biso   1.000  Hf
  O57      1.0000 0.53601  0.66519  0.57911  Biso   1.000  O 
  O58      1.0000 0.53835  0.58254  0.82895  Biso   1.000  O 
  O59      1.0000 0.96771  0.91614  0.67192  Biso   1.000  O 
  O60      1.0000 0.96713  0.83254  0.92034  Biso   1.000  O 
  O61      1.0000 0.77989  0.62762  0.74027  Biso   1.000  O 
  O62      1.0000 0.77923  0.61997  0.98988  Biso   1.000  O 
  O63      1.0000 0.72539  0.87665  0.51073  Biso   1.000  O 
  O64      1.0000 0.72703  0.86984  0.76048  Biso   1.000  O 
  Be1      1.0000 0.40944  0.21659  0.36148  Biso   1.000  Be
