data_image0
_cell_length_a       10.1866
_cell_length_b       5.10101
_cell_length_c       10.4743
_cell_angle_alpha    90
_cell_angle_beta     80
_cell_angle_gamma    90

_symmetry_space_group_name_H-M    "P 1"
_symmetry_int_tables_number       1

loop_
  _symmetry_equiv_pos_as_xyz
  'x, y, z'

loop_
  _atom_site_label
  _atom_site_occupancy
  _atom_site_fract_x
  _atom_site_fract_y
  _atom_site_fract_z
  _atom_site_thermal_displace_type
  _atom_site_B_iso_or_equiv
  _atom_site_type_symbol
  Be1      1.0000 0.04798  0.10101  0.16970  Biso   1.000  Be
  Hf1      1.0000 0.13950  0.03858  0.64497  Biso   1.000  Hf
  Hf2      1.0000 0.64009  0.04295  0.14639  Biso   1.000  Hf
  Hf3      1.0000 0.63840  0.03896  0.64816  Biso   1.000  Hf
  Hf4      1.0000 0.14040  0.44967  0.39062  Biso   1.000  Hf
  Hf5      1.0000 0.14114  0.45368  0.89861  Biso   1.000  Hf
  Hf6      1.0000 0.63703  0.45556  0.39676  Biso   1.000  Hf
  Hf7      1.0000 0.63940  0.45659  0.89793  Biso   1.000  Hf
  Hf8      1.0000 0.35452  0.53760  0.10473  Biso   1.000  Hf
  Hf9      1.0000 0.35860  0.54081  0.60312  Biso   1.000  Hf
  Hf10     1.0000 0.86422  0.54769  0.10472  Biso   1.000  Hf
  Hf11     1.0000 0.86158  0.53816  0.60401  Biso   1.000  Hf
  Hf12     1.0000 0.35618  0.95565  0.34927  Biso   1.000  Hf
  Hf13     1.0000 0.35668  0.95540  0.85699  Biso   1.000  Hf
  Hf14     1.0000 0.85687  0.95500  0.35730  Biso   1.000  Hf
  Hf15     1.0000 0.86105  0.95647  0.85500  Biso   1.000  Hf
  O1       1.0000 0.03487  0.32923  0.07798  Biso   1.000  O 
  O2       1.0000 0.03136  0.31992  0.57286  Biso   1.000  O 
  O3       1.0000 0.53525  0.33069  0.07831  Biso   1.000  O 
  O4       1.0000 0.53220  0.32677  0.57906  Biso   1.000  O 
  O5       1.0000 0.02767  0.18039  0.31669  Biso   1.000  O 
  O6       1.0000 0.03312  0.16809  0.82583  Biso   1.000  O 
  O7       1.0000 0.53509  0.16347  0.32880  Biso   1.000  O 
  O8       1.0000 0.53498  0.16808  0.82861  Biso   1.000  O 
  O9       1.0000 0.47027  0.82436  0.17130  Biso   1.000  O 
  O10      1.0000 0.46603  0.82511  0.67402  Biso   1.000  O 
  O11      1.0000 0.96184  0.85144  0.16907  Biso   1.000  O 
  O12      1.0000 0.96605  0.82487  0.67281  Biso   1.000  O 
  O13      1.0000 0.46655  0.66868  0.42322  Biso   1.000  O 
  O14      1.0000 0.47293  0.67925  0.92398  Biso   1.000  O 
  O15      1.0000 0.96640  0.67061  0.42099  Biso   1.000  O 
  O16      1.0000 0.96631  0.66677  0.92312  Biso   1.000  O 
  O17      1.0000 0.28466  0.25841  0.24591  Biso   1.000  O 
  O18      1.0000 0.27520  0.25295  0.73846  Biso   1.000  O 
  O19      1.0000 0.77581  0.26056  0.24105  Biso   1.000  O 
  O20      1.0000 0.77681  0.25439  0.74061  Biso   1.000  O 
  O21      1.0000 0.27472  0.24007  0.49083  Biso   1.000  O 
  O22      1.0000 0.28649  0.25524  0.98049  Biso   1.000  O 
  O23      1.0000 0.77404  0.23970  0.49162  Biso   1.000  O 
  O24      1.0000 0.77663  0.24319  0.99109  Biso   1.000  O 
  O25      1.0000 0.23103  0.74462  0.00027  Biso   1.000  O 
  O26      1.0000 0.22224  0.75364  0.50865  Biso   1.000  O 
  O27      1.0000 0.72700  0.75751  0.01080  Biso   1.000  O 
  O28      1.0000 0.72309  0.75186  0.51225  Biso   1.000  O 
  O29      1.0000 0.23091  0.72431  0.26157  Biso   1.000  O 
  O30      1.0000 0.22254  0.73950  0.75685  Biso   1.000  O 
  O31      1.0000 0.72402  0.74332  0.26220  Biso   1.000  O 
  O32      1.0000 0.72480  0.74094  0.76067  Biso   1.000  O 
