data_image0
_cell_length_a       5.01954
_cell_length_b       10.1756
_cell_length_c       9.97831
_cell_angle_alpha    90
_cell_angle_beta     90
_cell_angle_gamma    90

_symmetry_space_group_name_H-M    "P 1"
_symmetry_int_tables_number       1

loop_
  _symmetry_equiv_pos_as_xyz
  'x, y, z'

loop_
  _atom_site_label
  _atom_site_occupancy
  _atom_site_fract_x
  _atom_site_fract_y
  _atom_site_fract_z
  _atom_site_thermal_displace_type
  _atom_site_B_iso_or_equiv
  _atom_site_type_symbol
  Be1      1.0000 0.17561  0.99437  0.14635  Biso   1.000  Be
  Hf1      1.0000 0.21013  0.00246  0.62503  Biso   1.000  Hf
  Hf2      1.0000 0.24069  0.48164  0.14471  Biso   1.000  Hf
  Hf3      1.0000 0.20523  0.48434  0.63354  Biso   1.000  Hf
  Hf4      1.0000 0.25849  0.22204  0.36746  Biso   1.000  Hf
  Hf5      1.0000 0.16717  0.23697  0.87886  Biso   1.000  Hf
  Hf6      1.0000 0.17320  0.75895  0.35308  Biso   1.000  Hf
  Hf7      1.0000 0.17850  0.74950  0.86253  Biso   1.000  Hf
  Hf8      1.0000 0.75858  0.25621  0.14051  Biso   1.000  Hf
  Hf9      1.0000 0.71206  0.23692  0.61991  Biso   1.000  Hf
  Hf10     1.0000 0.66889  0.73503  0.12381  Biso   1.000  Hf
  Hf11     1.0000 0.68602  0.73793  0.61391  Biso   1.000  Hf
  Hf12     1.0000 0.68066  0.98684  0.35770  Biso   1.000  Hf
  Hf13     1.0000 0.70036  0.99129  0.86454  Biso   1.000  Hf
  Hf14     1.0000 0.73920  0.50558  0.38042  Biso   1.000  Hf
  Hf15     1.0000 0.70195  0.50596  0.87162  Biso   1.000  Hf
  O1       1.0000 0.81790  0.15049  0.97479  Biso   1.000  O 
  O2       1.0000 0.96094  0.13944  0.48595  Biso   1.000  O 
  O3       1.0000 0.90974  0.66747  0.98694  Biso   1.000  O 
  O4       1.0000 0.97436  0.64295  0.49235  Biso   1.000  O 
  O5       1.0000 0.04741  0.09465  0.23010  Biso   1.000  O 
  O6       1.0000 0.95273  0.10280  0.73896  Biso   1.000  O 
  O7       1.0000 0.95435  0.60412  0.23634  Biso   1.000  O 
  O8       1.0000 0.95183  0.60388  0.74388  Biso   1.000  O 
  O9       1.0000 0.00015  0.35392  0.27546  Biso   1.000  O 
  O10      1.0000 0.90197  0.34808  0.76931  Biso   1.000  O 
  O11      1.0000 0.88660  0.84990  0.24291  Biso   1.000  O 
  O12      1.0000 0.90149  0.85545  0.75154  Biso   1.000  O 
  O13      1.0000 0.93181  0.41571  0.02464  Biso   1.000  O 
  O14      1.0000 0.89616  0.39609  0.52818  Biso   1.000  O 
  O15      1.0000 0.03095  0.93394  0.98584  Biso   1.000  O 
  O16      1.0000 0.96524  0.88976  0.48856  Biso   1.000  O 
  O17      1.0000 0.54975  0.13648  0.25882  Biso   1.000  O 
  O18      1.0000 0.45162  0.13838  0.76108  Biso   1.000  O 
  O19      1.0000 0.44928  0.63148  0.26351  Biso   1.000  O 
  O20      1.0000 0.45384  0.64136  0.75700  Biso   1.000  O 
  O21      1.0000 0.29418  0.04197  0.98763  Biso   1.000  O 
  O22      1.0000 0.47960  0.08254  0.49862  Biso   1.000  O 
  O23      1.0000 0.46077  0.58601  0.01054  Biso   1.000  O 
  O24      1.0000 0.48319  0.57642  0.52069  Biso   1.000  O 
  O25      1.0000 0.40292  0.30947  0.04550  Biso   1.000  O 
  O26      1.0000 0.38607  0.32252  0.53553  Biso   1.000  O 
  O27      1.0000 0.50275  0.83025  0.96621  Biso   1.000  O 
  O28      1.0000 0.48798  0.82811  0.46220  Biso   1.000  O 
  O29      1.0000 0.49544  0.38272  0.27443  Biso   1.000  O 
  O30      1.0000 0.39277  0.39538  0.79240  Biso   1.000  O 
  O31      1.0000 0.38206  0.89355  0.21999  Biso   1.000  O 
  O32      1.0000 0.40503  0.88530  0.72154  Biso   1.000  O 
