data_image0
_cell_length_a       5.09226
_cell_length_b       10.335
_cell_length_c       9.97721
_cell_angle_alpha    90
_cell_angle_beta     90
_cell_angle_gamma    90

_symmetry_space_group_name_H-M    "P 1"
_symmetry_int_tables_number       1

loop_
  _symmetry_equiv_pos_as_xyz
  'x, y, z'

loop_
  _atom_site_label
  _atom_site_occupancy
  _atom_site_fract_x
  _atom_site_fract_y
  _atom_site_fract_z
  _atom_site_thermal_displace_type
  _atom_site_B_iso_or_equiv
  _atom_site_type_symbol
  Hf1      1.0000 0.18992  0.96324  0.14674  Biso   1.000  Hf
  Hf2      1.0000 0.23995  0.23035  0.37620  Biso   1.000  Hf
  Hf3      1.0000 0.58417  0.25525  0.11730  Biso   1.000  Hf
  Hf4      1.0000 0.76937  0.99388  0.39820  Biso   1.000  Hf
  O1       1.0000 0.89841  0.14551  0.02803  Biso   1.000  O 
  O2       1.0000 0.05042  0.06718  0.26375  Biso   1.000  O 
  O3       1.0000 0.90550  0.29797  0.25615  Biso   1.000  O 
  O4       1.0000 0.92079  0.39119  0.00808  Biso   1.000  O 
  O5       1.0000 0.53537  0.11488  0.26285  Biso   1.000  O 
  O6       1.0000 0.45710  0.06587  0.99086  Biso   1.000  O 
  O7       1.0000 0.45942  0.33870  0.96859  Biso   1.000  O 
  O8       1.0000 0.42479  0.39401  0.24700  Biso   1.000  O 
  Hf5      1.0000 0.23275  0.00445  0.64469  Biso   1.000  Hf
  Hf6      1.0000 0.17961  0.21409  0.89903  Biso   1.000  Hf
  Hf7      1.0000 0.72065  0.23998  0.63488  Biso   1.000  Hf
  Hf8      1.0000 0.64633  0.96048  0.89924  Biso   1.000  Hf
  O9       1.0000 0.99003  0.13310  0.51324  Biso   1.000  O 
  O10      1.0000 0.94463  0.09060  0.76680  Biso   1.000  O 
  O11      1.0000 0.01337  0.34100  0.75284  Biso   1.000  O 
  O12      1.0000 0.02583  0.37996  0.49044  Biso   1.000  O 
  O13      1.0000 0.42624  0.16379  0.74281  Biso   1.000  O 
  O14      1.0000 0.49354  0.08372  0.51149  Biso   1.000  O 
  O15      1.0000 0.52810  0.32312  0.48038  Biso   1.000  O 
  O16      1.0000 0.54053  0.41026  0.71497  Biso   1.000  O 
  Hf9      1.0000 0.20972  0.50847  0.10611  Biso   1.000  Hf
  Hf10     1.0000 0.22106  0.73443  0.37961  Biso   1.000  Hf
  Hf11     1.0000 0.69146  0.73259  0.12213  Biso   1.000  Hf
  Hf12     1.0000 0.74049  0.46341  0.37301  Biso   1.000  Hf
  O17      1.0000 0.00666  0.61024  0.98752  Biso   1.000  O 
  O18      1.0000 0.89159  0.56701  0.22104  Biso   1.000  O 
  O19      1.0000 0.98854  0.81383  0.23898  Biso   1.000  O 
  O20      1.0000 0.89814  0.89413  0.00644  Biso   1.000  O 
  O21      1.0000 0.39877  0.64012  0.23055  Biso   1.000  O 
  O22      1.0000 0.51216  0.57259  0.99065  Biso   1.000  O 
  O23      1.0000 0.40520  0.84580  0.00380  Biso   1.000  O 
  O24      1.0000 0.48487  0.87425  0.25182  Biso   1.000  O 
  Hf13     1.0000 0.22761  0.49133  0.62633  Biso   1.000  Hf
  Hf14     1.0000 0.16526  0.74344  0.85511  Biso   1.000  Hf
  Hf15     1.0000 0.71281  0.72165  0.60331  Biso   1.000  Hf
  Hf16     1.0000 0.75600  0.47027  0.87455  Biso   1.000  Hf
  O25      1.0000 0.96908  0.62098  0.48415  Biso   1.000  O 
  O26      1.0000 0.94459  0.59362  0.73693  Biso   1.000  O 
  O27      1.0000 0.86700  0.84033  0.75272  Biso   1.000  O 
  O28      1.0000 0.94267  0.87741  0.49898  Biso   1.000  O 
  O29      1.0000 0.41692  0.65690  0.72593  Biso   1.000  O 
  O30      1.0000 0.47692  0.58119  0.48352  Biso   1.000  O 
  O31      1.0000 0.45540  0.83598  0.50253  Biso   1.000  O 
  O32      1.0000 0.34850  0.90788  0.77074  Biso   1.000  O 
  Be1      1.0000 0.04165  0.18901  0.16159  Biso   1.000  Be
