data_image0
_cell_length_a       5.07781
_cell_length_b       10.2261
_cell_length_c       10.4847
_cell_angle_alpha    90
_cell_angle_beta     80
_cell_angle_gamma    90

_symmetry_space_group_name_H-M    "P 1"
_symmetry_int_tables_number       1

loop_
  _symmetry_equiv_pos_as_xyz
  'x, y, z'

loop_
  _atom_site_label
  _atom_site_occupancy
  _atom_site_fract_x
  _atom_site_fract_y
  _atom_site_fract_z
  _atom_site_thermal_displace_type
  _atom_site_B_iso_or_equiv
  _atom_site_type_symbol
  Be1      1.0000 0.09863  0.05024  0.16909  Biso   1.000  Be
  Hf1      1.0000 0.27875  0.01864  0.64591  Biso   1.000  Hf
  Hf2      1.0000 0.27705  0.52088  0.14463  Biso   1.000  Hf
  Hf3      1.0000 0.28029  0.51894  0.64669  Biso   1.000  Hf
  Hf4      1.0000 0.28303  0.22496  0.39210  Biso   1.000  Hf
  Hf5      1.0000 0.28292  0.22387  0.89772  Biso   1.000  Hf
  Hf6      1.0000 0.27934  0.72680  0.39487  Biso   1.000  Hf
  Hf7      1.0000 0.28349  0.72946  0.89774  Biso   1.000  Hf
  Hf8      1.0000 0.71230  0.26507  0.10500  Biso   1.000  Hf
  Hf9      1.0000 0.72311  0.26885  0.60271  Biso   1.000  Hf
  Hf10     1.0000 0.71746  0.77742  0.10663  Biso   1.000  Hf
  Hf11     1.0000 0.72175  0.76946  0.60370  Biso   1.000  Hf
  Hf12     1.0000 0.71945  0.47649  0.35233  Biso   1.000  Hf
  Hf13     1.0000 0.72300  0.47625  0.85526  Biso   1.000  Hf
  Hf14     1.0000 0.70846  0.97646  0.35378  Biso   1.000  Hf
  Hf15     1.0000 0.71490  0.97798  0.85611  Biso   1.000  Hf
  O1       1.0000 0.07246  0.16347  0.07708  Biso   1.000  O 
  O2       1.0000 0.06477  0.15986  0.57290  Biso   1.000  O 
  O3       1.0000 0.06606  0.66738  0.07913  Biso   1.000  O 
  O4       1.0000 0.06696  0.66247  0.57882  Biso   1.000  O 
  O5       1.0000 0.06732  0.08821  0.31602  Biso   1.000  O 
  O6       1.0000 0.07082  0.08298  0.82632  Biso   1.000  O 
  O7       1.0000 0.06323  0.58361  0.32694  Biso   1.000  O 
  O8       1.0000 0.06874  0.58220  0.82868  Biso   1.000  O 
  O9       1.0000 0.93108  0.41246  0.17184  Biso   1.000  O 
  O10      1.0000 0.93619  0.41185  0.67278  Biso   1.000  O 
  O11      1.0000 0.93378  0.92396  0.16866  Biso   1.000  O 
  O12      1.0000 0.93024  0.91246  0.67346  Biso   1.000  O 
  O13      1.0000 0.93486  0.33345  0.42143  Biso   1.000  O 
  O14      1.0000 0.93929  0.33499  0.92432  Biso   1.000  O 
  O15      1.0000 0.93590  0.83530  0.42274  Biso   1.000  O 
  O16      1.0000 0.94284  0.83745  0.92307  Biso   1.000  O 
  O17      1.0000 0.57942  0.13515  0.25036  Biso   1.000  O 
  O18      1.0000 0.55372  0.12569  0.73778  Biso   1.000  O 
  O19      1.0000 0.55135  0.62377  0.23850  Biso   1.000  O 
  O20      1.0000 0.55439  0.62663  0.74053  Biso   1.000  O 
  O21      1.0000 0.54979  0.11848  0.49273  Biso   1.000  O 
  O22      1.0000 0.57937  0.12988  0.97814  Biso   1.000  O 
  O23      1.0000 0.55242  0.61919  0.48995  Biso   1.000  O 
  O24      1.0000 0.55389  0.61852  0.99094  Biso   1.000  O 
  O25      1.0000 0.44782  0.37895  0.00967  Biso   1.000  O 
  O26      1.0000 0.44883  0.37598  0.50908  Biso   1.000  O 
  O27      1.0000 0.46671  0.87204  0.00065  Biso   1.000  O 
  O28      1.0000 0.44452  0.87540  0.51170  Biso   1.000  O 
  O29      1.0000 0.44019  0.37138  0.25897  Biso   1.000  O 
  O30      1.0000 0.45116  0.36865  0.75959  Biso   1.000  O 
  O31      1.0000 0.46648  0.86139  0.26591  Biso   1.000  O 
  O32      1.0000 0.44572  0.86973  0.75730  Biso   1.000  O 
