data_image0
_cell_length_a       4.98463
_cell_length_b       10.3921
_cell_length_c       10.0693
_cell_angle_alpha    90
_cell_angle_beta     90
_cell_angle_gamma    90

_symmetry_space_group_name_H-M    "P 1"
_symmetry_int_tables_number       1

loop_
  _symmetry_equiv_pos_as_xyz
  'x, y, z'

loop_
  _atom_site_label
  _atom_site_occupancy
  _atom_site_fract_x
  _atom_site_fract_y
  _atom_site_fract_z
  _atom_site_thermal_displace_type
  _atom_site_B_iso_or_equiv
  _atom_site_type_symbol
  Hf1      1.0000 0.26349  0.02797  0.11663  Biso   1.000  Hf
  Hf2      1.0000 0.27086  0.22129  0.39571  Biso   1.000  Hf
  Hf3      1.0000 0.67719  0.25931  0.11481  Biso   1.000  Hf
  Hf4      1.0000 0.74523  0.47761  0.37555  Biso   1.000  Hf
  O1       1.0000 0.02265  0.17830  0.22532  Biso   1.000  O 
  O2       1.0000 0.08111  0.05735  0.45477  Biso   1.000  O 
  O3       1.0000 0.94596  0.41503  0.18102  Biso   1.000  O 
  O4       1.0000 0.93668  0.31541  0.45043  Biso   1.000  O 
  O5       1.0000 0.51998  0.11593  0.25418  Biso   1.000  O 
  O6       1.0000 0.56090  0.12539  0.50437  Biso   1.000  O 
  O7       1.0000 0.47214  0.37702  0.49882  Biso   1.000  O 
  O8       1.0000 0.41788  0.36172  0.24662  Biso   1.000  O 
  Hf5      1.0000 0.28597  0.01094  0.63109  Biso   1.000  Hf
  Hf6      1.0000 0.28257  0.22812  0.88288  Biso   1.000  Hf
  Hf7      1.0000 0.74576  0.26166  0.63208  Biso   1.000  Hf
  Hf8      1.0000 0.75189  0.48013  0.87157  Biso   1.000  Hf
  O9       1.0000 0.08874  0.17901  0.69242  Biso   1.000  O 
  O10      1.0000 0.09992  0.05634  0.93599  Biso   1.000  O 
  O11      1.0000 0.94039  0.43123  0.69249  Biso   1.000  O 
  O12      1.0000 0.92654  0.30824  0.93416  Biso   1.000  O 
  O13      1.0000 0.55751  0.11296  0.75090  Biso   1.000  O 
  O14      1.0000 0.59252  0.11126  0.99101  Biso   1.000  O 
  O15      1.0000 0.47657  0.38668  0.99426  Biso   1.000  O 
  O16      1.0000 0.46795  0.36463  0.74945  Biso   1.000  O 
  Hf9      1.0000 0.27312  0.53074  0.11975  Biso   1.000  Hf
  Hf10     1.0000 0.28134  0.73212  0.37573  Biso   1.000  Hf
  Hf11     1.0000 0.73505  0.77047  0.12468  Biso   1.000  Hf
  Hf12     1.0000 0.74224  0.98200  0.37200  Biso   1.000  Hf
  O17      1.0000 0.07491  0.68326  0.19623  Biso   1.000  O 
  O18      1.0000 0.07859  0.56126  0.44087  Biso   1.000  O 
  O19      1.0000 0.93367  0.93497  0.19194  Biso   1.000  O 
  O20      1.0000 0.93833  0.81177  0.44029  Biso   1.000  O 
  O21      1.0000 0.55728  0.61181  0.24624  Biso   1.000  O 
  O22      1.0000 0.55225  0.62534  0.49604  Biso   1.000  O 
  O23      1.0000 0.47293  0.87808  0.49915  Biso   1.000  O 
  O24      1.0000 0.46856  0.86382  0.25042  Biso   1.000  O 
  Hf13     1.0000 0.28250  0.51065  0.62507  Biso   1.000  Hf
  Hf14     1.0000 0.28568  0.73081  0.87273  Biso   1.000  Hf
  Hf15     1.0000 0.74868  0.76066  0.62110  Biso   1.000  Hf
  Hf16     1.0000 0.75172  0.97221  0.87215  Biso   1.000  Hf
  O25      1.0000 0.08759  0.67859  0.69101  Biso   1.000  O 
  O26      1.0000 0.08688  0.56467  0.94342  Biso   1.000  O 
  O27      1.0000 0.94777  0.92412  0.69312  Biso   1.000  O 
  O28      1.0000 0.94628  0.80916  0.94535  Biso   1.000  O 
  O29      1.0000 0.55524  0.61355  0.74660  Biso   1.000  O 
  O30      1.0000 0.55607  0.63033  0.99708  Biso   1.000  O 
  O31      1.0000 0.47275  0.87420  0.99972  Biso   1.000  O 
  O32      1.0000 0.47913  0.86133  0.74781  Biso   1.000  O 
  Be1      1.0000 0.17100  0.29206  0.16052  Biso   1.000  Be
