data_image0
_cell_length_a       9.96288
_cell_length_b       5.17929
_cell_length_c       10.0605
_cell_angle_alpha    90
_cell_angle_beta     90
_cell_angle_gamma    90

_symmetry_space_group_name_H-M    "P 1"
_symmetry_int_tables_number       1

loop_
  _symmetry_equiv_pos_as_xyz
  'x, y, z'

loop_
  _atom_site_label
  _atom_site_occupancy
  _atom_site_fract_x
  _atom_site_fract_y
  _atom_site_fract_z
  _atom_site_thermal_displace_type
  _atom_site_B_iso_or_equiv
  _atom_site_type_symbol
  Be1      1.0000 0.07660  0.87764  0.03682  Biso   1.000  Be
  Hf1      1.0000 0.14410  0.04997  0.62941  Biso   1.000  Hf
  Hf2      1.0000 0.63520  0.03596  0.12273  Biso   1.000  Hf
  Hf3      1.0000 0.63684  0.04074  0.61930  Biso   1.000  Hf
  Hf4      1.0000 0.15757  0.49174  0.38467  Biso   1.000  Hf
  Hf5      1.0000 0.15666  0.46622  0.88659  Biso   1.000  Hf
  Hf6      1.0000 0.63836  0.48509  0.37443  Biso   1.000  Hf
  Hf7      1.0000 0.63767  0.48909  0.86691  Biso   1.000  Hf
  Hf8      1.0000 0.36460  0.52934  0.13266  Biso   1.000  Hf
  Hf9      1.0000 0.37589  0.55578  0.63253  Biso   1.000  Hf
  Hf10     1.0000 0.85348  0.52477  0.10963  Biso   1.000  Hf
  Hf11     1.0000 0.88028  0.54166  0.62172  Biso   1.000  Hf
  Hf12     1.0000 0.37233  0.98725  0.37053  Biso   1.000  Hf
  Hf13     1.0000 0.37777  0.98812  0.88781  Biso   1.000  Hf
  Hf14     1.0000 0.88142  0.97862  0.37955  Biso   1.000  Hf
  Hf15     1.0000 0.87964  0.99853  0.86305  Biso   1.000  Hf
  O1       1.0000 0.03549  0.54129  0.20355  Biso   1.000  O 
  O2       1.0000 0.03981  0.37029  0.71080  Biso   1.000  O 
  O3       1.0000 0.55093  0.37679  0.19374  Biso   1.000  O 
  O4       1.0000 0.54322  0.37754  0.69422  Biso   1.000  O 
  O5       1.0000 0.04448  0.15701  0.44625  Biso   1.000  O 
  O6       1.0000 0.03949  0.15563  0.96372  Biso   1.000  O 
  O7       1.0000 0.54609  0.14791  0.44058  Biso   1.000  O 
  O8       1.0000 0.55065  0.15282  0.94602  Biso   1.000  O 
  O9       1.0000 0.48108  0.86682  0.20029  Biso   1.000  O 
  O10      1.0000 0.47947  0.88112  0.70492  Biso   1.000  O 
  O11      1.0000 0.00551  0.81769  0.18795  Biso   1.000  O 
  O12      1.0000 0.97832  0.87763  0.69340  Biso   1.000  O 
  O13      1.0000 0.48221  0.65453  0.45796  Biso   1.000  O 
  O14      1.0000 0.48060  0.66081  0.95034  Biso   1.000  O 
  O15      1.0000 0.98252  0.65763  0.45150  Biso   1.000  O 
  O16      1.0000 0.99407  0.68366  0.95169  Biso   1.000  O 
  O17      1.0000 0.28023  0.26193  0.25994  Biso   1.000  O 
  O18      1.0000 0.27924  0.24676  0.75420  Biso   1.000  O 
  O19      1.0000 0.79690  0.21847  0.23259  Biso   1.000  O 
  O20      1.0000 0.77518  0.24308  0.73739  Biso   1.000  O 
  O21      1.0000 0.28231  0.28058  0.51040  Biso   1.000  O 
  O22      1.0000 0.29757  0.29172  0.99862  Biso   1.000  O 
  O23      1.0000 0.78100  0.28283  0.48943  Biso   1.000  O 
  O24      1.0000 0.78146  0.29963  0.98296  Biso   1.000  O 
  O25      1.0000 0.24401  0.78313  0.50789  Biso   1.000  O 
  O26      1.0000 0.22054  0.75597  0.00903  Biso   1.000  O 
  O27      1.0000 0.74493  0.78222  0.49696  Biso   1.000  O 
  O28      1.0000 0.75138  0.79678  0.99379  Biso   1.000  O 
  O29      1.0000 0.25762  0.73481  0.26585  Biso   1.000  O 
  O30      1.0000 0.24074  0.75130  0.75833  Biso   1.000  O 
  O31      1.0000 0.74933  0.73665  0.24711  Biso   1.000  O 
  O32      1.0000 0.74600  0.74382  0.74574  Biso   1.000  O 
