data_image0
_cell_length_a       9.97718
_cell_length_b       10.3351
_cell_length_c       5.09225
_cell_angle_alpha    90
_cell_angle_beta     90
_cell_angle_gamma    90

_symmetry_space_group_name_H-M    "P 1"
_symmetry_int_tables_number       1

loop_
  _symmetry_equiv_pos_as_xyz
  'x, y, z'

loop_
  _atom_site_label
  _atom_site_occupancy
  _atom_site_fract_x
  _atom_site_fract_y
  _atom_site_fract_z
  _atom_site_thermal_displace_type
  _atom_site_B_iso_or_equiv
  _atom_site_type_symbol
  Hf1      1.0000 0.11319  0.96015  0.30587  Biso   1.000  Hf
  Hf2      1.0000 0.11270  0.24105  0.61148  Biso   1.000  Hf
  Hf3      1.0000 0.36953  0.23559  0.25791  Biso   1.000  Hf
  Hf4      1.0000 0.40439  0.98452  0.75609  Biso   1.000  Hf
  O1       1.0000 0.03002  0.11902  0.91373  Biso   1.000  O 
  O2       1.0000 0.99147  0.08633  0.43765  Biso   1.000  O 
  O3       1.0000 0.95932  0.35763  0.47479  Biso   1.000  O 
  O4       1.0000 0.00134  0.36270  0.96741  Biso   1.000  O 
  O5       1.0000 0.26285  0.10758  0.54130  Biso   1.000  O 
  O6       1.0000 0.26155  0.07464  0.05132  Biso   1.000  O 
  O7       1.0000 0.25250  0.27880  0.93381  Biso   1.000  O 
  O8       1.0000 0.23596  0.38878  0.46633  Biso   1.000  O 
  Hf5      1.0000 0.08928  0.50453  0.26979  Biso   1.000  Hf
  Hf6      1.0000 0.10104  0.71412  0.77820  Biso   1.000  Hf
  Hf7      1.0000 0.35447  0.73909  0.30211  Biso   1.000  Hf
  Hf8      1.0000 0.36192  0.45286  0.78673  Biso   1.000  Hf
  O9       1.0000 0.96469  0.64279  0.05638  Biso   1.000  O 
  O10      1.0000 0.97326  0.59010  0.55607  Biso   1.000  O 
  O11      1.0000 0.97636  0.83156  0.50985  Biso   1.000  O 
  O12      1.0000 0.97313  0.89516  0.00978  Biso   1.000  O 
  O13      1.0000 0.21036  0.63449  0.47161  Biso   1.000  O 
  O14      1.0000 0.20751  0.54636  0.95454  Biso   1.000  O 
  O15      1.0000 0.20918  0.82040  0.08371  Biso   1.000  O 
  O16      1.0000 0.22382  0.86617  0.58630  Biso   1.000  O 
  Hf9      1.0000 0.64597  0.01981  0.21530  Biso   1.000  Hf
  Hf10     1.0000 0.63155  0.23972  0.73199  Biso   1.000  Hf
  Hf11     1.0000 0.89208  0.23935  0.18177  Biso   1.000  Hf
  Hf12     1.0000 0.86893  0.96980  0.74099  Biso   1.000  Hf
  O17      1.0000 0.51607  0.12073  0.99067  Biso   1.000  O 
  O18      1.0000 0.51210  0.08640  0.48904  Biso   1.000  O 
  O19      1.0000 0.47262  0.32309  0.55424  Biso   1.000  O 
  O20      1.0000 0.47654  0.39524  0.05983  Biso   1.000  O 
  O21      1.0000 0.73979  0.17633  0.42576  Biso   1.000  O 
  O22      1.0000 0.77062  0.08852  0.93329  Biso   1.000  O 
  O23      1.0000 0.74004  0.36588  0.03565  Biso   1.000  O 
  O24      1.0000 0.70395  0.41778  0.57144  Biso   1.000  O 
  Hf13     1.0000 0.60987  0.50496  0.27164  Biso   1.000  Hf
  Hf14     1.0000 0.58244  0.71930  0.78532  Biso   1.000  Hf
  Hf15     1.0000 0.82882  0.76627  0.23488  Biso   1.000  Hf
  Hf16     1.0000 0.86297  0.47666  0.78975  Biso   1.000  Hf
  O25      1.0000 0.46100  0.63715  0.03364  Biso   1.000  O 
  O26      1.0000 0.46591  0.58215  0.53550  Biso   1.000  O 
  O27      1.0000 0.47549  0.83759  0.54543  Biso   1.000  O 
  O28      1.0000 0.46628  0.89424  0.03901  Biso   1.000  O 
  O29      1.0000 0.70490  0.66789  0.47861  Biso   1.000  O 
  O30      1.0000 0.72249  0.58923  0.99703  Biso   1.000  O 
  O31      1.0000 0.72867  0.83822  0.95007  Biso   1.000  O 
  O32      1.0000 0.74002  0.92186  0.44058  Biso   1.000  O 
  Be1      1.0000 0.15497  0.19288  0.06058  Biso   1.000  Be
