data_image0
_cell_length_a       10.0398
_cell_length_b       10.2445
_cell_length_c       5.25534
_cell_angle_alpha    90
_cell_angle_beta     90
_cell_angle_gamma    90

_symmetry_space_group_name_H-M    "P 1"
_symmetry_int_tables_number       1

loop_
  _symmetry_equiv_pos_as_xyz
  'x, y, z'

loop_
  _atom_site_label
  _atom_site_occupancy
  _atom_site_fract_x
  _atom_site_fract_y
  _atom_site_fract_z
  _atom_site_thermal_displace_type
  _atom_site_B_iso_or_equiv
  _atom_site_type_symbol
  Hf1      1.0000 0.13572  0.02038  0.34592  Biso   1.000  Hf
  Hf2      1.0000 0.12616  0.22620  0.85147  Biso   1.000  Hf
  Hf3      1.0000 0.34665  0.26926  0.36433  Biso   1.000  Hf
  Hf4      1.0000 0.35194  0.47853  0.84624  Biso   1.000  Hf
  Hf5      1.0000 0.64210  0.03114  0.15046  Biso   1.000  Hf
  Hf6      1.0000 0.63476  0.22789  0.69592  Biso   1.000  Hf
  Hf7      1.0000 0.85201  0.26624  0.14786  Biso   1.000  Hf
  Hf8      1.0000 0.85950  0.48001  0.64709  Biso   1.000  Hf
  O1       1.0000 0.03248  0.16615  0.17324  Biso   1.000  O 
  O2       1.0000 0.03135  0.08039  0.66933  Biso   1.000  O 
  O3       1.0000 0.48155  0.39339  0.15158  Biso   1.000  O 
  O4       1.0000 0.46000  0.33846  0.66862  Biso   1.000  O 
  O5       1.0000 0.27061  0.12415  0.59892  Biso   1.000  O 
  O6       1.0000 0.27599  0.12467  0.09779  Biso   1.000  O 
  O7       1.0000 0.21376  0.37376  0.60082  Biso   1.000  O 
  O8       1.0000 0.22659  0.37762  0.10147  Biso   1.000  O 
  O9       1.0000 0.52372  0.16774  0.35551  Biso   1.000  O 
  O10      1.0000 0.52525  0.07748  0.82750  Biso   1.000  O 
  O11      1.0000 0.95761  0.41571  0.32947  Biso   1.000  O 
  O12      1.0000 0.95973  0.33404  0.83079  Biso   1.000  O 
  O13      1.0000 0.78716  0.11358  0.90241  Biso   1.000  O 
  O14      1.0000 0.77404  0.12783  0.42254  Biso   1.000  O 
  O15      1.0000 0.72319  0.38832  0.88782  Biso   1.000  O 
  O16      1.0000 0.70186  0.36933  0.38334  Biso   1.000  O 
  Hf9      1.0000 0.13259  0.52102  0.34269  Biso   1.000  Hf
  Hf10     1.0000 0.13203  0.72897  0.84513  Biso   1.000  Hf
  Hf11     1.0000 0.35847  0.77254  0.34664  Biso   1.000  Hf
  Hf12     1.0000 0.35335  0.97662  0.85211  Biso   1.000  Hf
  Hf13     1.0000 0.64233  0.53239  0.14437  Biso   1.000  Hf
  Hf14     1.0000 0.63336  0.73231  0.65222  Biso   1.000  Hf
  Hf15     1.0000 0.86086  0.77427  0.15218  Biso   1.000  Hf
  Hf16     1.0000 0.85548  0.97621  0.65171  Biso   1.000  Hf
  O17      1.0000 0.03205  0.66491  0.16672  Biso   1.000  O 
  O18      1.0000 0.02774  0.58357  0.66918  Biso   1.000  O 
  O19      1.0000 0.46638  0.91630  0.17375  Biso   1.000  O 
  O20      1.0000 0.46059  0.83347  0.66935  Biso   1.000  O 
  O21      1.0000 0.26994  0.62184  0.59114  Biso   1.000  O 
  O22      1.0000 0.27641  0.62369  0.09412  Biso   1.000  O 
  O23      1.0000 0.21868  0.87233  0.59412  Biso   1.000  O 
  O24      1.0000 0.22233  0.87404  0.09470  Biso   1.000  O 
  O25      1.0000 0.52706  0.66047  0.33681  Biso   1.000  O 
  O26      1.0000 0.52088  0.58994  0.83940  Biso   1.000  O 
  O27      1.0000 0.96555  0.91549  0.32771  Biso   1.000  O 
  O28      1.0000 0.96052  0.83228  0.83103  Biso   1.000  O 
  O29      1.0000 0.76829  0.62948  0.90096  Biso   1.000  O 
  O30      1.0000 0.77356  0.62632  0.40217  Biso   1.000  O 
  O31      1.0000 0.71464  0.87526  0.90826  Biso   1.000  O 
  O32      1.0000 0.72127  0.87468  0.40580  Biso   1.000  O 
  Be1      1.0000 0.59236  0.28208  0.20356  Biso   1.000  Be
