data_image0
_cell_length_a       5.10286
_cell_length_b       10.2459
_cell_length_c       10.5383
_cell_angle_alpha    90
_cell_angle_beta     80
_cell_angle_gamma    90

_symmetry_space_group_name_H-M    "P 1"
_symmetry_int_tables_number       1

loop_
  _symmetry_equiv_pos_as_xyz
  'x, y, z'

loop_
  _atom_site_label
  _atom_site_occupancy
  _atom_site_fract_x
  _atom_site_fract_y
  _atom_site_fract_z
  _atom_site_thermal_displace_type
  _atom_site_B_iso_or_equiv
  _atom_site_type_symbol
  Hf1      1.0000 0.27060  0.02254  0.14146  Biso   1.000  Hf
  Hf2      1.0000 0.33044  0.23398  0.39335  Biso   1.000  Hf
  Hf3      1.0000 0.71128  0.27121  0.11303  Biso   1.000  Hf
  Hf4      1.0000 0.72364  0.46893  0.34536  Biso   1.000  Hf
  O1       1.0000 0.05633  0.16472  0.07674  Biso   1.000  O 
  O2       1.0000 0.04666  0.10482  0.31936  Biso   1.000  O 
  O3       1.0000 0.91787  0.42654  0.16259  Biso   1.000  O 
  O4       1.0000 0.96464  0.33335  0.42862  Biso   1.000  O 
  O5       1.0000 0.53632  0.11358  0.23737  Biso   1.000  O 
  O6       1.0000 0.62127  0.12999  0.47674  Biso   1.000  O 
  O7       1.0000 0.44022  0.37912  0.01007  Biso   1.000  O 
  O8       1.0000 0.40789  0.37788  0.25389  Biso   1.000  O 
  Hf5      1.0000 0.29214  0.01908  0.64802  Biso   1.000  Hf
  Hf6      1.0000 0.29622  0.22944  0.89623  Biso   1.000  Hf
  Hf7      1.0000 0.75419  0.27222  0.61232  Biso   1.000  Hf
  Hf8      1.0000 0.74697  0.47654  0.85637  Biso   1.000  Hf
  O9       1.0000 0.10988  0.16424  0.57327  Biso   1.000  O 
  O10      1.0000 0.08828  0.08359  0.82562  Biso   1.000  O 
  O11      1.0000 0.96209  0.41323  0.67636  Biso   1.000  O 
  O12      1.0000 0.95284  0.33260  0.92349  Biso   1.000  O 
  O13      1.0000 0.57412  0.12680  0.73702  Biso   1.000  O 
  O14      1.0000 0.56987  0.12032  0.98723  Biso   1.000  O 
  O15      1.0000 0.47595  0.37588  0.51452  Biso   1.000  O 
  O16      1.0000 0.47521  0.37147  0.76068  Biso   1.000  O 
  Hf9      1.0000 0.27065  0.52312  0.14360  Biso   1.000  Hf
  Hf10     1.0000 0.28066  0.72038  0.39463  Biso   1.000  Hf
  Hf11     1.0000 0.71470  0.76975  0.10356  Biso   1.000  Hf
  Hf12     1.0000 0.72213  0.96619  0.35059  Biso   1.000  Hf
  O17      1.0000 0.06236  0.67055  0.07633  Biso   1.000  O 
  O18      1.0000 0.06453  0.58298  0.32664  Biso   1.000  O 
  O19      1.0000 0.93204  0.91046  0.17596  Biso   1.000  O 
  O20      1.0000 0.94567  0.83574  0.42379  Biso   1.000  O 
  O21      1.0000 0.55076  0.62701  0.23920  Biso   1.000  O 
  O22      1.0000 0.55944  0.62021  0.48850  Biso   1.000  O 
  O23      1.0000 0.44245  0.87950  0.00994  Biso   1.000  O 
  O24      1.0000 0.44283  0.86701  0.26044  Biso   1.000  O 
  Hf13     1.0000 0.30181  0.52241  0.64571  Biso   1.000  Hf
  Hf14     1.0000 0.29701  0.72787  0.89450  Biso   1.000  Hf
  Hf15     1.0000 0.73701  0.76982  0.60254  Biso   1.000  Hf
  Hf16     1.0000 0.74100  0.97724  0.85333  Biso   1.000  Hf
  O25      1.0000 0.07780  0.66252  0.57725  Biso   1.000  O 
  O26      1.0000 0.09021  0.58438  0.82628  Biso   1.000  O 
  O27      1.0000 0.95029  0.91315  0.67297  Biso   1.000  O 
  O28      1.0000 0.95455  0.83557  0.92150  Biso   1.000  O 
  O29      1.0000 0.57370  0.62750  0.73865  Biso   1.000  O 
  O30      1.0000 0.57494  0.62136  0.98737  Biso   1.000  O 
  O31      1.0000 0.45914  0.88116  0.50891  Biso   1.000  O 
  O32      1.0000 0.46825  0.87027  0.75861  Biso   1.000  O 
  Be1      1.0000 0.83740  0.21776  0.36189  Biso   1.000  Be
