data_image0
_cell_length_a       10.0807
_cell_length_b       5.0819
_cell_length_c       10.4662
_cell_angle_alpha    90
_cell_angle_beta     90
_cell_angle_gamma    90

_symmetry_space_group_name_H-M    "P 1"
_symmetry_int_tables_number       1

loop_
  _symmetry_equiv_pos_as_xyz
  'x, y, z'

loop_
  _atom_site_label
  _atom_site_occupancy
  _atom_site_fract_x
  _atom_site_fract_y
  _atom_site_fract_z
  _atom_site_thermal_displace_type
  _atom_site_B_iso_or_equiv
  _atom_site_type_symbol
  Be1      1.0000 0.04854  0.09969  0.18040  Biso   1.000  Be
  Hf1      1.0000 0.13545  0.04038  0.67181  Biso   1.000  Hf
  Hf2      1.0000 0.13789  0.45543  0.41765  Biso   1.000  Hf
  Hf3      1.0000 0.13724  0.45406  0.92593  Biso   1.000  Hf
  Hf4      1.0000 0.35275  0.53859  0.17261  Biso   1.000  Hf
  Hf5      1.0000 0.35519  0.54204  0.67250  Biso   1.000  Hf
  Hf6      1.0000 0.35360  0.95915  0.41867  Biso   1.000  Hf
  Hf7      1.0000 0.35234  0.95746  0.92615  Biso   1.000  Hf
  Hf8      1.0000 0.64078  0.04313  0.07783  Biso   1.000  Hf
  Hf9      1.0000 0.63434  0.03973  0.57831  Biso   1.000  Hf
  Hf10     1.0000 0.63601  0.45848  0.32675  Biso   1.000  Hf
  Hf11     1.0000 0.63457  0.45949  0.82828  Biso   1.000  Hf
  Hf12     1.0000 0.86537  0.54735  0.07903  Biso   1.000  Hf
  Hf13     1.0000 0.85831  0.53910  0.57806  Biso   1.000  Hf
  Hf14     1.0000 0.85566  0.95813  0.33093  Biso   1.000  Hf
  Hf15     1.0000 0.85692  0.95920  0.82891  Biso   1.000  Hf
  O1       1.0000 0.03390  0.32459  0.08399  Biso   1.000  O 
  O2       1.0000 0.02656  0.31846  0.57792  Biso   1.000  O 
  O3       1.0000 0.02439  0.18585  0.32254  Biso   1.000  O 
  O4       1.0000 0.02640  0.17502  0.83064  Biso   1.000  O 
  O5       1.0000 0.47418  0.81880  0.08311  Biso   1.000  O 
  O6       1.0000 0.46405  0.82414  0.58158  Biso   1.000  O 
  O7       1.0000 0.47137  0.68448  0.33022  Biso   1.000  O 
  O8       1.0000 0.46502  0.67586  0.83135  Biso   1.000  O 
  O9       1.0000 0.28093  0.25575  0.30364  Biso   1.000  O 
  O10      1.0000 0.27056  0.24524  0.79439  Biso   1.000  O 
  O11      1.0000 0.28889  0.26029  0.03836  Biso   1.000  O 
  O12      1.0000 0.27157  0.25179  0.54702  Biso   1.000  O 
  O13      1.0000 0.22736  0.73640  0.30093  Biso   1.000  O 
  O14      1.0000 0.21915  0.74516  0.79471  Biso   1.000  O 
  O15      1.0000 0.23484  0.73659  0.03972  Biso   1.000  O 
  O16      1.0000 0.21912  0.75203  0.54643  Biso   1.000  O 
  O17      1.0000 0.53098  0.32441  0.16779  Biso   1.000  O 
  O18      1.0000 0.52728  0.32531  0.66771  Biso   1.000  O 
  O19      1.0000 0.52965  0.17414  0.41762  Biso   1.000  O 
  O20      1.0000 0.52853  0.17225  0.91698  Biso   1.000  O 
  O21      1.0000 0.96432  0.84816  0.16462  Biso   1.000  O 
  O22      1.0000 0.96409  0.82229  0.66875  Biso   1.000  O 
  O23      1.0000 0.96507  0.67607  0.41695  Biso   1.000  O 
  O24      1.0000 0.96450  0.67427  0.91927  Biso   1.000  O 
  O25      1.0000 0.77208  0.25148  0.95439  Biso   1.000  O 
  O26      1.0000 0.77236  0.24585  0.45466  Biso   1.000  O 
  O27      1.0000 0.77533  0.25639  0.20424  Biso   1.000  O 
  O28      1.0000 0.77142  0.25150  0.70411  Biso   1.000  O 
  O29      1.0000 0.72008  0.74999  0.95489  Biso   1.000  O 
  O30      1.0000 0.72080  0.74521  0.45624  Biso   1.000  O 
  O31      1.0000 0.72474  0.75389  0.20591  Biso   1.000  O 
  O32      1.0000 0.72047  0.75167  0.70481  Biso   1.000  O 
