data_image0
_cell_length_a       10.0516
_cell_length_b       10.2035
_cell_length_c       10.4551
_cell_angle_alpha    90
_cell_angle_beta     90
_cell_angle_gamma    90

_symmetry_space_group_name_H-M    "P 1"
_symmetry_int_tables_number       1

loop_
  _symmetry_equiv_pos_as_xyz
  'x, y, z'

loop_
  _atom_site_label
  _atom_site_occupancy
  _atom_site_fract_x
  _atom_site_fract_y
  _atom_site_fract_z
  _atom_site_thermal_displace_type
  _atom_site_B_iso_or_equiv
  _atom_site_type_symbol
  Be1      1.0000 0.04813  0.04912  0.17988  Biso   1.000  Be
  Hf1      1.0000 0.13708  0.02045  0.67100  Biso   1.000  Hf
  Hf2      1.0000 0.14038  0.52066  0.17220  Biso   1.000  Hf
  Hf3      1.0000 0.13741  0.52100  0.67264  Biso   1.000  Hf
  Hf4      1.0000 0.13939  0.22596  0.41816  Biso   1.000  Hf
  Hf5      1.0000 0.13981  0.22501  0.92518  Biso   1.000  Hf
  Hf6      1.0000 0.13994  0.73086  0.42013  Biso   1.000  Hf
  Hf7      1.0000 0.14014  0.73186  0.92320  Biso   1.000  Hf
  Hf8      1.0000 0.35478  0.26339  0.17242  Biso   1.000  Hf
  Hf9      1.0000 0.35759  0.27031  0.67230  Biso   1.000  Hf
  Hf10     1.0000 0.35523  0.77618  0.17222  Biso   1.000  Hf
  Hf11     1.0000 0.35889  0.77193  0.67189  Biso   1.000  Hf
  Hf12     1.0000 0.35844  0.47812  0.42158  Biso   1.000  Hf
  Hf13     1.0000 0.35659  0.47765  0.92417  Biso   1.000  Hf
  Hf14     1.0000 0.35478  0.98014  0.41769  Biso   1.000  Hf
  Hf15     1.0000 0.35566  0.97979  0.92546  Biso   1.000  Hf
  Hf16     1.0000 0.64107  0.02136  0.07777  Biso   1.000  Hf
  Hf17     1.0000 0.63552  0.02015  0.57794  Biso   1.000  Hf
  Hf18     1.0000 0.63791  0.52109  0.07876  Biso   1.000  Hf
  Hf19     1.0000 0.63736  0.52035  0.57864  Biso   1.000  Hf
  Hf20     1.0000 0.63757  0.22961  0.32766  Biso   1.000  Hf
  Hf21     1.0000 0.63690  0.22912  0.82789  Biso   1.000  Hf
  Hf22     1.0000 0.63720  0.72911  0.32704  Biso   1.000  Hf
  Hf23     1.0000 0.63647  0.72949  0.82884  Biso   1.000  Hf
  Hf24     1.0000 0.86204  0.27138  0.07800  Biso   1.000  Hf
  Hf25     1.0000 0.86023  0.27045  0.57725  Biso   1.000  Hf
  Hf26     1.0000 0.86433  0.77294  0.07901  Biso   1.000  Hf
  Hf27     1.0000 0.85955  0.76983  0.57896  Biso   1.000  Hf
  Hf28     1.0000 0.86050  0.48002  0.32827  Biso   1.000  Hf
  Hf29     1.0000 0.85978  0.47896  0.82931  Biso   1.000  Hf
  Hf30     1.0000 0.85673  0.97827  0.33103  Biso   1.000  Hf
  Hf31     1.0000 0.85867  0.97940  0.82806  Biso   1.000  Hf
  O1       1.0000 0.03396  0.16177  0.08390  Biso   1.000  O 
  O2       1.0000 0.02898  0.16074  0.57806  Biso   1.000  O 
  O3       1.0000 0.03381  0.66669  0.08521  Biso   1.000  O 
  O4       1.0000 0.03083  0.66460  0.58494  Biso   1.000  O 
  O5       1.0000 0.02662  0.09065  0.32310  Biso   1.000  O 
  O6       1.0000 0.02902  0.08658  0.83193  Biso   1.000  O 
  O7       1.0000 0.03124  0.58659  0.33344  Biso   1.000  O 
  O8       1.0000 0.03078  0.58410  0.83464  Biso   1.000  O 
  O9       1.0000 0.46765  0.41163  0.08435  Biso   1.000  O 
  O10      1.0000 0.46586  0.41423  0.58377  Biso   1.000  O 
  O11      1.0000 0.47319  0.91372  0.08394  Biso   1.000  O 
  O12      1.0000 0.46504  0.91403  0.58203  Biso   1.000  O 
  O13      1.0000 0.46848  0.33782  0.33333  Biso   1.000  O 
  O14      1.0000 0.46607  0.33574  0.83330  Biso   1.000  O 
  O15      1.0000 0.47190  0.84140  0.33040  Biso   1.000  O 
  O16      1.0000 0.46646  0.83648  0.83250  Biso   1.000  O 
  O17      1.0000 0.28356  0.13084  0.30510  Biso   1.000  O 
  O18      1.0000 0.27225  0.12257  0.79259  Biso   1.000  O 
  O19      1.0000 0.27659  0.62120  0.29527  Biso   1.000  O 
  O20      1.0000 0.27453  0.62367  0.79618  Biso   1.000  O 
  O21      1.0000 0.29222  0.13688  0.03333  Biso   1.000  O 
  O22      1.0000 0.27335  0.12551  0.54696  Biso   1.000  O 
  O23      1.0000 0.27614  0.62168  0.04726  Biso   1.000  O 
  O24      1.0000 0.27481  0.62640  0.54566  Biso   1.000  O 
  O25      1.0000 0.22133  0.37419  0.29621  Biso   1.000  O 
  O26      1.0000 0.22205  0.37286  0.79679  Biso   1.000  O 
  O27      1.0000 0.22820  0.86676  0.30134  Biso   1.000  O 
  O28      1.0000 0.22124  0.87376  0.79290  Biso   1.000  O 
  O29      1.0000 0.22095  0.37670  0.04716  Biso   1.000  O 
  O30      1.0000 0.22193  0.37541  0.54556  Biso   1.000  O 
  O31      1.0000 0.23656  0.86681  0.03702  Biso   1.000  O 
  O32      1.0000 0.22079  0.87681  0.54648  Biso   1.000  O 
  O33      1.0000 0.53329  0.16465  0.16641  Biso   1.000  O 
  O34      1.0000 0.52997  0.16482  0.66616  Biso   1.000  O 
  O35      1.0000 0.53009  0.66374  0.16725  Biso   1.000  O 
  O36      1.0000 0.53079  0.66408  0.66694  Biso   1.000  O 
  O37      1.0000 0.53217  0.08534  0.41595  Biso   1.000  O 
  O38      1.0000 0.53332  0.08386  0.91529  Biso   1.000  O 
  O39      1.0000 0.53009  0.58650  0.41726  Biso   1.000  O 
  O40      1.0000 0.52856  0.58544  0.91730  Biso   1.000  O 
  O41      1.0000 0.96722  0.41527  0.16680  Biso   1.000  O 
  O42      1.0000 0.96655  0.41300  0.66755  Biso   1.000  O 
  O43      1.0000 0.96344  0.92451  0.16298  Biso   1.000  O 
  O44      1.0000 0.96426  0.91447  0.66640  Biso   1.000  O 
  O45      1.0000 0.96656  0.33619  0.41593  Biso   1.000  O 
  O46      1.0000 0.96632  0.33569  0.91899  Biso   1.000  O 
  O47      1.0000 0.96562  0.83561  0.41591  Biso   1.000  O 
  O48      1.0000 0.96556  0.83495  0.91573  Biso   1.000  O 
  O49      1.0000 0.77526  0.12497  0.95404  Biso   1.000  O 
  O50      1.0000 0.77432  0.12353  0.45467  Biso   1.000  O 
  O51      1.0000 0.77315  0.62448  0.95531  Biso   1.000  O 
  O52      1.0000 0.77432  0.62346  0.45478  Biso   1.000  O 
  O53      1.0000 0.77588  0.12715  0.20470  Biso   1.000  O 
  O54      1.0000 0.77362  0.12585  0.70391  Biso   1.000  O 
  O55      1.0000 0.77573  0.62714  0.20426  Biso   1.000  O 
  O56      1.0000 0.77428  0.62563  0.70507  Biso   1.000  O 
  O57      1.0000 0.72131  0.37430  0.95471  Biso   1.000  O 
  O58      1.0000 0.72302  0.37402  0.45481  Biso   1.000  O 
  O59      1.0000 0.72264  0.87443  0.95504  Biso   1.000  O 
  O60      1.0000 0.72182  0.87287  0.45622  Biso   1.000  O 
  O61      1.0000 0.72409  0.37686  0.20450  Biso   1.000  O 
  O62      1.0000 0.72274  0.37604  0.70445  Biso   1.000  O 
  O63      1.0000 0.72462  0.87615  0.20613  Biso   1.000  O 
  O64      1.0000 0.72157  0.87543  0.70513  Biso   1.000  O 
