data_image0
_cell_length_a       5.14239
_cell_length_b       10.4751
_cell_length_c       10.5611
_cell_angle_alpha    90
_cell_angle_beta     80
_cell_angle_gamma    90

_symmetry_space_group_name_H-M    "P 1"
_symmetry_int_tables_number       1

loop_
  _symmetry_equiv_pos_as_xyz
  'x, y, z'

loop_
  _atom_site_label
  _atom_site_occupancy
  _atom_site_fract_x
  _atom_site_fract_y
  _atom_site_fract_z
  _atom_site_thermal_displace_type
  _atom_site_B_iso_or_equiv
  _atom_site_type_symbol
  Hf1      1.0000 0.26417  0.01027  0.14180  Biso   1.000  Hf
  Hf2      1.0000 0.39918  0.25525  0.41037  Biso   1.000  Hf
  Hf3      1.0000 0.70164  0.26690  0.09916  Biso   1.000  Hf
  Hf4      1.0000 0.75739  0.50432  0.35695  Biso   1.000  Hf
  O1       1.0000 0.05122  0.15442  0.07004  Biso   1.000  O 
  O2       1.0000 0.06123  0.04316  0.32684  Biso   1.000  O 
  O3       1.0000 0.95678  0.43064  0.17295  Biso   1.000  O 
  O4       1.0000 0.01985  0.40101  0.45391  Biso   1.000  O 
  O5       1.0000 0.52928  0.12013  0.23633  Biso   1.000  O 
  O6       1.0000 0.59389  0.11183  0.49100  Biso   1.000  O 
  O7       1.0000 0.44394  0.37940  0.01323  Biso   1.000  O 
  O8       1.0000 0.48253  0.39239  0.26031  Biso   1.000  O 
  Hf5      1.0000 0.30469  0.03501  0.64131  Biso   1.000  Hf
  Hf6      1.0000 0.31213  0.24585  0.88922  Biso   1.000  Hf
  Hf7      1.0000 0.79524  0.29740  0.61210  Biso   1.000  Hf
  Hf8      1.0000 0.77050  0.49788  0.85860  Biso   1.000  Hf
  O9       1.0000 0.12461  0.18640  0.56959  Biso   1.000  O 
  O10      1.0000 0.09498  0.10660  0.81818  Biso   1.000  O 
  O11      1.0000 0.99692  0.42530  0.69150  Biso   1.000  O 
  O12      1.0000 0.97578  0.35590  0.92778  Biso   1.000  O 
  O13      1.0000 0.58120  0.14864  0.73497  Biso   1.000  O 
  O14      1.0000 0.58234  0.14393  0.98327  Biso   1.000  O 
  O15      1.0000 0.51541  0.39691  0.52174  Biso   1.000  O 
  O16      1.0000 0.50675  0.39146  0.76402  Biso   1.000  O 
  Hf9      1.0000 0.30196  0.52889  0.14712  Biso   1.000  Hf
  Hf10     1.0000 0.30320  0.73564  0.39674  Biso   1.000  Hf
  Hf11     1.0000 0.74462  0.77016  0.09876  Biso   1.000  Hf
  Hf12     1.0000 0.73778  0.96771  0.34885  Biso   1.000  Hf
  O17      1.0000 0.08909  0.66959  0.07286  Biso   1.000  O 
  O18      1.0000 0.09411  0.60587  0.31730  Biso   1.000  O 
  O19      1.0000 0.94717  0.91113  0.16312  Biso   1.000  O 
  O20      1.0000 0.94984  0.82904  0.42157  Biso   1.000  O 
  O21      1.0000 0.58039  0.63685  0.24187  Biso   1.000  O 
  O22      1.0000 0.57717  0.63556  0.49260  Biso   1.000  O 
  O23      1.0000 0.47283  0.87687  0.00444  Biso   1.000  O 
  O24      1.0000 0.46822  0.86662  0.25344  Biso   1.000  O 
  Hf13     1.0000 0.32124  0.54081  0.65074  Biso   1.000  Hf
  Hf14     1.0000 0.33213  0.74872  0.89116  Biso   1.000  Hf
  Hf15     1.0000 0.76895  0.78712  0.60418  Biso   1.000  Hf
  Hf16     1.0000 0.78874  0.99911  0.84537  Biso   1.000  Hf
  O25      1.0000 0.09872  0.67487  0.57977  Biso   1.000  O 
  O26      1.0000 0.11668  0.60515  0.82790  Biso   1.000  O 
  O27      1.0000 0.98667  0.93436  0.66500  Biso   1.000  O 
  O28      1.0000 0.99590  0.85505  0.91140  Biso   1.000  O 
  O29      1.0000 0.59736  0.64598  0.73935  Biso   1.000  O 
  O30      1.0000 0.61118  0.64342  0.98715  Biso   1.000  O 
  O31      1.0000 0.47580  0.88278  0.50893  Biso   1.000  O 
  O32      1.0000 0.50886  0.89143  0.75549  Biso   1.000  O 
  Bi1      1.0000 0.97701  0.24560  0.30074  Biso   1.000  Bi
