data_image0
_cell_length_a       10.1241
_cell_length_b       5.33099
_cell_length_c       10.1856
_cell_angle_alpha    90
_cell_angle_beta     90
_cell_angle_gamma    90

_symmetry_space_group_name_H-M    "P 1"
_symmetry_int_tables_number       1

loop_
  _symmetry_equiv_pos_as_xyz
  'x, y, z'

loop_
  _atom_site_label
  _atom_site_occupancy
  _atom_site_fract_x
  _atom_site_fract_y
  _atom_site_fract_z
  _atom_site_thermal_displace_type
  _atom_site_B_iso_or_equiv
  _atom_site_type_symbol
  Hf1      1.0000 0.14723  0.21010  0.16293  Biso   1.000  Hf
  Hf2      1.0000 0.12997  0.65057  0.39372  Biso   1.000  Hf
  Hf3      1.0000 0.39533  0.51266  0.10097  Biso   1.000  Hf
  Hf4      1.0000 0.40070  0.03260  0.40679  Biso   1.000  Hf
  O1       1.0000 0.01144  0.25894  0.00477  Biso   1.000  O 
  O2       1.0000 0.96646  0.15072  0.24178  Biso   1.000  O 
  O3       1.0000 0.95559  0.62889  0.28165  Biso   1.000  O 
  O4       1.0000 0.10230  0.95407  0.87328  Biso   1.000  O 
  O5       1.0000 0.23918  0.49835  0.23940  Biso   1.000  O 
  O6       1.0000 0.30290  0.14533  0.03817  Biso   1.000  O 
  O7       1.0000 0.27981  0.67582  0.95794  Biso   1.000  O 
  O8       1.0000 0.19946  0.99307  0.31244  Biso   1.000  O 
  Hf5      1.0000 0.11375  0.05552  0.65107  Biso   1.000  Hf
  Hf6      1.0000 0.10224  0.55781  0.84053  Biso   1.000  Hf
  Hf7      1.0000 0.36470  0.49665  0.64248  Biso   1.000  Hf
  Hf8      1.0000 0.33215  0.01257  0.86638  Biso   1.000  Hf
  O9       1.0000 0.06491  0.38556  0.52683  Biso   1.000  O 
  O10      1.0000 0.97366  0.26845  0.75176  Biso   1.000  O 
  O11      1.0000 0.95597  0.74713  0.73389  Biso   1.000  O 
  O12      1.0000 0.00040  0.87235  0.49509  Biso   1.000  O 
  O13      1.0000 0.23761  0.30657  0.77087  Biso   1.000  O 
  O14      1.0000 0.29120  0.16193  0.55389  Biso   1.000  O 
  O15      1.0000 0.31314  0.67664  0.47227  Biso   1.000  O 
  O16      1.0000 0.22703  0.76740  0.70710  Biso   1.000  O 
  Hf9      1.0000 0.59949  0.02551  0.13568  Biso   1.000  Hf
  Hf10     1.0000 0.59316  0.55051  0.36268  Biso   1.000  Hf
  Hf11     1.0000 0.83693  0.41820  0.13354  Biso   1.000  Hf
  Hf12     1.0000 0.83039  0.95297  0.36610  Biso   1.000  Hf
  O17      1.0000 0.55249  0.33828  0.02271  Biso   1.000  O 
  O18      1.0000 0.47442  0.26492  0.25643  Biso   1.000  O 
  O19      1.0000 0.46275  0.76561  0.24473  Biso   1.000  O 
  O20      1.0000 0.50593  0.88432  0.98814  Biso   1.000  O 
  O21      1.0000 0.71865  0.24878  0.27491  Biso   1.000  O 
  O22      1.0000 0.77218  0.09696  0.03494  Biso   1.000  O 
  O23      1.0000 0.79401  0.66502  0.96092  Biso   1.000  O 
  O24      1.0000 0.71244  0.74954  0.22174  Biso   1.000  O 
  Hf13     1.0000 0.62744  0.09648  0.64211  Biso   1.000  Hf
  Hf14     1.0000 0.62346  0.61235  0.85344  Biso   1.000  Hf
  Hf15     1.0000 0.88215  0.49457  0.59737  Biso   1.000  Hf
  Hf16     1.0000 0.87952  0.00885  0.89277  Biso   1.000  Hf
  O25      1.0000 0.51647  0.34269  0.51369  Biso   1.000  O 
  O26      1.0000 0.48823  0.27981  0.77332  Biso   1.000  O 
  O27      1.0000 0.47828  0.78775  0.73331  Biso   1.000  O 
  O28      1.0000 0.55207  0.87591  0.47597  Biso   1.000  O 
  O29      1.0000 0.71817  0.43336  0.71132  Biso   1.000  O 
  O30      1.0000 0.80097  0.14747  0.53083  Biso   1.000  O 
  O31      1.0000 0.76489  0.63212  0.45993  Biso   1.000  O 
  O32      1.0000 0.71279  0.94349  0.78562  Biso   1.000  O 
  Bi1      1.0000 0.04831  0.75649  0.08922  Biso   1.000  Bi
