data_image0
_cell_length_a       10.3917
_cell_length_b       10.5844
_cell_length_c       5.26074
_cell_angle_alpha    90
_cell_angle_beta     80
_cell_angle_gamma    90

_symmetry_space_group_name_H-M    "P 1"
_symmetry_int_tables_number       1

loop_
  _symmetry_equiv_pos_as_xyz
  'x, y, z'

loop_
  _atom_site_label
  _atom_site_occupancy
  _atom_site_fract_x
  _atom_site_fract_y
  _atom_site_fract_z
  _atom_site_thermal_displace_type
  _atom_site_B_iso_or_equiv
  _atom_site_type_symbol
  Hf1      1.0000 0.13704  0.01753  0.27672  Biso   1.000  Hf
  Hf2      1.0000 0.15638  0.23823  0.74923  Biso   1.000  Hf
  Hf3      1.0000 0.34691  0.25012  0.14256  Biso   1.000  Hf
  Hf4      1.0000 0.42053  0.51465  0.73281  Biso   1.000  Hf
  O1       1.0000 0.05077  0.17692  0.16175  Biso   1.000  O 
  O2       1.0000 0.04729  0.09146  0.65566  Biso   1.000  O 
  O3       1.0000 0.51103  0.46623  0.38499  Biso   1.000  O 
  O4       1.0000 0.51919  0.38676  0.93423  Biso   1.000  O 
  O5       1.0000 0.27587  0.11768  0.44030  Biso   1.000  O 
  O6       1.0000 0.28925  0.12995  0.93221  Biso   1.000  O 
  O7       1.0000 0.26375  0.40619  0.95687  Biso   1.000  O 
  O8       1.0000 0.23865  0.35903  0.45350  Biso   1.000  O 
  Hf5      1.0000 0.17410  0.52086  0.29903  Biso   1.000  Hf
  Hf6      1.0000 0.18737  0.73944  0.78899  Biso   1.000  Hf
  Hf7      1.0000 0.39873  0.76645  0.20386  Biso   1.000  Hf
  Hf8      1.0000 0.41102  0.97450  0.67691  Biso   1.000  Hf
  O9       1.0000 0.06840  0.66928  0.16589  Biso   1.000  O 
  O10      1.0000 0.08280  0.59458  0.65756  Biso   1.000  O 
  O11      1.0000 0.50342  0.91336  0.30660  Biso   1.000  O 
  O12      1.0000 0.51765  0.83848  0.82150  Biso   1.000  O 
  O13      1.0000 0.31674  0.63153  0.49298  Biso   1.000  O 
  O14      1.0000 0.30453  0.62212  0.00288  Biso   1.000  O 
  O15      1.0000 0.25930  0.86948  0.01313  Biso   1.000  O 
  O16      1.0000 0.27097  0.86969  0.50470  Biso   1.000  O 
  Hf9      1.0000 0.62394  0.00921  0.26685  Biso   1.000  Hf
  Hf10     1.0000 0.69757  0.27374  0.85711  Biso   1.000  Hf
  Hf11     1.0000 0.88807  0.28562  0.25043  Biso   1.000  Hf
  Hf12     1.0000 0.90743  0.50632  0.72293  Biso   1.000  Hf
  O17      1.0000 0.52528  0.13712  0.06543  Biso   1.000  O 
  O18      1.0000 0.53345  0.05764  0.61466  Biso   1.000  O 
  O19      1.0000 0.99718  0.43240  0.34400  Biso   1.000  O 
  O20      1.0000 0.99370  0.34695  0.83790  Biso   1.000  O 
  O21      1.0000 0.80583  0.16484  0.54621  Biso   1.000  O 
  O22      1.0000 0.78073  0.11771  0.04287  Biso   1.000  O 
  O23      1.0000 0.75523  0.39391  0.06746  Biso   1.000  O 
  O24      1.0000 0.76859  0.40619  0.55935  Biso   1.000  O 
  Hf13     1.0000 0.68563  0.54805  0.32274  Biso   1.000  Hf
  Hf14     1.0000 0.69791  0.75610  0.79579  Biso   1.000  Hf
  Hf15     1.0000 0.90928  0.78312  0.21067  Biso   1.000  Hf
  Hf16     1.0000 0.92255  0.00167  0.70062  Biso   1.000  Hf
  O25      1.0000 0.57900  0.68409  0.17816  Biso   1.000  O 
  O26      1.0000 0.59322  0.60920  0.69304  Biso   1.000  O 
  O27      1.0000 0.01385  0.92797  0.34212  Biso   1.000  O 
  O28      1.0000 0.02826  0.85327  0.83377  Biso   1.000  O 
  O29      1.0000 0.82568  0.65286  0.49496  Biso   1.000  O 
  O30      1.0000 0.83734  0.65308  0.98653  Biso   1.000  O 
  O31      1.0000 0.76832  0.87617  0.00721  Biso   1.000  O 
  O32      1.0000 0.77991  0.89101  0.50668  Biso   1.000  O 
  Bi1      1.0000 0.52224  0.26193  0.49983  Biso   1.000  Bi
