data_image0
_cell_length_a       10.3592
_cell_length_b       5.20367
_cell_length_c       10.7139
_cell_angle_alpha    90
_cell_angle_beta     80
_cell_angle_gamma    90

_symmetry_space_group_name_H-M    "P 1"
_symmetry_int_tables_number       1

loop_
  _symmetry_equiv_pos_as_xyz
  'x, y, z'

loop_
  _atom_site_label
  _atom_site_occupancy
  _atom_site_fract_x
  _atom_site_fract_y
  _atom_site_fract_z
  _atom_site_thermal_displace_type
  _atom_site_B_iso_or_equiv
  _atom_site_type_symbol
  Hf1      1.0000 0.12858  0.06847  0.14184  Biso   1.000  Hf
  Hf2      1.0000 0.14732  0.39414  0.40139  Biso   1.000  Hf
  Hf3      1.0000 0.33028  0.61586  0.08581  Biso   1.000  Hf
  Hf4      1.0000 0.38188  0.87597  0.36115  Biso   1.000  Hf
  O1       1.0000 0.01388  0.30914  0.05829  Biso   1.000  O 
  O2       1.0000 0.04795  0.10285  0.33665  Biso   1.000  O 
  O3       1.0000 0.48967  0.81726  0.17837  Biso   1.000  O 
  O4       1.0000 0.49286  0.58180  0.43103  Biso   1.000  O 
  O5       1.0000 0.19574  0.40373  0.20958  Biso   1.000  O 
  O6       1.0000 0.29222  0.16748  0.48175  Biso   1.000  O 
  O7       1.0000 0.24015  0.69910  0.98759  Biso   1.000  O 
  O8       1.0000 0.25683  0.88501  0.22930  Biso   1.000  O 
  Hf5      1.0000 0.16306  0.96602  0.63656  Biso   1.000  Hf
  Hf6      1.0000 0.16183  0.37588  0.87955  Biso   1.000  Hf
  Hf7      1.0000 0.38618  0.46654  0.60209  Biso   1.000  Hf
  Hf8      1.0000 0.37637  0.89792  0.83900  Biso   1.000  Hf
  O9       1.0000 0.05071  0.24774  0.57601  Biso   1.000  O 
  O10      1.0000 0.05952  0.09071  0.81253  Biso   1.000  O 
  O11      1.0000 0.48144  0.77128  0.66237  Biso   1.000  O 
  O12      1.0000 0.49095  0.63147  0.90652  Biso   1.000  O 
  O13      1.0000 0.29737  0.17803  0.72513  Biso   1.000  O 
  O14      1.0000 0.30015  0.18658  0.96593  Biso   1.000  O 
  O15      1.0000 0.24431  0.67771  0.50177  Biso   1.000  O 
  O16      1.0000 0.24567  0.66385  0.74607  Biso   1.000  O 
  Hf9      1.0000 0.67728  0.98682  0.16926  Biso   1.000  Hf
  Hf10     1.0000 0.67168  0.38616  0.41014  Biso   1.000  Hf
  Hf11     1.0000 0.85572  0.51906  0.10362  Biso   1.000  Hf
  Hf12     1.0000 0.87549  0.88981  0.36288  Biso   1.000  Hf
  O17      1.0000 0.48041  0.35633  0.04650  Biso   1.000  O 
  O18      1.0000 0.57719  0.04254  0.37489  Biso   1.000  O 
  O19      1.0000 0.96203  0.80572  0.17472  Biso   1.000  O 
  O20      1.0000 0.98426  0.60739  0.42918  Biso   1.000  O 
  O21      1.0000 0.80457  0.21559  0.25383  Biso   1.000  O 
  O22      1.0000 0.80211  0.16725  0.49966  Biso   1.000  O 
  O23      1.0000 0.71649  0.73730  0.01833  Biso   1.000  O 
  O24      1.0000 0.73764  0.69070  0.27020  Biso   1.000  O 
  Hf13     1.0000 0.66505  0.97366  0.64585  Biso   1.000  Hf
  Hf14     1.0000 0.65666  0.37984  0.89212  Biso   1.000  Hf
  Hf15     1.0000 0.88081  0.46514  0.61103  Biso   1.000  Hf
  Hf16     1.0000 0.88142  0.86800  0.85399  Biso   1.000  Hf
  O25      1.0000 0.56300  0.27896  0.58862  Biso   1.000  O 
  O26      1.0000 0.55795  0.10801  0.81248  Biso   1.000  O 
  O27      1.0000 0.98540  0.74378  0.67485  Biso   1.000  O 
  O28      1.0000 0.99148  0.58512  0.91776  Biso   1.000  O 
  O29      1.0000 0.80035  0.18492  0.74629  Biso   1.000  O 
  O30      1.0000 0.75048  0.23161  0.00664  Biso   1.000  O 
  O31      1.0000 0.74811  0.67942  0.51749  Biso   1.000  O 
  O32      1.0000 0.74412  0.67319  0.76227  Biso   1.000  O 
  Bi1      1.0000 0.47776  0.35511  0.24529  Biso   1.000  Bi
