data_image0
_cell_length_a       10.1538
_cell_length_b       10.3223
_cell_length_c       5.24138
_cell_angle_alpha    90
_cell_angle_beta     80
_cell_angle_gamma    90

_symmetry_space_group_name_H-M    "P 1"
_symmetry_int_tables_number       1

loop_
  _symmetry_equiv_pos_as_xyz
  'x, y, z'

loop_
  _atom_site_label
  _atom_site_occupancy
  _atom_site_fract_x
  _atom_site_fract_y
  _atom_site_fract_z
  _atom_site_thermal_displace_type
  _atom_site_B_iso_or_equiv
  _atom_site_type_symbol
  Bi1      1.0000 0.13259  0.01782  0.29310  Biso   1.000  Bi
  Hf1      1.0000 0.13563  0.23167  0.79176  Biso   1.000  Hf
  Hf2      1.0000 0.36086  0.27173  0.20706  Biso   1.000  Hf
  Hf3      1.0000 0.35722  0.47847  0.70800  Biso   1.000  Hf
  O1       1.0000 0.03573  0.18176  0.15923  Biso   1.000  O 
  O2       1.0000 0.02799  0.08074  0.68070  Biso   1.000  O 
  O3       1.0000 0.46258  0.41831  0.34114  Biso   1.000  O 
  O4       1.0000 0.46085  0.33192  0.84153  Biso   1.000  O 
  O5       1.0000 0.27858  0.13302  0.48894  Biso   1.000  O 
  O6       1.0000 0.27719  0.12526  0.96817  Biso   1.000  O 
  O7       1.0000 0.22415  0.38020  0.01682  Biso   1.000  O 
  O8       1.0000 0.22023  0.37198  0.51686  Biso   1.000  O 
  Hf4      1.0000 0.13658  0.52118  0.29081  Biso   1.000  Hf
  Hf5      1.0000 0.13378  0.72639  0.79287  Biso   1.000  Hf
  Hf6      1.0000 0.36307  0.76905  0.20742  Biso   1.000  Hf
  Hf7      1.0000 0.36031  0.97823  0.70762  Biso   1.000  Hf
  O9       1.0000 0.03533  0.67195  0.16324  Biso   1.000  O 
  O10      1.0000 0.03203  0.57955  0.66059  Biso   1.000  O 
  O11      1.0000 0.46288  0.91931  0.33931  Biso   1.000  O 
  O12      1.0000 0.46336  0.83103  0.84311  Biso   1.000  O 
  O13      1.0000 0.27380  0.62654  0.47944  Biso   1.000  O 
  O14      1.0000 0.27070  0.61937  0.98162  Biso   1.000  O 
  O15      1.0000 0.23144  0.87235  0.00410  Biso   1.000  O 
  O16      1.0000 0.22662  0.86385  0.52320  Biso   1.000  O 
  Hf8      1.0000 0.63781  0.02163  0.29403  Biso   1.000  Hf
  Hf9      1.0000 0.63412  0.22911  0.79413  Biso   1.000  Hf
  Hf10     1.0000 0.85778  0.27311  0.20942  Biso   1.000  Hf
  Hf11     1.0000 0.85746  0.47825  0.70803  Biso   1.000  Hf
  O17      1.0000 0.53524  0.16925  0.16065  Biso   1.000  O 
  O18      1.0000 0.53536  0.07981  0.66161  Biso   1.000  O 
  O19      1.0000 0.95966  0.42285  0.33739  Biso   1.000  O 
  O20      1.0000 0.95831  0.33185  0.83939  Biso   1.000  O 
  O21      1.0000 0.77404  0.13048  0.48451  Biso   1.000  O 
  O22      1.0000 0.76990  0.12121  0.98658  Biso   1.000  O 
  O23      1.0000 0.72252  0.37938  0.01890  Biso   1.000  O 
  O24      1.0000 0.72001  0.37114  0.52051  Biso   1.000  O 
  Hf12     1.0000 0.63659  0.51990  0.29223  Biso   1.000  Hf
  Hf13     1.0000 0.63410  0.72708  0.79116  Biso   1.000  Hf
  Hf14     1.0000 0.85704  0.76770  0.20634  Biso   1.000  Hf
  Hf15     1.0000 0.85158  0.97804  0.71910  Biso   1.000  Hf
  O25      1.0000 0.53596  0.66735  0.15894  Biso   1.000  O 
  O26      1.0000 0.53139  0.58074  0.65910  Biso   1.000  O 
  O27      1.0000 0.94521  0.92079  0.34549  Biso   1.000  O 
  O28      1.0000 0.95939  0.83061  0.84160  Biso   1.000  O 
  O29      1.0000 0.77243  0.62833  0.48018  Biso   1.000  O 
  O30      1.0000 0.77097  0.61977  0.98059  Biso   1.000  O 
  O31      1.0000 0.72207  0.87825  0.02101  Biso   1.000  O 
  O32      1.0000 0.71709  0.86951  0.52300  Biso   1.000  O 
