data_image0
_cell_length_a       10.4518
_cell_length_b       10.4122
_cell_length_c       5.14429
_cell_angle_alpha    90
_cell_angle_beta     90
_cell_angle_gamma    90

_symmetry_space_group_name_H-M    "P 1"
_symmetry_int_tables_number       1

loop_
  _symmetry_equiv_pos_as_xyz
  'x, y, z'

loop_
  _atom_site_label
  _atom_site_occupancy
  _atom_site_fract_x
  _atom_site_fract_y
  _atom_site_fract_z
  _atom_site_thermal_displace_type
  _atom_site_B_iso_or_equiv
  _atom_site_type_symbol
  Hf1      1.0000 0.14752  0.93764  0.40712  Biso   1.000  Hf
  Hf2      1.0000 0.12506  0.24558  0.57676  Biso   1.000  Hf
  Hf3      1.0000 0.40917  0.25931  0.14880  Biso   1.000  Hf
  Hf4      1.0000 0.38241  0.98410  0.69963  Biso   1.000  Hf
  O1       1.0000 0.88695  0.10848  0.94347  Biso   1.000  O 
  O2       1.0000 0.99104  0.10926  0.46736  Biso   1.000  O 
  O3       1.0000 0.99621  0.35933  0.35763  Biso   1.000  O 
  O4       1.0000 0.03239  0.36680  0.85114  Biso   1.000  O 
  O5       1.0000 0.22896  0.07672  0.51791  Biso   1.000  O 
  O6       1.0000 0.33331  0.09152  0.03980  Biso   1.000  O 
  O7       1.0000 0.27840  0.28431  0.82771  Biso   1.000  O 
  O8       1.0000 0.25890  0.36510  0.37036  Biso   1.000  O 
  Hf5      1.0000 0.12296  0.49837  0.21462  Biso   1.000  Hf
  Hf6      1.0000 0.15216  0.69058  0.78389  Biso   1.000  Hf
  Hf7      1.0000 0.39066  0.71209  0.29356  Biso   1.000  Hf
  Hf8      1.0000 0.36801  0.44555  0.68958  Biso   1.000  Hf
  O9       1.0000 0.04065  0.65847  0.01832  Biso   1.000  O 
  O10      1.0000 0.01209  0.59047  0.49731  Biso   1.000  O 
  O11      1.0000 0.02087  0.81939  0.61953  Biso   1.000  O 
  O12      1.0000 0.99581  0.89618  0.16098  Biso   1.000  O 
  O13      1.0000 0.25437  0.59539  0.49030  Biso   1.000  O 
  O14      1.0000 0.25899  0.53777  0.98067  Biso   1.000  O 
  O15      1.0000 0.25195  0.82773  0.13456  Biso   1.000  O 
  O16      1.0000 0.28540  0.82574  0.62291  Biso   1.000  O 
  Hf9      1.0000 0.66618  0.96865  0.28804  Biso   1.000  Hf
  Hf10     1.0000 0.61169  0.23340  0.71233  Biso   1.000  Hf
  Hf11     1.0000 0.84009  0.21501  0.28899  Biso   1.000  Hf
  Hf12     1.0000 0.87612  0.92986  0.84610  Biso   1.000  Hf
  O17      1.0000 0.49839  0.11540  0.90510  Biso   1.000  O 
  O18      1.0000 0.48809  0.09753  0.43204  Biso   1.000  O 
  O19      1.0000 0.51017  0.34553  0.45554  Biso   1.000  O 
  O20      1.0000 0.48583  0.36616  0.96734  Biso   1.000  O 
  O21      1.0000 0.72938  0.10659  0.54824  Biso   1.000  O 
  O22      1.0000 0.73112  0.07644  0.07997  Biso   1.000  O 
  O23      1.0000 0.73437  0.34028  0.06572  Biso   1.000  O 
  O24      1.0000 0.75604  0.36436  0.54984  Biso   1.000  O 
  Hf13     1.0000 0.65319  0.49720  0.24749  Biso   1.000  Hf
  Hf14     1.0000 0.61149  0.71100  0.76196  Biso   1.000  Hf
  Hf15     1.0000 0.89499  0.73380  0.29164  Biso   1.000  Hf
  Hf16     1.0000 0.88695  0.48128  0.71974  Biso   1.000  Hf
  O25      1.0000 0.55605  0.66557  0.06189  Biso   1.000  O 
  O26      1.0000 0.50159  0.58269  0.52678  Biso   1.000  O 
  O27      1.0000 0.52447  0.83396  0.46761  Biso   1.000  O 
  O28      1.0000 0.52710  0.85823  0.95207  Biso   1.000  O 
  O29      1.0000 0.75798  0.61590  0.53029  Biso   1.000  O 
  O30      1.0000 0.81109  0.57840  0.05364  Biso   1.000  O 
  O31      1.0000 0.78567  0.82925  0.02156  Biso   1.000  O 
  O32      1.0000 0.77458  0.85642  0.53058  Biso   1.000  O 
  Bi1      1.0000 0.12747  0.12676  0.00098  Biso   1.000  Bi
