data_image0
_cell_length_a       10.1975
_cell_length_b       10.3537
_cell_length_c       10.511
_cell_angle_alpha    90
_cell_angle_beta     80
_cell_angle_gamma    90

_symmetry_space_group_name_H-M    "P 1"
_symmetry_int_tables_number       1

loop_
  _symmetry_equiv_pos_as_xyz
  'x, y, z'

loop_
  _atom_site_label
  _atom_site_occupancy
  _atom_site_fract_x
  _atom_site_fract_y
  _atom_site_fract_z
  _atom_site_thermal_displace_type
  _atom_site_B_iso_or_equiv
  _atom_site_type_symbol
  Hf1      1.0000 0.13240  0.01997  0.14226  Biso   1.000  Hf
  Hf2      1.0000 0.14574  0.22806  0.39115  Biso   1.000  Hf
  Hf3      1.0000 0.34811  0.26898  0.09367  Biso   1.000  Hf
  Hf4      1.0000 0.35884  0.49274  0.35498  Biso   1.000  Hf
  O1       1.0000 0.03312  0.16865  0.07651  Biso   1.000  O 
  O2       1.0000 0.03365  0.08212  0.32926  Biso   1.000  O 
  O3       1.0000 0.46339  0.42993  0.16721  Biso   1.000  O 
  O4       1.0000 0.49143  0.39620  0.45230  Biso   1.000  O 
  O5       1.0000 0.26549  0.11845  0.23151  Biso   1.000  O 
  O6       1.0000 0.27906  0.11256  0.48648  Biso   1.000  O 
  O7       1.0000 0.21822  0.38106  0.00336  Biso   1.000  O 
  O8       1.0000 0.21774  0.37473  0.25322  Biso   1.000  O 
  Hf5      1.0000 0.14424  0.02233  0.64413  Biso   1.000  Hf
  Hf6      1.0000 0.14156  0.23227  0.88913  Biso   1.000  Hf
  Hf7      1.0000 0.37146  0.28047  0.60061  Biso   1.000  Hf
  Hf8      1.0000 0.36781  0.48132  0.85413  Biso   1.000  Hf
  O9       1.0000 0.04670  0.17230  0.57925  Biso   1.000  O 
  O10      1.0000 0.03861  0.08587  0.82639  Biso   1.000  O 
  O11      1.0000 0.47705  0.41044  0.68605  Biso   1.000  O 
  O12      1.0000 0.47298  0.33939  0.92615  Biso   1.000  O 
  O13      1.0000 0.28075  0.13334  0.73471  Biso   1.000  O 
  O14      1.0000 0.27776  0.12696  0.98225  Biso   1.000  O 
  O15      1.0000 0.22924  0.38080  0.50716  Biso   1.000  O 
  O16      1.0000 0.23151  0.37555  0.75555  Biso   1.000  O 
  Hf9      1.0000 0.14138  0.52233  0.14385  Biso   1.000  Hf
  Hf10     1.0000 0.13979  0.73036  0.39701  Biso   1.000  Hf
  Hf11     1.0000 0.36137  0.77140  0.10035  Biso   1.000  Hf
  Hf12     1.0000 0.35983  0.96356  0.35383  Biso   1.000  Hf
  O17      1.0000 0.03648  0.66966  0.07865  Biso   1.000  O 
  O18      1.0000 0.04118  0.58502  0.32709  Biso   1.000  O 
  O19      1.0000 0.46596  0.91226  0.16725  Biso   1.000  O 
  O20      1.0000 0.46197  0.82119  0.42278  Biso   1.000  O 
  O21      1.0000 0.27780  0.63187  0.23991  Biso   1.000  O 
  O22      1.0000 0.27574  0.62502  0.49277  Biso   1.000  O 
  O23      1.0000 0.22568  0.87996  0.00738  Biso   1.000  O 
  O24      1.0000 0.22235  0.86710  0.25733  Biso   1.000  O 
  Hf13     1.0000 0.14453  0.52523  0.64665  Biso   1.000  Hf
  Hf14     1.0000 0.14592  0.73231  0.89490  Biso   1.000  Hf
  Hf15     1.0000 0.36799  0.77292  0.60593  Biso   1.000  Hf
  Hf16     1.0000 0.36989  0.98382  0.84967  Biso   1.000  Hf
  O25      1.0000 0.03552  0.66733  0.57906  Biso   1.000  O 
  O26      1.0000 0.04126  0.58704  0.82894  Biso   1.000  O 
  O27      1.0000 0.47273  0.92178  0.66747  Biso   1.000  O 
  O28      1.0000 0.47376  0.83858  0.91608  Biso   1.000  O 
  O29      1.0000 0.28235  0.63075  0.73997  Biso   1.000  O 
  O30      1.0000 0.28398  0.62605  0.98865  Biso   1.000  O 
  O31      1.0000 0.22525  0.87490  0.51133  Biso   1.000  O 
  O32      1.0000 0.23234  0.87461  0.75883  Biso   1.000  O 
  Hf17     1.0000 0.63839  0.01303  0.14754  Biso   1.000  Hf
  Hf18     1.0000 0.68143  0.24190  0.41302  Biso   1.000  Hf
  Hf19     1.0000 0.86146  0.27368  0.10824  Biso   1.000  Hf
  Hf20     1.0000 0.87187  0.48446  0.35586  Biso   1.000  Hf
  O33      1.0000 0.52435  0.15284  0.07130  Biso   1.000  O 
  O34      1.0000 0.53905  0.04141  0.33643  Biso   1.000  O 
  O35      1.0000 0.96903  0.42063  0.16913  Biso   1.000  O 
  O36      1.0000 0.96961  0.33063  0.42135  Biso   1.000  O 
  O37      1.0000 0.77905  0.13024  0.24736  Biso   1.000  O 
  O38      1.0000 0.79395  0.11647  0.50083  Biso   1.000  O 
  O39      1.0000 0.72180  0.37764  0.01735  Biso   1.000  O 
  O40      1.0000 0.73716  0.37992  0.26680  Biso   1.000  O 
  Hf21     1.0000 0.64276  0.02522  0.64581  Biso   1.000  Hf
  Hf22     1.0000 0.64459  0.23095  0.89843  Biso   1.000  Hf
  Hf23     1.0000 0.87655  0.27369  0.61313  Biso   1.000  Hf
  Hf24     1.0000 0.86696  0.48273  0.85704  Biso   1.000  Hf
  O41      1.0000 0.54632  0.17385  0.57063  Biso   1.000  O 
  O42      1.0000 0.53726  0.09179  0.82218  Biso   1.000  O 
  O43      1.0000 0.97396  0.42106  0.67514  Biso   1.000  O 
  O44      1.0000 0.96881  0.33569  0.92077  Biso   1.000  O 
  O45      1.0000 0.78077  0.13271  0.74489  Biso   1.000  O 
  O46      1.0000 0.78038  0.12442  0.99462  Biso   1.000  O 
  O47      1.0000 0.74343  0.38483  0.52173  Biso   1.000  O 
  O48      1.0000 0.73295  0.37495  0.76639  Biso   1.000  O 
  Hf25     1.0000 0.63949  0.52773  0.14629  Biso   1.000  Hf
  Hf26     1.0000 0.64266  0.72878  0.39591  Biso   1.000  Hf
  Hf27     1.0000 0.86338  0.77031  0.10395  Biso   1.000  Hf
  Hf28     1.0000 0.86611  0.97770  0.35440  Biso   1.000  Hf
  O49      1.0000 0.53599  0.66935  0.07342  Biso   1.000  O 
  O50      1.0000 0.53395  0.59798  0.31854  Biso   1.000  O 
  O51      1.0000 0.96501  0.91626  0.17200  Biso   1.000  O 
  O52      1.0000 0.96806  0.83229  0.42182  Biso   1.000  O 
  O53      1.0000 0.78060  0.63023  0.24116  Biso   1.000  O 
  O54      1.0000 0.77912  0.62401  0.49012  Biso   1.000  O 
  O55      1.0000 0.72555  0.87717  0.00957  Biso   1.000  O 
  O56      1.0000 0.72853  0.86864  0.25833  Biso   1.000  O 
  Hf29     1.0000 0.64275  0.52488  0.64909  Biso   1.000  Hf
  Hf30     1.0000 0.64511  0.73293  0.89358  Biso   1.000  Hf
  Hf31     1.0000 0.86566  0.77515  0.60439  Biso   1.000  Hf
  Hf32     1.0000 0.86947  0.98226  0.85365  Biso   1.000  Hf
  O57      1.0000 0.53881  0.66676  0.57985  Biso   1.000  O 
  O58      1.0000 0.53962  0.58851  0.82831  Biso   1.000  O 
  O59      1.0000 0.97155  0.92059  0.67040  Biso   1.000  O 
  O60      1.0000 0.97422  0.83730  0.91995  Biso   1.000  O 
  O61      1.0000 0.78086  0.63243  0.74013  Biso   1.000  O 
  O62      1.0000 0.78388  0.62591  0.98952  Biso   1.000  O 
  O63      1.0000 0.72692  0.88034  0.50919  Biso   1.000  O 
  O64      1.0000 0.73112  0.87664  0.75918  Biso   1.000  O 
  Bi1      1.0000 0.47471  0.24194  0.29889  Biso   1.000  Bi
