data_image0
_cell_length_a       10.1259
_cell_length_b       10.3034
_cell_length_c       10.4593
_cell_angle_alpha    90
_cell_angle_beta     80
_cell_angle_gamma    90

_symmetry_space_group_name_H-M    "P 1"
_symmetry_int_tables_number       1

loop_
  _symmetry_equiv_pos_as_xyz
  'x, y, z'

loop_
  _atom_site_label
  _atom_site_occupancy
  _atom_site_fract_x
  _atom_site_fract_y
  _atom_site_fract_z
  _atom_site_thermal_displace_type
  _atom_site_B_iso_or_equiv
  _atom_site_type_symbol
  Bi1      1.0000 0.13236  0.01812  0.14688  Biso   1.000  Bi
  Hf1      1.0000 0.13566  0.22994  0.39843  Biso   1.000  Hf
  Hf2      1.0000 0.36034  0.27153  0.10370  Biso   1.000  Hf
  Hf3      1.0000 0.35679  0.47823  0.35402  Biso   1.000  Hf
  O1       1.0000 0.03616  0.18161  0.07831  Biso   1.000  O 
  O2       1.0000 0.02724  0.08123  0.33978  Biso   1.000  O 
  O3       1.0000 0.46200  0.41921  0.16991  Biso   1.000  O 
  O4       1.0000 0.45938  0.32987  0.41979  Biso   1.000  O 
  O5       1.0000 0.27925  0.13330  0.24645  Biso   1.000  O 
  O6       1.0000 0.27210  0.12035  0.49223  Biso   1.000  O 
  O7       1.0000 0.22419  0.38028  0.00828  Biso   1.000  O 
  O8       1.0000 0.21949  0.37111  0.25922  Biso   1.000  O 
  Hf4      1.0000 0.13317  0.02099  0.64668  Biso   1.000  Hf
  Hf5      1.0000 0.13125  0.23045  0.89438  Biso   1.000  Hf
  Hf6      1.0000 0.35607  0.27120  0.60471  Biso   1.000  Hf
  Hf7      1.0000 0.35423  0.47859  0.85525  Biso   1.000  Hf
  O9       1.0000 0.03149  0.17157  0.58370  Biso   1.000  O 
  O10      1.0000 0.03003  0.07875  0.83314  Biso   1.000  O 
  O11      1.0000 0.45827  0.41918  0.67056  Biso   1.000  O 
  O12      1.0000 0.45728  0.33161  0.92116  Biso   1.000  O 
  O13      1.0000 0.27004  0.12931  0.73961  Biso   1.000  O 
  O14      1.0000 0.27363  0.12573  0.98382  Biso   1.000  O 
  O15      1.0000 0.21863  0.37926  0.51003  Biso   1.000  O 
  O16      1.0000 0.21716  0.37160  0.75948  Biso   1.000  O 
  Hf8      1.0000 0.13698  0.52122  0.14515  Biso   1.000  Hf
  Hf9      1.0000 0.13426  0.72688  0.39744  Biso   1.000  Hf
  Hf10     1.0000 0.36341  0.76920  0.10395  Biso   1.000  Hf
  Hf11     1.0000 0.35918  0.97835  0.35596  Biso   1.000  Hf
  O17      1.0000 0.03606  0.67236  0.08127  Biso   1.000  O 
  O18      1.0000 0.03275  0.57981  0.33091  Biso   1.000  O 
  O19      1.0000 0.46222  0.92033  0.16962  Biso   1.000  O 
  O20      1.0000 0.45996  0.82950  0.42130  Biso   1.000  O 
  O21      1.0000 0.27443  0.62657  0.24002  Biso   1.000  O 
  O22      1.0000 0.27148  0.62021  0.49126  Biso   1.000  O 
  O23      1.0000 0.23153  0.87246  0.00199  Biso   1.000  O 
  O24      1.0000 0.22692  0.86357  0.26286  Biso   1.000  O 
  Hf12     1.0000 0.13284  0.52124  0.64689  Biso   1.000  Hf
  Hf13     1.0000 0.13087  0.72787  0.89603  Biso   1.000  Hf
  Hf14     1.0000 0.35522  0.77115  0.60499  Biso   1.000  Hf
  Hf15     1.0000 0.35509  0.97849  0.85328  Biso   1.000  Hf
  O25      1.0000 0.03061  0.67005  0.58239  Biso   1.000  O 
  O26      1.0000 0.02858  0.57901  0.83178  Biso   1.000  O 
  O27      1.0000 0.45846  0.91928  0.66995  Biso   1.000  O 
  O28      1.0000 0.45891  0.83099  0.92034  Biso   1.000  O 
  O29      1.0000 0.26970  0.62895  0.74130  Biso   1.000  O 
  O30      1.0000 0.26760  0.61972  0.99153  Biso   1.000  O 
  O31      1.0000 0.21863  0.87896  0.51077  Biso   1.000  O 
  O32      1.0000 0.21661  0.87045  0.75918  Biso   1.000  O 
  Hf16     1.0000 0.63773  0.02095  0.14614  Biso   1.000  Hf
  Hf17     1.0000 0.63437  0.22918  0.39684  Biso   1.000  Hf
  Hf18     1.0000 0.85765  0.27267  0.10446  Biso   1.000  Hf
  Hf19     1.0000 0.85790  0.47844  0.35479  Biso   1.000  Hf
  O33      1.0000 0.53599  0.16978  0.08054  Biso   1.000  O 
  O34      1.0000 0.53464  0.07898  0.33201  Biso   1.000  O 
  O35      1.0000 0.95977  0.42265  0.16875  Biso   1.000  O 
  O36      1.0000 0.95980  0.33085  0.42079  Biso   1.000  O 
  O37      1.0000 0.77358  0.13030  0.24195  Biso   1.000  O 
  O38      1.0000 0.77055  0.12121  0.49303  Biso   1.000  O 
  O39      1.0000 0.72262  0.37943  0.00929  Biso   1.000  O 
  O40      1.0000 0.71995  0.37118  0.26035  Biso   1.000  O 
  Hf20     1.0000 0.63317  0.02190  0.64761  Biso   1.000  Hf
  Hf21     1.0000 0.63099  0.22845  0.89737  Biso   1.000  Hf
  Hf22     1.0000 0.85579  0.27165  0.60550  Biso   1.000  Hf
  Hf23     1.0000 0.85331  0.47825  0.85462  Biso   1.000  Hf
  O41      1.0000 0.53052  0.16962  0.58149  Biso   1.000  O 
  O42      1.0000 0.52990  0.08045  0.83092  Biso   1.000  O 
  O43      1.0000 0.95747  0.42067  0.66974  Biso   1.000  O 
  O44      1.0000 0.95390  0.32988  0.91898  Biso   1.000  O 
  O45      1.0000 0.77076  0.12929  0.74216  Biso   1.000  O 
  O46      1.0000 0.76771  0.12047  0.99246  Biso   1.000  O 
  O47      1.0000 0.71857  0.37905  0.51025  Biso   1.000  O 
  O48      1.0000 0.71667  0.37057  0.76032  Biso   1.000  O 
  Hf24     1.0000 0.63678  0.52007  0.14623  Biso   1.000  Hf
  Hf25     1.0000 0.63371  0.72686  0.39691  Biso   1.000  Hf
  Hf26     1.0000 0.85697  0.76749  0.10316  Biso   1.000  Hf
  Hf27     1.0000 0.85123  0.97789  0.35910  Biso   1.000  Hf
  O49      1.0000 0.53720  0.66902  0.07979  Biso   1.000  O 
  O50      1.0000 0.53169  0.57986  0.33047  Biso   1.000  O 
  O51      1.0000 0.94510  0.92103  0.17217  Biso   1.000  O 
  O52      1.0000 0.95937  0.83027  0.41980  Biso   1.000  O 
  O53      1.0000 0.77286  0.62813  0.24100  Biso   1.000  O 
  O54      1.0000 0.77182  0.62064  0.49109  Biso   1.000  O 
  O55      1.0000 0.72319  0.87867  0.00911  Biso   1.000  O 
  O56      1.0000 0.71618  0.86918  0.26159  Biso   1.000  O 
  Hf28     1.0000 0.63290  0.52106  0.64658  Biso   1.000  Hf
  Hf29     1.0000 0.63158  0.72859  0.89575  Biso   1.000  Hf
  Hf30     1.0000 0.85585  0.77144  0.60514  Biso   1.000  Hf
  Hf31     1.0000 0.85403  0.97855  0.85595  Biso   1.000  Hf
  O57      1.0000 0.53005  0.66858  0.58145  Biso   1.000  O 
  O58      1.0000 0.52891  0.58046  0.83113  Biso   1.000  O 
  O59      1.0000 0.95735  0.92019  0.67052  Biso   1.000  O 
  O60      1.0000 0.95575  0.82978  0.92128  Biso   1.000  O 
  O61      1.0000 0.76997  0.62926  0.74086  Biso   1.000  O 
  O62      1.0000 0.76742  0.61952  0.99122  Biso   1.000  O 
  O63      1.0000 0.71740  0.87860  0.51153  Biso   1.000  O 
  O64      1.0000 0.71740  0.87089  0.76043  Biso   1.000  O 
