data_image0
_cell_length_a       5.00077
_cell_length_b       10.4109
_cell_length_c       10.0491
_cell_angle_alpha    90
_cell_angle_beta     90
_cell_angle_gamma    90

_symmetry_space_group_name_H-M    "P 1"
_symmetry_int_tables_number       1

loop_
  _symmetry_equiv_pos_as_xyz
  'x, y, z'

loop_
  _atom_site_label
  _atom_site_occupancy
  _atom_site_fract_x
  _atom_site_fract_y
  _atom_site_fract_z
  _atom_site_thermal_displace_type
  _atom_site_B_iso_or_equiv
  _atom_site_type_symbol
  Bi1      1.0000 0.25680  0.01421  0.12268  Biso   1.000  Bi
  Hf1      1.0000 0.26832  0.23420  0.37802  Biso   1.000  Hf
  Hf2      1.0000 0.72726  0.26904  0.12643  Biso   1.000  Hf
  Hf3      1.0000 0.73171  0.48308  0.37634  Biso   1.000  Hf
  O1       1.0000 0.06748  0.19203  0.19832  Biso   1.000  O 
  O2       1.0000 0.07167  0.06508  0.44344  Biso   1.000  O 
  O3       1.0000 0.92625  0.43565  0.19501  Biso   1.000  O 
  O4       1.0000 0.92687  0.31643  0.44564  Biso   1.000  O 
  O5       1.0000 0.55096  0.12425  0.25581  Biso   1.000  O 
  O6       1.0000 0.53786  0.13207  0.50174  Biso   1.000  O 
  O7       1.0000 0.45938  0.38242  0.50016  Biso   1.000  O 
  O8       1.0000 0.45641  0.36907  0.25055  Biso   1.000  O 
  Hf4      1.0000 0.26451  0.01603  0.62608  Biso   1.000  Hf
  Hf5      1.0000 0.26790  0.23587  0.87236  Biso   1.000  Hf
  Hf6      1.0000 0.73242  0.26617  0.62506  Biso   1.000  Hf
  Hf7      1.0000 0.73259  0.48228  0.87610  Biso   1.000  Hf
  O9       1.0000 0.07421  0.18566  0.69046  Biso   1.000  O 
  O10      1.0000 0.07017  0.06759  0.92787  Biso   1.000  O 
  O11      1.0000 0.93046  0.43297  0.69634  Biso   1.000  O 
  O12      1.0000 0.93008  0.31674  0.94553  Biso   1.000  O 
  O13      1.0000 0.54019  0.11698  0.74779  Biso   1.000  O 
  O14      1.0000 0.54813  0.13471  0.99460  Biso   1.000  O 
  O15      1.0000 0.45749  0.38252  0.99925  Biso   1.000  O 
  O16      1.0000 0.46173  0.36744  0.74882  Biso   1.000  O 
  Hf8      1.0000 0.26775  0.51588  0.12643  Biso   1.000  Hf
  Hf9      1.0000 0.26747  0.73187  0.37833  Biso   1.000  Hf
  Hf10     1.0000 0.73408  0.76099  0.12596  Biso   1.000  Hf
  Hf11     1.0000 0.73049  0.98315  0.37979  Biso   1.000  Hf
  O17      1.0000 0.07570  0.68389  0.19631  Biso   1.000  O 
  O18      1.0000 0.07095  0.56462  0.44599  Biso   1.000  O 
  O19      1.0000 0.90283  0.93113  0.19755  Biso   1.000  O 
  O20      1.0000 0.93059  0.81537  0.44731  Biso   1.000  O 
  O21      1.0000 0.54081  0.61470  0.24989  Biso   1.000  O 
  O22      1.0000 0.54060  0.63166  0.50005  Biso   1.000  O 
  O23      1.0000 0.45892  0.88184  0.50158  Biso   1.000  O 
  O24      1.0000 0.47059  0.85894  0.25542  Biso   1.000  O 
  Hf12     1.0000 0.26694  0.51560  0.62593  Biso   1.000  Hf
  Hf13     1.0000 0.26764  0.73075  0.87503  Biso   1.000  Hf
  Hf14     1.0000 0.73216  0.76507  0.62544  Biso   1.000  Hf
  Hf15     1.0000 0.73127  0.98131  0.87172  Biso   1.000  Hf
  O25      1.0000 0.07088  0.68260  0.69510  Biso   1.000  O 
  O26      1.0000 0.06806  0.56652  0.94620  Biso   1.000  O 
  O27      1.0000 0.92645  0.93294  0.69225  Biso   1.000  O 
  O28      1.0000 0.93758  0.81762  0.94763  Biso   1.000  O 
  O29      1.0000 0.54035  0.61584  0.74944  Biso   1.000  O 
  O30      1.0000 0.53862  0.62906  0.99914  Biso   1.000  O 
  O31      1.0000 0.47205  0.87421  0.99517  Biso   1.000  O 
  O32      1.0000 0.45878  0.86592  0.74872  Biso   1.000  O 
