data_image0
_cell_length_a       5.07085
_cell_length_b       10.4505
_cell_length_c       10.2747
_cell_angle_alpha    90
_cell_angle_beta     90
_cell_angle_gamma    90

_symmetry_space_group_name_H-M    "P 1"
_symmetry_int_tables_number       1

loop_
  _symmetry_equiv_pos_as_xyz
  'x, y, z'

loop_
  _atom_site_label
  _atom_site_occupancy
  _atom_site_fract_x
  _atom_site_fract_y
  _atom_site_fract_z
  _atom_site_thermal_displace_type
  _atom_site_B_iso_or_equiv
  _atom_site_type_symbol
  Hf1      1.0000 0.17804  0.99953  0.10177  Biso   1.000  Hf
  Hf2      1.0000 0.16910  0.25183  0.40476  Biso   1.000  Hf
  Hf3      1.0000 0.56037  0.27751  0.15595  Biso   1.000  Hf
  Hf4      1.0000 0.64266  0.51264  0.38617  Biso   1.000  Hf
  O1       1.0000 0.84888  0.19777  0.27383  Biso   1.000  O 
  O2       1.0000 0.01746  0.07907  0.46013  Biso   1.000  O 
  O3       1.0000 0.79199  0.45747  0.21238  Biso   1.000  O 
  O4       1.0000 0.86102  0.35637  0.46103  Biso   1.000  O 
  O5       1.0000 0.37963  0.12383  0.25495  Biso   1.000  O 
  O6       1.0000 0.49304  0.16441  0.49902  Biso   1.000  O 
  O7       1.0000 0.37917  0.41185  0.50060  Biso   1.000  O 
  O8       1.0000 0.31097  0.38873  0.26298  Biso   1.000  O 
  Hf5      1.0000 0.23329  0.03738  0.62127  Biso   1.000  Hf
  Hf6      1.0000 0.23100  0.25824  0.84808  Biso   1.000  Hf
  Hf7      1.0000 0.68201  0.29748  0.62658  Biso   1.000  Hf
  Hf8      1.0000 0.62845  0.51501  0.85190  Biso   1.000  Hf
  O9       1.0000 0.04475  0.21312  0.66202  Biso   1.000  O 
  O10      1.0000 0.01446  0.09596  0.91118  Biso   1.000  O 
  O11      1.0000 0.81560  0.48158  0.67295  Biso   1.000  O 
  O12      1.0000 0.86029  0.34204  0.85513  Biso   1.000  O 
  O13      1.0000 0.49733  0.14453  0.74534  Biso   1.000  O 
  O14      1.0000 0.58118  0.11744  0.00647  Biso   1.000  O 
  O15      1.0000 0.38290  0.41720  0.97462  Biso   1.000  O 
  O16      1.0000 0.37269  0.39878  0.73243  Biso   1.000  O 
  Hf9      1.0000 0.15377  0.54137  0.14559  Biso   1.000  Hf
  Hf10     1.0000 0.16224  0.76506  0.38204  Biso   1.000  Hf
  Hf11     1.0000 0.63454  0.77069  0.13278  Biso   1.000  Hf
  Hf12     1.0000 0.70559  0.02181  0.35643  Biso   1.000  Hf
  O17      1.0000 0.96911  0.69995  0.20843  Biso   1.000  O 
  O18      1.0000 0.97189  0.60087  0.44854  Biso   1.000  O 
  O19      1.0000 0.82721  0.95346  0.18631  Biso   1.000  O 
  O20      1.0000 0.81549  0.84412  0.44418  Biso   1.000  O 
  O21      1.0000 0.43261  0.63946  0.26486  Biso   1.000  O 
  O22      1.0000 0.42643  0.66559  0.50710  Biso   1.000  O 
  O23      1.0000 0.34853  0.91525  0.49299  Biso   1.000  O 
  O24      1.0000 0.36713  0.87987  0.24274  Biso   1.000  O 
  Hf13     1.0000 0.17216  0.54592  0.62010  Biso   1.000  Hf
  Hf14     1.0000 0.10955  0.77106  0.87411  Biso   1.000  Hf
  Hf15     1.0000 0.62171  0.80045  0.62091  Biso   1.000  Hf
  Hf16     1.0000 0.58219  0.01050  0.87033  Biso   1.000  Hf
  O25      1.0000 0.93864  0.71245  0.70002  Biso   1.000  O 
  O26      1.0000 0.89386  0.61084  0.95580  Biso   1.000  O 
  O27      1.0000 0.80764  0.95872  0.70147  Biso   1.000  O 
  O28      1.0000 0.78010  0.85738  0.95937  Biso   1.000  O 
  O29      1.0000 0.40290  0.64840  0.75832  Biso   1.000  O 
  O30      1.0000 0.44348  0.63642  0.02109  Biso   1.000  O 
  O31      1.0000 0.29375  0.92349  0.98884  Biso   1.000  O 
  O32      1.0000 0.33640  0.89306  0.74519  Biso   1.000  O 
  Bi1      1.0000 0.03382  0.26381  0.06625  Biso   1.000  Bi
