data_image0
_cell_length_a       10.2408
_cell_length_b       10.2318
_cell_length_c       10.1445
_cell_angle_alpha    90
_cell_angle_beta     90
_cell_angle_gamma    90

_symmetry_space_group_name_H-M    "P 1"
_symmetry_int_tables_number       1

loop_
  _symmetry_equiv_pos_as_xyz
  'x, y, z'

loop_
  _atom_site_label
  _atom_site_occupancy
  _atom_site_fract_x
  _atom_site_fract_y
  _atom_site_fract_z
  _atom_site_thermal_displace_type
  _atom_site_B_iso_or_equiv
  _atom_site_type_symbol
  Hf1      1.0000 0.14916  0.99414  0.12439  Biso   1.000  Hf
  Hf2      1.0000 0.15166  0.20045  0.42934  Biso   1.000  Hf
  Hf3      1.0000 0.42785  0.22735  0.15903  Biso   1.000  Hf
  Hf4      1.0000 0.41467  0.98246  0.38708  Biso   1.000  Hf
  O1       1.0000 0.04957  0.16951  0.05020  Biso   1.000  O 
  O2       1.0000 0.07612  0.05981  0.30454  Biso   1.000  O 
  O3       1.0000 0.96870  0.27753  0.30647  Biso   1.000  O 
  O4       1.0000 0.06452  0.37346  0.99113  Biso   1.000  O 
  O5       1.0000 0.32774  0.15169  0.32342  Biso   1.000  O 
  O6       1.0000 0.30535  0.09612  0.05489  Biso   1.000  O 
  O7       1.0000 0.31202  0.35165  0.98046  Biso   1.000  O 
  O8       1.0000 0.35807  0.40578  0.21505  Biso   1.000  O 
  Hf5      1.0000 0.16253  0.95157  0.62479  Biso   1.000  Hf
  Hf6      1.0000 0.18298  0.23209  0.86899  Biso   1.000  Hf
  Hf7      1.0000 0.40510  0.24145  0.62899  Biso   1.000  Hf
  Hf8      1.0000 0.44021  0.97197  0.87791  Biso   1.000  Hf
  O9       1.0000 0.02131  0.09569  0.54557  Biso   1.000  O 
  O10      1.0000 0.10012  0.05444  0.79156  Biso   1.000  O 
  O11      1.0000 0.03067  0.29899  0.76266  Biso   1.000  O 
  O12      1.0000 0.04186  0.35922  0.51950  Biso   1.000  O 
  O13      1.0000 0.34802  0.13840  0.79930  Biso   1.000  O 
  O14      1.0000 0.27683  0.09199  0.55152  Biso   1.000  O 
  O15      1.0000 0.29301  0.34788  0.48903  Biso   1.000  O 
  O16      1.0000 0.28291  0.37680  0.73338  Biso   1.000  O 
  Hf9      1.0000 0.11725  0.55108  0.06474  Biso   1.000  Hf
  Hf10     1.0000 0.16850  0.74167  0.35918  Biso   1.000  Hf
  Hf11     1.0000 0.40526  0.76100  0.12799  Biso   1.000  Hf
  Hf12     1.0000 0.43585  0.47484  0.37544  Biso   1.000  Hf
  O17      1.0000 0.05762  0.62717  0.95757  Biso   1.000  O 
  O18      1.0000 0.98782  0.60247  0.21568  Biso   1.000  O 
  O19      1.0000 0.03636  0.84339  0.23634  Biso   1.000  O 
  O20      1.0000 0.09045  0.87456  0.99271  Biso   1.000  O 
  O21      1.0000 0.24205  0.65786  0.18881  Biso   1.000  O 
  O22      1.0000 0.30651  0.59171  0.91886  Biso   1.000  O 
  O23      1.0000 0.33762  0.82854  0.99436  Biso   1.000  O 
  O24      1.0000 0.28997  0.89428  0.25059  Biso   1.000  O 
  Hf13     1.0000 0.18026  0.49421  0.59283  Biso   1.000  Hf
  Hf14     1.0000 0.20307  0.74841  0.86210  Biso   1.000  Hf
  Hf15     1.0000 0.42819  0.72426  0.61891  Biso   1.000  Hf
  Hf16     1.0000 0.45055  0.45654  0.87749  Biso   1.000  Hf
  O25      1.0000 0.05095  0.61342  0.46757  Biso   1.000  O 
  O26      1.0000 0.00991  0.55395  0.70325  Biso   1.000  O 
  O27      1.0000 0.04967  0.81619  0.73793  Biso   1.000  O 
  O28      1.0000 0.03816  0.85635  0.49059  Biso   1.000  O 
  O29      1.0000 0.25296  0.65411  0.68709  Biso   1.000  O 
  O30      1.0000 0.29773  0.59510  0.45118  Biso   1.000  O 
  O31      1.0000 0.28988  0.84207  0.49285  Biso   1.000  O 
  O32      1.0000 0.31560  0.88200  0.74800  Biso   1.000  O 
  Hf17     1.0000 0.65417  0.99703  0.12593  Biso   1.000  Hf
  Hf18     1.0000 0.65195  0.21489  0.39888  Biso   1.000  Hf
  Hf19     1.0000 0.87355  0.25252  0.12374  Biso   1.000  Hf
  Hf20     1.0000 0.91585  0.98365  0.38318  Biso   1.000  Hf
  O33      1.0000 0.56148  0.15098  0.03138  Biso   1.000  O 
  O34      1.0000 0.54167  0.08855  0.26978  Biso   1.000  O 
  O35      1.0000 0.57709  0.34234  0.26090  Biso   1.000  O 
  O36      1.0000 0.50401  0.39237  0.00290  Biso   1.000  O 
  O37      1.0000 0.77956  0.13531  0.26176  Biso   1.000  O 
  O38      1.0000 0.80290  0.08996  0.02620  Biso   1.000  O 
  O39      1.0000 0.82578  0.31307  0.98668  Biso   1.000  O 
  O40      1.0000 0.80286  0.42282  0.21504  Biso   1.000  O 
  Hf21     1.0000 0.67136  0.96031  0.62691  Biso   1.000  Hf
  Hf22     1.0000 0.68493  0.22680  0.86701  Biso   1.000  Hf
  Hf23     1.0000 0.90115  0.23971  0.62208  Biso   1.000  Hf
  Hf24     1.0000 0.94590  0.96230  0.86023  Biso   1.000  Hf
  O41      1.0000 0.53087  0.11138  0.52563  Biso   1.000  O 
  O42      1.0000 0.59118  0.06126  0.78225  Biso   1.000  O 
  O43      1.0000 0.54312  0.31618  0.75657  Biso   1.000  O 
  O44      1.0000 0.53786  0.36156  0.50907  Biso   1.000  O 
  O45      1.0000 0.83468  0.12122  0.77083  Biso   1.000  O 
  O46      1.0000 0.77914  0.08791  0.51247  Biso   1.000  O 
  O47      1.0000 0.78480  0.34331  0.48813  Biso   1.000  O 
  O48      1.0000 0.78749  0.37410  0.73828  Biso   1.000  O 
  Hf25     1.0000 0.64604  0.49544  0.11891  Biso   1.000  Hf
  Hf26     1.0000 0.66339  0.73958  0.36337  Biso   1.000  Hf
  Hf27     1.0000 0.89528  0.75943  0.12317  Biso   1.000  Hf
  Hf28     1.0000 0.92870  0.46725  0.36435  Biso   1.000  Hf
  O49      1.0000 0.55350  0.61630  0.97142  Biso   1.000  O 
  O50      1.0000 0.50994  0.60544  0.23574  Biso   1.000  O 
  O51      1.0000 0.53407  0.85212  0.25656  Biso   1.000  O 
  O52      1.0000 0.51603  0.90060  0.00779  Biso   1.000  O 
  O53      1.0000 0.74037  0.66193  0.20155  Biso   1.000  O 
  O54      1.0000 0.79762  0.56303  0.95406  Biso   1.000  O 
  O55      1.0000 0.83659  0.81862  0.98975  Biso   1.000  O 
  O56      1.0000 0.79225  0.89232  0.25131  Biso   1.000  O 
  Hf29     1.0000 0.67351  0.48817  0.60462  Biso   1.000  Hf
  Hf30     1.0000 0.69705  0.72702  0.87602  Biso   1.000  Hf
  Hf31     1.0000 0.92036  0.71162  0.60533  Biso   1.000  Hf
  Hf32     1.0000 0.93730  0.45655  0.86155  Biso   1.000  Hf
  O57      1.0000 0.55462  0.61933  0.48344  Biso   1.000  O 
  O58      1.0000 0.50578  0.56007  0.71037  Biso   1.000  O 
  O59      1.0000 0.55373  0.81682  0.75150  Biso   1.000  O 
  O60      1.0000 0.54099  0.86591  0.50662  Biso   1.000  O 
  O61      1.0000 0.76140  0.63475  0.70829  Biso   1.000  O 
  O62      1.0000 0.79962  0.58682  0.46880  Biso   1.000  O 
  O63      1.0000 0.79074  0.83662  0.49257  Biso   1.000  O 
  O64      1.0000 0.80873  0.86844  0.74467  Biso   1.000  O 
  Bi1      1.0000 0.16006  0.33766  0.20756  Biso   1.000  Bi
