data_image0
_cell_length_a       10.1534
_cell_length_b       5.16047
_cell_length_c       10.4837
_cell_angle_alpha    90
_cell_angle_beta     80
_cell_angle_gamma    90

_symmetry_space_group_name_H-M    "P 1"
_symmetry_int_tables_number       1

loop_
  _symmetry_equiv_pos_as_xyz
  'x, y, z'

loop_
  _atom_site_label
  _atom_site_occupancy
  _atom_site_fract_x
  _atom_site_fract_y
  _atom_site_fract_z
  _atom_site_thermal_displace_type
  _atom_site_B_iso_or_equiv
  _atom_site_type_symbol
  Bi1      1.0000 0.13162  0.03520  0.14604  Biso   1.000  Bi
  Hf1      1.0000 0.13383  0.45611  0.39933  Biso   1.000  Hf
  Hf2      1.0000 0.36368  0.53868  0.10312  Biso   1.000  Hf
  Hf3      1.0000 0.35788  0.95560  0.35546  Biso   1.000  Hf
  O1       1.0000 0.03600  0.36534  0.07809  Biso   1.000  O 
  O2       1.0000 0.02616  0.16278  0.33906  Biso   1.000  O 
  O3       1.0000 0.46203  0.83866  0.17043  Biso   1.000  O 
  O4       1.0000 0.45906  0.65973  0.42177  Biso   1.000  O 
  O5       1.0000 0.27812  0.26176  0.24507  Biso   1.000  O 
  O6       1.0000 0.27045  0.23967  0.49198  Biso   1.000  O 
  O7       1.0000 0.23312  0.74585  0.00093  Biso   1.000  O 
  O8       1.0000 0.22546  0.72741  0.26220  Biso   1.000  O 
  Hf4      1.0000 0.13194  0.04163  0.64685  Biso   1.000  Hf
  Hf5      1.0000 0.12991  0.45901  0.89355  Biso   1.000  Hf
  Hf6      1.0000 0.35460  0.54177  0.60482  Biso   1.000  Hf
  Hf7      1.0000 0.35485  0.95655  0.85321  Biso   1.000  Hf
  O9       1.0000 0.03009  0.34259  0.58447  Biso   1.000  O 
  O10      1.0000 0.02843  0.15617  0.83283  Biso   1.000  O 
  O11      1.0000 0.45823  0.83600  0.67073  Biso   1.000  O 
  O12      1.0000 0.46006  0.66676  0.92145  Biso   1.000  O 
  O13      1.0000 0.26846  0.25773  0.73935  Biso   1.000  O 
  O14      1.0000 0.27139  0.24902  0.98399  Biso   1.000  O 
  O15      1.0000 0.21788  0.75782  0.51074  Biso   1.000  O 
  O16      1.0000 0.21631  0.74236  0.75846  Biso   1.000  O 
  Hf8      1.0000 0.63686  0.03934  0.14639  Biso   1.000  Hf
  Hf9      1.0000 0.63228  0.45504  0.39755  Biso   1.000  Hf
  Hf10     1.0000 0.85441  0.53757  0.10345  Biso   1.000  Hf
  Hf11     1.0000 0.85076  0.95553  0.35935  Biso   1.000  Hf
  O17      1.0000 0.53754  0.33678  0.07914  Biso   1.000  O 
  O18      1.0000 0.53222  0.15888  0.33105  Biso   1.000  O 
  O19      1.0000 0.94248  0.84746  0.17174  Biso   1.000  O 
  O20      1.0000 0.95869  0.66302  0.42120  Biso   1.000  O 
  O21      1.0000 0.77119  0.25879  0.24214  Biso   1.000  O 
  O22      1.0000 0.76926  0.24224  0.49286  Biso   1.000  O 
  O23      1.0000 0.72301  0.75767  0.00921  Biso   1.000  O 
  O24      1.0000 0.71503  0.73939  0.26245  Biso   1.000  O 
  Hf12     1.0000 0.63199  0.04322  0.64760  Biso   1.000  Hf
  Hf13     1.0000 0.63032  0.45711  0.89621  Biso   1.000  Hf
  Hf14     1.0000 0.85519  0.54346  0.60585  Biso   1.000  Hf
  Hf15     1.0000 0.85279  0.95654  0.85545  Biso   1.000  Hf
  O25      1.0000 0.52843  0.33561  0.58120  Biso   1.000  O 
  O26      1.0000 0.52835  0.16310  0.82990  Biso   1.000  O 
  O27      1.0000 0.95638  0.84086  0.67063  Biso   1.000  O 
  O28      1.0000 0.95318  0.66048  0.92056  Biso   1.000  O 
  O29      1.0000 0.76943  0.25867  0.74147  Biso   1.000  O 
  O30      1.0000 0.76574  0.23867  0.99185  Biso   1.000  O 
  O31      1.0000 0.71668  0.75693  0.51187  Biso   1.000  O 
  O32      1.0000 0.71671  0.74165  0.76058  Biso   1.000  O 
