data_image0
_cell_length_a       9.97409
_cell_length_b       10.3774
_cell_length_c       5.02566
_cell_angle_alpha    90
_cell_angle_beta     90
_cell_angle_gamma    90

_symmetry_space_group_name_H-M    "P 1"
_symmetry_int_tables_number       1

loop_
  _symmetry_equiv_pos_as_xyz
  'x, y, z'

loop_
  _atom_site_label
  _atom_site_occupancy
  _atom_site_fract_x
  _atom_site_fract_y
  _atom_site_fract_z
  _atom_site_thermal_displace_type
  _atom_site_B_iso_or_equiv
  _atom_site_type_symbol
  Hf1      1.0000 0.14897  0.01736  0.25999  Biso   1.000  Hf
  Hf2      1.0000 0.13608  0.22896  0.81428  Biso   1.000  Hf
  Hf3      1.0000 0.36163  0.25907  0.24423  Biso   1.000  Hf
  Hf4      1.0000 0.37696  0.49051  0.74843  Biso   1.000  Hf
  O1       1.0000 0.02978  0.17590  0.44292  Biso   1.000  O 
  O2       1.0000 0.03873  0.06683  0.92838  Biso   1.000  O 
  O3       1.0000 0.44995  0.42936  0.38729  Biso   1.000  O 
  O4       1.0000 0.46711  0.31454  0.88234  Biso   1.000  O 
  O5       1.0000 0.27335  0.11669  0.52399  Biso   1.000  O 
  O6       1.0000 0.29339  0.11479  0.00050  Biso   1.000  O 
  O7       1.0000 0.23960  0.38796  0.96824  Biso   1.000  O 
  O8       1.0000 0.18207  0.34240  0.44315  Biso   1.000  O 
  Hf5      1.0000 0.11872  0.51702  0.23014  Biso   1.000  Hf
  Hf6      1.0000 0.12631  0.73185  0.74716  Biso   1.000  Hf
  Hf7      1.0000 0.35682  0.76100  0.25034  Biso   1.000  Hf
  Hf8      1.0000 0.36293  0.97551  0.75053  Biso   1.000  Hf
  O9       1.0000 0.03028  0.68645  0.37765  Biso   1.000  O 
  O10      1.0000 0.02920  0.56561  0.87846  Biso   1.000  O 
  O11      1.0000 0.45636  0.92908  0.38264  Biso   1.000  O 
  O12      1.0000 0.46087  0.81118  0.89713  Biso   1.000  O 
  O13      1.0000 0.25645  0.60366  0.49373  Biso   1.000  O 
  O14      1.0000 0.26589  0.63267  0.99060  Biso   1.000  O 
  O15      1.0000 0.21579  0.87885  0.00155  Biso   1.000  O 
  O16      1.0000 0.22644  0.86180  0.50063  Biso   1.000  O 
  Hf9      1.0000 0.63850  0.01986  0.24899  Biso   1.000  Hf
  Hf10     1.0000 0.63775  0.23133  0.74816  Biso   1.000  Hf
  Hf11     1.0000 0.87145  0.27423  0.23479  Biso   1.000  Hf
  Hf12     1.0000 0.85668  0.48535  0.74570  Biso   1.000  Hf
  O17      1.0000 0.53390  0.18190  0.38315  Biso   1.000  O 
  O18      1.0000 0.55126  0.05950  0.87702  Biso   1.000  O 
  O19      1.0000 0.94246  0.45008  0.37128  Biso   1.000  O 
  O20      1.0000 0.95365  0.31816  0.84837  Biso   1.000  O 
  O21      1.0000 0.77448  0.11929  0.49333  Biso   1.000  O 
  O22      1.0000 0.77820  0.13411  0.99490  Biso   1.000  O 
  O23      1.0000 0.72082  0.38351  0.00008  Biso   1.000  O 
  O24      1.0000 0.72103  0.37001  0.49544  Biso   1.000  O 
  Hf13     1.0000 0.62837  0.51539  0.25976  Biso   1.000  Hf
  Hf14     1.0000 0.63277  0.73619  0.75640  Biso   1.000  Hf
  Hf15     1.0000 0.86010  0.77066  0.25127  Biso   1.000  Hf
  Hf16     1.0000 0.85648  0.98611  0.74865  Biso   1.000  Hf
  O25      1.0000 0.52017  0.67542  0.41504  Biso   1.000  O 
  O26      1.0000 0.53525  0.56751  0.90777  Biso   1.000  O 
  O27      1.0000 0.96050  0.93297  0.40144  Biso   1.000  O 
  O28      1.0000 0.95703  0.81628  0.88538  Biso   1.000  O 
  O29      1.0000 0.76047  0.62269  0.50278  Biso   1.000  O 
  O30      1.0000 0.75909  0.63455  0.00636  Biso   1.000  O 
  O31      1.0000 0.72064  0.88507  0.00108  Biso   1.000  O 
  O32      1.0000 0.72143  0.86986  0.49924  Biso   1.000  O 
  C1       1.0000 0.10605  0.25450  0.27070  Biso   1.000  C 
