data_image0
_cell_length_a       5.04419
_cell_length_b       10.2931
_cell_length_c       10.1064
_cell_angle_alpha    90
_cell_angle_beta     90
_cell_angle_gamma    90

_symmetry_space_group_name_H-M    "P 1"
_symmetry_int_tables_number       1

loop_
  _symmetry_equiv_pos_as_xyz
  'x, y, z'

loop_
  _atom_site_label
  _atom_site_occupancy
  _atom_site_fract_x
  _atom_site_fract_y
  _atom_site_fract_z
  _atom_site_thermal_displace_type
  _atom_site_B_iso_or_equiv
  _atom_site_type_symbol
  Hf1      1.0000 0.29441  0.99874  0.12085  Biso   1.000  Hf
  Hf2      1.0000 0.23209  0.27262  0.34833  Biso   1.000  Hf
  Hf3      1.0000 0.74345  0.22687  0.14224  Biso   1.000  Hf
  Hf4      1.0000 0.80568  0.00416  0.38803  Biso   1.000  Hf
  O1       1.0000 0.13253  0.17196  0.02937  Biso   1.000  O 
  O2       1.0000 0.04086  0.10917  0.25263  Biso   1.000  O 
  O3       1.0000 0.91448  0.38012  0.24210  Biso   1.000  O 
  O4       1.0000 0.98828  0.41054  0.97648  Biso   1.000  O 
  O5       1.0000 0.58884  0.17353  0.32243  Biso   1.000  O 
  O6       1.0000 0.62115  0.08114  0.02279  Biso   1.000  O 
  O7       1.0000 0.45657  0.32814  0.02002  Biso   1.000  O 
  O8       1.0000 0.42414  0.43512  0.27784  Biso   1.000  O 
  Hf5      1.0000 0.24876  0.02243  0.64004  Biso   1.000  Hf
  Hf6      1.0000 0.22975  0.28711  0.84759  Biso   1.000  Hf
  Hf7      1.0000 0.74969  0.24782  0.60668  Biso   1.000  Hf
  Hf8      1.0000 0.75874  0.99951  0.86308  Biso   1.000  Hf
  O9       1.0000 0.05058  0.15132  0.50277  Biso   1.000  O 
  O10      1.0000 0.00758  0.12841  0.76617  Biso   1.000  O 
  O11      1.0000 0.95868  0.37519  0.72919  Biso   1.000  O 
  O12      1.0000 0.96073  0.39746  0.48275  Biso   1.000  O 
  O13      1.0000 0.50673  0.16341  0.76714  Biso   1.000  O 
  O14      1.0000 0.58946  0.07071  0.54818  Biso   1.000  O 
  O15      1.0000 0.43792  0.33383  0.52430  Biso   1.000  O 
  O16      1.0000 0.45743  0.42655  0.76510  Biso   1.000  O 
  Hf9      1.0000 0.20181  0.48138  0.11217  Biso   1.000  Hf
  Hf10     1.0000 0.28614  0.74893  0.38099  Biso   1.000  Hf
  Hf11     1.0000 0.80576  0.77432  0.13261  Biso   1.000  Hf
  Hf12     1.0000 0.75626  0.52726  0.35428  Biso   1.000  Hf
  O17      1.0000 0.97465  0.66986  0.98563  Biso   1.000  O 
  O18      1.0000 0.03755  0.62259  0.23817  Biso   1.000  O 
  O19      1.0000 0.08464  0.86583  0.24892  Biso   1.000  O 
  O20      1.0000 0.06241  0.92522  0.99454  Biso   1.000  O 
  O21      1.0000 0.55318  0.67573  0.24971  Biso   1.000  O 
  O22      1.0000 0.46356  0.60147  0.98112  Biso   1.000  O 
  O23      1.0000 0.54880  0.86011  0.99551  Biso   1.000  O 
  O24      1.0000 0.59481  0.92945  0.23307  Biso   1.000  O 
  Hf13     1.0000 0.22804  0.49423  0.60291  Biso   1.000  Hf
  Hf14     1.0000 0.28232  0.75802  0.87470  Biso   1.000  Hf
  Hf15     1.0000 0.79627  0.76036  0.62065  Biso   1.000  Hf
  Hf16     1.0000 0.76234  0.53304  0.85839  Biso   1.000  Hf
  O25      1.0000 0.00697  0.64538  0.48925  Biso   1.000  O 
  O26      1.0000 0.04933  0.62220  0.73953  Biso   1.000  O 
  O27      1.0000 0.00497  0.87343  0.75108  Biso   1.000  O 
  O28      1.0000 0.08894  0.89659  0.50484  Biso   1.000  O 
  O29      1.0000 0.55731  0.67295  0.75022  Biso   1.000  O 
  O30      1.0000 0.49944  0.59902  0.49942  Biso   1.000  O 
  O31      1.0000 0.59705  0.84018  0.46979  Biso   1.000  O 
  O32      1.0000 0.49567  0.90430  0.74821  Biso   1.000  O 
  C1       1.0000 0.29862  0.25382  0.11109  Biso   1.000  C 
