data_image0
_cell_length_a       10.1584
_cell_length_b       10.2212
_cell_length_c       5.22844
_cell_angle_alpha    90
_cell_angle_beta     80
_cell_angle_gamma    90

_symmetry_space_group_name_H-M    "P 1"
_symmetry_int_tables_number       1

loop_
  _symmetry_equiv_pos_as_xyz
  'x, y, z'

loop_
  _atom_site_label
  _atom_site_occupancy
  _atom_site_fract_x
  _atom_site_fract_y
  _atom_site_fract_z
  _atom_site_thermal_displace_type
  _atom_site_B_iso_or_equiv
  _atom_site_type_symbol
  C1       1.0000 0.01843  0.05487  0.34383  Biso   1.000  C 
  Hf1      1.0000 0.15498  0.22709  0.78103  Biso   1.000  Hf
  Hf2      1.0000 0.35861  0.26128  0.20976  Biso   1.000  Hf
  Hf3      1.0000 0.36240  0.47638  0.70685  Biso   1.000  Hf
  O1       1.0000 0.03045  0.13583  0.15527  Biso   1.000  O 
  O2       1.0000 0.03001  0.09181  0.57672  Biso   1.000  O 
  O3       1.0000 0.46632  0.41460  0.34203  Biso   1.000  O 
  O4       1.0000 0.46711  0.33276  0.84343  Biso   1.000  O 
  O5       1.0000 0.28693  0.13452  0.49743  Biso   1.000  O 
  O6       1.0000 0.28183  0.12808  0.96994  Biso   1.000  O 
  O7       1.0000 0.22366  0.37564  0.01429  Biso   1.000  O 
  O8       1.0000 0.22351  0.37076  0.51606  Biso   1.000  O 
  Hf4      1.0000 0.14440  0.52201  0.29121  Biso   1.000  Hf
  Hf5      1.0000 0.14971  0.73370  0.78847  Biso   1.000  Hf
  Hf6      1.0000 0.36070  0.77873  0.20789  Biso   1.000  Hf
  Hf7      1.0000 0.35904  0.97714  0.71151  Biso   1.000  Hf
  O9       1.0000 0.04014  0.67306  0.16904  Biso   1.000  O 
  O10      1.0000 0.03814  0.57942  0.66223  Biso   1.000  O 
  O11      1.0000 0.47502  0.91499  0.34726  Biso   1.000  O 
  O12      1.0000 0.47687  0.83697  0.84695  Biso   1.000  O 
  O13      1.0000 0.28001  0.62479  0.47689  Biso   1.000  O 
  O14      1.0000 0.27744  0.61569  0.98194  Biso   1.000  O 
  O15      1.0000 0.23760  0.87153  0.00101  Biso   1.000  O 
  O16      1.0000 0.23609  0.86416  0.52209  Biso   1.000  O 
  Hf8      1.0000 0.63456  0.02083  0.30026  Biso   1.000  Hf
  Hf9      1.0000 0.63527  0.22780  0.79331  Biso   1.000  Hf
  Hf10     1.0000 0.85565  0.27458  0.21048  Biso   1.000  Hf
  Hf11     1.0000 0.86980  0.47392  0.70822  Biso   1.000  Hf
  O17      1.0000 0.54092  0.16996  0.16153  Biso   1.000  O 
  O18      1.0000 0.54019  0.07750  0.66521  Biso   1.000  O 
  O19      1.0000 0.97192  0.40815  0.34642  Biso   1.000  O 
  O20      1.0000 0.96810  0.32081  0.85420  Biso   1.000  O 
  O21      1.0000 0.77952  0.12775  0.48292  Biso   1.000  O 
  O22      1.0000 0.77632  0.11849  0.98596  Biso   1.000  O 
  O23      1.0000 0.72970  0.38020  0.01948  Biso   1.000  O 
  O24      1.0000 0.72624  0.36967  0.52003  Biso   1.000  O 
  Hf12     1.0000 0.63577  0.52026  0.29481  Biso   1.000  Hf
  Hf13     1.0000 0.63707  0.72499  0.79644  Biso   1.000  Hf
  Hf14     1.0000 0.86508  0.76137  0.20116  Biso   1.000  Hf
  Hf15     1.0000 0.85287  0.97353  0.73020  Biso   1.000  Hf
  O25      1.0000 0.53989  0.66661  0.15506  Biso   1.000  O 
  O26      1.0000 0.53581  0.58086  0.65749  Biso   1.000  O 
  O27      1.0000 0.97489  0.94057  0.33135  Biso   1.000  O 
  O28      1.0000 0.96966  0.83673  0.84087  Biso   1.000  O 
  O29      1.0000 0.77983  0.62382  0.48169  Biso   1.000  O 
  O30      1.0000 0.78199  0.62031  0.98424  Biso   1.000  O 
  O31      1.0000 0.72927  0.87744  0.02497  Biso   1.000  O 
  O32      1.0000 0.74033  0.86692  0.51853  Biso   1.000  O 
