data_image0
_cell_length_a       9.96454
_cell_length_b       5.19769
_cell_length_c       10.05
_cell_angle_alpha    90
_cell_angle_beta     90
_cell_angle_gamma    90

_symmetry_space_group_name_H-M    "P 1"
_symmetry_int_tables_number       1

loop_
  _symmetry_equiv_pos_as_xyz
  'x, y, z'

loop_
  _atom_site_label
  _atom_site_occupancy
  _atom_site_fract_x
  _atom_site_fract_y
  _atom_site_fract_z
  _atom_site_thermal_displace_type
  _atom_site_B_iso_or_equiv
  _atom_site_type_symbol
  Hf1      1.0000 0.13753  0.04363  0.11631  Biso   1.000  Hf
  Hf2      1.0000 0.13718  0.44664  0.39660  Biso   1.000  Hf
  Hf3      1.0000 0.35887  0.51252  0.11970  Biso   1.000  Hf
  Hf4      1.0000 0.37758  0.96747  0.38075  Biso   1.000  Hf
  O1       1.0000 0.02380  0.35166  0.22003  Biso   1.000  O 
  O2       1.0000 0.04019  0.12433  0.45358  Biso   1.000  O 
  O3       1.0000 0.44945  0.85357  0.19757  Biso   1.000  O 
  O4       1.0000 0.46708  0.62305  0.44339  Biso   1.000  O 
  O5       1.0000 0.26519  0.20537  0.25893  Biso   1.000  O 
  O6       1.0000 0.28178  0.25335  0.50644  Biso   1.000  O 
  O7       1.0000 0.23356  0.75985  0.49240  Biso   1.000  O 
  O8       1.0000 0.18259  0.67141  0.22104  Biso   1.000  O 
  Hf5      1.0000 0.14563  0.02448  0.63095  Biso   1.000  Hf
  Hf6      1.0000 0.14410  0.46349  0.88614  Biso   1.000  Hf
  Hf7      1.0000 0.37527  0.52370  0.62869  Biso   1.000  Hf
  Hf8      1.0000 0.37998  0.95621  0.86976  Biso   1.000  Hf
  O9       1.0000 0.04779  0.36705  0.69192  Biso   1.000  O 
  O10      1.0000 0.04688  0.12667  0.94546  Biso   1.000  O 
  O11      1.0000 0.46938  0.86280  0.68644  Biso   1.000  O 
  O12      1.0000 0.47645  0.61798  0.94524  Biso   1.000  O 
  O13      1.0000 0.27823  0.23003  0.75327  Biso   1.000  O 
  O14      1.0000 0.30157  0.23043  0.99109  Biso   1.000  O 
  O15      1.0000 0.24731  0.76217  0.99374  Biso   1.000  O 
  O16      1.0000 0.23584  0.72612  0.74799  Biso   1.000  O 
  Hf9      1.0000 0.63321  0.03214  0.12775  Biso   1.000  Hf
  Hf10     1.0000 0.64099  0.46757  0.37404  Biso   1.000  Hf
  Hf11     1.0000 0.87247  0.55235  0.11404  Biso   1.000  Hf
  Hf12     1.0000 0.86367  0.96890  0.37341  Biso   1.000  Hf
  O17      1.0000 0.52766  0.35347  0.19842  Biso   1.000  O 
  O18      1.0000 0.54610  0.12996  0.44826  Biso   1.000  O 
  O19      1.0000 0.95256  0.89003  0.19101  Biso   1.000  O 
  O20      1.0000 0.96785  0.63306  0.44690  Biso   1.000  O 
  O21      1.0000 0.76678  0.23439  0.25061  Biso   1.000  O 
  O22      1.0000 0.77765  0.26703  0.49997  Biso   1.000  O 
  O23      1.0000 0.73246  0.76372  0.49853  Biso   1.000  O 
  O24      1.0000 0.72573  0.73581  0.24728  Biso   1.000  O 
  Hf13     1.0000 0.64873  0.03159  0.62649  Biso   1.000  Hf
  Hf14     1.0000 0.64671  0.45885  0.87809  Biso   1.000  Hf
  Hf15     1.0000 0.87629  0.53355  0.62809  Biso   1.000  Hf
  Hf16     1.0000 0.86679  0.96638  0.87320  Biso   1.000  Hf
  O25      1.0000 0.54355  0.35928  0.69812  Biso   1.000  O 
  O26      1.0000 0.55691  0.11494  0.94257  Biso   1.000  O 
  O27      1.0000 0.96546  0.87287  0.69260  Biso   1.000  O 
  O28      1.0000 0.95943  0.62436  0.91953  Biso   1.000  O 
  O29      1.0000 0.78149  0.23695  0.74945  Biso   1.000  O 
  O30      1.0000 0.77014  0.26769  0.00222  Biso   1.000  O 
  O31      1.0000 0.72479  0.76856  0.00046  Biso   1.000  O 
  O32      1.0000 0.73189  0.73587  0.74871  Biso   1.000  O 
  C1       1.0000 0.10316  0.50055  0.13139  Biso   1.000  C 
