data_image0
_cell_length_a       10.0747
_cell_length_b       10.3591
_cell_length_c       5.20076
_cell_angle_alpha    90
_cell_angle_beta     80
_cell_angle_gamma    90

_symmetry_space_group_name_H-M    "P 1"
_symmetry_int_tables_number       1

loop_
  _symmetry_equiv_pos_as_xyz
  'x, y, z'

loop_
  _atom_site_label
  _atom_site_occupancy
  _atom_site_fract_x
  _atom_site_fract_y
  _atom_site_fract_z
  _atom_site_thermal_displace_type
  _atom_site_B_iso_or_equiv
  _atom_site_type_symbol
  Hf1      1.0000 0.11939  0.01385  0.31183  Biso   1.000  Hf
  Hf2      1.0000 0.13374  0.23614  0.78746  Biso   1.000  Hf
  Hf3      1.0000 0.36213  0.27286  0.26697  Biso   1.000  Hf
  Hf4      1.0000 0.33895  0.48176  0.71448  Biso   1.000  Hf
  O1       1.0000 0.04758  0.17036  0.15393  Biso   1.000  O 
  O2       1.0000 0.02361  0.07941  0.67584  Biso   1.000  O 
  O3       1.0000 0.44973  0.43445  0.34437  Biso   1.000  O 
  O4       1.0000 0.45565  0.34633  0.88208  Biso   1.000  O 
  O5       1.0000 0.26070  0.12161  0.46757  Biso   1.000  O 
  O6       1.0000 0.31915  0.16199  0.90800  Biso   1.000  O 
  O7       1.0000 0.21954  0.38136  0.02676  Biso   1.000  O 
  O8       1.0000 0.19566  0.38136  0.51888  Biso   1.000  O 
  Hf5      1.0000 0.12816  0.52300  0.28794  Biso   1.000  Hf
  Hf6      1.0000 0.11924  0.73168  0.79153  Biso   1.000  Hf
  Hf7      1.0000 0.35170  0.77119  0.20754  Biso   1.000  Hf
  Hf8      1.0000 0.35625  0.97848  0.69997  Biso   1.000  Hf
  O9       1.0000 0.02891  0.67813  0.16743  Biso   1.000  O 
  O10      1.0000 0.01999  0.58316  0.66720  Biso   1.000  O 
  O11      1.0000 0.45167  0.92392  0.33102  Biso   1.000  O 
  O12      1.0000 0.44049  0.82025  0.83257  Biso   1.000  O 
  O13      1.0000 0.26300  0.63112  0.48368  Biso   1.000  O 
  O14      1.0000 0.25485  0.62746  0.98570  Biso   1.000  O 
  O15      1.0000 0.22171  0.90070  0.01451  Biso   1.000  O 
  O16      1.0000 0.21058  0.86841  0.51907  Biso   1.000  O 
  Hf9      1.0000 0.63899  0.01740  0.28898  Biso   1.000  Hf
  Hf10     1.0000 0.62376  0.22443  0.78785  Biso   1.000  Hf
  Hf11     1.0000 0.85948  0.26964  0.20399  Biso   1.000  Hf
  Hf12     1.0000 0.84670  0.47673  0.71271  Biso   1.000  Hf
  O17      1.0000 0.53704  0.17076  0.17293  Biso   1.000  O 
  O18      1.0000 0.55223  0.04825  0.68222  Biso   1.000  O 
  O19      1.0000 0.95075  0.42338  0.33517  Biso   1.000  O 
  O20      1.0000 0.95266  0.32976  0.83821  Biso   1.000  O 
  O21      1.0000 0.77451  0.12944  0.47616  Biso   1.000  O 
  O22      1.0000 0.76470  0.12109  0.98323  Biso   1.000  O 
  O23      1.0000 0.72108  0.37628  0.02047  Biso   1.000  O 
  O24      1.0000 0.71095  0.36710  0.52023  Biso   1.000  O 
  Hf13     1.0000 0.63095  0.51996  0.29512  Biso   1.000  Hf
  Hf14     1.0000 0.62034  0.72614  0.79311  Biso   1.000  Hf
  Hf15     1.0000 0.84776  0.76621  0.20915  Biso   1.000  Hf
  Hf16     1.0000 0.83895  0.97905  0.71655  Biso   1.000  Hf
  O25      1.0000 0.52949  0.67457  0.17219  Biso   1.000  O 
  O26      1.0000 0.52327  0.57623  0.67219  Biso   1.000  O 
  O27      1.0000 0.94274  0.91963  0.34408  Biso   1.000  O 
  O28      1.0000 0.94425  0.83183  0.84239  Biso   1.000  O 
  O29      1.0000 0.76469  0.62530  0.48466  Biso   1.000  O 
  O30      1.0000 0.75792  0.61973  0.98561  Biso   1.000  O 
  O31      1.0000 0.71386  0.87659  0.01707  Biso   1.000  O 
  O32      1.0000 0.71047  0.86224  0.51568  Biso   1.000  O 
  C1       1.0000 0.40030  0.25612  0.72029  Biso   1.000  C 
