data_image0
_cell_length_a       10.1687
_cell_length_b       5.1087
_cell_length_c       10.4701
_cell_angle_alpha    90
_cell_angle_beta     80
_cell_angle_gamma    90

_symmetry_space_group_name_H-M    "P 1"
_symmetry_int_tables_number       1

loop_
  _symmetry_equiv_pos_as_xyz
  'x, y, z'

loop_
  _atom_site_label
  _atom_site_occupancy
  _atom_site_fract_x
  _atom_site_fract_y
  _atom_site_fract_z
  _atom_site_thermal_displace_type
  _atom_site_B_iso_or_equiv
  _atom_site_type_symbol
  C1       1.0000 0.01730  0.12466  0.17975  Biso   1.000  C 
  Hf1      1.0000 0.15136  0.46444  0.39006  Biso   1.000  Hf
  Hf2      1.0000 0.35235  0.54282  0.10511  Biso   1.000  Hf
  Hf3      1.0000 0.35657  0.95938  0.34662  Biso   1.000  Hf
  O1       1.0000 0.03285  0.30462  0.09371  Biso   1.000  O 
  O2       1.0000 0.02761  0.18152  0.29826  Biso   1.000  O 
  O3       1.0000 0.47017  0.82785  0.17182  Biso   1.000  O 
  O4       1.0000 0.46628  0.66453  0.42220  Biso   1.000  O 
  O5       1.0000 0.28623  0.27078  0.25076  Biso   1.000  O 
  O6       1.0000 0.27492  0.23937  0.49369  Biso   1.000  O 
  O7       1.0000 0.22465  0.74431  0.00058  Biso   1.000  O 
  O8       1.0000 0.22784  0.73901  0.26156  Biso   1.000  O 
  Hf4      1.0000 0.13824  0.04191  0.64493  Biso   1.000  Hf
  Hf5      1.0000 0.14959  0.46075  0.89398  Biso   1.000  Hf
  Hf6      1.0000 0.36249  0.54294  0.60328  Biso   1.000  Hf
  Hf7      1.0000 0.35484  0.95729  0.86175  Biso   1.000  Hf
  O9       1.0000 0.02768  0.30105  0.56089  Biso   1.000  O 
  O10      1.0000 0.03173  0.17296  0.82557  Biso   1.000  O 
  O11      1.0000 0.46542  0.82882  0.67549  Biso   1.000  O 
  O12      1.0000 0.47036  0.68284  0.92572  Biso   1.000  O 
  O13      1.0000 0.27423  0.25427  0.73719  Biso   1.000  O 
  O14      1.0000 0.28331  0.26046  0.98030  Biso   1.000  O 
  O15      1.0000 0.22269  0.75228  0.50823  Biso   1.000  O 
  O16      1.0000 0.22358  0.73934  0.75618  Biso   1.000  O 
  Hf8      1.0000 0.63223  0.04649  0.14670  Biso   1.000  Hf
  Hf9      1.0000 0.63311  0.45089  0.39739  Biso   1.000  Hf
  Hf10     1.0000 0.85237  0.54160  0.09808  Biso   1.000  Hf
  Hf11     1.0000 0.84877  0.94638  0.36605  Biso   1.000  Hf
  O17      1.0000 0.53865  0.34016  0.07922  Biso   1.000  O 
  O18      1.0000 0.53799  0.15351  0.33080  Biso   1.000  O 
  O19      1.0000 0.97054  0.89900  0.16450  Biso   1.000  O 
  O20      1.0000 0.96728  0.67192  0.41743  Biso   1.000  O 
  O21      1.0000 0.77676  0.25693  0.24092  Biso   1.000  O 
  O22      1.0000 0.77345  0.23485  0.49223  Biso   1.000  O 
  O23      1.0000 0.72937  0.76526  0.01014  Biso   1.000  O 
  O24      1.0000 0.73391  0.73905  0.25915  Biso   1.000  O 
  Hf12     1.0000 0.63344  0.03712  0.65245  Biso   1.000  Hf
  Hf13     1.0000 0.63127  0.45943  0.89698  Biso   1.000  Hf
  Hf14     1.0000 0.86343  0.53218  0.60434  Biso   1.000  Hf
  Hf15     1.0000 0.86597  0.95453  0.85346  Biso   1.000  Hf
  O25      1.0000 0.53469  0.33045  0.57937  Biso   1.000  O 
  O26      1.0000 0.53306  0.16712  0.82971  Biso   1.000  O 
  O27      1.0000 0.97062  0.81018  0.67689  Biso   1.000  O 
  O28      1.0000 0.96715  0.66225  0.93425  Biso   1.000  O 
  O29      1.0000 0.77715  0.25098  0.74107  Biso   1.000  O 
  O30      1.0000 0.77601  0.25137  0.99279  Biso   1.000  O 
  O31      1.0000 0.72287  0.74707  0.51349  Biso   1.000  O 
  O32      1.0000 0.72721  0.73873  0.76123  Biso   1.000  O 
