data_image0
_cell_length_a       5.09298
_cell_length_b       10.1852
_cell_length_c       10.4848
_cell_angle_alpha    90
_cell_angle_beta     80
_cell_angle_gamma    90

_symmetry_space_group_name_H-M    "P 1"
_symmetry_int_tables_number       1

loop_
  _symmetry_equiv_pos_as_xyz
  'x, y, z'

loop_
  _atom_site_label
  _atom_site_occupancy
  _atom_site_fract_x
  _atom_site_fract_y
  _atom_site_fract_z
  _atom_site_thermal_displace_type
  _atom_site_B_iso_or_equiv
  _atom_site_type_symbol
  C1       1.0000 0.04455  0.06027  0.17581  Biso   1.000  C 
  Hf1      1.0000 0.29347  0.22954  0.39454  Biso   1.000  Hf
  Hf2      1.0000 0.69594  0.26896  0.10637  Biso   1.000  Hf
  Hf3      1.0000 0.72687  0.47571  0.35069  Biso   1.000  Hf
  O1       1.0000 0.06943  0.14872  0.08875  Biso   1.000  O 
  O2       1.0000 0.07693  0.08826  0.29309  Biso   1.000  O 
  O3       1.0000 0.92947  0.41051  0.17243  Biso   1.000  O 
  O4       1.0000 0.93713  0.33064  0.42118  Biso   1.000  O 
  O5       1.0000 0.58413  0.13891  0.25628  Biso   1.000  O 
  O6       1.0000 0.54545  0.11618  0.49611  Biso   1.000  O 
  O7       1.0000 0.44467  0.37906  0.00998  Biso   1.000  O 
  O8       1.0000 0.43590  0.37319  0.25794  Biso   1.000  O 
  Hf4      1.0000 0.27213  0.01625  0.64913  Biso   1.000  Hf
  Hf5      1.0000 0.29160  0.22411  0.89303  Biso   1.000  Hf
  Hf6      1.0000 0.73200  0.26625  0.60206  Biso   1.000  Hf
  Hf7      1.0000 0.73730  0.47252  0.85641  Biso   1.000  Hf
  O9       1.0000 0.05834  0.14784  0.56029  Biso   1.000  O 
  O10      1.0000 0.06775  0.08634  0.82517  Biso   1.000  O 
  O11      1.0000 0.94906  0.40417  0.67641  Biso   1.000  O 
  O12      1.0000 0.94222  0.33052  0.93288  Biso   1.000  O 
  O13      1.0000 0.55258  0.12424  0.73710  Biso   1.000  O 
  O14      1.0000 0.57076  0.13080  0.97967  Biso   1.000  O 
  O15      1.0000 0.45249  0.37233  0.50844  Biso   1.000  O 
  O16      1.0000 0.46043  0.36646  0.75990  Biso   1.000  O 
  Hf8      1.0000 0.27025  0.52218  0.14468  Biso   1.000  Hf
  Hf9      1.0000 0.28676  0.72464  0.39393  Biso   1.000  Hf
  Hf10     1.0000 0.71674  0.77181  0.09814  Biso   1.000  Hf
  Hf11     1.0000 0.70608  0.97486  0.36265  Biso   1.000  Hf
  O17      1.0000 0.07318  0.67346  0.08102  Biso   1.000  O 
  O18      1.0000 0.06382  0.58448  0.32655  Biso   1.000  O 
  O19      1.0000 0.95199  0.94701  0.16370  Biso   1.000  O 
  O20      1.0000 0.95086  0.84064  0.42200  Biso   1.000  O 
  O21      1.0000 0.54951  0.62232  0.23747  Biso   1.000  O 
  O22      1.0000 0.55821  0.61769  0.48930  Biso   1.000  O 
  O23      1.0000 0.47096  0.86919  0.99995  Biso   1.000  O 
  O24      1.0000 0.49806  0.85968  0.26520  Biso   1.000  O 
  Hf12     1.0000 0.28510  0.51924  0.64819  Biso   1.000  Hf
  Hf13     1.0000 0.28767  0.73160  0.89791  Biso   1.000  Hf
  Hf14     1.0000 0.73223  0.76781  0.60462  Biso   1.000  Hf
  Hf15     1.0000 0.72180  0.97687  0.85838  Biso   1.000  Hf
  O25      1.0000 0.07355  0.65943  0.57573  Biso   1.000  O 
  O26      1.0000 0.07648  0.58079  0.82811  Biso   1.000  O 
  O27      1.0000 0.93822  0.90827  0.67736  Biso   1.000  O 
  O28      1.0000 0.95082  0.83801  0.92561  Biso   1.000  O 
  O29      1.0000 0.56338  0.62422  0.74027  Biso   1.000  O 
  O30      1.0000 0.55967  0.61665  0.99235  Biso   1.000  O 
  O31      1.0000 0.45244  0.87327  0.51225  Biso   1.000  O 
  O32      1.0000 0.45414  0.86867  0.75680  Biso   1.000  O 
