data_image0
_cell_length_a       10.1402
_cell_length_b       10.2406
_cell_length_c       10.4693
_cell_angle_alpha    90
_cell_angle_beta     80
_cell_angle_gamma    90

_symmetry_space_group_name_H-M    "P 1"
_symmetry_int_tables_number       1

loop_
  _symmetry_equiv_pos_as_xyz
  'x, y, z'

loop_
  _atom_site_label
  _atom_site_occupancy
  _atom_site_fract_x
  _atom_site_fract_y
  _atom_site_fract_z
  _atom_site_thermal_displace_type
  _atom_site_B_iso_or_equiv
  _atom_site_type_symbol
  C1       1.0000 0.01758  0.06073  0.17630  Biso   1.000  C 
  Hf1      1.0000 0.14654  0.23002  0.39423  Biso   1.000  Hf
  Hf2      1.0000 0.35595  0.26297  0.10547  Biso   1.000  Hf
  Hf3      1.0000 0.35928  0.47676  0.35181  Biso   1.000  Hf
  O1       1.0000 0.03219  0.14849  0.08907  Biso   1.000  O 
  O2       1.0000 0.02903  0.08991  0.29479  Biso   1.000  O 
  O3       1.0000 0.46313  0.41469  0.17130  Biso   1.000  O 
  O4       1.0000 0.46297  0.33018  0.42150  Biso   1.000  O 
  O5       1.0000 0.28715  0.13796  0.25435  Biso   1.000  O 
  O6       1.0000 0.27443  0.11887  0.49494  Biso   1.000  O 
  O7       1.0000 0.22172  0.37682  0.00984  Biso   1.000  O 
  O8       1.0000 0.21881  0.37342  0.25818  Biso   1.000  O 
  Hf4      1.0000 0.13682  0.01789  0.64485  Biso   1.000  Hf
  Hf5      1.0000 0.14354  0.22460  0.89351  Biso   1.000  Hf
  Hf6      1.0000 0.36071  0.26887  0.60467  Biso   1.000  Hf
  Hf7      1.0000 0.35966  0.47617  0.85632  Biso   1.000  Hf
  O9       1.0000 0.02773  0.15102  0.56131  Biso   1.000  O 
  O10      1.0000 0.03075  0.08469  0.82625  Biso   1.000  O 
  O11      1.0000 0.46409  0.41600  0.67162  Biso   1.000  O 
  O12      1.0000 0.46447  0.33378  0.92290  Biso   1.000  O 
  O13      1.0000 0.27271  0.12594  0.73809  Biso   1.000  O 
  O14      1.0000 0.28135  0.12992  0.97979  Biso   1.000  O 
  O15      1.0000 0.22096  0.37509  0.50835  Biso   1.000  O 
  O16      1.0000 0.22341  0.36720  0.76001  Biso   1.000  O 
  Hf8      1.0000 0.14007  0.52095  0.14464  Biso   1.000  Hf
  Hf9      1.0000 0.14205  0.72755  0.39351  Biso   1.000  Hf
  Hf10     1.0000 0.35712  0.77746  0.10459  Biso   1.000  Hf
  Hf11     1.0000 0.35897  0.97810  0.35051  Biso   1.000  Hf
  O17      1.0000 0.03741  0.67480  0.08374  Biso   1.000  O 
  O18      1.0000 0.03288  0.58317  0.32803  Biso   1.000  O 
  O19      1.0000 0.47088  0.91709  0.17131  Biso   1.000  O 
  O20      1.0000 0.46791  0.83206  0.42268  Biso   1.000  O 
  O21      1.0000 0.27627  0.62426  0.23867  Biso   1.000  O 
  O22      1.0000 0.27573  0.61862  0.49008  Biso   1.000  O 
  O23      1.0000 0.22908  0.86880  0.99983  Biso   1.000  O 
  O24      1.0000 0.23417  0.86183  0.26543  Biso   1.000  O 
  Hf12     1.0000 0.13847  0.52122  0.64741  Biso   1.000  Hf
  Hf13     1.0000 0.14081  0.73170  0.89747  Biso   1.000  Hf
  Hf14     1.0000 0.36146  0.77095  0.60369  Biso   1.000  Hf
  Hf15     1.0000 0.35516  0.97671  0.85974  Biso   1.000  Hf
  O25      1.0000 0.03319  0.66383  0.57898  Biso   1.000  O 
  O26      1.0000 0.03464  0.57849  0.83082  Biso   1.000  O 
  O27      1.0000 0.46370  0.91452  0.67477  Biso   1.000  O 
  O28      1.0000 0.46999  0.83700  0.92429  Biso   1.000  O 
  O29      1.0000 0.27562  0.62757  0.74040  Biso   1.000  O 
  O30      1.0000 0.27264  0.61569  0.99177  Biso   1.000  O 
  O31      1.0000 0.22361  0.87652  0.51033  Biso   1.000  O 
  O32      1.0000 0.22103  0.87020  0.75704  Biso   1.000  O 
  Hf16     1.0000 0.63785  0.02226  0.14565  Biso   1.000  Hf
  Hf17     1.0000 0.63555  0.22749  0.39668  Biso   1.000  Hf
  Hf18     1.0000 0.85163  0.27689  0.10528  Biso   1.000  Hf
  Hf19     1.0000 0.86225  0.47689  0.35381  Biso   1.000  Hf
  O33      1.0000 0.53793  0.16906  0.07966  Biso   1.000  O 
  O34      1.0000 0.54008  0.07684  0.33118  Biso   1.000  O 
  O35      1.0000 0.96476  0.41451  0.17099  Biso   1.000  O 
  O36      1.0000 0.96560  0.32928  0.41920  Biso   1.000  O 
  O37      1.0000 0.77829  0.12942  0.24145  Biso   1.000  O 
  O38      1.0000 0.77268  0.11744  0.49192  Biso   1.000  O 
  O39      1.0000 0.72488  0.38185  0.00954  Biso   1.000  O 
  O40      1.0000 0.72066  0.37074  0.25996  Biso   1.000  O 
  Hf20     1.0000 0.63292  0.01898  0.65094  Biso   1.000  Hf
  Hf21     1.0000 0.63391  0.22700  0.89590  Biso   1.000  Hf
  Hf22     1.0000 0.86151  0.26796  0.60236  Biso   1.000  Hf
  Hf23     1.0000 0.86354  0.47404  0.85476  Biso   1.000  Hf
  O41      1.0000 0.53403  0.16698  0.58074  Biso   1.000  O 
  O42      1.0000 0.53254  0.08072  0.83067  Biso   1.000  O 
  O43      1.0000 0.96904  0.40756  0.67479  Biso   1.000  O 
  O44      1.0000 0.96417  0.32697  0.93051  Biso   1.000  O 
  O45      1.0000 0.77444  0.12667  0.74003  Biso   1.000  O 
  O46      1.0000 0.77376  0.12113  0.99133  Biso   1.000  O 
  O47      1.0000 0.72470  0.37581  0.51046  Biso   1.000  O 
  O48      1.0000 0.72439  0.36902  0.76029  Biso   1.000  O 
  Hf24     1.0000 0.63268  0.52214  0.14627  Biso   1.000  Hf
  Hf25     1.0000 0.63632  0.72447  0.39698  Biso   1.000  Hf
  Hf26     1.0000 0.86103  0.76476  0.09870  Biso   1.000  Hf
  Hf27     1.0000 0.84885  0.97352  0.36567  Biso   1.000  Hf
  O49      1.0000 0.53551  0.66853  0.07840  Biso   1.000  O 
  O50      1.0000 0.53269  0.58019  0.32941  Biso   1.000  O 
  O51      1.0000 0.97060  0.94769  0.16314  Biso   1.000  O 
  O52      1.0000 0.96698  0.83757  0.41967  Biso   1.000  O 
  O53      1.0000 0.77435  0.62640  0.23964  Biso   1.000  O 
  O54      1.0000 0.77638  0.61913  0.49062  Biso   1.000  O 
  O55      1.0000 0.72811  0.88029  0.01045  Biso   1.000  O 
  O56      1.0000 0.73599  0.86839  0.25901  Biso   1.000  O 
  Hf28     1.0000 0.63820  0.51868  0.64757  Biso   1.000  Hf
  Hf29     1.0000 0.63457  0.72778  0.89773  Biso   1.000  Hf
  Hf30     1.0000 0.86098  0.76749  0.60635  Biso   1.000  Hf
  Hf31     1.0000 0.86051  0.97757  0.85416  Biso   1.000  Hf
  O57      1.0000 0.53486  0.66420  0.57855  Biso   1.000  O 
  O58      1.0000 0.53311  0.58189  0.82867  Biso   1.000  O 
  O59      1.0000 0.96432  0.91288  0.67295  Biso   1.000  O 
  O60      1.0000 0.96285  0.83045  0.92241  Biso   1.000  O 
  O61      1.0000 0.77710  0.62511  0.74176  Biso   1.000  O 
  O62      1.0000 0.77619  0.62080  0.99258  Biso   1.000  O 
  O63      1.0000 0.72093  0.87490  0.51260  Biso   1.000  O 
  O64      1.0000 0.72365  0.86848  0.76062  Biso   1.000  O 
