data_image0
_cell_length_a       10.0083
_cell_length_b       10.1416
_cell_length_c       10.009
_cell_angle_alpha    90
_cell_angle_beta     90
_cell_angle_gamma    90

_symmetry_space_group_name_H-M    "P 1"
_symmetry_int_tables_number       1

loop_
  _symmetry_equiv_pos_as_xyz
  'x, y, z'

loop_
  _atom_site_label
  _atom_site_occupancy
  _atom_site_fract_x
  _atom_site_fract_y
  _atom_site_fract_z
  _atom_site_thermal_displace_type
  _atom_site_B_iso_or_equiv
  _atom_site_type_symbol
  C1       1.0000 0.11710  0.98167  0.14037  Biso   1.000  C 
  Hf1      1.0000 0.12861  0.23671  0.36688  Biso   1.000  Hf
  Hf2      1.0000 0.36307  0.24253  0.12877  Biso   1.000  Hf
  Hf3      1.0000 0.38146  0.99326  0.37492  Biso   1.000  Hf
  O1       1.0000 0.99171  0.12735  0.97863  Biso   1.000  O 
  O2       1.0000 0.06269  0.05700  0.22991  Biso   1.000  O 
  O3       1.0000 0.00209  0.32714  0.23673  Biso   1.000  O 
  O4       1.0000 0.00001  0.38129  0.99313  Biso   1.000  O 
  O5       1.0000 0.29273  0.15438  0.29191  Biso   1.000  O 
  O6       1.0000 0.22905  0.06125  0.06055  Biso   1.000  O 
  O7       1.0000 0.22870  0.33296  0.00639  Biso   1.000  O 
  O8       1.0000 0.24558  0.39118  0.25129  Biso   1.000  O 
  Hf4      1.0000 0.11176  0.98323  0.63877  Biso   1.000  Hf
  Hf5      1.0000 0.11540  0.24013  0.86575  Biso   1.000  Hf
  Hf6      1.0000 0.37297  0.22876  0.62791  Biso   1.000  Hf
  Hf7      1.0000 0.36226  0.97186  0.88341  Biso   1.000  Hf
  O9       1.0000 0.99161  0.13592  0.47314  Biso   1.000  O 
  O10      1.0000 0.00628  0.10212  0.72932  Biso   1.000  O 
  O11      1.0000 0.99306  0.34841  0.74358  Biso   1.000  O 
  O12      1.0000 0.00080  0.38424  0.49146  Biso   1.000  O 
  O13      1.0000 0.26100  0.12111  0.78175  Biso   1.000  O 
  O14      1.0000 0.25334  0.08932  0.52129  Biso   1.000  O 
  O15      1.0000 0.25102  0.33956  0.50158  Biso   1.000  O 
  O16      1.0000 0.24397  0.37472  0.75017  Biso   1.000  O 
  Hf8      1.0000 0.11770  0.48545  0.12815  Biso   1.000  Hf
  Hf9      1.0000 0.11154  0.73736  0.37199  Biso   1.000  Hf
  Hf10     1.0000 0.35497  0.74352  0.12439  Biso   1.000  Hf
  Hf11     1.0000 0.37565  0.48301  0.38184  Biso   1.000  Hf
  O17      1.0000 0.98789  0.63411  0.98776  Biso   1.000  O 
  O18      1.0000 0.98336  0.58564  0.23902  Biso   1.000  O 
  O19      1.0000 0.95223  0.82235  0.29081  Biso   1.000  O 
  O20      1.0000 0.03885  0.90005  0.06151  Biso   1.000  O 
  O21      1.0000 0.23072  0.64050  0.24313  Biso   1.000  O 
  O22      1.0000 0.24055  0.56746  0.99409  Biso   1.000  O 
  O23      1.0000 0.28559  0.80615  0.96841  Biso   1.000  O 
  O24      1.0000 0.20712  0.90087  0.22677  Biso   1.000  O 
  Hf12     1.0000 0.12356  0.48528  0.62260  Biso   1.000  Hf
  Hf13     1.0000 0.12572  0.72932  0.87739  Biso   1.000  Hf
  Hf14     1.0000 0.36452  0.73767  0.62064  Biso   1.000  Hf
  Hf15     1.0000 0.37904  0.48089  0.87135  Biso   1.000  Hf
  O25      1.0000 0.98956  0.63288  0.49544  Biso   1.000  O 
  O26      1.0000 0.00061  0.59755  0.74174  Biso   1.000  O 
  O27      1.0000 0.98355  0.84939  0.78211  Biso   1.000  O 
  O28      1.0000 0.98667  0.88543  0.52258  Biso   1.000  O 
  O29      1.0000 0.25150  0.62338  0.74793  Biso   1.000  O 
  O30      1.0000 0.24170  0.59205  0.49532  Biso   1.000  O 
  O31      1.0000 0.24552  0.84150  0.48227  Biso   1.000  O 
  O32      1.0000 0.23697  0.87119  0.73955  Biso   1.000  O 
  Hf16     1.0000 0.61516  0.99532  0.12688  Biso   1.000  Hf
  Hf17     1.0000 0.62855  0.23483  0.36814  Biso   1.000  Hf
  Hf18     1.0000 0.86121  0.25850  0.10731  Biso   1.000  Hf
  Hf19     1.0000 0.86466  0.98413  0.37298  Biso   1.000  Hf
  O33      1.0000 0.48591  0.12358  0.98661  Biso   1.000  O 
  O34      1.0000 0.52285  0.09625  0.24644  Biso   1.000  O 
  O35      1.0000 0.49707  0.34575  0.25198  Biso   1.000  O 
  O36      1.0000 0.48157  0.39608  0.00314  Biso   1.000  O 
  O37      1.0000 0.78267  0.13400  0.25138  Biso   1.000  O 
  O38      1.0000 0.74333  0.09559  0.99672  Biso   1.000  O 
  O39      1.0000 0.75122  0.34248  0.98946  Biso   1.000  O 
  O40      1.0000 0.74464  0.38705  0.24125  Biso   1.000  O 
  Hf20     1.0000 0.63465  0.98644  0.62377  Biso   1.000  Hf
  Hf21     1.0000 0.62043  0.23210  0.87154  Biso   1.000  Hf
  Hf22     1.0000 0.87571  0.23848  0.61186  Biso   1.000  Hf
  Hf23     1.0000 0.88050  0.99581  0.86596  Biso   1.000  Hf
  O41      1.0000 0.49798  0.13265  0.49280  Biso   1.000  O 
  O42      1.0000 0.50842  0.08850  0.74312  Biso   1.000  O 
  O43      1.0000 0.49389  0.33960  0.75284  Biso   1.000  O 
  O44      1.0000 0.50093  0.37814  0.50310  Biso   1.000  O 
  O45      1.0000 0.76131  0.13101  0.75218  Biso   1.000  O 
  O46      1.0000 0.74948  0.09445  0.49842  Biso   1.000  O 
  O47      1.0000 0.75176  0.34607  0.49024  Biso   1.000  O 
  O48      1.0000 0.74524  0.37945  0.74259  Biso   1.000  O 
  Hf24     1.0000 0.61208  0.49743  0.12613  Biso   1.000  Hf
  Hf25     1.0000 0.60782  0.74368  0.37342  Biso   1.000  Hf
  Hf26     1.0000 0.86078  0.74760  0.13019  Biso   1.000  Hf
  Hf27     1.0000 0.86481  0.49321  0.37732  Biso   1.000  Hf
  O49      1.0000 0.49578  0.62070  0.99759  Biso   1.000  O 
  O50      1.0000 0.48423  0.59814  0.24903  Biso   1.000  O 
  O51      1.0000 0.46504  0.84709  0.25906  Biso   1.000  O 
  O52      1.0000 0.49945  0.89810  0.00090  Biso   1.000  O 
  O53      1.0000 0.73609  0.63540  0.25544  Biso   1.000  O 
  O54      1.0000 0.72620  0.61543  0.00407  Biso   1.000  O 
  O55      1.0000 0.77664  0.84425  0.99246  Biso   1.000  O 
  O56      1.0000 0.72123  0.88319  0.24750  Biso   1.000  O 
  Hf28     1.0000 0.62271  0.48616  0.62509  Biso   1.000  Hf
  Hf29     1.0000 0.62132  0.73435  0.87713  Biso   1.000  Hf
  Hf30     1.0000 0.86858  0.74049  0.62588  Biso   1.000  Hf
  Hf31     1.0000 0.87180  0.49203  0.87006  Biso   1.000  Hf
  O57      1.0000 0.49165  0.62939  0.49968  Biso   1.000  O 
  O58      1.0000 0.50336  0.59037  0.75134  Biso   1.000  O 
  O59      1.0000 0.48356  0.83723  0.75694  Biso   1.000  O 
  O60      1.0000 0.48888  0.88136  0.50311  Biso   1.000  O 
  O61      1.0000 0.75247  0.63162  0.75624  Biso   1.000  O 
  O62      1.0000 0.74422  0.59642  0.50628  Biso   1.000  O 
  O63      1.0000 0.74357  0.84365  0.49280  Biso   1.000  O 
  O64      1.0000 0.73249  0.87922  0.74290  Biso   1.000  O 
