data_image0
_cell_length_a       10.1695
_cell_length_b       5.1619
_cell_length_c       10.3931
_cell_angle_alpha    90
_cell_angle_beta     80
_cell_angle_gamma    90

_symmetry_space_group_name_H-M    "P 1"
_symmetry_int_tables_number       1

loop_
  _symmetry_equiv_pos_as_xyz
  'x, y, z'

loop_
  _atom_site_label
  _atom_site_occupancy
  _atom_site_fract_x
  _atom_site_fract_y
  _atom_site_fract_z
  _atom_site_thermal_displace_type
  _atom_site_B_iso_or_equiv
  _atom_site_type_symbol
  Hf1      1.0000 0.13417  0.03393  0.14572  Biso   1.000  Hf
  Hf2      1.0000 0.12959  0.46753  0.39769  Biso   1.000  Hf
  Hf3      1.0000 0.36116  0.51923  0.11127  Biso   1.000  Hf
  Hf4      1.0000 0.35110  0.98756  0.36157  Biso   1.000  Hf
  O1       1.0000 0.03511  0.34154  0.08395  Biso   1.000  O 
  O2       1.0000 0.03042  0.16688  0.33461  Biso   1.000  O 
  O3       1.0000 0.48075  0.80578  0.18903  Biso   1.000  O 
  O4       1.0000 0.44856  0.65110  0.40858  Biso   1.000  O 
  O5       1.0000 0.26461  0.24122  0.24305  Biso   1.000  O 
  O6       1.0000 0.26627  0.26005  0.49474  Biso   1.000  O 
  O7       1.0000 0.22452  0.75110  0.01207  Biso   1.000  O 
  O8       1.0000 0.22371  0.74315  0.26263  Biso   1.000  O 
  Hf5      1.0000 0.12410  0.05365  0.65199  Biso   1.000  Hf
  Hf6      1.0000 0.12657  0.46910  0.90147  Biso   1.000  Hf
  Hf7      1.0000 0.34948  0.54823  0.61059  Biso   1.000  Hf
  Hf8      1.0000 0.35325  0.96462  0.85878  Biso   1.000  Hf
  O9       1.0000 0.02727  0.35382  0.58544  Biso   1.000  O 
  O10      1.0000 0.02240  0.17052  0.83627  Biso   1.000  O 
  O11      1.0000 0.45425  0.84862  0.66791  Biso   1.000  O 
  O12      1.0000 0.45772  0.68491  0.93150  Biso   1.000  O 
  O13      1.0000 0.26307  0.27067  0.74418  Biso   1.000  O 
  O14      1.0000 0.26206  0.24692  0.99386  Biso   1.000  O 
  O15      1.0000 0.21865  0.77588  0.51386  Biso   1.000  O 
  O16      1.0000 0.21526  0.75325  0.76489  Biso   1.000  O 
  Hf9      1.0000 0.64425  0.05147  0.15110  Biso   1.000  Hf
  Hf10     1.0000 0.63302  0.46674  0.39155  Biso   1.000  Hf
  Hf11     1.0000 0.86220  0.54866  0.10667  Biso   1.000  Hf
  Hf12     1.0000 0.85903  0.96710  0.35983  Biso   1.000  Hf
  O17      1.0000 0.52618  0.28419  0.06619  Biso   1.000  O 
  O18      1.0000 0.53576  0.12658  0.34656  Biso   1.000  O 
  O19      1.0000 0.96428  0.84278  0.17184  Biso   1.000  O 
  O20      1.0000 0.95814  0.66881  0.42412  Biso   1.000  O 
  O21      1.0000 0.77512  0.26552  0.24246  Biso   1.000  O 
  O22      1.0000 0.77012  0.24853  0.49440  Biso   1.000  O 
  O23      1.0000 0.72359  0.76162  0.01335  Biso   1.000  O 
  O24      1.0000 0.73234  0.75359  0.26232  Biso   1.000  O 
  Hf13     1.0000 0.62604  0.05591  0.64426  Biso   1.000  Hf
  Hf14     1.0000 0.62580  0.46275  0.89837  Biso   1.000  Hf
  Hf15     1.0000 0.84983  0.55181  0.60828  Biso   1.000  Hf
  Hf16     1.0000 0.84996  0.96879  0.85791  Biso   1.000  Hf
  O25      1.0000 0.52582  0.35694  0.57959  Biso   1.000  O 
  O26      1.0000 0.52013  0.18276  0.82385  Biso   1.000  O 
  O27      1.0000 0.95423  0.85076  0.67301  Biso   1.000  O 
  O28      1.0000 0.95287  0.67387  0.92284  Biso   1.000  O 
  O29      1.0000 0.76318  0.26692  0.74386  Biso   1.000  O 
  O30      1.0000 0.76452  0.26060  0.99461  Biso   1.000  O 
  O31      1.0000 0.71580  0.76465  0.51151  Biso   1.000  O 
  O32      1.0000 0.71325  0.75285  0.76273  Biso   1.000  O 
  C1       1.0000 0.48329  0.56995  0.26556  Biso   1.000  C 
