data_image0
_cell_length_a       9.96658
_cell_length_b       10.3588
_cell_length_c       10.0034
_cell_angle_alpha    90
_cell_angle_beta     90
_cell_angle_gamma    90

_symmetry_space_group_name_H-M    "P 1"
_symmetry_int_tables_number       1

loop_
  _symmetry_equiv_pos_as_xyz
  'x, y, z'

loop_
  _atom_site_label
  _atom_site_occupancy
  _atom_site_fract_x
  _atom_site_fract_y
  _atom_site_fract_z
  _atom_site_thermal_displace_type
  _atom_site_B_iso_or_equiv
  _atom_site_type_symbol
  C1       1.0000 0.01818  0.05656  0.11316  Biso   1.000  C 
  Hf1      1.0000 0.14608  0.23100  0.37882  Biso   1.000  Hf
  Hf2      1.0000 0.36403  0.26152  0.12693  Biso   1.000  Hf
  Hf3      1.0000 0.36825  0.48413  0.37566  Biso   1.000  Hf
  O1       1.0000 0.03599  0.16506  0.17606  Biso   1.000  O 
  O2       1.0000 0.03790  0.06983  0.44755  Biso   1.000  O 
  O3       1.0000 0.46210  0.43394  0.19464  Biso   1.000  O 
  O4       1.0000 0.46622  0.31703  0.44654  Biso   1.000  O 
  O5       1.0000 0.28672  0.13229  0.26172  Biso   1.000  O 
  O6       1.0000 0.27111  0.13260  0.50740  Biso   1.000  O 
  O7       1.0000 0.23188  0.38116  0.50091  Biso   1.000  O 
  O8       1.0000 0.22482  0.36828  0.24928  Biso   1.000  O 
  Hf4      1.0000 0.13837  0.01657  0.62842  Biso   1.000  Hf
  Hf5      1.0000 0.14441  0.23788  0.88185  Biso   1.000  Hf
  Hf6      1.0000 0.36860  0.26786  0.62875  Biso   1.000  Hf
  Hf7      1.0000 0.37086  0.48557  0.87743  Biso   1.000  Hf
  O9       1.0000 0.03030  0.17538  0.71530  Biso   1.000  O 
  O10      1.0000 0.03038  0.06202  0.98464  Biso   1.000  O 
  O11      1.0000 0.46623  0.43647  0.69325  Biso   1.000  O 
  O12      1.0000 0.46923  0.31953  0.94137  Biso   1.000  O 
  O13      1.0000 0.27037  0.11886  0.75250  Biso   1.000  O 
  O14      1.0000 0.27923  0.13934  0.99510  Biso   1.000  O 
  O15      1.0000 0.23022  0.38282  0.00182  Biso   1.000  O 
  O16      1.0000 0.23193  0.36877  0.75268  Biso   1.000  O 
  Hf8      1.0000 0.13543  0.51638  0.12729  Biso   1.000  Hf
  Hf9      1.0000 0.13958  0.73585  0.37657  Biso   1.000  Hf
  Hf10     1.0000 0.36203  0.76846  0.12503  Biso   1.000  Hf
  Hf11     1.0000 0.36251  0.98345  0.36956  Biso   1.000  Hf
  O17      1.0000 0.03747  0.68935  0.19297  Biso   1.000  O 
  O18      1.0000 0.03827  0.56640  0.44522  Biso   1.000  O 
  O19      1.0000 0.47215  0.93286  0.19697  Biso   1.000  O 
  O20      1.0000 0.47186  0.81906  0.45156  Biso   1.000  O 
  O21      1.0000 0.26967  0.61391  0.25032  Biso   1.000  O 
  O22      1.0000 0.27522  0.63270  0.50063  Biso   1.000  O 
  O23      1.0000 0.23126  0.88327  0.50306  Biso   1.000  O 
  O24      1.0000 0.24492  0.85730  0.26002  Biso   1.000  O 
  Hf12     1.0000 0.13797  0.51975  0.62602  Biso   1.000  Hf
  Hf13     1.0000 0.14137  0.73689  0.88025  Biso   1.000  Hf
  Hf14     1.0000 0.36916  0.77005  0.62729  Biso   1.000  Hf
  Hf15     1.0000 0.36165  0.98485  0.88557  Biso   1.000  Hf
  O25      1.0000 0.03972  0.68500  0.69235  Biso   1.000  O 
  O26      1.0000 0.03770  0.56912  0.94721  Biso   1.000  O 
  O27      1.0000 0.46422  0.93561  0.70007  Biso   1.000  O 
  O28      1.0000 0.47241  0.81988  0.94671  Biso   1.000  O 
  O29      1.0000 0.27382  0.62050  0.75150  Biso   1.000  O 
  O30      1.0000 0.27247  0.62668  0.00187  Biso   1.000  O 
  O31      1.0000 0.23635  0.87327  0.99791  Biso   1.000  O 
  O32      1.0000 0.22925  0.87137  0.75050  Biso   1.000  O 
  Hf16     1.0000 0.63611  0.01784  0.12388  Biso   1.000  Hf
  Hf17     1.0000 0.63342  0.23424  0.37523  Biso   1.000  Hf
  Hf18     1.0000 0.85394  0.27646  0.12165  Biso   1.000  Hf
  Hf19     1.0000 0.86927  0.48323  0.37672  Biso   1.000  Hf
  O33      1.0000 0.54490  0.18784  0.18927  Biso   1.000  O 
  O34      1.0000 0.53791  0.06715  0.44128  Biso   1.000  O 
  O35      1.0000 0.96608  0.42716  0.19627  Biso   1.000  O 
  O36      1.0000 0.96849  0.31389  0.44323  Biso   1.000  O 
  O37      1.0000 0.77791  0.12106  0.24762  Biso   1.000  O 
  O38      1.0000 0.77220  0.13326  0.49800  Biso   1.000  O 
  O39      1.0000 0.73371  0.38243  0.49955  Biso   1.000  O 
  O40      1.0000 0.72620  0.37263  0.25038  Biso   1.000  O 
  Hf20     1.0000 0.62931  0.01477  0.62197  Biso   1.000  Hf
  Hf21     1.0000 0.63431  0.23293  0.87316  Biso   1.000  Hf
  Hf22     1.0000 0.87089  0.26456  0.62548  Biso   1.000  Hf
  Hf23     1.0000 0.87186  0.48461  0.87227  Biso   1.000  Hf
  O41      1.0000 0.53774  0.18494  0.69277  Biso   1.000  O 
  O42      1.0000 0.54048  0.06720  0.94580  Biso   1.000  O 
  O43      1.0000 0.96973  0.43169  0.69355  Biso   1.000  O 
  O44      1.0000 0.96944  0.31795  0.94774  Biso   1.000  O 
  O45      1.0000 0.76741  0.11461  0.74474  Biso   1.000  O 
  O46      1.0000 0.77724  0.13479  0.99489  Biso   1.000  O 
  O47      1.0000 0.73273  0.38576  0.99882  Biso   1.000  O 
  O48      1.0000 0.73477  0.36602  0.74844  Biso   1.000  O 
  Hf24     1.0000 0.63019  0.51910  0.12745  Biso   1.000  Hf
  Hf25     1.0000 0.63643  0.73647  0.37244  Biso   1.000  Hf
  Hf26     1.0000 0.86819  0.76097  0.11644  Biso   1.000  Hf
  Hf27     1.0000 0.86586  0.98928  0.38143  Biso   1.000  Hf
  O49      1.0000 0.53856  0.68603  0.19476  Biso   1.000  O 
  O50      1.0000 0.53992  0.56695  0.44141  Biso   1.000  O 
  O51      1.0000 0.97658  0.95793  0.17672  Biso   1.000  O 
  O52      1.0000 0.96693  0.82065  0.43875  Biso   1.000  O 
  O53      1.0000 0.77460  0.61674  0.24649  Biso   1.000  O 
  O54      1.0000 0.77230  0.63425  0.49651  Biso   1.000  O 
  O55      1.0000 0.73291  0.88456  0.49823  Biso   1.000  O 
  O56      1.0000 0.74743  0.86960  0.24632  Biso   1.000  O 
  Hf28     1.0000 0.63653  0.51703  0.62361  Biso   1.000  Hf
  Hf29     1.0000 0.63459  0.73482  0.87396  Biso   1.000  Hf
  Hf30     1.0000 0.87076  0.76513  0.62226  Biso   1.000  Hf
  Hf31     1.0000 0.86129  0.98145  0.86701  Biso   1.000  Hf
  O57      1.0000 0.53928  0.68434  0.69430  Biso   1.000  O 
  O58      1.0000 0.54081  0.56779  0.94447  Biso   1.000  O 
  O59      1.0000 0.96505  0.93363  0.69274  Biso   1.000  O 
  O60      1.0000 0.96479  0.81793  0.93684  Biso   1.000  O 
  O61      1.0000 0.77496  0.61652  0.74641  Biso   1.000  O 
  O62      1.0000 0.77385  0.63442  0.99744  Biso   1.000  O 
  O63      1.0000 0.73401  0.88491  0.99687  Biso   1.000  O 
  O64      1.0000 0.73230  0.86651  0.74692  Biso   1.000  O 
