data_image0
_cell_length_a       5.05244
_cell_length_b       10.0583
_cell_length_c       10.0583
_cell_angle_alpha    80
_cell_angle_beta     90
_cell_angle_gamma    90

_symmetry_space_group_name_H-M    "P 1"
_symmetry_int_tables_number       1

loop_
  _symmetry_equiv_pos_as_xyz
  'x, y, z'

loop_
  _atom_site_label
  _atom_site_occupancy
  _atom_site_fract_x
  _atom_site_fract_y
  _atom_site_fract_z
  _atom_site_thermal_displace_type
  _atom_site_B_iso_or_equiv
  _atom_site_type_symbol
  C1       1.0000 0.17336  0.98978  0.12552  Biso   1.000  C 
  Hf1      1.0000 0.31970  0.22130  0.38051  Biso   1.000  Hf
  Hf2      1.0000 0.78458  0.24407  0.12960  Biso   1.000  Hf
  Hf3      1.0000 0.78459  0.97291  0.38294  Biso   1.000  Hf
  O1       1.0000 0.87058  0.09109  0.96517  Biso   1.000  O 
  O2       1.0000 0.00629  0.05998  0.20284  Biso   1.000  O 
  O3       1.0000 0.07408  0.31476  0.24146  Biso   1.000  O 
  O4       1.0000 0.99826  0.40755  0.00429  Biso   1.000  O 
  O5       1.0000 0.56653  0.12591  0.27545  Biso   1.000  O 
  O6       1.0000 0.32428  0.08146  0.03985  Biso   1.000  O 
  O7       1.0000 0.48524  0.34620  0.00283  Biso   1.000  O 
  O8       1.0000 0.56538  0.38027  0.24825  Biso   1.000  O 
  Hf4      1.0000 0.26686  0.94875  0.63102  Biso   1.000  Hf
  Hf5      1.0000 0.24265  0.16212  0.89880  Biso   1.000  Hf
  Hf6      1.0000 0.73220  0.20595  0.64659  Biso   1.000  Hf
  Hf7      1.0000 0.78457  0.92458  0.87910  Biso   1.000  Hf
  O9       1.0000 0.07410  0.07700  0.46360  Biso   1.000  O 
  O10      1.0000 0.99830  0.06114  0.72411  Biso   1.000  O 
  O11      1.0000 0.00070  0.30347  0.76676  Biso   1.000  O 
  O12      1.0000 0.96380  0.34050  0.51181  Biso   1.000  O 
  O13      1.0000 0.48527  0.05751  0.78624  Biso   1.000  O 
  O14      1.0000 0.56541  0.07830  0.53038  Biso   1.000  O 
  O15      1.0000 0.46508  0.33694  0.50789  Biso   1.000  O 
  O16      1.0000 0.49510  0.31350  0.75739  Biso   1.000  O 
  Hf8      1.0000 0.26684  0.48978  0.12553  Biso   1.000  Hf
  Hf9      1.0000 0.24266  0.73538  0.36324  Biso   1.000  Hf
  Hf10     1.0000 0.78457  0.73549  0.12146  Biso   1.000  Hf
  Hf11     1.0000 0.73219  0.48396  0.38684  Biso   1.000  Hf
  O17      1.0000 0.07407  0.66480  0.00958  Biso   1.000  O 
  O18      1.0000 0.99824  0.57201  0.24677  Biso   1.000  O 
  O19      1.0000 0.87057  0.80639  0.29687  Biso   1.000  O 
  O20      1.0000 0.00627  0.91958  0.04821  Biso   1.000  O 
  O21      1.0000 0.48523  0.63336  0.24823  Biso   1.000  O 
  O22      1.0000 0.56537  0.59929  0.00281  Biso   1.000  O 
  O23      1.0000 0.56653  0.77157  0.98658  Biso   1.000  O 
  O24      1.0000 0.32428  0.89808  0.21119  Biso   1.000  O 
  Hf12     1.0000 0.21526  0.44875  0.63101  Biso   1.000  Hf
  Hf13     1.0000 0.31967  0.67619  0.88152  Biso   1.000  Hf
  Hf14     1.0000 0.73220  0.69154  0.61545  Biso   1.000  Hf
  Hf15     1.0000 0.73221  0.41352  0.87521  Biso   1.000  Hf
  O25      1.0000 0.00070  0.59402  0.49528  Biso   1.000  O 
  O26      1.0000 0.96382  0.55699  0.75024  Biso   1.000  O 
  O27      1.0000 0.07407  0.82048  0.79843  Biso   1.000  O 
  O28      1.0000 0.99832  0.83635  0.53792  Biso   1.000  O 
  O29      1.0000 0.46511  0.56056  0.75416  Biso   1.000  O 
  O30      1.0000 0.49510  0.58400  0.50466  Biso   1.000  O 
  O31      1.0000 0.48527  0.83999  0.47580  Biso   1.000  O 
  O32      1.0000 0.56538  0.81920  0.73165  Biso   1.000  O 
