data_image0
_cell_length_a       9.97753
_cell_length_b       10.3396
_cell_length_c       5.0052
_cell_angle_alpha    90
_cell_angle_beta     90
_cell_angle_gamma    90

_symmetry_space_group_name_H-M    "P 1"
_symmetry_int_tables_number       1

loop_
  _symmetry_equiv_pos_as_xyz
  'x, y, z'

loop_
  _atom_site_label
  _atom_site_occupancy
  _atom_site_fract_x
  _atom_site_fract_y
  _atom_site_fract_z
  _atom_site_thermal_displace_type
  _atom_site_B_iso_or_equiv
  _atom_site_type_symbol
  C1       1.0000 0.01976  0.05412  0.23178  Biso   1.000  C 
  Hf1      1.0000 0.15725  0.23423  0.77410  Biso   1.000  Hf
  Hf2      1.0000 0.36457  0.26018  0.26290  Biso   1.000  Hf
  Hf3      1.0000 0.37332  0.48465  0.75465  Biso   1.000  Hf
  O1       1.0000 0.03570  0.15961  0.36801  Biso   1.000  O 
  O2       1.0000 0.03242  0.06346  0.97451  Biso   1.000  O 
  O3       1.0000 0.46475  0.43460  0.38783  Biso   1.000  O 
  O4       1.0000 0.47170  0.31893  0.88821  Biso   1.000  O 
  O5       1.0000 0.28566  0.13182  0.53023  Biso   1.000  O 
  O6       1.0000 0.27440  0.13277  0.01301  Biso   1.000  O 
  O7       1.0000 0.23153  0.37944  0.00923  Biso   1.000  O 
  O8       1.0000 0.22839  0.36991  0.50910  Biso   1.000  O 
  Hf4      1.0000 0.13983  0.51919  0.25692  Biso   1.000  Hf
  Hf5      1.0000 0.14917  0.73936  0.76319  Biso   1.000  Hf
  Hf6      1.0000 0.36356  0.77267  0.25601  Biso   1.000  Hf
  Hf7      1.0000 0.36100  0.98328  0.76371  Biso   1.000  Hf
  O9       1.0000 0.04073  0.68834  0.38228  Biso   1.000  O 
  O10      1.0000 0.04058  0.56811  0.89511  Biso   1.000  O 
  O11      1.0000 0.47508  0.93234  0.40642  Biso   1.000  O 
  O12      1.0000 0.47911  0.82140  0.90433  Biso   1.000  O 
  O13      1.0000 0.27375  0.61717  0.50581  Biso   1.000  O 
  O14      1.0000 0.27665  0.62575  0.00713  Biso   1.000  O 
  O15      1.0000 0.23333  0.87160  0.00772  Biso   1.000  O 
  O16      1.0000 0.24503  0.86290  0.52180  Biso   1.000  O 
  Hf8      1.0000 0.63038  0.01581  0.24217  Biso   1.000  Hf
  Hf9      1.0000 0.63398  0.23324  0.74362  Biso   1.000  Hf
  Hf10     1.0000 0.85749  0.27425  0.23693  Biso   1.000  Hf
  Hf11     1.0000 0.87601  0.48417  0.74143  Biso   1.000  Hf
  O17      1.0000 0.54548  0.18698  0.37732  Biso   1.000  O 
  O18      1.0000 0.54257  0.06738  0.88533  Biso   1.000  O 
  O19      1.0000 0.97051  0.42515  0.38285  Biso   1.000  O 
  O20      1.0000 0.97229  0.31159  0.87812  Biso   1.000  O 
  O21      1.0000 0.77742  0.11738  0.48446  Biso   1.000  O 
  O22      1.0000 0.77819  0.13370  0.98518  Biso   1.000  O 
  O23      1.0000 0.73837  0.38511  0.99318  Biso   1.000  O 
  O24      1.0000 0.73060  0.37042  0.49436  Biso   1.000  O 
  Hf12     1.0000 0.63187  0.51825  0.24817  Biso   1.000  Hf
  Hf13     1.0000 0.63595  0.73609  0.73846  Biso   1.000  Hf
  Hf14     1.0000 0.87287  0.75773  0.22510  Biso   1.000  Hf
  Hf15     1.0000 0.86182  0.98359  0.74802  Biso   1.000  Hf
  O25      1.0000 0.54151  0.68467  0.38676  Biso   1.000  O 
  O26      1.0000 0.54537  0.56756  0.88088  Biso   1.000  O 
  O27      1.0000 0.98016  0.95320  0.35290  Biso   1.000  O 
  O28      1.0000 0.96981  0.82244  0.86321  Biso   1.000  O 
  O29      1.0000 0.77878  0.61456  0.48300  Biso   1.000  O 
  O30      1.0000 0.77685  0.63562  0.98445  Biso   1.000  O 
  O31      1.0000 0.73758  0.88505  0.99079  Biso   1.000  O 
  O32      1.0000 0.75036  0.86692  0.48641  Biso   1.000  O 
