data_image0
_cell_length_a       10.0351
_cell_length_b       10.3389
_cell_length_c       5.17642
_cell_angle_alpha    90
_cell_angle_beta     90
_cell_angle_gamma    90

_symmetry_space_group_name_H-M    "P 1"
_symmetry_int_tables_number       1

loop_
  _symmetry_equiv_pos_as_xyz
  'x, y, z'

loop_
  _atom_site_label
  _atom_site_occupancy
  _atom_site_fract_x
  _atom_site_fract_y
  _atom_site_fract_z
  _atom_site_thermal_displace_type
  _atom_site_B_iso_or_equiv
  _atom_site_type_symbol
  Hf1      1.0000 0.14200  0.02326  0.34126  Biso   1.000  Hf
  Hf2      1.0000 0.13838  0.23235  0.84147  Biso   1.000  Hf
  Hf3      1.0000 0.35616  0.27681  0.33546  Biso   1.000  Hf
  Hf4      1.0000 0.36286  0.48390  0.83919  Biso   1.000  Hf
  Hf5      1.0000 0.65214  0.01463  0.15262  Biso   1.000  Hf
  Hf6      1.0000 0.64064  0.23680  0.70867  Biso   1.000  Hf
  Hf7      1.0000 0.85978  0.26979  0.17240  Biso   1.000  Hf
  Hf8      1.0000 0.86284  0.48195  0.66373  Biso   1.000  Hf
  O1       1.0000 0.03669  0.17393  0.18394  Biso   1.000  O 
  O2       1.0000 0.03996  0.08037  0.67712  Biso   1.000  O 
  O3       1.0000 0.45497  0.44103  0.19424  Biso   1.000  O 
  O4       1.0000 0.46604  0.33413  0.66449  Biso   1.000  O 
  O5       1.0000 0.27861  0.12835  0.58862  Biso   1.000  O 
  O6       1.0000 0.27452  0.12559  0.08685  Biso   1.000  O 
  O7       1.0000 0.22168  0.37840  0.58732  Biso   1.000  O 
  O8       1.0000 0.22113  0.37786  0.08347  Biso   1.000  O 
  O9       1.0000 0.52249  0.15373  0.33810  Biso   1.000  O 
  O10      1.0000 0.54125  0.07171  0.81496  Biso   1.000  O 
  O11      1.0000 0.96298  0.42198  0.32736  Biso   1.000  O 
  O12      1.0000 0.96442  0.33061  0.82719  Biso   1.000  O 
  O13      1.0000 0.79372  0.12048  0.91673  Biso   1.000  O 
  O14      1.0000 0.77028  0.12834  0.42427  Biso   1.000  O 
  O15      1.0000 0.73099  0.38251  0.92565  Biso   1.000  O 
  O16      1.0000 0.71894  0.37495  0.42720  Biso   1.000  O 
  Hf9      1.0000 0.13836  0.52260  0.34115  Biso   1.000  Hf
  Hf10     1.0000 0.13912  0.73192  0.84002  Biso   1.000  Hf
  Hf11     1.0000 0.36138  0.77361  0.33932  Biso   1.000  Hf
  Hf12     1.0000 0.35624  0.98073  0.84065  Biso   1.000  Hf
  Hf13     1.0000 0.63636  0.52356  0.16894  Biso   1.000  Hf
  Hf14     1.0000 0.63763  0.73134  0.66159  Biso   1.000  Hf
  Hf15     1.0000 0.86145  0.76941  0.16017  Biso   1.000  Hf
  Hf16     1.0000 0.86116  0.98058  0.65736  Biso   1.000  Hf
  O17      1.0000 0.03444  0.67140  0.17760  Biso   1.000  O 
  O18      1.0000 0.03613  0.58209  0.67738  Biso   1.000  O 
  O19      1.0000 0.46305  0.92324  0.17489  Biso   1.000  O 
  O20      1.0000 0.46184  0.82985  0.67977  Biso   1.000  O 
  O21      1.0000 0.27659  0.62687  0.58593  Biso   1.000  O 
  O22      1.0000 0.27436  0.62890  0.08499  Biso   1.000  O 
  O23      1.0000 0.22222  0.87681  0.58644  Biso   1.000  O 
  O24      1.0000 0.22097  0.87656  0.08786  Biso   1.000  O 
  O25      1.0000 0.53795  0.67869  0.32094  Biso   1.000  O 
  O26      1.0000 0.53848  0.57968  0.82210  Biso   1.000  O 
  O27      1.0000 0.96230  0.92338  0.31865  Biso   1.000  O 
  O28      1.0000 0.96449  0.83082  0.82292  Biso   1.000  O 
  O29      1.0000 0.77671  0.62802  0.91615  Biso   1.000  O 
  O30      1.0000 0.77563  0.62588  0.41671  Biso   1.000  O 
  O31      1.0000 0.72448  0.87431  0.91302  Biso   1.000  O 
  O32      1.0000 0.72512  0.87473  0.41399  Biso   1.000  O 
  C1       1.0000 0.54422  0.21342  0.11582  Biso   1.000  C 
