data_image0
_cell_length_a       10.0635
_cell_length_b       5.09433
_cell_length_c       10.4703
_cell_angle_alpha    90
_cell_angle_beta     90
_cell_angle_gamma    90

_symmetry_space_group_name_H-M    "P 1"
_symmetry_int_tables_number       1

loop_
  _symmetry_equiv_pos_as_xyz
  'x, y, z'

loop_
  _atom_site_label
  _atom_site_occupancy
  _atom_site_fract_x
  _atom_site_fract_y
  _atom_site_fract_z
  _atom_site_thermal_displace_type
  _atom_site_B_iso_or_equiv
  _atom_site_type_symbol
  C1       1.0000 0.01920  0.12873  0.18426  Biso   1.000  C 
  Hf1      1.0000 0.15164  0.47230  0.41815  Biso   1.000  Hf
  Hf2      1.0000 0.35129  0.54331  0.17216  Biso   1.000  Hf
  Hf3      1.0000 0.35930  0.96522  0.41502  Biso   1.000  Hf
  Hf4      1.0000 0.63313  0.04484  0.07944  Biso   1.000  Hf
  Hf5      1.0000 0.63213  0.45638  0.32746  Biso   1.000  Hf
  Hf6      1.0000 0.85372  0.54163  0.07130  Biso   1.000  Hf
  Hf7      1.0000 0.84951  0.95266  0.33884  Biso   1.000  Hf
  O1       1.0000 0.03366  0.30825  0.09956  Biso   1.000  O 
  O2       1.0000 0.02766  0.19011  0.30388  Biso   1.000  O 
  O3       1.0000 0.47421  0.82085  0.08340  Biso   1.000  O 
  O4       1.0000 0.47521  0.68961  0.32832  Biso   1.000  O 
  O5       1.0000 0.28490  0.26668  0.30715  Biso   1.000  O 
  O6       1.0000 0.28988  0.26412  0.03558  Biso   1.000  O 
  O7       1.0000 0.22869  0.74810  0.30065  Biso   1.000  O 
  O8       1.0000 0.23293  0.73626  0.03825  Biso   1.000  O 
  O9       1.0000 0.53338  0.33204  0.16725  Biso   1.000  O 
  O10      1.0000 0.53630  0.17024  0.41820  Biso   1.000  O 
  O11      1.0000 0.97475  0.90137  0.16110  Biso   1.000  O 
  O12      1.0000 0.96899  0.68014  0.41324  Biso   1.000  O 
  O13      1.0000 0.77713  0.24182  0.45735  Biso   1.000  O 
  O14      1.0000 0.77741  0.25327  0.20709  Biso   1.000  O 
  O15      1.0000 0.72360  0.74017  0.45765  Biso   1.000  O 
  O16      1.0000 0.73684  0.75318  0.20460  Biso   1.000  O 
  Hf8      1.0000 0.14032  0.04732  0.67132  Biso   1.000  Hf
  Hf9      1.0000 0.15348  0.46390  0.92186  Biso   1.000  Hf
  Hf10     1.0000 0.36348  0.54835  0.67144  Biso   1.000  Hf
  Hf11     1.0000 0.35815  0.96266  0.92921  Biso   1.000  Hf
  Hf12     1.0000 0.63512  0.03989  0.58185  Biso   1.000  Hf
  Hf13     1.0000 0.63640  0.46319  0.82753  Biso   1.000  Hf
  Hf14     1.0000 0.86528  0.53566  0.57843  Biso   1.000  Hf
  Hf15     1.0000 0.86864  0.95822  0.82757  Biso   1.000  Hf
  O17      1.0000 0.02907  0.30436  0.56636  Biso   1.000  O 
  O18      1.0000 0.03219  0.18187  0.83103  Biso   1.000  O 
  O19      1.0000 0.46780  0.83203  0.58165  Biso   1.000  O 
  O20      1.0000 0.46967  0.67796  0.83120  Biso   1.000  O 
  O21      1.0000 0.27659  0.24694  0.79183  Biso   1.000  O 
  O22      1.0000 0.27705  0.25794  0.54837  Biso   1.000  O 
  O23      1.0000 0.22537  0.74699  0.79331  Biso   1.000  O 
  O24      1.0000 0.22431  0.75655  0.54517  Biso   1.000  O 
  O25      1.0000 0.53483  0.33345  0.66718  Biso   1.000  O 
  O26      1.0000 0.53628  0.17247  0.91645  Biso   1.000  O 
  O27      1.0000 0.97400  0.81180  0.67293  Biso   1.000  O 
  O28      1.0000 0.97254  0.67215  0.93013  Biso   1.000  O 
  O29      1.0000 0.77887  0.25926  0.95881  Biso   1.000  O 
  O30      1.0000 0.77829  0.25059  0.70678  Biso   1.000  O 
  O31      1.0000 0.72570  0.75785  0.95438  Biso   1.000  O 
  O32      1.0000 0.72900  0.75204  0.70500  Biso   1.000  O 
