data_image0
_cell_length_a       5.00167
_cell_length_b       10.3791
_cell_length_c       10.0442
_cell_angle_alpha    90
_cell_angle_beta     90
_cell_angle_gamma    90

_symmetry_space_group_name_H-M    "P 1"
_symmetry_int_tables_number       1

loop_
  _symmetry_equiv_pos_as_xyz
  'x, y, z'

loop_
  _atom_site_label
  _atom_site_occupancy
  _atom_site_fract_x
  _atom_site_fract_y
  _atom_site_fract_z
  _atom_site_thermal_displace_type
  _atom_site_B_iso_or_equiv
  _atom_site_type_symbol
  Hf1      1.0000 0.28801  0.02311  0.12224  Biso   1.000  Hf
  Hf2      1.0000 0.27818  0.22406  0.39428  Biso   1.000  Hf
  Hf3      1.0000 0.74353  0.27128  0.10350  Biso   1.000  Hf
  Hf4      1.0000 0.74682  0.48767  0.38258  Biso   1.000  Hf
  O1       1.0000 0.04109  0.17524  0.21670  Biso   1.000  O 
  O2       1.0000 0.08577  0.06194  0.45399  Biso   1.000  O 
  O3       1.0000 0.87401  0.43739  0.19874  Biso   1.000  O 
  O4       1.0000 0.93688  0.31587  0.44925  Biso   1.000  O 
  O5       1.0000 0.53565  0.11432  0.25946  Biso   1.000  O 
  O6       1.0000 0.56338  0.12967  0.50836  Biso   1.000  O 
  O7       1.0000 0.46295  0.38194  0.48870  Biso   1.000  O 
  O8       1.0000 0.35797  0.33477  0.21562  Biso   1.000  O 
  Hf5      1.0000 0.29799  0.01414  0.63273  Biso   1.000  Hf
  Hf6      1.0000 0.29203  0.23019  0.88688  Biso   1.000  Hf
  Hf7      1.0000 0.75504  0.26336  0.63342  Biso   1.000  Hf
  Hf8      1.0000 0.73927  0.48691  0.86569  Biso   1.000  Hf
  O9       1.0000 0.09514  0.18141  0.69484  Biso   1.000  O 
  O10      1.0000 0.11671  0.05856  0.94255  Biso   1.000  O 
  O11      1.0000 0.92442  0.43907  0.68368  Biso   1.000  O 
  O12      1.0000 0.92123  0.31151  0.91180  Biso   1.000  O 
  O13      1.0000 0.56194  0.11604  0.75640  Biso   1.000  O 
  O14      1.0000 0.61372  0.11487  0.99713  Biso   1.000  O 
  O15      1.0000 0.49181  0.38638  0.99234  Biso   1.000  O 
  O16      1.0000 0.45866  0.36698  0.74489  Biso   1.000  O 
  Hf9      1.0000 0.23415  0.51411  0.12168  Biso   1.000  Hf
  Hf10     1.0000 0.26331  0.73311  0.37556  Biso   1.000  Hf
  Hf11     1.0000 0.71573  0.76441  0.12602  Biso   1.000  Hf
  Hf12     1.0000 0.72110  0.98132  0.37402  Biso   1.000  Hf
  O17      1.0000 0.04539  0.67856  0.19992  Biso   1.000  O 
  O18      1.0000 0.07201  0.56744  0.44967  Biso   1.000  O 
  O19      1.0000 0.91889  0.93139  0.19490  Biso   1.000  O 
  O20      1.0000 0.92141  0.81323  0.44424  Biso   1.000  O 
  O21      1.0000 0.50652  0.60313  0.25282  Biso   1.000  O 
  O22      1.0000 0.53888  0.63264  0.49996  Biso   1.000  O 
  O23      1.0000 0.45332  0.88182  0.50055  Biso   1.000  O 
  O24      1.0000 0.45320  0.86179  0.25004  Biso   1.000  O 
  Hf13     1.0000 0.27517  0.51406  0.62499  Biso   1.000  Hf
  Hf14     1.0000 0.27308  0.73133  0.87749  Biso   1.000  Hf
  Hf15     1.0000 0.73582  0.76517  0.62490  Biso   1.000  Hf
  Hf16     1.0000 0.73751  0.97568  0.87602  Biso   1.000  Hf
  O25      1.0000 0.06997  0.68018  0.69802  Biso   1.000  O 
  O26      1.0000 0.07443  0.56086  0.94620  Biso   1.000  O 
  O27      1.0000 0.92892  0.92936  0.69569  Biso   1.000  O 
  O28      1.0000 0.93157  0.80927  0.94682  Biso   1.000  O 
  O29      1.0000 0.53862  0.61863  0.74825  Biso   1.000  O 
  O30      1.0000 0.51256  0.63489  0.00110  Biso   1.000  O 
  O31      1.0000 0.43684  0.88114  0.00141  Biso   1.000  O 
  O32      1.0000 0.46153  0.86453  0.75099  Biso   1.000  O 
  C1       1.0000 0.19732  0.25107  0.12716  Biso   1.000  C 
