data_image0
_cell_length_a       10.1712
_cell_length_b       10.1148
_cell_length_c       10.1682
_cell_angle_alpha    90
_cell_angle_beta     80
_cell_angle_gamma    90

_symmetry_space_group_name_H-M    "P 1"
_symmetry_int_tables_number       1

loop_
  _symmetry_equiv_pos_as_xyz
  'x, y, z'

loop_
  _atom_site_label
  _atom_site_occupancy
  _atom_site_fract_x
  _atom_site_fract_y
  _atom_site_fract_z
  _atom_site_thermal_displace_type
  _atom_site_B_iso_or_equiv
  _atom_site_type_symbol
  Hf1      1.0000 0.11811  0.99000  0.12966  Biso   1.000  Hf
  Hf2      1.0000 0.10326  0.26310  0.36321  Biso   1.000  Hf
  Hf3      1.0000 0.36498  0.24696  0.13603  Biso   1.000  Hf
  Hf4      1.0000 0.34780  0.99308  0.38205  Biso   1.000  Hf
  O1       1.0000 0.06562  0.17668  0.04930  Biso   1.000  O 
  O2       1.0000 0.02301  0.09194  0.29050  Biso   1.000  O 
  O3       1.0000 0.95952  0.35508  0.26874  Biso   1.000  O 
  O4       1.0000 0.93292  0.40065  0.99965  Biso   1.000  O 
  O5       1.0000 0.27927  0.15883  0.31237  Biso   1.000  O 
  O6       1.0000 0.30571  0.07440  0.04727  Biso   1.000  O 
  O7       1.0000 0.24521  0.32703  0.00516  Biso   1.000  O 
  O8       1.0000 0.23277  0.41159  0.25488  Biso   1.000  O 
  Hf5      1.0000 0.08062  0.99536  0.62797  Biso   1.000  Hf
  Hf6      1.0000 0.07032  0.26213  0.86458  Biso   1.000  Hf
  Hf7      1.0000 0.33689  0.25700  0.62883  Biso   1.000  Hf
  Hf8      1.0000 0.31803  0.99275  0.88047  Biso   1.000  Hf
  O9       1.0000 0.01337  0.16204  0.54242  Biso   1.000  O 
  O10      1.0000 0.99406  0.09578  0.79999  Biso   1.000  O 
  O11      1.0000 0.95262  0.35451  0.75275  Biso   1.000  O 
  O12      1.0000 0.96451  0.40492  0.50174  Biso   1.000  O 
  O13      1.0000 0.24409  0.16141  0.80166  Biso   1.000  O 
  O14      1.0000 0.26424  0.08705  0.55579  Biso   1.000  O 
  O15      1.0000 0.21905  0.35057  0.50806  Biso   1.000  O 
  O16      1.0000 0.19891  0.40156  0.75432  Biso   1.000  O 
  Hf9      1.0000 0.10475  0.48547  0.12810  Biso   1.000  Hf
  Hf10     1.0000 0.09775  0.75607  0.37710  Biso   1.000  Hf
  Hf11     1.0000 0.36130  0.75534  0.12777  Biso   1.000  Hf
  Hf12     1.0000 0.34915  0.49515  0.38126  Biso   1.000  Hf
  O17      1.0000 0.89455  0.66378  0.96508  Biso   1.000  O 
  O18      1.0000 0.93763  0.59271  0.20853  Biso   1.000  O 
  O19      1.0000 0.97839  0.84998  0.24939  Biso   1.000  O 
  O20      1.0000 0.00000  0.90700  0.00229  Biso   1.000  O 
  O21      1.0000 0.18991  0.65998  0.21026  Biso   1.000  O 
  O22      1.0000 0.14500  0.58462  0.96517  Biso   1.000  O 
  O23      1.0000 0.18433  0.84538  0.00612  Biso   1.000  O 
  O24      1.0000 0.23197  0.90047  0.25771  Biso   1.000  O 
  Hf13     1.0000 0.08390  0.49515  0.62763  Biso   1.000  Hf
  Hf14     1.0000 0.06861  0.75704  0.88318  Biso   1.000  Hf
  Hf15     1.0000 0.33099  0.75949  0.63087  Biso   1.000  Hf
  Hf16     1.0000 0.32128  0.49845  0.88085  Biso   1.000  Hf
  O25      1.0000 0.92322  0.66243  0.46123  Biso   1.000  O 
  O26      1.0000 0.91182  0.59540  0.71233  Biso   1.000  O 
  O27      1.0000 0.94681  0.85317  0.75446  Biso   1.000  O 
  O28      1.0000 0.96588  0.90315  0.50591  Biso   1.000  O 
  O29      1.0000 0.16147  0.65958  0.71550  Biso   1.000  O 
  O30      1.0000 0.17521  0.59350  0.46280  Biso   1.000  O 
  O31      1.0000 0.20977  0.85070  0.50352  Biso   1.000  O 
  O32      1.0000 0.19928  0.90171  0.76035  Biso   1.000  O 
  Hf17     1.0000 0.61268  0.99365  0.12513  Biso   1.000  Hf
  Hf18     1.0000 0.59906  0.25865  0.37774  Biso   1.000  Hf
  Hf19     1.0000 0.85709  0.26474  0.12864  Biso   1.000  Hf
  Hf20     1.0000 0.84607  0.99518  0.37651  Biso   1.000  Hf
  O33      1.0000 0.54752  0.15866  0.04322  Biso   1.000  O 
  O34      1.0000 0.52557  0.09151  0.29310  Biso   1.000  O 
  O35      1.0000 0.48240  0.35089  0.25739  Biso   1.000  O 
  O36      1.0000 0.42881  0.40149  0.00756  Biso   1.000  O 
  O37      1.0000 0.77056  0.16047  0.29555  Biso   1.000  O 
  O38      1.0000 0.80343  0.09269  0.04436  Biso   1.000  O 
  O39      1.0000 0.74532  0.35184  0.00185  Biso   1.000  O 
  O40      1.0000 0.72376  0.40203  0.24710  Biso   1.000  O 
  Hf21     1.0000 0.58166  0.99505  0.62957  Biso   1.000  Hf
  Hf22     1.0000 0.57061  0.25971  0.88087  Biso   1.000  Hf
  Hf23     1.0000 0.83813  0.25825  0.62463  Biso   1.000  Hf
  Hf24     1.0000 0.81570  0.99441  0.88066  Biso   1.000  Hf
  O41      1.0000 0.51058  0.16045  0.54659  Biso   1.000  O 
  O42      1.0000 0.49513  0.09317  0.79787  Biso   1.000  O 
  O43      1.0000 0.45411  0.35205  0.75925  Biso   1.000  O 
  O44      1.0000 0.46436  0.40148  0.50367  Biso   1.000  O 
  O45      1.0000 0.74482  0.16159  0.79876  Biso   1.000  O 
  O46      1.0000 0.76130  0.09164  0.54619  Biso   1.000  O 
  O47      1.0000 0.71916  0.35175  0.50622  Biso   1.000  O 
  O48      1.0000 0.69994  0.40248  0.75236  Biso   1.000  O 
  Hf25     1.0000 0.60891  0.49456  0.12487  Biso   1.000  Hf
  Hf26     1.0000 0.59664  0.75796  0.37683  Biso   1.000  Hf
  Hf27     1.0000 0.86313  0.75900  0.12665  Biso   1.000  Hf
  Hf28     1.0000 0.84539  0.49789  0.38085  Biso   1.000  Hf
  O49      1.0000 0.39580  0.66110  0.96586  Biso   1.000  O 
  O50      1.0000 0.44146  0.59330  0.21142  Biso   1.000  O 
  O51      1.0000 0.47763  0.85181  0.24861  Biso   1.000  O 
  O52      1.0000 0.50033  0.89819  0.00054  Biso   1.000  O 
  O53      1.0000 0.68990  0.66138  0.20670  Biso   1.000  O 
  O54      1.0000 0.64454  0.59393  0.96335  Biso   1.000  O 
  O55      1.0000 0.68623  0.85414  0.00403  Biso   1.000  O 
  O56      1.0000 0.73288  0.90175  0.25331  Biso   1.000  O 
  Hf29     1.0000 0.58395  0.49437  0.63083  Biso   1.000  Hf
  Hf30     1.0000 0.56850  0.76021  0.88235  Biso   1.000  Hf
  Hf31     1.0000 0.83269  0.76057  0.62980  Biso   1.000  Hf
  Hf32     1.0000 0.81710  0.49830  0.87963  Biso   1.000  Hf
  O57      1.0000 0.42265  0.66352  0.46233  Biso   1.000  O 
  O58      1.0000 0.41103  0.59294  0.71428  Biso   1.000  O 
  O59      1.0000 0.44699  0.85028  0.75353  Biso   1.000  O 
  O60      1.0000 0.46778  0.90192  0.50752  Biso   1.000  O 
  O61      1.0000 0.66108  0.66111  0.71223  Biso   1.000  O 
  O62      1.0000 0.66939  0.59213  0.46023  Biso   1.000  O 
  O63      1.0000 0.71164  0.85066  0.50032  Biso   1.000  O 
  O64      1.0000 0.70088  0.90263  0.75771  Biso   1.000  O 
  C1       1.0000 0.14550  0.26648  0.11246  Biso   1.000  C 
