data_image0
_cell_length_a       9.9802
_cell_length_b       5.19908
_cell_length_c       10.0487
_cell_angle_alpha    90
_cell_angle_beta     90
_cell_angle_gamma    90

_symmetry_space_group_name_H-M    "P 1"
_symmetry_int_tables_number       1

loop_
  _symmetry_equiv_pos_as_xyz
  'x, y, z'

loop_
  _atom_site_label
  _atom_site_occupancy
  _atom_site_fract_x
  _atom_site_fract_y
  _atom_site_fract_z
  _atom_site_thermal_displace_type
  _atom_site_B_iso_or_equiv
  _atom_site_type_symbol
  Hf1      1.0000 0.14756  0.01519  0.10846  Biso   1.000  Hf
  Hf2      1.0000 0.11792  0.46208  0.34504  Biso   1.000  Hf
  Hf3      1.0000 0.35828  0.51990  0.10489  Biso   1.000  Hf
  Hf4      1.0000 0.35698  0.96316  0.35725  Biso   1.000  Hf
  O1       1.0000 0.00791  0.38434  0.00353  Biso   1.000  O 
  O2       1.0000 0.03326  0.11302  0.28678  Biso   1.000  O 
  O3       1.0000 0.93560  0.63372  0.31943  Biso   1.000  O 
  O4       1.0000 0.95841  0.88492  0.04427  Biso   1.000  O 
  O5       1.0000 0.28301  0.23809  0.23136  Biso   1.000  O 
  O6       1.0000 0.24458  0.22900  0.97319  Biso   1.000  O 
  O7       1.0000 0.20420  0.71978  0.97658  Biso   1.000  O 
  O8       1.0000 0.22386  0.75026  0.23034  Biso   1.000  O 
  Hf5      1.0000 0.12609  0.03404  0.59859  Biso   1.000  Hf
  Hf6      1.0000 0.12396  0.46528  0.83509  Biso   1.000  Hf
  Hf7      1.0000 0.35224  0.53362  0.59875  Biso   1.000  Hf
  Hf8      1.0000 0.34714  0.96201  0.85393  Biso   1.000  Hf
  O9       1.0000 0.02575  0.37271  0.53643  Biso   1.000  O 
  O10      1.0000 0.02414  0.13333  0.78016  Biso   1.000  O 
  O11      1.0000 0.95103  0.64233  0.78508  Biso   1.000  O 
  O12      1.0000 0.94326  0.88153  0.54401  Biso   1.000  O 
  O13      1.0000 0.26259  0.25931  0.72355  Biso   1.000  O 
  O14      1.0000 0.25811  0.23992  0.47437  Biso   1.000  O 
  O15      1.0000 0.21300  0.73567  0.47579  Biso   1.000  O 
  O16      1.0000 0.21452  0.76386  0.72450  Biso   1.000  O 
  Hf9      1.0000 0.63069  0.03982  0.10589  Biso   1.000  Hf
  Hf10     1.0000 0.62333  0.46856  0.35966  Biso   1.000  Hf
  Hf11     1.0000 0.85214  0.55729  0.12283  Biso   1.000  Hf
  Hf12     1.0000 0.84765  0.97774  0.36436  Biso   1.000  Hf
  O17      1.0000 0.53043  0.36966  0.03694  Biso   1.000  O 
  O18      1.0000 0.53649  0.12832  0.29146  Biso   1.000  O 
  O19      1.0000 0.45488  0.62845  0.28815  Biso   1.000  O 
  O20      1.0000 0.45204  0.86802  0.03898  Biso   1.000  O 
  O21      1.0000 0.76403  0.27073  0.23601  Biso   1.000  O 
  O22      1.0000 0.74782  0.24082  0.98568  Biso   1.000  O 
  O23      1.0000 0.70402  0.74767  0.98430  Biso   1.000  O 
  O24      1.0000 0.71536  0.77419  0.23531  Biso   1.000  O 
  Hf13     1.0000 0.62570  0.03606  0.61077  Biso   1.000  Hf
  Hf14     1.0000 0.61853  0.47123  0.85779  Biso   1.000  Hf
  Hf15     1.0000 0.85508  0.54009  0.60630  Biso   1.000  Hf
  Hf16     1.0000 0.84657  0.97451  0.85989  Biso   1.000  Hf
  O25      1.0000 0.52364  0.36807  0.53846  Biso   1.000  O 
  O26      1.0000 0.52402  0.13134  0.79016  Biso   1.000  O 
  O27      1.0000 0.44622  0.63027  0.78672  Biso   1.000  O 
  O28      1.0000 0.44732  0.87192  0.54055  Biso   1.000  O 
  O29      1.0000 0.75810  0.27269  0.73606  Biso   1.000  O 
  O30      1.0000 0.75876  0.24240  0.48759  Biso   1.000  O 
  O31      1.0000 0.71091  0.74328  0.48716  Biso   1.000  O 
  O32      1.0000 0.71437  0.76954  0.73578  Biso   1.000  O 
  C1       1.0000 0.06162  0.41784  0.11824  Biso   1.000  C 
