data_image0
_cell_length_a       10.0732
_cell_length_b       5.12987
_cell_length_c       10.4844
_cell_angle_alpha    90
_cell_angle_beta     90
_cell_angle_gamma    90

_symmetry_space_group_name_H-M    "P 1"
_symmetry_int_tables_number       1

loop_
  _symmetry_equiv_pos_as_xyz
  'x, y, z'

loop_
  _atom_site_label
  _atom_site_occupancy
  _atom_site_fract_x
  _atom_site_fract_y
  _atom_site_fract_z
  _atom_site_thermal_displace_type
  _atom_site_B_iso_or_equiv
  _atom_site_type_symbol
  Hf1      1.0000 0.13490  0.05383  0.17214  Biso   1.000  Hf
  Hf2      1.0000 0.13672  0.47861  0.42385  Biso   1.000  Hf
  Hf3      1.0000 0.35054  0.55765  0.17637  Biso   1.000  Hf
  Hf4      1.0000 0.36240  0.98249  0.42226  Biso   1.000  Hf
  Hf5      1.0000 0.64605  0.03354  0.06615  Biso   1.000  Hf
  Hf6      1.0000 0.64161  0.49861  0.33629  Biso   1.000  Hf
  Hf7      1.0000 0.85777  0.54509  0.08026  Biso   1.000  Hf
  Hf8      1.0000 0.86123  0.98150  0.33028  Biso   1.000  Hf
  O1       1.0000 0.03086  0.33884  0.08449  Biso   1.000  O 
  O2       1.0000 0.03176  0.19137  0.33325  Biso   1.000  O 
  O3       1.0000 0.47535  0.78204  0.06998  Biso   1.000  O 
  O4       1.0000 0.46298  0.68430  0.33320  Biso   1.000  O 
  O5       1.0000 0.27070  0.26627  0.29783  Biso   1.000  O 
  O6       1.0000 0.27294  0.25348  0.04400  Biso   1.000  O 
  O7       1.0000 0.22195  0.76766  0.29711  Biso   1.000  O 
  O8       1.0000 0.22352  0.75797  0.04833  Biso   1.000  O 
  O9       1.0000 0.49129  0.23940  0.15437  Biso   1.000  O 
  O10      1.0000 0.53509  0.19325  0.41361  Biso   1.000  O 
  O11      1.0000 0.96710  0.83753  0.16784  Biso   1.000  O 
  O12      1.0000 0.96665  0.69044  0.41885  Biso   1.000  O 
  O13      1.0000 0.77814  0.27398  0.45891  Biso   1.000  O 
  O14      1.0000 0.77226  0.26831  0.21149  Biso   1.000  O 
  O15      1.0000 0.72510  0.77700  0.45741  Biso   1.000  O 
  O16      1.0000 0.73091  0.77975  0.20827  Biso   1.000  O 
  Hf9      1.0000 0.14195  0.06712  0.67189  Biso   1.000  Hf
  Hf10     1.0000 0.13626  0.48751  0.92174  Biso   1.000  Hf
  Hf11     1.0000 0.36309  0.56643  0.67092  Biso   1.000  Hf
  Hf12     1.0000 0.35964  0.98150  0.91977  Biso   1.000  Hf
  Hf13     1.0000 0.63994  0.07090  0.57998  Biso   1.000  Hf
  Hf14     1.0000 0.63859  0.48399  0.83071  Biso   1.000  Hf
  Hf15     1.0000 0.86266  0.56674  0.58107  Biso   1.000  Hf
  Hf16     1.0000 0.86425  0.98588  0.82650  Biso   1.000  Hf
  O17      1.0000 0.03415  0.35392  0.58552  Biso   1.000  O 
  O18      1.0000 0.03662  0.19764  0.83307  Biso   1.000  O 
  O19      1.0000 0.46776  0.85869  0.58253  Biso   1.000  O 
  O20      1.0000 0.46660  0.69329  0.83002  Biso   1.000  O 
  O21      1.0000 0.27850  0.27353  0.79404  Biso   1.000  O 
  O22      1.0000 0.27723  0.27458  0.54491  Biso   1.000  O 
  O23      1.0000 0.22474  0.77381  0.79640  Biso   1.000  O 
  O24      1.0000 0.22526  0.77504  0.54572  Biso   1.000  O 
  O25      1.0000 0.53562  0.36255  0.66365  Biso   1.000  O 
  O26      1.0000 0.53491  0.17946  0.90601  Biso   1.000  O 
  O27      1.0000 0.97008  0.85526  0.66671  Biso   1.000  O 
  O28      1.0000 0.96788  0.70204  0.91847  Biso   1.000  O 
  O29      1.0000 0.78545  0.27289  0.95144  Biso   1.000  O 
  O30      1.0000 0.77644  0.27973  0.70613  Biso   1.000  O 
  O31      1.0000 0.72818  0.77910  0.95050  Biso   1.000  O 
  O32      1.0000 0.72506  0.77875  0.70479  Biso   1.000  O 
  C1       1.0000 0.57897  0.42444  0.13321  Biso   1.000  C 
