data_image0
_cell_length_a       9.98387
_cell_length_b       5.17465
_cell_length_c       10.0012
_cell_angle_alpha    90
_cell_angle_beta     90
_cell_angle_gamma    90

_symmetry_space_group_name_H-M    "P 1"
_symmetry_int_tables_number       1

loop_
  _symmetry_equiv_pos_as_xyz
  'x, y, z'

loop_
  _atom_site_label
  _atom_site_occupancy
  _atom_site_fract_x
  _atom_site_fract_y
  _atom_site_fract_z
  _atom_site_thermal_displace_type
  _atom_site_B_iso_or_equiv
  _atom_site_type_symbol
  C1       1.0000 0.01999  0.11463  0.11535  Biso   1.000  C 
  Hf1      1.0000 0.15365  0.46848  0.37932  Biso   1.000  Hf
  Hf2      1.0000 0.36091  0.52952  0.12743  Biso   1.000  Hf
  Hf3      1.0000 0.36333  0.96968  0.36799  Biso   1.000  Hf
  O1       1.0000 0.03708  0.33385  0.17737  Biso   1.000  O 
  O2       1.0000 0.03822  0.14919  0.45625  Biso   1.000  O 
  O3       1.0000 0.47264  0.86538  0.19835  Biso   1.000  O 
  O4       1.0000 0.47474  0.64319  0.45332  Biso   1.000  O 
  O5       1.0000 0.28649  0.25722  0.26081  Biso   1.000  O 
  O6       1.0000 0.27743  0.26623  0.50868  Biso   1.000  O 
  O7       1.0000 0.23404  0.76448  0.50508  Biso   1.000  O 
  O8       1.0000 0.23950  0.72591  0.25822  Biso   1.000  O 
  Hf4      1.0000 0.14595  0.04128  0.63061  Biso   1.000  Hf
  Hf5      1.0000 0.15560  0.48276  0.88887  Biso   1.000  Hf
  Hf6      1.0000 0.37354  0.54422  0.63031  Biso   1.000  Hf
  Hf7      1.0000 0.36938  0.97693  0.88795  Biso   1.000  Hf
  O9       1.0000 0.03161  0.34111  0.72148  Biso   1.000  O 
  O10      1.0000 0.03621  0.13501  0.98692  Biso   1.000  O 
  O11      1.0000 0.47028  0.87434  0.70065  Biso   1.000  O 
  O12      1.0000 0.48070  0.64882  0.94605  Biso   1.000  O 
  O13      1.0000 0.27686  0.24623  0.75482  Biso   1.000  O 
  O14      1.0000 0.28918  0.27586  0.99874  Biso   1.000  O 
  O15      1.0000 0.23309  0.74719  0.00206  Biso   1.000  O 
  O16      1.0000 0.23485  0.74566  0.75422  Biso   1.000  O 
  Hf8      1.0000 0.63436  0.04169  0.12444  Biso   1.000  Hf
  Hf9      1.0000 0.63603  0.47734  0.37082  Biso   1.000  Hf
  Hf10     1.0000 0.85606  0.54415  0.11046  Biso   1.000  Hf
  Hf11     1.0000 0.87058  0.98179  0.38043  Biso   1.000  Hf
  O17      1.0000 0.54790  0.38032  0.18942  Biso   1.000  O 
  O18      1.0000 0.54220  0.13981  0.43815  Biso   1.000  O 
  O19      1.0000 0.98037  0.91557  0.17998  Biso   1.000  O 
  O20      1.0000 0.97243  0.63909  0.43136  Biso   1.000  O 
  O21      1.0000 0.78256  0.24301  0.24282  Biso   1.000  O 
  O22      1.0000 0.77418  0.27293  0.49250  Biso   1.000  O 
  O23      1.0000 0.73959  0.77090  0.49722  Biso   1.000  O 
  O24      1.0000 0.74473  0.75123  0.24533  Biso   1.000  O 
  Hf12     1.0000 0.63316  0.03103  0.61683  Biso   1.000  Hf
  Hf13     1.0000 0.63675  0.47176  0.86967  Biso   1.000  Hf
  Hf14     1.0000 0.87915  0.52086  0.61943  Biso   1.000  Hf
  Hf15     1.0000 0.87213  0.96809  0.85851  Biso   1.000  Hf
  O25      1.0000 0.54242  0.37094  0.69223  Biso   1.000  O 
  O26      1.0000 0.54888  0.14072  0.94570  Biso   1.000  O 
  O27      1.0000 0.97545  0.85205  0.68996  Biso   1.000  O 
  O28      1.0000 0.97670  0.64775  0.94359  Biso   1.000  O 
  O29      1.0000 0.77264  0.22319  0.73870  Biso   1.000  O 
  O30      1.0000 0.78338  0.28428  0.99029  Biso   1.000  O 
  O31      1.0000 0.74268  0.78512  0.99409  Biso   1.000  O 
  O32      1.0000 0.74411  0.72527  0.74492  Biso   1.000  O 
