data_image0
_cell_length_a       10.1092
_cell_length_b       10.3191
_cell_length_c       10.4071
_cell_angle_alpha    90
_cell_angle_beta     80
_cell_angle_gamma    90

_symmetry_space_group_name_H-M    "P 1"
_symmetry_int_tables_number       1

loop_
  _symmetry_equiv_pos_as_xyz
  'x, y, z'

loop_
  _atom_site_label
  _atom_site_occupancy
  _atom_site_fract_x
  _atom_site_fract_y
  _atom_site_fract_z
  _atom_site_thermal_displace_type
  _atom_site_B_iso_or_equiv
  _atom_site_type_symbol
  Hf1      1.0000 0.13555  0.02004  0.14719  Biso   1.000  Hf
  Hf2      1.0000 0.13551  0.22819  0.39568  Biso   1.000  Hf
  Hf3      1.0000 0.36193  0.26922  0.11630  Biso   1.000  Hf
  Hf4      1.0000 0.34368  0.48576  0.34824  Biso   1.000  Hf
  O1       1.0000 0.03371  0.17075  0.08382  Biso   1.000  O 
  O2       1.0000 0.03073  0.07789  0.33400  Biso   1.000  O 
  O3       1.0000 0.45728  0.43378  0.16221  Biso   1.000  O 
  O4       1.0000 0.47426  0.35069  0.42276  Biso   1.000  O 
  O5       1.0000 0.26878  0.12374  0.24356  Biso   1.000  O 
  O6       1.0000 0.27588  0.12216  0.49213  Biso   1.000  O 
  O7       1.0000 0.22309  0.37756  0.01140  Biso   1.000  O 
  O8       1.0000 0.20521  0.37448  0.25772  Biso   1.000  O 
  Hf5      1.0000 0.12952  0.01955  0.64805  Biso   1.000  Hf
  Hf6      1.0000 0.12749  0.22677  0.90248  Biso   1.000  Hf
  Hf7      1.0000 0.34794  0.26748  0.61468  Biso   1.000  Hf
  Hf8      1.0000 0.35053  0.47477  0.85966  Biso   1.000  Hf
  O9       1.0000 0.03236  0.17053  0.58257  Biso   1.000  O 
  O10      1.0000 0.02686  0.07705  0.83417  Biso   1.000  O 
  O11      1.0000 0.45425  0.41556  0.67273  Biso   1.000  O 
  O12      1.0000 0.45187  0.32678  0.92592  Biso   1.000  O 
  O13      1.0000 0.26658  0.12833  0.74551  Biso   1.000  O 
  O14      1.0000 0.26506  0.11816  0.99599  Biso   1.000  O 
  O15      1.0000 0.22286  0.37656  0.50967  Biso   1.000  O 
  O16      1.0000 0.21215  0.36863  0.76341  Biso   1.000  O 
  Hf9      1.0000 0.13238  0.52019  0.14329  Biso   1.000  Hf
  Hf10     1.0000 0.12869  0.73003  0.39760  Biso   1.000  Hf
  Hf11     1.0000 0.35686  0.77147  0.10415  Biso   1.000  Hf
  Hf12     1.0000 0.35605  0.97591  0.35693  Biso   1.000  Hf
  O17      1.0000 0.03250  0.67218  0.08078  Biso   1.000  O 
  O18      1.0000 0.02999  0.57970  0.33196  Biso   1.000  O 
  O19      1.0000 0.45660  0.92075  0.16929  Biso   1.000  O 
  O20      1.0000 0.45087  0.82030  0.41906  Biso   1.000  O 
  O21      1.0000 0.26832  0.63097  0.24069  Biso   1.000  O 
  O22      1.0000 0.26352  0.62026  0.49273  Biso   1.000  O 
  O23      1.0000 0.21999  0.87850  0.00974  Biso   1.000  O 
  O24      1.0000 0.21672  0.86922  0.26037  Biso   1.000  O 
  Hf13     1.0000 0.12898  0.52032  0.64764  Biso   1.000  Hf
  Hf14     1.0000 0.12557  0.72710  0.89724  Biso   1.000  Hf
  Hf15     1.0000 0.35114  0.76861  0.60633  Biso   1.000  Hf
  Hf16     1.0000 0.34779  0.97683  0.85751  Biso   1.000  Hf
  O25      1.0000 0.02552  0.66981  0.58451  Biso   1.000  O 
  O26      1.0000 0.02499  0.57679  0.83317  Biso   1.000  O 
  O27      1.0000 0.45090  0.91998  0.66889  Biso   1.000  O 
  O28      1.0000 0.45009  0.82771  0.91973  Biso   1.000  O 
  O29      1.0000 0.26575  0.62670  0.74261  Biso   1.000  O 
  O30      1.0000 0.26277  0.61847  0.99244  Biso   1.000  O 
  O31      1.0000 0.21388  0.87980  0.51132  Biso   1.000  O 
  O32      1.0000 0.21147  0.86941  0.76150  Biso   1.000  O 
  Hf17     1.0000 0.63657  0.01742  0.14757  Biso   1.000  Hf
  Hf18     1.0000 0.63943  0.22390  0.39241  Biso   1.000  Hf
  Hf19     1.0000 0.85777  0.27092  0.10430  Biso   1.000  Hf
  Hf20     1.0000 0.85617  0.47732  0.35600  Biso   1.000  Hf
  O33      1.0000 0.53483  0.16448  0.08067  Biso   1.000  O 
  O34      1.0000 0.54243  0.05739  0.34192  Biso   1.000  O 
  O35      1.0000 0.95679  0.42301  0.16679  Biso   1.000  O 
  O36      1.0000 0.95828  0.32769  0.41948  Biso   1.000  O 
  O37      1.0000 0.77473  0.12775  0.23968  Biso   1.000  O 
  O38      1.0000 0.77227  0.11658  0.49228  Biso   1.000  O 
  O39      1.0000 0.72086  0.37929  0.00998  Biso   1.000  O 
  O40      1.0000 0.72112  0.37062  0.25989  Biso   1.000  O 
  Hf21     1.0000 0.62895  0.02082  0.64485  Biso   1.000  Hf
  Hf22     1.0000 0.62653  0.22588  0.89843  Biso   1.000  Hf
  Hf23     1.0000 0.85408  0.26886  0.60550  Biso   1.000  Hf
  Hf24     1.0000 0.84955  0.47587  0.85624  Biso   1.000  Hf
  O41      1.0000 0.52706  0.17171  0.57790  Biso   1.000  O 
  O42      1.0000 0.52492  0.07914  0.82986  Biso   1.000  O 
  O43      1.0000 0.95486  0.41843  0.67020  Biso   1.000  O 
  O44      1.0000 0.95175  0.32707  0.92087  Biso   1.000  O 
  O45      1.0000 0.76650  0.12720  0.74162  Biso   1.000  O 
  O46      1.0000 0.76480  0.11882  0.99223  Biso   1.000  O 
  O47      1.0000 0.71812  0.37615  0.51119  Biso   1.000  O 
  O48      1.0000 0.71379  0.36818  0.76124  Biso   1.000  O 
  Hf25     1.0000 0.63786  0.52366  0.14529  Biso   1.000  Hf
  Hf26     1.0000 0.62979  0.72559  0.39684  Biso   1.000  Hf
  Hf27     1.0000 0.85709  0.77067  0.10414  Biso   1.000  Hf
  Hf28     1.0000 0.85319  0.97612  0.35525  Biso   1.000  Hf
  O49      1.0000 0.53482  0.67386  0.08175  Biso   1.000  O 
  O50      1.0000 0.52778  0.57835  0.33020  Biso   1.000  O 
  O51      1.0000 0.95746  0.91987  0.16926  Biso   1.000  O 
  O52      1.0000 0.95339  0.82769  0.42080  Biso   1.000  O 
  O53      1.0000 0.77149  0.62820  0.24212  Biso   1.000  O 
  O54      1.0000 0.76720  0.61829  0.49248  Biso   1.000  O 
  O55      1.0000 0.72027  0.87913  0.00892  Biso   1.000  O 
  O56      1.0000 0.71840  0.86622  0.25915  Biso   1.000  O 
  Hf29     1.0000 0.62945  0.51797  0.64768  Biso   1.000  Hf
  Hf30     1.0000 0.62588  0.72707  0.89702  Biso   1.000  Hf
  Hf31     1.0000 0.84925  0.76973  0.60645  Biso   1.000  Hf
  Hf32     1.0000 0.84777  0.97756  0.85584  Biso   1.000  Hf
  O57      1.0000 0.52634  0.66722  0.58400  Biso   1.000  O 
  O58      1.0000 0.52529  0.57644  0.83412  Biso   1.000  O 
  O59      1.0000 0.95194  0.92017  0.66936  Biso   1.000  O 
  O60      1.0000 0.94954  0.82727  0.91910  Biso   1.000  O 
  O61      1.0000 0.76542  0.62704  0.74256  Biso   1.000  O 
  O62      1.0000 0.76349  0.61881  0.99215  Biso   1.000  O 
  O63      1.0000 0.71224  0.87658  0.51052  Biso   1.000  O 
  O64      1.0000 0.71059  0.86950  0.76021  Biso   1.000  O 
  C1       1.0000 0.45196  0.28803  0.31678  Biso   1.000  C 
