data_image0
_cell_length_a       10.1197
_cell_length_b       10.4056
_cell_length_c       5.09176
_cell_angle_alpha    90
_cell_angle_beta     90
_cell_angle_gamma    90

_symmetry_space_group_name_H-M    "P 1"
_symmetry_int_tables_number       1

loop_
  _symmetry_equiv_pos_as_xyz
  'x, y, z'

loop_
  _atom_site_label
  _atom_site_occupancy
  _atom_site_fract_x
  _atom_site_fract_y
  _atom_site_fract_z
  _atom_site_thermal_displace_type
  _atom_site_B_iso_or_equiv
  _atom_site_type_symbol
  Hf1      1.0000 0.10458  0.96196  0.22284  Biso   1.000  Hf
  Hf2      1.0000 0.11135  0.20558  0.82300  Biso   1.000  Hf
  Hf3      1.0000 0.38902  0.24787  0.28611  Biso   1.000  Hf
  Hf4      1.0000 0.34991  0.99376  0.75422  Biso   1.000  Hf
  O1       1.0000 0.98247  0.12641  0.06088  Biso   1.000  O 
  O2       1.0000 0.03409  0.05172  0.56125  Biso   1.000  O 
  O3       1.0000 0.96623  0.29314  0.60102  Biso   1.000  O 
  O4       1.0000 0.00272  0.38315  0.08559  Biso   1.000  O 
  O5       1.0000 0.27693  0.16207  0.59174  Biso   1.000  O 
  O6       1.0000 0.23579  0.10520  0.06252  Biso   1.000  O 
  O7       1.0000 0.25409  0.35969  0.01682  Biso   1.000  O 
  O8       1.0000 0.26242  0.40660  0.48656  Biso   1.000  O 
  Hf5      1.0000 0.15103  0.51836  0.22476  Biso   1.000  Hf
  Hf6      1.0000 0.10399  0.70778  0.72177  Biso   1.000  Hf
  Hf7      1.0000 0.36247  0.76418  0.19012  Biso   1.000  Hf
  Hf8      1.0000 0.39256  0.45848  0.77409  Biso   1.000  Hf
  O9       1.0000 0.00141  0.63424  0.01455  Biso   1.000  O 
  O10      1.0000 0.02032  0.55013  0.53203  Biso   1.000  O 
  O11      1.0000 0.01816  0.80584  0.41592  Biso   1.000  O 
  O12      1.0000 0.98066  0.84856  0.93043  Biso   1.000  O 
  O13      1.0000 0.24356  0.66407  0.43480  Biso   1.000  O 
  O14      1.0000 0.25194  0.58511  0.93696  Biso   1.000  O 
  O15      1.0000 0.23247  0.83116  0.93334  Biso   1.000  O 
  O16      1.0000 0.27583  0.91229  0.42241  Biso   1.000  O 
  Hf9      1.0000 0.60965  0.97921  0.22742  Biso   1.000  Hf
  Hf10     1.0000 0.61158  0.20802  0.79682  Biso   1.000  Hf
  Hf11     1.0000 0.84307  0.25718  0.27088  Biso   1.000  Hf
  Hf12     1.0000 0.85973  0.99170  0.74989  Biso   1.000  Hf
  O17      1.0000 0.48774  0.13218  0.02149  Biso   1.000  O 
  O18      1.0000 0.51007  0.07286  0.52207  Biso   1.000  O 
  O19      1.0000 0.50462  0.32217  0.56515  Biso   1.000  O 
  O20      1.0000 0.50290  0.38634  0.06064  Biso   1.000  O 
  O21      1.0000 0.75988  0.14765  0.55722  Biso   1.000  O 
  O22      1.0000 0.73565  0.11174  0.03486  Biso   1.000  O 
  O23      1.0000 0.74504  0.33492  0.97543  Biso   1.000  O 
  O24      1.0000 0.76649  0.41634  0.46673  Biso   1.000  O 
  Hf13     1.0000 0.64329  0.51395  0.22833  Biso   1.000  Hf
  Hf14     1.0000 0.60352  0.71417  0.72183  Biso   1.000  Hf
  Hf15     1.0000 0.85530  0.75938  0.18254  Biso   1.000  Hf
  Hf16     1.0000 0.89501  0.45416  0.78404  Biso   1.000  Hf
  O25      1.0000 0.50159  0.63984  0.01025  Biso   1.000  O 
  O26      1.0000 0.50928  0.56484  0.52202  Biso   1.000  O 
  O27      1.0000 0.52242  0.82041  0.42174  Biso   1.000  O 
  O28      1.0000 0.48272  0.85953  0.94137  Biso   1.000  O 
  O29      1.0000 0.73837  0.66511  0.43595  Biso   1.000  O 
  O30      1.0000 0.74913  0.58377  0.94135  Biso   1.000  O 
  O31      1.0000 0.73252  0.83570  0.92936  Biso   1.000  O 
  O32      1.0000 0.78061  0.91438  0.41442  Biso   1.000  O 
  Ca1      1.0000 0.12122  0.24198  0.32495  Biso   1.000  Ca
