data_image0
_cell_length_a       10.1212
_cell_length_b       5.29348
_cell_length_c       10.1159
_cell_angle_alpha    80
_cell_angle_beta     90
_cell_angle_gamma    90

_symmetry_space_group_name_H-M    "P 1"
_symmetry_int_tables_number       1

loop_
  _symmetry_equiv_pos_as_xyz
  'x, y, z'

loop_
  _atom_site_label
  _atom_site_occupancy
  _atom_site_fract_x
  _atom_site_fract_y
  _atom_site_fract_z
  _atom_site_thermal_displace_type
  _atom_site_B_iso_or_equiv
  _atom_site_type_symbol
  Hf1      1.0000 0.15300  0.09861  0.13237  Biso   1.000  Hf
  Hf2      1.0000 0.14232  0.41126  0.38697  Biso   1.000  Hf
  Hf3      1.0000 0.37631  0.55131  0.11552  Biso   1.000  Hf
  Hf4      1.0000 0.36362  0.89652  0.38414  Biso   1.000  Hf
  O1       1.0000 0.02893  0.35341  0.20753  Biso   1.000  O 
  O2       1.0000 0.04978  0.05286  0.44528  Biso   1.000  O 
  O3       1.0000 0.48686  0.78071  0.22860  Biso   1.000  O 
  O4       1.0000 0.45863  0.54796  0.46565  Biso   1.000  O 
  O5       1.0000 0.28818  0.22709  0.25963  Biso   1.000  O 
  O6       1.0000 0.27469  0.17375  0.51437  Biso   1.000  O 
  O7       1.0000 0.22618  0.67075  0.51142  Biso   1.000  O 
  O8       1.0000 0.22842  0.71632  0.24945  Biso   1.000  O 
  Hf5      1.0000 0.13703  0.91232  0.63508  Biso   1.000  Hf
  Hf6      1.0000 0.09805  0.30370  0.84253  Biso   1.000  Hf
  Hf7      1.0000 0.36249  0.42147  0.64419  Biso   1.000  Hf
  Hf8      1.0000 0.40355  0.85327  0.85792  Biso   1.000  Hf
  O9       1.0000 0.01886  0.21562  0.67235  Biso   1.000  O 
  O10      1.0000 0.03915  0.95491  0.95026  Biso   1.000  O 
  O11      1.0000 0.47365  0.73398  0.68634  Biso   1.000  O 
  O12      1.0000 0.47715  0.49248  0.94566  Biso   1.000  O 
  O13      1.0000 0.25492  0.09879  0.76341  Biso   1.000  O 
  O14      1.0000 0.23705  0.39258  0.00162  Biso   1.000  O 
  O15      1.0000 0.29517  0.90391  0.01828  Biso   1.000  O 
  O16      1.0000 0.23752  0.59882  0.76878  Biso   1.000  O 
  Hf9      1.0000 0.64152  0.99957  0.14008  Biso   1.000  Hf
  Hf10     1.0000 0.59990  0.41977  0.35774  Biso   1.000  Hf
  Hf11     1.0000 0.84725  0.49549  0.13498  Biso   1.000  Hf
  Hf12     1.0000 0.89990  0.90771  0.35678  Biso   1.000  Hf
  O17      1.0000 0.53659  0.31751  0.18126  Biso   1.000  O 
  O18      1.0000 0.53016  0.05335  0.44305  Biso   1.000  O 
  O19      1.0000 0.96854  0.85090  0.17985  Biso   1.000  O 
  O20      1.0000 0.97047  0.55124  0.44690  Biso   1.000  O 
  O21      1.0000 0.76405  0.18528  0.26822  Biso   1.000  O 
  O22      1.0000 0.71468  0.31011  0.52056  Biso   1.000  O 
  O23      1.0000 0.77937  0.80624  0.51866  Biso   1.000  O 
  O24      1.0000 0.73984  0.68382  0.26687  Biso   1.000  O 
  Hf13     1.0000 0.63965  0.95698  0.62180  Biso   1.000  Hf
  Hf14     1.0000 0.63866  0.31672  0.88770  Biso   1.000  Hf
  Hf15     1.0000 0.85637  0.45763  0.62542  Biso   1.000  Hf
  Hf16     1.0000 0.86491  0.81553  0.88379  Biso   1.000  Hf
  O25      1.0000 0.51225  0.19520  0.73369  Biso   1.000  O 
  O26      1.0000 0.54131  0.97772  0.97119  Biso   1.000  O 
  O27      1.0000 0.98177  0.69943  0.72139  Biso   1.000  O 
  O28      1.0000 0.94043  0.44798  0.94810  Biso   1.000  O 
  O29      1.0000 0.76510  0.11578  0.75940  Biso   1.000  O 
  O30      1.0000 0.77054  0.24679  0.01113  Biso   1.000  O 
  O31      1.0000 0.72707  0.75600  0.00988  Biso   1.000  O 
  O32      1.0000 0.72729  0.61957  0.75907  Biso   1.000  O 
  Ca1      1.0000 0.10680  0.69057  0.04703  Biso   1.000  Ca
