data_image0
_cell_length_a       10.0495
_cell_length_b       5.14564
_cell_length_c       10.6165
_cell_angle_alpha    90
_cell_angle_beta     90
_cell_angle_gamma    90

_symmetry_space_group_name_H-M    "P 1"
_symmetry_int_tables_number       1

loop_
  _symmetry_equiv_pos_as_xyz
  'x, y, z'

loop_
  _atom_site_label
  _atom_site_occupancy
  _atom_site_fract_x
  _atom_site_fract_y
  _atom_site_fract_z
  _atom_site_thermal_displace_type
  _atom_site_B_iso_or_equiv
  _atom_site_type_symbol
  Hf1      1.0000 0.13350  0.04320  0.17539  Biso   1.000  Hf
  Hf2      1.0000 0.12668  0.45048  0.42739  Biso   1.000  Hf
  Hf3      1.0000 0.34431  0.54844  0.19141  Biso   1.000  Hf
  Hf4      1.0000 0.34785  0.95450  0.42976  Biso   1.000  Hf
  Hf5      1.0000 0.64425  0.04793  0.08202  Biso   1.000  Hf
  Hf6      1.0000 0.63009  0.45010  0.33062  Biso   1.000  Hf
  Hf7      1.0000 0.86195  0.53922  0.07774  Biso   1.000  Hf
  Hf8      1.0000 0.84980  0.95299  0.32630  Biso   1.000  Hf
  O1       1.0000 0.03191  0.32124  0.08190  Biso   1.000  O 
  O2       1.0000 0.02276  0.17097  0.33394  Biso   1.000  O 
  O3       1.0000 0.45203  0.85403  0.09594  Biso   1.000  O 
  O4       1.0000 0.45791  0.66995  0.34049  Biso   1.000  O 
  O5       1.0000 0.26448  0.24806  0.30262  Biso   1.000  O 
  O6       1.0000 0.27929  0.26561  0.04748  Biso   1.000  O 
  O7       1.0000 0.20936  0.75116  0.30643  Biso   1.000  O 
  O8       1.0000 0.21621  0.75866  0.05265  Biso   1.000  O 
  O9       1.0000 0.51886  0.31153  0.18305  Biso   1.000  O 
  O10      1.0000 0.51990  0.17082  0.42219  Biso   1.000  O 
  O11      1.0000 0.96089  0.82593  0.17177  Biso   1.000  O 
  O12      1.0000 0.95865  0.67343  0.42154  Biso   1.000  O 
  O13      1.0000 0.76577  0.24507  0.45168  Biso   1.000  O 
  O14      1.0000 0.77878  0.24921  0.20560  Biso   1.000  O 
  O15      1.0000 0.71274  0.74553  0.45314  Biso   1.000  O 
  O16      1.0000 0.71337  0.73674  0.20153  Biso   1.000  O 
  Hf9      1.0000 0.12513  0.03905  0.67634  Biso   1.000  Hf
  Hf10     1.0000 0.11787  0.46068  0.92511  Biso   1.000  Hf
  Hf11     1.0000 0.34520  0.54168  0.67691  Biso   1.000  Hf
  Hf12     1.0000 0.33546  0.96598  0.92692  Biso   1.000  Hf
  Hf13     1.0000 0.62893  0.03460  0.57225  Biso   1.000  Hf
  Hf14     1.0000 0.63354  0.44978  0.79922  Biso   1.000  Hf
  Hf15     1.0000 0.85312  0.54260  0.57487  Biso   1.000  Hf
  Hf16     1.0000 0.84326  0.95779  0.83089  Biso   1.000  Hf
  O17      1.0000 0.01959  0.31981  0.58306  Biso   1.000  O 
  O18      1.0000 0.01552  0.17341  0.83359  Biso   1.000  O 
  O19      1.0000 0.45630  0.81713  0.58377  Biso   1.000  O 
  O20      1.0000 0.45334  0.66713  0.83264  Biso   1.000  O 
  O21      1.0000 0.25824  0.25035  0.79847  Biso   1.000  O 
  O22      1.0000 0.26361  0.24696  0.55034  Biso   1.000  O 
  O23      1.0000 0.20584  0.74691  0.80171  Biso   1.000  O 
  O24      1.0000 0.21036  0.74759  0.55340  Biso   1.000  O 
  O25      1.0000 0.51490  0.31395  0.66325  Biso   1.000  O 
  O26      1.0000 0.51188  0.16286  0.91822  Biso   1.000  O 
  O27      1.0000 0.95469  0.81812  0.67389  Biso   1.000  O 
  O28      1.0000 0.94689  0.67177  0.92113  Biso   1.000  O 
  O29      1.0000 0.74912  0.26219  0.94647  Biso   1.000  O 
  O30      1.0000 0.76961  0.23803  0.69400  Biso   1.000  O 
  O31      1.0000 0.70400  0.75748  0.95304  Biso   1.000  O 
  O32      1.0000 0.71262  0.75042  0.69965  Biso   1.000  O 
  Ca1      1.0000 0.55427  0.53518  0.01748  Biso   1.000  Ca
