data_image0
_cell_length_a       10.0338
_cell_length_b       5.16672
_cell_length_c       10.0845
_cell_angle_alpha    90
_cell_angle_beta     90
_cell_angle_gamma    90

_symmetry_space_group_name_H-M    "P 1"
_symmetry_int_tables_number       1

loop_
  _symmetry_equiv_pos_as_xyz
  'x, y, z'

loop_
  _atom_site_label
  _atom_site_occupancy
  _atom_site_fract_x
  _atom_site_fract_y
  _atom_site_fract_z
  _atom_site_thermal_displace_type
  _atom_site_B_iso_or_equiv
  _atom_site_type_symbol
  Ca1      1.0000 0.13082  0.02589  0.12158  Biso   1.000  Ca
  Hf1      1.0000 0.13071  0.03091  0.62604  Biso   1.000  Hf
  Hf2      1.0000 0.63286  0.02845  0.12419  Biso   1.000  Hf
  Hf3      1.0000 0.62922  0.02796  0.62466  Biso   1.000  Hf
  Hf4      1.0000 0.13495  0.46606  0.37583  Biso   1.000  Hf
  Hf5      1.0000 0.13526  0.46360  0.87518  Biso   1.000  Hf
  Hf6      1.0000 0.62956  0.46347  0.37601  Biso   1.000  Hf
  Hf7      1.0000 0.63145  0.46096  0.87414  Biso   1.000  Hf
  Hf8      1.0000 0.36202  0.52762  0.12584  Biso   1.000  Hf
  Hf9      1.0000 0.36274  0.53037  0.62520  Biso   1.000  Hf
  Hf10     1.0000 0.86076  0.53194  0.12731  Biso   1.000  Hf
  Hf11     1.0000 0.86298  0.52884  0.62418  Biso   1.000  Hf
  Hf12     1.0000 0.35988  0.96587  0.37326  Biso   1.000  Hf
  Hf13     1.0000 0.36042  0.96059  0.87687  Biso   1.000  Hf
  Hf14     1.0000 0.86216  0.96441  0.37778  Biso   1.000  Hf
  Hf15     1.0000 0.86004  0.96166  0.87357  Biso   1.000  Hf
  O1       1.0000 0.02777  0.39100  0.20471  Biso   1.000  O 
  O2       1.0000 0.03491  0.37254  0.68883  Biso   1.000  O 
  O3       1.0000 0.53602  0.36488  0.19359  Biso   1.000  O 
  O4       1.0000 0.53195  0.36251  0.69472  Biso   1.000  O 
  O5       1.0000 0.03179  0.12973  0.44574  Biso   1.000  O 
  O6       1.0000 0.02561  0.14486  0.92604  Biso   1.000  O 
  O7       1.0000 0.53166  0.12830  0.44522  Biso   1.000  O 
  O8       1.0000 0.53260  0.12657  0.94345  Biso   1.000  O 
  O9       1.0000 0.46402  0.86740  0.19489  Biso   1.000  O 
  O10      1.0000 0.46199  0.86212  0.69594  Biso   1.000  O 
  O11      1.0000 0.94700  0.86378  0.20138  Biso   1.000  O 
  O12      1.0000 0.95962  0.86612  0.69314  Biso   1.000  O 
  O13      1.0000 0.46319  0.63051  0.44775  Biso   1.000  O 
  O14      1.0000 0.46802  0.63207  0.94652  Biso   1.000  O 
  O15      1.0000 0.96285  0.63280  0.44779  Biso   1.000  O 
  O16      1.0000 0.96490  0.63659  0.94842  Biso   1.000  O 
  O17      1.0000 0.27808  0.24565  0.25460  Biso   1.000  O 
  O18      1.0000 0.26781  0.23190  0.74771  Biso   1.000  O 
  O19      1.0000 0.76655  0.23043  0.24916  Biso   1.000  O 
  O20      1.0000 0.76707  0.22949  0.74688  Biso   1.000  O 
  O21      1.0000 0.26698  0.26074  0.50132  Biso   1.000  O 
  O22      1.0000 0.27344  0.26007  0.99305  Biso   1.000  O 
  O23      1.0000 0.76549  0.26449  0.49869  Biso   1.000  O 
  O24      1.0000 0.76587  0.25828  0.99767  Biso   1.000  O 
  O25      1.0000 0.22702  0.76449  0.50047  Biso   1.000  O 
  O26      1.0000 0.23357  0.74312  0.99359  Biso   1.000  O 
  O27      1.0000 0.72650  0.76191  0.49947  Biso   1.000  O 
  O28      1.0000 0.72582  0.75860  0.99856  Biso   1.000  O 
  O29      1.0000 0.23601  0.72171  0.25500  Biso   1.000  O 
  O30      1.0000 0.22638  0.73411  0.74687  Biso   1.000  O 
  O31      1.0000 0.71991  0.73028  0.24985  Biso   1.000  O 
  O32      1.0000 0.72629  0.72898  0.74822  Biso   1.000  O 
