data_image0
_cell_length_a       10.0639
_cell_length_b       10.1973
_cell_length_c       4.99592
_cell_angle_alpha    90
_cell_angle_beta     90
_cell_angle_gamma    90

_symmetry_space_group_name_H-M    "P 1"
_symmetry_int_tables_number       1

loop_
  _symmetry_equiv_pos_as_xyz
  'x, y, z'

loop_
  _atom_site_label
  _atom_site_occupancy
  _atom_site_fract_x
  _atom_site_fract_y
  _atom_site_fract_z
  _atom_site_thermal_displace_type
  _atom_site_B_iso_or_equiv
  _atom_site_type_symbol
  Ca1      1.0000 0.12521  0.99985  0.25127  Biso   1.000  Ca
  Hf1      1.0000 0.12518  0.49985  0.25128  Biso   1.000  Hf
  Hf2      1.0000 0.62521  0.99984  0.25129  Biso   1.000  Hf
  Hf3      1.0000 0.62519  0.49984  0.25127  Biso   1.000  Hf
  Hf4      1.0000 0.12519  0.25077  0.75128  Biso   1.000  Hf
  Hf5      1.0000 0.12519  0.74892  0.75128  Biso   1.000  Hf
  Hf6      1.0000 0.62518  0.24715  0.75129  Biso   1.000  Hf
  Hf7      1.0000 0.62520  0.75253  0.75128  Biso   1.000  Hf
  Hf8      1.0000 0.37477  0.25059  0.25071  Biso   1.000  Hf
  Hf9      1.0000 0.37478  0.74911  0.25185  Biso   1.000  Hf
  Hf10     1.0000 0.87559  0.25058  0.25186  Biso   1.000  Hf
  Hf11     1.0000 0.87560  0.74911  0.25071  Biso   1.000  Hf
  Hf12     1.0000 0.37240  0.99983  0.75128  Biso   1.000  Hf
  Hf13     1.0000 0.37565  0.49985  0.75128  Biso   1.000  Hf
  Hf14     1.0000 0.87801  0.99986  0.75127  Biso   1.000  Hf
  Hf15     1.0000 0.87472  0.49984  0.75127  Biso   1.000  Hf
  O1       1.0000 0.99747  0.14403  0.00044  Biso   1.000  O 
  O2       1.0000 0.00504  0.63732  0.01678  Biso   1.000  O 
  O3       1.0000 0.50779  0.14610  0.01909  Biso   1.000  O 
  O4       1.0000 0.50432  0.64446  0.00452  Biso   1.000  O 
  O5       1.0000 0.99043  0.12122  0.51955  Biso   1.000  O 
  O6       1.0000 0.99815  0.60869  0.51263  Biso   1.000  O 
  O7       1.0000 0.49966  0.10373  0.51310  Biso   1.000  O 
  O8       1.0000 0.49685  0.60466  0.50216  Biso   1.000  O 
  O9       1.0000 0.00503  0.36237  0.48579  Biso   1.000  O 
  O10      1.0000 0.99749  0.85567  0.50209  Biso   1.000  O 
  O11      1.0000 0.50433  0.35522  0.49801  Biso   1.000  O 
  O12      1.0000 0.50780  0.85357  0.48353  Biso   1.000  O 
  O13      1.0000 0.99815  0.39101  0.98994  Biso   1.000  O 
  O14      1.0000 0.99044  0.87847  0.98299  Biso   1.000  O 
  O15      1.0000 0.49685  0.39502  0.00037  Biso   1.000  O 
  O16      1.0000 0.49967  0.89595  0.98952  Biso   1.000  O 
  O17      1.0000 0.25289  0.14402  0.50210  Biso   1.000  O 
  O18      1.0000 0.24534  0.63733  0.48578  Biso   1.000  O 
  O19      1.0000 0.74259  0.14610  0.48354  Biso   1.000  O 
  O20      1.0000 0.74605  0.64446  0.49799  Biso   1.000  O 
  O21      1.0000 0.25994  0.12122  0.98299  Biso   1.000  O 
  O22      1.0000 0.25222  0.60869  0.98993  Biso   1.000  O 
  O23      1.0000 0.75072  0.10373  0.98953  Biso   1.000  O 
  O24      1.0000 0.75352  0.60466  0.00036  Biso   1.000  O 
  O25      1.0000 0.24533  0.36237  0.01678  Biso   1.000  O 
  O26      1.0000 0.25289  0.85566  0.00045  Biso   1.000  O 
  O27      1.0000 0.74604  0.35522  0.00453  Biso   1.000  O 
  O28      1.0000 0.74257  0.85358  0.01908  Biso   1.000  O 
  O29      1.0000 0.25222  0.39101  0.51263  Biso   1.000  O 
  O30      1.0000 0.25995  0.87847  0.51956  Biso   1.000  O 
  O31      1.0000 0.75352  0.39502  0.50216  Biso   1.000  O 
  O32      1.0000 0.75072  0.89595  0.51309  Biso   1.000  O 
