data_image0
_cell_length_a       10.1172
_cell_length_b       10.4265
_cell_length_c       5.09284
_cell_angle_alpha    90
_cell_angle_beta     90
_cell_angle_gamma    90

_symmetry_space_group_name_H-M    "P 1"
_symmetry_int_tables_number       1

loop_
  _symmetry_equiv_pos_as_xyz
  'x, y, z'

loop_
  _atom_site_label
  _atom_site_occupancy
  _atom_site_fract_x
  _atom_site_fract_y
  _atom_site_fract_z
  _atom_site_thermal_displace_type
  _atom_site_B_iso_or_equiv
  _atom_site_type_symbol
  Hf1      1.0000 0.07255  0.96764  0.16687  Biso   1.000  Hf
  Hf2      1.0000 0.09553  0.23583  0.72386  Biso   1.000  Hf
  Hf3      1.0000 0.35086  0.26815  0.22683  Biso   1.000  Hf
  Hf4      1.0000 0.33522  0.48178  0.74404  Biso   1.000  Hf
  O1       1.0000 0.93673  0.17178  0.49745  Biso   1.000  O 
  O2       1.0000 0.00779  0.06990  0.93780  Biso   1.000  O 
  O3       1.0000 0.44054  0.43035  0.40003  Biso   1.000  O 
  O4       1.0000 0.44182  0.32946  0.90318  Biso   1.000  O 
  O5       1.0000 0.20576  0.10744  0.45447  Biso   1.000  O 
  O6       1.0000 0.24203  0.13605  0.96145  Biso   1.000  O 
  O7       1.0000 0.19702  0.38631  0.98585  Biso   1.000  O 
  O8       1.0000 0.20916  0.36325  0.48244  Biso   1.000  O 
  Hf5      1.0000 0.10232  0.52412  0.24599  Biso   1.000  Hf
  Hf6      1.0000 0.10447  0.72872  0.74276  Biso   1.000  Hf
  Hf7      1.0000 0.33803  0.76362  0.25230  Biso   1.000  Hf
  Hf8      1.0000 0.35482  0.01990  0.67331  Biso   1.000  Hf
  O9       1.0000 0.99225  0.67092  0.41979  Biso   1.000  O 
  O10      1.0000 0.00013  0.56777  0.90235  Biso   1.000  O 
  O11      1.0000 0.42023  0.92489  0.43303  Biso   1.000  O 
  O12      1.0000 0.47301  0.82133  0.98003  Biso   1.000  O 
  O13      1.0000 0.23732  0.61470  0.49545  Biso   1.000  O 
  O14      1.0000 0.23676  0.63358  0.99462  Biso   1.000  O 
  O15      1.0000 0.21777  0.87967  0.95036  Biso   1.000  O 
  O16      1.0000 0.18448  0.85802  0.45859  Biso   1.000  O 
  Hf9      1.0000 0.56683  0.97827  0.17540  Biso   1.000  Hf
  Hf10     1.0000 0.59769  0.23017  0.75483  Biso   1.000  Hf
  Hf11     1.0000 0.80728  0.26399  0.24630  Biso   1.000  Hf
  Hf12     1.0000 0.83938  0.47706  0.75067  Biso   1.000  Hf
  O17      1.0000 0.45421  0.17446  0.49510  Biso   1.000  O 
  O18      1.0000 0.49934  0.07748  0.94878  Biso   1.000  O 
  O19      1.0000 0.94651  0.41622  0.41164  Biso   1.000  O 
  O20      1.0000 0.93159  0.31925  0.92277  Biso   1.000  O 
  O21      1.0000 0.70272  0.10961  0.46652  Biso   1.000  O 
  O22      1.0000 0.74255  0.12889  0.96650  Biso   1.000  O 
  O23      1.0000 0.69468  0.38503  0.99678  Biso   1.000  O 
  O24      1.0000 0.69328  0.36576  0.50455  Biso   1.000  O 
  Hf13     1.0000 0.59896  0.51881  0.24938  Biso   1.000  Hf
  Hf14     1.0000 0.60561  0.72817  0.75092  Biso   1.000  Hf
  Hf15     1.0000 0.83228  0.76273  0.25594  Biso   1.000  Hf
  Hf16     1.0000 0.85979  0.01341  0.67876  Biso   1.000  Hf
  O25      1.0000 0.49522  0.67509  0.42216  Biso   1.000  O 
  O26      1.0000 0.49732  0.57231  0.90705  Biso   1.000  O 
  O27      1.0000 0.92325  0.92151  0.43185  Biso   1.000  O 
  O28      1.0000 0.97192  0.81445  0.97953  Biso   1.000  O 
  O29      1.0000 0.73725  0.61134  0.49598  Biso   1.000  O 
  O30      1.0000 0.73882  0.63078  0.99451  Biso   1.000  O 
  O31      1.0000 0.71600  0.88026  0.96769  Biso   1.000  O 
  O32      1.0000 0.68394  0.86014  0.46929  Biso   1.000  O 
  Ca1      1.0000 0.07960  0.24360  0.21642  Biso   1.000  Ca
