data_image0
_cell_length_a       10.0353
_cell_length_b       10.3689
_cell_length_c       5.02349
_cell_angle_alpha    90
_cell_angle_beta     90
_cell_angle_gamma    90

_symmetry_space_group_name_H-M    "P 1"
_symmetry_int_tables_number       1

loop_
  _symmetry_equiv_pos_as_xyz
  'x, y, z'

loop_
  _atom_site_label
  _atom_site_occupancy
  _atom_site_fract_x
  _atom_site_fract_y
  _atom_site_fract_z
  _atom_site_thermal_displace_type
  _atom_site_B_iso_or_equiv
  _atom_site_type_symbol
  Ca1      1.0000 0.12892  0.01236  0.24835  Biso   1.000  Ca
  Hf1      1.0000 0.13466  0.51596  0.25265  Biso   1.000  Hf
  Hf2      1.0000 0.63219  0.01526  0.24903  Biso   1.000  Hf
  Hf3      1.0000 0.63207  0.51554  0.25310  Biso   1.000  Hf
  Hf4      1.0000 0.13268  0.23294  0.75131  Biso   1.000  Hf
  Hf5      1.0000 0.13610  0.73376  0.75622  Biso   1.000  Hf
  Hf6      1.0000 0.63134  0.23166  0.74987  Biso   1.000  Hf
  Hf7      1.0000 0.63189  0.73173  0.75359  Biso   1.000  Hf
  Hf8      1.0000 0.36469  0.26568  0.25424  Biso   1.000  Hf
  Hf9      1.0000 0.36497  0.76612  0.25187  Biso   1.000  Hf
  Hf10     1.0000 0.86132  0.26652  0.25173  Biso   1.000  Hf
  Hf11     1.0000 0.86313  0.76578  0.25549  Biso   1.000  Hf
  Hf12     1.0000 0.36322  0.48164  0.75330  Biso   1.000  Hf
  Hf13     1.0000 0.36138  0.98082  0.75114  Biso   1.000  Hf
  Hf14     1.0000 0.86293  0.48352  0.75640  Biso   1.000  Hf
  Hf15     1.0000 0.86181  0.98076  0.75043  Biso   1.000  Hf
  O1       1.0000 0.03084  0.19959  0.39751  Biso   1.000  O 
  O2       1.0000 0.03439  0.68337  0.39253  Biso   1.000  O 
  O3       1.0000 0.53806  0.18504  0.38277  Biso   1.000  O 
  O4       1.0000 0.53406  0.68109  0.39415  Biso   1.000  O 
  O5       1.0000 0.02894  0.07144  0.85050  Biso   1.000  O 
  O6       1.0000 0.03244  0.56633  0.89320  Biso   1.000  O 
  O7       1.0000 0.53490  0.06417  0.88447  Biso   1.000  O 
  O8       1.0000 0.53188  0.56498  0.89376  Biso   1.000  O 
  O9       1.0000 0.46406  0.43266  0.39354  Biso   1.000  O 
  O10      1.0000 0.46330  0.93440  0.38964  Biso   1.000  O 
  O11      1.0000 0.96227  0.43789  0.39296  Biso   1.000  O 
  O12      1.0000 0.94769  0.92727  0.40123  Biso   1.000  O 
  O13      1.0000 0.46394  0.31601  0.89047  Biso   1.000  O 
  O14      1.0000 0.46873  0.81698  0.89831  Biso   1.000  O 
  O15      1.0000 0.96333  0.31965  0.89808  Biso   1.000  O 
  O16      1.0000 0.96543  0.81617  0.89998  Biso   1.000  O 
  O17      1.0000 0.28067  0.12697  0.51284  Biso   1.000  O 
  O18      1.0000 0.26872  0.61439  0.50025  Biso   1.000  O 
  O19      1.0000 0.76772  0.11623  0.49816  Biso   1.000  O 
  O20      1.0000 0.76913  0.61598  0.49924  Biso   1.000  O 
  O21      1.0000 0.27460  0.13332  0.99421  Biso   1.000  O 
  O22      1.0000 0.27148  0.62910  0.00134  Biso   1.000  O 
  O23      1.0000 0.76705  0.13256  0.99865  Biso   1.000  O 
  O24      1.0000 0.76657  0.62990  0.99860  Biso   1.000  O 
  O25      1.0000 0.23073  0.38254  0.00092  Biso   1.000  O 
  O26      1.0000 0.23443  0.87266  0.99267  Biso   1.000  O 
  O27      1.0000 0.72589  0.38212  0.99914  Biso   1.000  O 
  O28      1.0000 0.73047  0.88069  0.00174  Biso   1.000  O 
  O29      1.0000 0.22740  0.36958  0.49907  Biso   1.000  O 
  O30      1.0000 0.23728  0.85859  0.50791  Biso   1.000  O 
  O31      1.0000 0.72874  0.36739  0.50141  Biso   1.000  O 
  O32      1.0000 0.71934  0.86529  0.50020  Biso   1.000  O 
