data_image0
_cell_length_a       10.1178
_cell_length_b       10.2449
_cell_length_c       5.23309
_cell_angle_alpha    90
_cell_angle_beta     90
_cell_angle_gamma    90

_symmetry_space_group_name_H-M    "P 1"
_symmetry_int_tables_number       1

loop_
  _symmetry_equiv_pos_as_xyz
  'x, y, z'

loop_
  _atom_site_label
  _atom_site_occupancy
  _atom_site_fract_x
  _atom_site_fract_y
  _atom_site_fract_z
  _atom_site_thermal_displace_type
  _atom_site_B_iso_or_equiv
  _atom_site_type_symbol
  Ca1      1.0000 0.14063  0.01508  0.34194  Biso   1.000  Ca
  Hf1      1.0000 0.14048  0.52081  0.34493  Biso   1.000  Hf
  Hf2      1.0000 0.14269  0.22898  0.84627  Biso   1.000  Hf
  Hf3      1.0000 0.14423  0.72999  0.84443  Biso   1.000  Hf
  Hf4      1.0000 0.35771  0.26644  0.34528  Biso   1.000  Hf
  Hf5      1.0000 0.36053  0.77143  0.34371  Biso   1.000  Hf
  Hf6      1.0000 0.36086  0.47746  0.84508  Biso   1.000  Hf
  Hf7      1.0000 0.35903  0.98041  0.84318  Biso   1.000  Hf
  Hf8      1.0000 0.63941  0.02067  0.15660  Biso   1.000  Hf
  Hf9      1.0000 0.63665  0.52007  0.15367  Biso   1.000  Hf
  Hf10     1.0000 0.63912  0.22934  0.65474  Biso   1.000  Hf
  Hf11     1.0000 0.63886  0.72988  0.65353  Biso   1.000  Hf
  Hf12     1.0000 0.85843  0.27182  0.15014  Biso   1.000  Hf
  Hf13     1.0000 0.85900  0.77014  0.15554  Biso   1.000  Hf
  Hf14     1.0000 0.86014  0.48101  0.65288  Biso   1.000  Hf
  Hf15     1.0000 0.86020  0.97931  0.65624  Biso   1.000  Hf
  O1       1.0000 0.02913  0.17647  0.16466  Biso   1.000  O 
  O2       1.0000 0.03090  0.66256  0.16609  Biso   1.000  O 
  O3       1.0000 0.02436  0.09105  0.69489  Biso   1.000  O 
  O4       1.0000 0.03115  0.58792  0.66407  Biso   1.000  O 
  O5       1.0000 0.46743  0.41201  0.16588  Biso   1.000  O 
  O6       1.0000 0.46919  0.91470  0.16728  Biso   1.000  O 
  O7       1.0000 0.46964  0.33686  0.66588  Biso   1.000  O 
  O8       1.0000 0.47240  0.83859  0.66389  Biso   1.000  O 
  O9       1.0000 0.28222  0.12864  0.60393  Biso   1.000  O 
  O10      1.0000 0.27705  0.62068  0.59209  Biso   1.000  O 
  O11      1.0000 0.28450  0.13273  0.08071  Biso   1.000  O 
  O12      1.0000 0.27494  0.62202  0.09443  Biso   1.000  O 
  O13      1.0000 0.22408  0.37465  0.59227  Biso   1.000  O 
  O14      1.0000 0.23199  0.86580  0.59774  Biso   1.000  O 
  O15      1.0000 0.22278  0.37717  0.09411  Biso   1.000  O 
  O16      1.0000 0.23513  0.86588  0.08019  Biso   1.000  O 
  O17      1.0000 0.53324  0.16494  0.33214  Biso   1.000  O 
  O18      1.0000 0.53132  0.66212  0.33455  Biso   1.000  O 
  O19      1.0000 0.53584  0.08405  0.82993  Biso   1.000  O 
  O20      1.0000 0.53039  0.58698  0.83454  Biso   1.000  O 
  O21      1.0000 0.96684  0.41635  0.32928  Biso   1.000  O 
  O22      1.0000 0.95367  0.90840  0.34281  Biso   1.000  O 
  O23      1.0000 0.96872  0.34136  0.82851  Biso   1.000  O 
  O24      1.0000 0.97144  0.83772  0.83843  Biso   1.000  O 
  O25      1.0000 0.77427  0.12689  0.91068  Biso   1.000  O 
  O26      1.0000 0.77400  0.62351  0.90402  Biso   1.000  O 
  O27      1.0000 0.77559  0.12666  0.40998  Biso   1.000  O 
  O28      1.0000 0.77442  0.62622  0.40453  Biso   1.000  O 
  O29      1.0000 0.72386  0.37577  0.90322  Biso   1.000  O 
  O30      1.0000 0.72660  0.87414  0.90782  Biso   1.000  O 
  O31      1.0000 0.72404  0.37710  0.40554  Biso   1.000  O 
  O32      1.0000 0.71567  0.87572  0.40779  Biso   1.000  O 
