data_image0
_cell_length_a       5.10331
_cell_length_b       10.3122
_cell_length_c       10.5988
_cell_angle_alpha    90
_cell_angle_beta     80
_cell_angle_gamma    90

_symmetry_space_group_name_H-M    "P 1"
_symmetry_int_tables_number       1

loop_
  _symmetry_equiv_pos_as_xyz
  'x, y, z'

loop_
  _atom_site_label
  _atom_site_occupancy
  _atom_site_fract_x
  _atom_site_fract_y
  _atom_site_fract_z
  _atom_site_thermal_displace_type
  _atom_site_B_iso_or_equiv
  _atom_site_type_symbol
  Hf1      1.0000 0.29568  0.01766  0.15067  Biso   1.000  Hf
  Hf2      1.0000 0.33213  0.22666  0.41097  Biso   1.000  Hf
  Hf3      1.0000 0.66222  0.27475  0.09168  Biso   1.000  Hf
  Hf4      1.0000 0.69814  0.48334  0.35219  Biso   1.000  Hf
  O1       1.0000 0.04242  0.15885  0.06919  Biso   1.000  O 
  O2       1.0000 0.10964  0.07203  0.33765  Biso   1.000  O 
  O3       1.0000 0.88442  0.42860  0.16532  Biso   1.000  O 
  O4       1.0000 0.95302  0.34294  0.43419  Biso   1.000  O 
  O5       1.0000 0.59907  0.12943  0.24684  Biso   1.000  O 
  O6       1.0000 0.59912  0.11883  0.49465  Biso   1.000  O 
  O7       1.0000 0.39587  0.38245  0.00781  Biso   1.000  O 
  O8       1.0000 0.39366  0.37132  0.25533  Biso   1.000  O 
  Hf5      1.0000 0.31147  0.02049  0.64636  Biso   1.000  Hf
  Hf6      1.0000 0.29032  0.22830  0.89120  Biso   1.000  Hf
  Hf7      1.0000 0.75365  0.27523  0.60714  Biso   1.000  Hf
  Hf8      1.0000 0.73225  0.48307  0.85197  Biso   1.000  Hf
  O9       1.0000 0.10326  0.16794  0.58216  Biso   1.000  O 
  O10      1.0000 0.09327  0.08538  0.82139  Biso   1.000  O 
  O11      1.0000 0.95061  0.41799  0.67731  Biso   1.000  O 
  O12      1.0000 0.94097  0.33563  0.91636  Biso   1.000  O 
  O13      1.0000 0.57842  0.12971  0.74141  Biso   1.000  O 
  O14      1.0000 0.58028  0.12281  0.98609  Biso   1.000  O 
  O15      1.0000 0.46348  0.38074  0.51243  Biso   1.000  O 
  O16      1.0000 0.46546  0.37369  0.75698  Biso   1.000  O 
  Hf9      1.0000 0.24810  0.52750  0.14809  Biso   1.000  Hf
  Hf10     1.0000 0.26120  0.72756  0.39792  Biso   1.000  Hf
  Hf11     1.0000 0.69332  0.77320  0.10491  Biso   1.000  Hf
  Hf12     1.0000 0.70645  0.97312  0.35481  Biso   1.000  Hf
  O17      1.0000 0.03549  0.66987  0.07854  Biso   1.000  O 
  O18      1.0000 0.04417  0.58647  0.32702  Biso   1.000  O 
  O19      1.0000 0.91042  0.91437  0.17577  Biso   1.000  O 
  O20      1.0000 0.91893  0.83085  0.42429  Biso   1.000  O 
  O21      1.0000 0.52841  0.63093  0.24358  Biso   1.000  O 
  O22      1.0000 0.54136  0.62365  0.49088  Biso   1.000  O 
  O23      1.0000 0.41314  0.87736  0.01199  Biso   1.000  O 
  O24      1.0000 0.42609  0.86982  0.25926  Biso   1.000  O 
  Hf13     1.0000 0.28650  0.52480  0.64705  Biso   1.000  Hf
  Hf14     1.0000 0.28420  0.73108  0.89543  Biso   1.000  Hf
  Hf15     1.0000 0.71999  0.77215  0.60307  Biso   1.000  Hf
  Hf16     1.0000 0.71792  0.97845  0.85134  Biso   1.000  Hf
  O25      1.0000 0.06113  0.66429  0.57798  Biso   1.000  O 
  O26      1.0000 0.07745  0.58831  0.82631  Biso   1.000  O 
  O27      1.0000 0.92693  0.91502  0.67210  Biso   1.000  O 
  O28      1.0000 0.94294  0.83890  0.92047  Biso   1.000  O 
  O29      1.0000 0.55990  0.63048  0.74021  Biso   1.000  O 
  O30      1.0000 0.56747  0.62557  0.98892  Biso   1.000  O 
  O31      1.0000 0.43668  0.87773  0.50957  Biso   1.000  O 
  O32      1.0000 0.44452  0.87271  0.75827  Biso   1.000  O 
  Ca1      1.0000 0.99502  0.25014  0.25227  Biso   1.000  Ca
