data_image0
_cell_length_a       10.1435
_cell_length_b       10.2997
_cell_length_c       10.5336
_cell_angle_alpha    90
_cell_angle_beta     80
_cell_angle_gamma    90

_symmetry_space_group_name_H-M    "P 1"
_symmetry_int_tables_number       1

loop_
  _symmetry_equiv_pos_as_xyz
  'x, y, z'

loop_
  _atom_site_label
  _atom_site_occupancy
  _atom_site_fract_x
  _atom_site_fract_y
  _atom_site_fract_z
  _atom_site_thermal_displace_type
  _atom_site_B_iso_or_equiv
  _atom_site_type_symbol
  Hf1      1.0000 0.13691  0.02102  0.14591  Biso   1.000  Hf
  Hf2      1.0000 0.13693  0.22853  0.39454  Biso   1.000  Hf
  Hf3      1.0000 0.34391  0.27352  0.08037  Biso   1.000  Hf
  Hf4      1.0000 0.36012  0.49026  0.35644  Biso   1.000  Hf
  O1       1.0000 0.03442  0.16816  0.07669  Biso   1.000  O 
  O2       1.0000 0.03412  0.08327  0.32795  Biso   1.000  O 
  O3       1.0000 0.46214  0.42011  0.16915  Biso   1.000  O 
  O4       1.0000 0.47858  0.35447  0.43648  Biso   1.000  O 
  O5       1.0000 0.27582  0.12494  0.23413  Biso   1.000  O 
  O6       1.0000 0.28933  0.12869  0.47978  Biso   1.000  O 
  O7       1.0000 0.21053  0.38613  0.00145  Biso   1.000  O 
  O8       1.0000 0.23013  0.36663  0.25721  Biso   1.000  O 
  Hf5      1.0000 0.14375  0.02374  0.64352  Biso   1.000  Hf
  Hf6      1.0000 0.13860  0.23034  0.88949  Biso   1.000  Hf
  Hf7      1.0000 0.36500  0.27821  0.60396  Biso   1.000  Hf
  Hf8      1.0000 0.36340  0.48531  0.85057  Biso   1.000  Hf
  O9       1.0000 0.04322  0.17161  0.57923  Biso   1.000  O 
  O10      1.0000 0.03800  0.08364  0.82591  Biso   1.000  O 
  O11      1.0000 0.46999  0.42014  0.67601  Biso   1.000  O 
  O12      1.0000 0.46956  0.33803  0.91577  Biso   1.000  O 
  O13      1.0000 0.27996  0.13054  0.73574  Biso   1.000  O 
  O14      1.0000 0.27728  0.12243  0.98290  Biso   1.000  O 
  O15      1.0000 0.22505  0.38284  0.50742  Biso   1.000  O 
  O16      1.0000 0.22716  0.37371  0.75605  Biso   1.000  O 
  Hf9      1.0000 0.13757  0.52271  0.14750  Biso   1.000  Hf
  Hf10     1.0000 0.13665  0.73000  0.39653  Biso   1.000  Hf
  Hf11     1.0000 0.35881  0.77216  0.10323  Biso   1.000  Hf
  Hf12     1.0000 0.36138  0.97023  0.35312  Biso   1.000  Hf
  O17      1.0000 0.03321  0.66672  0.08000  Biso   1.000  O 
  O18      1.0000 0.03482  0.58235  0.32997  Biso   1.000  O 
  O19      1.0000 0.46496  0.91576  0.17272  Biso   1.000  O 
  O20      1.0000 0.46535  0.82870  0.42338  Biso   1.000  O 
  O21      1.0000 0.27493  0.62977  0.24117  Biso   1.000  O 
  O22      1.0000 0.27521  0.62730  0.49246  Biso   1.000  O 
  O23      1.0000 0.22066  0.87883  0.00919  Biso   1.000  O 
  O24      1.0000 0.22003  0.86883  0.25826  Biso   1.000  O 
  Hf13     1.0000 0.14085  0.52432  0.64553  Biso   1.000  Hf
  Hf14     1.0000 0.14187  0.73095  0.89620  Biso   1.000  Hf
  Hf15     1.0000 0.36401  0.77340  0.60476  Biso   1.000  Hf
  Hf16     1.0000 0.36414  0.97947  0.85160  Biso   1.000  Hf
  O25      1.0000 0.03482  0.66905  0.57909  Biso   1.000  O 
  O26      1.0000 0.03829  0.58494  0.82899  Biso   1.000  O 
  O27      1.0000 0.46849  0.91885  0.67129  Biso   1.000  O 
  O28      1.0000 0.46937  0.83625  0.92099  Biso   1.000  O 
  O29      1.0000 0.27920  0.63099  0.74013  Biso   1.000  O 
  O30      1.0000 0.28148  0.62630  0.99041  Biso   1.000  O 
  O31      1.0000 0.22487  0.88181  0.50991  Biso   1.000  O 
  O32      1.0000 0.22618  0.87275  0.75888  Biso   1.000  O 
  Hf17     1.0000 0.64096  0.01819  0.14783  Biso   1.000  Hf
  Hf18     1.0000 0.65494  0.22758  0.41277  Biso   1.000  Hf
  Hf19     1.0000 0.85988  0.27126  0.10684  Biso   1.000  Hf
  Hf20     1.0000 0.86091  0.47926  0.35500  Biso   1.000  Hf
  O33      1.0000 0.52950  0.16716  0.08026  Biso   1.000  O 
  O34      1.0000 0.54799  0.06865  0.33861  Biso   1.000  O 
  O35      1.0000 0.96468  0.41668  0.17351  Biso   1.000  O 
  O36      1.0000 0.96511  0.33256  0.42232  Biso   1.000  O 
  O37      1.0000 0.77951  0.12900  0.24275  Biso   1.000  O 
  O38      1.0000 0.79027  0.11796  0.49952  Biso   1.000  O 
  O39      1.0000 0.72114  0.37805  0.01328  Biso   1.000  O 
  O40      1.0000 0.72075  0.36912  0.26338  Biso   1.000  O 
  Hf21     1.0000 0.64347  0.02261  0.64859  Biso   1.000  Hf
  Hf22     1.0000 0.64313  0.23005  0.89803  Biso   1.000  Hf
  Hf23     1.0000 0.86645  0.27373  0.60892  Biso   1.000  Hf
  Hf24     1.0000 0.86420  0.48116  0.85568  Biso   1.000  Hf
  O41      1.0000 0.54005  0.17078  0.58373  Biso   1.000  O 
  O42      1.0000 0.53787  0.08526  0.82952  Biso   1.000  O 
  O43      1.0000 0.96917  0.41997  0.67310  Biso   1.000  O 
  O44      1.0000 0.96617  0.33317  0.91990  Biso   1.000  O 
  O45      1.0000 0.78037  0.13143  0.74488  Biso   1.000  O 
  O46      1.0000 0.78111  0.12330  0.99257  Biso   1.000  O 
  O47      1.0000 0.73035  0.38160  0.51563  Biso   1.000  O 
  O48      1.0000 0.72760  0.37352  0.76315  Biso   1.000  O 
  Hf25     1.0000 0.63599  0.52220  0.14666  Biso   1.000  Hf
  Hf26     1.0000 0.64082  0.72868  0.39753  Biso   1.000  Hf
  Hf27     1.0000 0.85952  0.77071  0.10560  Biso   1.000  Hf
  Hf28     1.0000 0.85888  0.97821  0.35493  Biso   1.000  Hf
  O49      1.0000 0.53274  0.66817  0.07858  Biso   1.000  O 
  O50      1.0000 0.53466  0.58828  0.32609  Biso   1.000  O 
  O51      1.0000 0.96296  0.91615  0.17294  Biso   1.000  O 
  O52      1.0000 0.96507  0.83393  0.42244  Biso   1.000  O 
  O53      1.0000 0.77694  0.62748  0.24132  Biso   1.000  O 
  O54      1.0000 0.77799  0.62221  0.49110  Biso   1.000  O 
  O55      1.0000 0.72133  0.87744  0.01111  Biso   1.000  O 
  O56      1.0000 0.72308  0.86928  0.25991  Biso   1.000  O 
  Hf29     1.0000 0.64221  0.52459  0.64839  Biso   1.000  Hf
  Hf30     1.0000 0.64239  0.73093  0.89688  Biso   1.000  Hf
  Hf31     1.0000 0.86294  0.77431  0.60524  Biso   1.000  Hf
  Hf32     1.0000 0.86383  0.98013  0.85487  Biso   1.000  Hf
  O57      1.0000 0.53628  0.66750  0.57976  Biso   1.000  O 
  O58      1.0000 0.53738  0.58767  0.82888  Biso   1.000  O 
  O59      1.0000 0.96800  0.91967  0.67177  Biso   1.000  O 
  O60      1.0000 0.96907  0.83506  0.92209  Biso   1.000  O 
  O61      1.0000 0.77953  0.63155  0.74146  Biso   1.000  O 
  O62      1.0000 0.78034  0.62333  0.99071  Biso   1.000  O 
  O63      1.0000 0.72407  0.87828  0.51165  Biso   1.000  O 
  O64      1.0000 0.72673  0.87394  0.76108  Biso   1.000  O 
  Ca1      1.0000 0.44971  0.23602  0.27860  Biso   1.000  Ca
