data_image0
_cell_length_a       10.1839
_cell_length_b       10.3204
_cell_length_c       5.31078
_cell_angle_alpha    90
_cell_angle_beta     80
_cell_angle_gamma    90

_symmetry_space_group_name_H-M    "P 1"
_symmetry_int_tables_number       1

loop_
  _symmetry_equiv_pos_as_xyz
  'x, y, z'

loop_
  _atom_site_label
  _atom_site_occupancy
  _atom_site_fract_x
  _atom_site_fract_y
  _atom_site_fract_z
  _atom_site_thermal_displace_type
  _atom_site_B_iso_or_equiv
  _atom_site_type_symbol
  Hf1      1.0000 0.13895  0.02194  0.28956  Biso   1.000  Hf
  Hf2      1.0000 0.13575  0.22907  0.77844  Biso   1.000  Hf
  Hf3      1.0000 0.34467  0.28133  0.16132  Biso   1.000  Hf
  Hf4      1.0000 0.36072  0.49433  0.70596  Biso   1.000  Hf
  O1       1.0000 0.03900  0.16828  0.15131  Biso   1.000  O 
  O2       1.0000 0.03484  0.08421  0.64854  Biso   1.000  O 
  O3       1.0000 0.46462  0.42073  0.35067  Biso   1.000  O 
  O4       1.0000 0.48149  0.35848  0.86379  Biso   1.000  O 
  O5       1.0000 0.27691  0.12568  0.45820  Biso   1.000  O 
  O6       1.0000 0.29178  0.13036  0.94094  Biso   1.000  O 
  O7       1.0000 0.20635  0.38849  0.00145  Biso   1.000  O 
  O8       1.0000 0.23134  0.36792  0.50953  Biso   1.000  O 
  Hf5      1.0000 0.13650  0.52427  0.29498  Biso   1.000  Hf
  Hf6      1.0000 0.13775  0.73027  0.79389  Biso   1.000  Hf
  Hf7      1.0000 0.35834  0.77233  0.20914  Biso   1.000  Hf
  Hf8      1.0000 0.36212  0.96855  0.70423  Biso   1.000  Hf
  O9       1.0000 0.02873  0.66491  0.15823  Biso   1.000  O 
  O10      1.0000 0.03497  0.58508  0.65725  Biso   1.000  O 
  O11      1.0000 0.46569  0.91403  0.34897  Biso   1.000  O 
  O12      1.0000 0.46922  0.83214  0.84968  Biso   1.000  O 
  O13      1.0000 0.27494  0.63005  0.48161  Biso   1.000  O 
  O14      1.0000 0.27838  0.63079  0.98346  Biso   1.000  O 
  O15      1.0000 0.21850  0.88112  0.02205  Biso   1.000  O 
  O16      1.0000 0.22057  0.86911  0.51735  Biso   1.000  O 
  Hf9      1.0000 0.64338  0.01760  0.30140  Biso   1.000  Hf
  Hf10     1.0000 0.65738  0.22736  0.82843  Biso   1.000  Hf
  Hf11     1.0000 0.86247  0.27169  0.22341  Biso   1.000  Hf
  Hf12     1.0000 0.86240  0.47937  0.71352  Biso   1.000  Hf
  O17      1.0000 0.53198  0.16784  0.16906  Biso   1.000  O 
  O18      1.0000 0.54949  0.07026  0.67540  Biso   1.000  O 
  O19      1.0000 0.96731  0.41504  0.35482  Biso   1.000  O 
  O20      1.0000 0.96534  0.33273  0.84574  Biso   1.000  O 
  O21      1.0000 0.78218  0.12912  0.49346  Biso   1.000  O 
  O22      1.0000 0.78407  0.11676  0.00366  Biso   1.000  O 
  O23      1.0000 0.72389  0.37852  0.04009  Biso   1.000  O 
  O24      1.0000 0.72365  0.36981  0.53463  Biso   1.000  O 
  Hf13     1.0000 0.63672  0.52392  0.29906  Biso   1.000  Hf
  Hf14     1.0000 0.64267  0.72882  0.79748  Biso   1.000  Hf
  Hf15     1.0000 0.85813  0.77171  0.21425  Biso   1.000  Hf
  Hf16     1.0000 0.85989  0.97770  0.71142  Biso   1.000  Hf
  O25      1.0000 0.53003  0.66510  0.15770  Biso   1.000  O 
  O26      1.0000 0.53437  0.59292  0.65063  Biso   1.000  O 
  O27      1.0000 0.96378  0.91443  0.35133  Biso   1.000  O 
  O28      1.0000 0.96853  0.83653  0.85054  Biso   1.000  O 
  O29      1.0000 0.77734  0.62789  0.48533  Biso   1.000  O 
  O30      1.0000 0.78037  0.62208  0.98281  Biso   1.000  O 
  O31      1.0000 0.71865  0.87532  0.02755  Biso   1.000  O 
  O32      1.0000 0.72395  0.87015  0.52337  Biso   1.000  O 
  Ca1      1.0000 0.44772  0.23506  0.55854  Biso   1.000  Ca
