data_image0
_cell_length_a       5.10017
_cell_length_b       10.2923
_cell_length_c       10.4726
_cell_angle_alpha    90
_cell_angle_beta     80
_cell_angle_gamma    90

_symmetry_space_group_name_H-M    "P 1"
_symmetry_int_tables_number       1

loop_
  _symmetry_equiv_pos_as_xyz
  'x, y, z'

loop_
  _atom_site_label
  _atom_site_occupancy
  _atom_site_fract_x
  _atom_site_fract_y
  _atom_site_fract_z
  _atom_site_thermal_displace_type
  _atom_site_B_iso_or_equiv
  _atom_site_type_symbol
  Ca1      1.0000 0.28278  0.01630  0.14567  Biso   1.000  Ca
  Hf1      1.0000 0.27968  0.02067  0.64640  Biso   1.000  Hf
  Hf2      1.0000 0.27458  0.51919  0.14473  Biso   1.000  Hf
  Hf3      1.0000 0.27645  0.52135  0.64596  Biso   1.000  Hf
  Hf4      1.0000 0.27866  0.22796  0.39599  Biso   1.000  Hf
  Hf5      1.0000 0.27693  0.22884  0.89756  Biso   1.000  Hf
  Hf6      1.0000 0.27442  0.72673  0.39565  Biso   1.000  Hf
  Hf7      1.0000 0.28068  0.72985  0.89576  Biso   1.000  Hf
  Hf8      1.0000 0.71337  0.26722  0.10315  Biso   1.000  Hf
  Hf9      1.0000 0.71790  0.27074  0.60418  Biso   1.000  Hf
  Hf10     1.0000 0.71424  0.76974  0.10431  Biso   1.000  Hf
  Hf11     1.0000 0.71756  0.77215  0.60313  Biso   1.000  Hf
  Hf12     1.0000 0.71559  0.47758  0.35279  Biso   1.000  Hf
  Hf13     1.0000 0.71836  0.47869  0.85351  Biso   1.000  Hf
  Hf14     1.0000 0.71250  0.97958  0.35275  Biso   1.000  Hf
  Hf15     1.0000 0.71524  0.97893  0.85578  Biso   1.000  Hf
  O1       1.0000 0.06541  0.17970  0.07665  Biso   1.000  O 
  O2       1.0000 0.06748  0.16995  0.58446  Biso   1.000  O 
  O3       1.0000 0.06665  0.66669  0.07856  Biso   1.000  O 
  O4       1.0000 0.06415  0.66680  0.58057  Biso   1.000  O 
  O5       1.0000 0.05782  0.08399  0.34479  Biso   1.000  O 
  O6       1.0000 0.07118  0.08177  0.83004  Biso   1.000  O 
  O7       1.0000 0.06112  0.58261  0.32848  Biso   1.000  O 
  O8       1.0000 0.06528  0.58326  0.82822  Biso   1.000  O 
  O9       1.0000 0.92359  0.41772  0.16972  Biso   1.000  O 
  O10      1.0000 0.92924  0.41808  0.66884  Biso   1.000  O 
  O11      1.0000 0.89735  0.91777  0.17129  Biso   1.000  O 
  O12      1.0000 0.92742  0.91681  0.67122  Biso   1.000  O 
  O13      1.0000 0.92831  0.33349  0.42124  Biso   1.000  O 
  O14      1.0000 0.93123  0.33618  0.91677  Biso   1.000  O 
  O15      1.0000 0.92851  0.83214  0.42106  Biso   1.000  O 
  O16      1.0000 0.94061  0.83561  0.92052  Biso   1.000  O 
  O17      1.0000 0.56589  0.13556  0.24990  Biso   1.000  O 
  O18      1.0000 0.55142  0.12805  0.73947  Biso   1.000  O 
  O19      1.0000 0.54638  0.62358  0.23932  Biso   1.000  O 
  O20      1.0000 0.54915  0.62951  0.73934  Biso   1.000  O 
  O21      1.0000 0.54583  0.12148  0.49451  Biso   1.000  O 
  O22      1.0000 0.56708  0.12732  0.98218  Biso   1.000  O 
  O23      1.0000 0.54780  0.62087  0.49014  Biso   1.000  O 
  O24      1.0000 0.54768  0.61714  0.98956  Biso   1.000  O 
  O25      1.0000 0.44497  0.37934  0.00796  Biso   1.000  O 
  O26      1.0000 0.44573  0.37914  0.50944  Biso   1.000  O 
  O27      1.0000 0.46375  0.86869  0.99971  Biso   1.000  O 
  O28      1.0000 0.44389  0.87843  0.51047  Biso   1.000  O 
  O29      1.0000 0.43784  0.37243  0.25940  Biso   1.000  O 
  O30      1.0000 0.44734  0.37174  0.75822  Biso   1.000  O 
  O31      1.0000 0.44856  0.86094  0.26506  Biso   1.000  O 
  O32      1.0000 0.44535  0.87192  0.75670  Biso   1.000  O 
