data_image0
_cell_length_a       10.0609
_cell_length_b       10.2798
_cell_length_c       5.30558
_cell_angle_alpha    90
_cell_angle_beta     90
_cell_angle_gamma    90

_symmetry_space_group_name_H-M    "P 1"
_symmetry_int_tables_number       1

loop_
  _symmetry_equiv_pos_as_xyz
  'x, y, z'

loop_
  _atom_site_label
  _atom_site_occupancy
  _atom_site_fract_x
  _atom_site_fract_y
  _atom_site_fract_z
  _atom_site_thermal_displace_type
  _atom_site_B_iso_or_equiv
  _atom_site_type_symbol
  Hf1      1.0000 0.13672  0.02041  0.35271  Biso   1.000  Hf
  Hf2      1.0000 0.13076  0.22720  0.85851  Biso   1.000  Hf
  Hf3      1.0000 0.34555  0.27356  0.38365  Biso   1.000  Hf
  Hf4      1.0000 0.34696  0.48437  0.85663  Biso   1.000  Hf
  Hf5      1.0000 0.64215  0.00705  0.15530  Biso   1.000  Hf
  Hf6      1.0000 0.64660  0.21984  0.60275  Biso   1.000  Hf
  Hf7      1.0000 0.86480  0.27192  0.14537  Biso   1.000  Hf
  Hf8      1.0000 0.85132  0.47720  0.65469  Biso   1.000  Hf
  O1       1.0000 0.03306  0.16124  0.16777  Biso   1.000  O 
  O2       1.0000 0.02684  0.08646  0.66837  Biso   1.000  O 
  O3       1.0000 0.45438  0.42947  0.19045  Biso   1.000  O 
  O4       1.0000 0.46229  0.33409  0.67811  Biso   1.000  O 
  O5       1.0000 0.26752  0.12406  0.60789  Biso   1.000  O 
  O6       1.0000 0.28025  0.12822  0.10328  Biso   1.000  O 
  O7       1.0000 0.21122  0.37618  0.61522  Biso   1.000  O 
  O8       1.0000 0.21836  0.37644  0.11023  Biso   1.000  O 
  O9       1.0000 0.51723  0.14381  0.35566  Biso   1.000  O 
  O10      1.0000 0.52568  0.08019  0.83929  Biso   1.000  O 
  O11      1.0000 0.96166  0.41244  0.34549  Biso   1.000  O 
  O12      1.0000 0.96105  0.33589  0.84141  Biso   1.000  O 
  O13      1.0000 0.76187  0.12707  0.89938  Biso   1.000  O 
  O14      1.0000 0.78644  0.11737  0.39002  Biso   1.000  O 
  O15      1.0000 0.71456  0.37703  0.89358  Biso   1.000  O 
  O16      1.0000 0.71231  0.37397  0.38131  Biso   1.000  O 
  Hf9      1.0000 0.13159  0.52116  0.35222  Biso   1.000  Hf
  Hf10     1.0000 0.12489  0.72894  0.84888  Biso   1.000  Hf
  Hf11     1.0000 0.35220  0.77146  0.35311  Biso   1.000  Hf
  Hf12     1.0000 0.34776  0.97642  0.85363  Biso   1.000  Hf
  Hf13     1.0000 0.63722  0.53411  0.15388  Biso   1.000  Hf
  Hf14     1.0000 0.62873  0.72958  0.65640  Biso   1.000  Hf
  Hf15     1.0000 0.85992  0.76979  0.16052  Biso   1.000  Hf
  Hf16     1.0000 0.85123  0.97874  0.66045  Biso   1.000  Hf
  O17      1.0000 0.02801  0.66177  0.16734  Biso   1.000  O 
  O18      1.0000 0.02175  0.58586  0.66987  Biso   1.000  O 
  O19      1.0000 0.46318  0.90528  0.16120  Biso   1.000  O 
  O20      1.0000 0.45759  0.83707  0.66623  Biso   1.000  O 
  O21      1.0000 0.26504  0.62574  0.59703  Biso   1.000  O 
  O22      1.0000 0.27021  0.62768  0.09534  Biso   1.000  O 
  O23      1.0000 0.21352  0.87383  0.60036  Biso   1.000  O 
  O24      1.0000 0.21730  0.87733  0.10167  Biso   1.000  O 
  O25      1.0000 0.52522  0.66695  0.34210  Biso   1.000  O 
  O26      1.0000 0.51887  0.58894  0.83947  Biso   1.000  O 
  O27      1.0000 0.96236  0.91061  0.34642  Biso   1.000  O 
  O28      1.0000 0.95623  0.83724  0.84522  Biso   1.000  O 
  O29      1.0000 0.76529  0.62717  0.90393  Biso   1.000  O 
  O30      1.0000 0.77172  0.62575  0.41050  Biso   1.000  O 
  O31      1.0000 0.71270  0.87290  0.91173  Biso   1.000  O 
  O32      1.0000 0.71988  0.87057  0.41349  Biso   1.000  O 
  Ca1      1.0000 0.55508  0.26597  0.03790  Biso   1.000  Ca
