data_image0
_cell_length_a       10.0409
_cell_length_b       10.2539
_cell_length_c       10.5354
_cell_angle_alpha    90
_cell_angle_beta     90
_cell_angle_gamma    90

_symmetry_space_group_name_H-M    "P 1"
_symmetry_int_tables_number       1

loop_
  _symmetry_equiv_pos_as_xyz
  'x, y, z'

loop_
  _atom_site_label
  _atom_site_occupancy
  _atom_site_fract_x
  _atom_site_fract_y
  _atom_site_fract_z
  _atom_site_thermal_displace_type
  _atom_site_B_iso_or_equiv
  _atom_site_type_symbol
  Hf1      1.0000 0.13767  0.02070  0.17308  Biso   1.000  Hf
  Hf2      1.0000 0.13330  0.22651  0.42642  Biso   1.000  Hf
  Hf3      1.0000 0.34724  0.27360  0.18961  Biso   1.000  Hf
  Hf4      1.0000 0.35524  0.47910  0.42585  Biso   1.000  Hf
  Hf5      1.0000 0.64026  0.00996  0.08090  Biso   1.000  Hf
  Hf6      1.0000 0.63400  0.22392  0.32935  Biso   1.000  Hf
  Hf7      1.0000 0.86422  0.27086  0.07691  Biso   1.000  Hf
  Hf8      1.0000 0.85506  0.47777  0.32630  Biso   1.000  Hf
  O1       1.0000 0.03416  0.16352  0.08343  Biso   1.000  O 
  O2       1.0000 0.02825  0.08598  0.33264  Biso   1.000  O 
  O3       1.0000 0.45470  0.43032  0.09587  Biso   1.000  O 
  O4       1.0000 0.46159  0.33282  0.33963  Biso   1.000  O 
  O5       1.0000 0.26911  0.12299  0.30154  Biso   1.000  O 
  O6       1.0000 0.28071  0.12927  0.04762  Biso   1.000  O 
  O7       1.0000 0.21247  0.37662  0.30485  Biso   1.000  O 
  O8       1.0000 0.21947  0.37729  0.04948  Biso   1.000  O 
  O9       1.0000 0.52054  0.14667  0.18307  Biso   1.000  O 
  O10      1.0000 0.52636  0.08396  0.42202  Biso   1.000  O 
  O11      1.0000 0.96348  0.41465  0.16976  Biso   1.000  O 
  O12      1.0000 0.96301  0.33597  0.41765  Biso   1.000  O 
  O13      1.0000 0.77119  0.12278  0.45202  Biso   1.000  O 
  O14      1.0000 0.77555  0.12535  0.20273  Biso   1.000  O 
  O15      1.0000 0.71793  0.37398  0.45139  Biso   1.000  O 
  O16      1.0000 0.71273  0.37168  0.19784  Biso   1.000  O 
  Hf9      1.0000 0.13202  0.02029  0.67458  Biso   1.000  Hf
  Hf10     1.0000 0.13067  0.22886  0.92399  Biso   1.000  Hf
  Hf11     1.0000 0.35410  0.27127  0.67490  Biso   1.000  Hf
  Hf12     1.0000 0.34798  0.48265  0.92448  Biso   1.000  Hf
  Hf13     1.0000 0.63421  0.01611  0.57500  Biso   1.000  Hf
  Hf14     1.0000 0.64357  0.22573  0.80148  Biso   1.000  Hf
  Hf15     1.0000 0.85786  0.27250  0.57326  Biso   1.000  Hf
  Hf16     1.0000 0.85274  0.47858  0.82924  Biso   1.000  Hf
  O17      1.0000 0.02592  0.16209  0.58275  Biso   1.000  O 
  O18      1.0000 0.02430  0.08587  0.83385  Biso   1.000  O 
  O19      1.0000 0.46214  0.41425  0.58503  Biso   1.000  O 
  O20      1.0000 0.46218  0.33383  0.83558  Biso   1.000  O 
  O21      1.0000 0.26819  0.12394  0.79739  Biso   1.000  O 
  O22      1.0000 0.27068  0.12475  0.54935  Biso   1.000  O 
  O23      1.0000 0.21589  0.37337  0.79924  Biso   1.000  O 
  O24      1.0000 0.21798  0.37476  0.55063  Biso   1.000  O 
  O25      1.0000 0.52405  0.16057  0.66161  Biso   1.000  O 
  O26      1.0000 0.52454  0.08090  0.91477  Biso   1.000  O 
  O27      1.0000 0.96167  0.41210  0.66967  Biso   1.000  O 
  O28      1.0000 0.95897  0.33455  0.91903  Biso   1.000  O 
  O29      1.0000 0.75884  0.12856  0.95219  Biso   1.000  O 
  O30      1.0000 0.77804  0.11930  0.69532  Biso   1.000  O 
  O31      1.0000 0.71497  0.37814  0.95025  Biso   1.000  O 
  O32      1.0000 0.71986  0.37778  0.69805  Biso   1.000  O 
  Hf17     1.0000 0.13591  0.52179  0.17401  Biso   1.000  Hf
  Hf18     1.0000 0.13140  0.72792  0.42336  Biso   1.000  Hf
  Hf19     1.0000 0.35623  0.77155  0.17470  Biso   1.000  Hf
  Hf20     1.0000 0.35383  0.97702  0.42551  Biso   1.000  Hf
  Hf21     1.0000 0.63841  0.53210  0.07749  Biso   1.000  Hf
  Hf22     1.0000 0.63346  0.72900  0.32966  Biso   1.000  Hf
  Hf23     1.0000 0.86194  0.77043  0.07868  Biso   1.000  Hf
  Hf24     1.0000 0.85673  0.97890  0.32825  Biso   1.000  Hf
  O33      1.0000 0.03136  0.66400  0.08337  Biso   1.000  O 
  O34      1.0000 0.02511  0.58605  0.33372  Biso   1.000  O 
  O35      1.0000 0.46502  0.90929  0.08113  Biso   1.000  O 
  O36      1.0000 0.46267  0.83673  0.33411  Biso   1.000  O 
  O37      1.0000 0.26976  0.62494  0.29772  Biso   1.000  O 
  O38      1.0000 0.27389  0.62821  0.04609  Biso   1.000  O 
  O39      1.0000 0.21825  0.87375  0.29782  Biso   1.000  O 
  O40      1.0000 0.22080  0.87793  0.04770  Biso   1.000  O 
  O41      1.0000 0.52978  0.66899  0.16961  Biso   1.000  O 
  O42      1.0000 0.52565  0.58621  0.41785  Biso   1.000  O 
  O43      1.0000 0.96466  0.91480  0.16818  Biso   1.000  O 
  O44      1.0000 0.96170  0.83633  0.41985  Biso   1.000  O 
  O45      1.0000 0.77030  0.62371  0.45398  Biso   1.000  O 
  O46      1.0000 0.77400  0.62527  0.20512  Biso   1.000  O 
  O47      1.0000 0.71800  0.87295  0.45543  Biso   1.000  O 
  O48      1.0000 0.72359  0.87155  0.20650  Biso   1.000  O 
  Hf25     1.0000 0.13083  0.52009  0.67388  Biso   1.000  Hf
  Hf26     1.0000 0.12720  0.72957  0.92267  Biso   1.000  Hf
  Hf27     1.0000 0.35240  0.77025  0.67357  Biso   1.000  Hf
  Hf28     1.0000 0.35065  0.97780  0.92287  Biso   1.000  Hf
  Hf29     1.0000 0.63217  0.52262  0.57633  Biso   1.000  Hf
  Hf30     1.0000 0.62915  0.72882  0.82649  Biso   1.000  Hf
  Hf31     1.0000 0.85542  0.77016  0.57978  Biso   1.000  Hf
  Hf32     1.0000 0.85117  0.97903  0.82999  Biso   1.000  Hf
  O49      1.0000 0.02537  0.66259  0.58356  Biso   1.000  O 
  O50      1.0000 0.02397  0.58504  0.83410  Biso   1.000  O 
  O51      1.0000 0.46071  0.91021  0.58289  Biso   1.000  O 
  O52      1.0000 0.45723  0.83447  0.83239  Biso   1.000  O 
  O53      1.0000 0.26660  0.62449  0.79647  Biso   1.000  O 
  O54      1.0000 0.26855  0.62495  0.54696  Biso   1.000  O 
  O55      1.0000 0.21382  0.87342  0.79734  Biso   1.000  O 
  O56      1.0000 0.21570  0.87512  0.54813  Biso   1.000  O 
  O57      1.0000 0.52411  0.66334  0.66745  Biso   1.000  O 
  O58      1.0000 0.52050  0.58682  0.91810  Biso   1.000  O 
  O59      1.0000 0.96011  0.91134  0.67132  Biso   1.000  O 
  O60      1.0000 0.95657  0.83599  0.91926  Biso   1.000  O 
  O61      1.0000 0.76648  0.62725  0.95167  Biso   1.000  O 
  O62      1.0000 0.76869  0.62560  0.70365  Biso   1.000  O 
  O63      1.0000 0.71319  0.87337  0.95551  Biso   1.000  O 
  O64      1.0000 0.71570  0.87431  0.70584  Biso   1.000  O 
  Ca1      1.0000 0.55542  0.26513  0.02069  Biso   1.000  Ca
