data_image0
_cell_length_a       10.2096
_cell_length_b       10.2927
_cell_length_c       5.23044
_cell_angle_alpha    90
_cell_angle_beta     80
_cell_angle_gamma    90

_symmetry_space_group_name_H-M    "P 1"
_symmetry_int_tables_number       1

loop_
  _symmetry_equiv_pos_as_xyz
  'x, y, z'

loop_
  _atom_site_label
  _atom_site_occupancy
  _atom_site_fract_x
  _atom_site_fract_y
  _atom_site_fract_z
  _atom_site_thermal_displace_type
  _atom_site_B_iso_or_equiv
  _atom_site_type_symbol
  Ca1      1.0000 0.13920  0.01569  0.29363  Biso   1.000  Ca
  Hf1      1.0000 0.13918  0.52081  0.29033  Biso   1.000  Hf
  Hf2      1.0000 0.63968  0.02056  0.29279  Biso   1.000  Hf
  Hf3      1.0000 0.63636  0.52003  0.29025  Biso   1.000  Hf
  Hf4      1.0000 0.13945  0.22848  0.79457  Biso   1.000  Hf
  Hf5      1.0000 0.14091  0.72895  0.79052  Biso   1.000  Hf
  Hf6      1.0000 0.63743  0.22899  0.79190  Biso   1.000  Hf
  Hf7      1.0000 0.63627  0.72811  0.79117  Biso   1.000  Hf
  Hf8      1.0000 0.35723  0.26704  0.20959  Biso   1.000  Hf
  Hf9      1.0000 0.35873  0.77170  0.20741  Biso   1.000  Hf
  Hf10     1.0000 0.85818  0.27145  0.20417  Biso   1.000  Hf
  Hf11     1.0000 0.85782  0.77015  0.20728  Biso   1.000  Hf
  Hf12     1.0000 0.35852  0.47690  0.70682  Biso   1.000  Hf
  Hf13     1.0000 0.35622  0.97924  0.70834  Biso   1.000  Hf
  Hf14     1.0000 0.85833  0.47997  0.70576  Biso   1.000  Hf
  Hf15     1.0000 0.85759  0.97806  0.70954  Biso   1.000  Hf
  O1       1.0000 0.03306  0.18318  0.16174  Biso   1.000  O 
  O2       1.0000 0.03322  0.66744  0.16001  Biso   1.000  O 
  O3       1.0000 0.53406  0.16706  0.15897  Biso   1.000  O 
  O4       1.0000 0.53233  0.66545  0.15689  Biso   1.000  O 
  O5       1.0000 0.02668  0.08491  0.69288  Biso   1.000  O 
  O6       1.0000 0.03200  0.58285  0.65731  Biso   1.000  O 
  O7       1.0000 0.53571  0.08243  0.65844  Biso   1.000  O 
  O8       1.0000 0.53104  0.58324  0.65579  Biso   1.000  O 
  O9       1.0000 0.46450  0.41471  0.34196  Biso   1.000  O 
  O10      1.0000 0.46521  0.91727  0.34021  Biso   1.000  O 
  O11      1.0000 0.96232  0.42092  0.33529  Biso   1.000  O 
  O12      1.0000 0.94644  0.91609  0.34890  Biso   1.000  O 
  O13      1.0000 0.46592  0.33435  0.84244  Biso   1.000  O 
  O14      1.0000 0.46884  0.83633  0.84422  Biso   1.000  O 
  O15      1.0000 0.96311  0.33569  0.83437  Biso   1.000  O 
  O16      1.0000 0.96448  0.83135  0.84029  Biso   1.000  O 
  O17      1.0000 0.28337  0.13369  0.49461  Biso   1.000  O 
  O18      1.0000 0.27481  0.62475  0.47852  Biso   1.000  O 
  O19      1.0000 0.77495  0.12954  0.48242  Biso   1.000  O 
  O20      1.0000 0.77274  0.62822  0.47854  Biso   1.000  O 
  O21      1.0000 0.28283  0.12672  0.97109  Biso   1.000  O 
  O22      1.0000 0.27460  0.61832  0.98035  Biso   1.000  O 
  O23      1.0000 0.77242  0.12228  0.98320  Biso   1.000  O 
  O24      1.0000 0.77221  0.61993  0.97839  Biso   1.000  O 
  O25      1.0000 0.22392  0.37943  0.01804  Biso   1.000  O 
  O26      1.0000 0.23101  0.86936  0.00408  Biso   1.000  O 
  O27      1.0000 0.72190  0.37960  0.01579  Biso   1.000  O 
  O28      1.0000 0.72314  0.87809  0.01807  Biso   1.000  O 
  O29      1.0000 0.22067  0.37223  0.51744  Biso   1.000  O 
  O30      1.0000 0.23108  0.86281  0.52192  Biso   1.000  O 
  O31      1.0000 0.72230  0.37177  0.51732  Biso   1.000  O 
  O32      1.0000 0.71355  0.87013  0.52194  Biso   1.000  O 
