data_image0
_cell_length_a       10.2141
_cell_length_b       5.14109
_cell_length_c       10.4627
_cell_angle_alpha    90
_cell_angle_beta     80
_cell_angle_gamma    90

_symmetry_space_group_name_H-M    "P 1"
_symmetry_int_tables_number       1

loop_
  _symmetry_equiv_pos_as_xyz
  'x, y, z'

loop_
  _atom_site_label
  _atom_site_occupancy
  _atom_site_fract_x
  _atom_site_fract_y
  _atom_site_fract_z
  _atom_site_thermal_displace_type
  _atom_site_B_iso_or_equiv
  _atom_site_type_symbol
  Ca1      1.0000 0.13872  0.03074  0.14476  Biso   1.000  Ca
  Hf1      1.0000 0.13963  0.04287  0.64655  Biso   1.000  Hf
  Hf2      1.0000 0.63892  0.03802  0.14613  Biso   1.000  Hf
  Hf3      1.0000 0.63904  0.04235  0.64603  Biso   1.000  Hf
  Hf4      1.0000 0.14143  0.45282  0.39487  Biso   1.000  Hf
  Hf5      1.0000 0.14032  0.46162  0.89794  Biso   1.000  Hf
  Hf6      1.0000 0.63555  0.45742  0.39662  Biso   1.000  Hf
  Hf7      1.0000 0.63916  0.45815  0.89582  Biso   1.000  Hf
  Hf8      1.0000 0.35738  0.53281  0.10388  Biso   1.000  Hf
  Hf9      1.0000 0.35784  0.54336  0.60436  Biso   1.000  Hf
  Hf10     1.0000 0.85769  0.53974  0.10252  Biso   1.000  Hf
  Hf11     1.0000 0.86029  0.54296  0.60300  Biso   1.000  Hf
  Hf12     1.0000 0.35582  0.95677  0.35173  Biso   1.000  Hf
  Hf13     1.0000 0.35796  0.95820  0.85580  Biso   1.000  Hf
  Hf14     1.0000 0.85777  0.95977  0.35445  Biso   1.000  Hf
  Hf15     1.0000 0.85853  0.95892  0.85346  Biso   1.000  Hf
  O1       1.0000 0.03373  0.36747  0.07846  Biso   1.000  O 
  O2       1.0000 0.03513  0.34410  0.58515  Biso   1.000  O 
  O3       1.0000 0.53533  0.33231  0.07882  Biso   1.000  O 
  O4       1.0000 0.53127  0.33263  0.58090  Biso   1.000  O 
  O5       1.0000 0.02619  0.17081  0.34394  Biso   1.000  O 
  O6       1.0000 0.03442  0.16111  0.83185  Biso   1.000  O 
  O7       1.0000 0.53366  0.16265  0.32997  Biso   1.000  O 
  O8       1.0000 0.53576  0.16598  0.82857  Biso   1.000  O 
  O9       1.0000 0.46552  0.83065  0.16944  Biso   1.000  O 
  O10      1.0000 0.46490  0.83205  0.67124  Biso   1.000  O 
  O11      1.0000 0.94243  0.84379  0.17101  Biso   1.000  O 
  O12      1.0000 0.96262  0.84217  0.66738  Biso   1.000  O 
  O13      1.0000 0.46313  0.66468  0.42225  Biso   1.000  O 
  O14      1.0000 0.47202  0.67454  0.92059  Biso   1.000  O 
  O15      1.0000 0.96525  0.66591  0.41894  Biso   1.000  O 
  O16      1.0000 0.96190  0.66369  0.91448  Biso   1.000  O 
  O17      1.0000 0.28392  0.25838  0.24730  Biso   1.000  O 
  O18      1.0000 0.27479  0.25834  0.74000  Biso   1.000  O 
  O19      1.0000 0.77316  0.25921  0.24174  Biso   1.000  O 
  O20      1.0000 0.77603  0.25844  0.73956  Biso   1.000  O 
  O21      1.0000 0.27447  0.24050  0.49336  Biso   1.000  O 
  O22      1.0000 0.28420  0.24979  0.98282  Biso   1.000  O 
  O23      1.0000 0.77186  0.24590  0.49212  Biso   1.000  O 
  O24      1.0000 0.77400  0.23949  0.98968  Biso   1.000  O 
  O25      1.0000 0.23291  0.74189  0.99951  Biso   1.000  O 
  O26      1.0000 0.22207  0.75812  0.51005  Biso   1.000  O 
  O27      1.0000 0.72246  0.75704  0.00769  Biso   1.000  O 
  O28      1.0000 0.72289  0.75808  0.50961  Biso   1.000  O 
  O29      1.0000 0.22941  0.72600  0.26194  Biso   1.000  O 
  O30      1.0000 0.22225  0.74580  0.75683  Biso   1.000  O 
  O31      1.0000 0.71205  0.74168  0.26241  Biso   1.000  O 
  O32      1.0000 0.72392  0.74248  0.75769  Biso   1.000  O 
