data_image0
_cell_length_a       10.1478
_cell_length_b       5.17337
_cell_length_c       10.6111
_cell_angle_alpha    90
_cell_angle_beta     80
_cell_angle_gamma    90

_symmetry_space_group_name_H-M    "P 1"
_symmetry_int_tables_number       1

loop_
  _symmetry_equiv_pos_as_xyz
  'x, y, z'

loop_
  _atom_site_label
  _atom_site_occupancy
  _atom_site_fract_x
  _atom_site_fract_y
  _atom_site_fract_z
  _atom_site_thermal_displace_type
  _atom_site_B_iso_or_equiv
  _atom_site_type_symbol
  Hf1      1.0000 0.13842  0.04416  0.14821  Biso   1.000  Hf
  Hf2      1.0000 0.13879  0.46018  0.39575  Biso   1.000  Hf
  Hf3      1.0000 0.34155  0.55265  0.07932  Biso   1.000  Hf
  Hf4      1.0000 0.35984  0.96513  0.35694  Biso   1.000  Hf
  O1       1.0000 0.03406  0.33368  0.07801  Biso   1.000  O 
  O2       1.0000 0.03630  0.16746  0.32861  Biso   1.000  O 
  O3       1.0000 0.46191  0.84687  0.16973  Biso   1.000  O 
  O4       1.0000 0.47917  0.69461  0.43678  Biso   1.000  O 
  O5       1.0000 0.27765  0.25546  0.23779  Biso   1.000  O 
  O6       1.0000 0.28819  0.26403  0.48623  Biso   1.000  O 
  O7       1.0000 0.20537  0.77155  0.00034  Biso   1.000  O 
  O8       1.0000 0.22775  0.73131  0.25586  Biso   1.000  O 
  Hf5      1.0000 0.14838  0.05247  0.64356  Biso   1.000  Hf
  Hf6      1.0000 0.14576  0.46382  0.89050  Biso   1.000  Hf
  Hf7      1.0000 0.36938  0.55784  0.60510  Biso   1.000  Hf
  Hf8      1.0000 0.36873  0.97199  0.84797  Biso   1.000  Hf
  O9       1.0000 0.04446  0.34343  0.57880  Biso   1.000  O 
  O10      1.0000 0.04394  0.17270  0.82525  Biso   1.000  O 
  O11      1.0000 0.47625  0.84029  0.67540  Biso   1.000  O 
  O12      1.0000 0.47725  0.68382  0.91538  Biso   1.000  O 
  O13      1.0000 0.28574  0.26460  0.73696  Biso   1.000  O 
  O14      1.0000 0.28753  0.25294  0.98436  Biso   1.000  O 
  O15      1.0000 0.22673  0.76871  0.50851  Biso   1.000  O 
  O16      1.0000 0.23241  0.74987  0.75492  Biso   1.000  O 
  Hf9      1.0000 0.64070  0.03667  0.14795  Biso   1.000  Hf
  Hf10     1.0000 0.65657  0.45460  0.41418  Biso   1.000  Hf
  Hf11     1.0000 0.85984  0.54047  0.10780  Biso   1.000  Hf
  Hf12     1.0000 0.86132  0.95727  0.35521  Biso   1.000  Hf
  O17      1.0000 0.52945  0.33621  0.07802  Biso   1.000  O 
  O18      1.0000 0.54835  0.14793  0.33710  Biso   1.000  O 
  O19      1.0000 0.96391  0.82993  0.17554  Biso   1.000  O 
  O20      1.0000 0.96788  0.66876  0.42355  Biso   1.000  O 
  O21      1.0000 0.78127  0.25560  0.24371  Biso   1.000  O 
  O22      1.0000 0.79250  0.23857  0.49904  Biso   1.000  O 
  O23      1.0000 0.71930  0.75338  0.01446  Biso   1.000  O 
  O24      1.0000 0.72045  0.73373  0.26277  Biso   1.000  O 
  Hf13     1.0000 0.64963  0.04954  0.65101  Biso   1.000  Hf
  Hf14     1.0000 0.65012  0.46356  0.89786  Biso   1.000  Hf
  Hf15     1.0000 0.87105  0.55185  0.60908  Biso   1.000  Hf
  Hf16     1.0000 0.87033  0.96396  0.85570  Biso   1.000  Hf
  O25      1.0000 0.54303  0.33846  0.58397  Biso   1.000  O 
  O26      1.0000 0.54330  0.18104  0.82805  Biso   1.000  O 
  O27      1.0000 0.97442  0.84225  0.67337  Biso   1.000  O 
  O28      1.0000 0.97338  0.67001  0.92037  Biso   1.000  O 
  O29      1.0000 0.78652  0.26715  0.74494  Biso   1.000  O 
  O30      1.0000 0.78934  0.24957  0.99205  Biso   1.000  O 
  O31      1.0000 0.73258  0.76075  0.51630  Biso   1.000  O 
  O32      1.0000 0.73340  0.75182  0.76348  Biso   1.000  O 
  Ca1      1.0000 0.45744  0.47953  0.27123  Biso   1.000  Ca
