data_image0
_cell_length_a       5.00627
_cell_length_b       10.3499
_cell_length_c       10.0882
_cell_angle_alpha    90
_cell_angle_beta     90
_cell_angle_gamma    90

_symmetry_space_group_name_H-M    "P 1"
_symmetry_int_tables_number       1

loop_
  _symmetry_equiv_pos_as_xyz
  'x, y, z'

loop_
  _atom_site_label
  _atom_site_occupancy
  _atom_site_fract_x
  _atom_site_fract_y
  _atom_site_fract_z
  _atom_site_thermal_displace_type
  _atom_site_B_iso_or_equiv
  _atom_site_type_symbol
  Ca1      1.0000 0.26247  0.01242  0.11977  Biso   1.000  Ca
  Hf1      1.0000 0.25719  0.01510  0.62557  Biso   1.000  Hf
  Hf2      1.0000 0.26766  0.51494  0.12523  Biso   1.000  Hf
  Hf3      1.0000 0.25977  0.51449  0.62619  Biso   1.000  Hf
  Hf4      1.0000 0.26289  0.23120  0.37502  Biso   1.000  Hf
  Hf5      1.0000 0.26294  0.23022  0.87337  Biso   1.000  Hf
  Hf6      1.0000 0.26161  0.73280  0.37739  Biso   1.000  Hf
  Hf7      1.0000 0.26678  0.73090  0.87602  Biso   1.000  Hf
  Hf8      1.0000 0.72089  0.26401  0.12734  Biso   1.000  Hf
  Hf9      1.0000 0.72373  0.26466  0.62388  Biso   1.000  Hf
  Hf10     1.0000 0.72440  0.76647  0.12745  Biso   1.000  Hf
  Hf11     1.0000 0.72451  0.76476  0.62547  Biso   1.000  Hf
  Hf12     1.0000 0.72334  0.48264  0.37656  Biso   1.000  Hf
  Hf13     1.0000 0.72152  0.47976  0.87635  Biso   1.000  Hf
  Hf14     1.0000 0.71844  0.98183  0.37442  Biso   1.000  Hf
  Hf15     1.0000 0.71845  0.98051  0.87398  Biso   1.000  Hf
  O1       1.0000 0.06029  0.19385  0.20088  Biso   1.000  O 
  O2       1.0000 0.06841  0.18625  0.68759  Biso   1.000  O 
  O3       1.0000 0.06511  0.68035  0.19715  Biso   1.000  O 
  O4       1.0000 0.06319  0.68159  0.69549  Biso   1.000  O 
  O5       1.0000 0.05966  0.06518  0.44506  Biso   1.000  O 
  O6       1.0000 0.05954  0.06800  0.92095  Biso   1.000  O 
  O7       1.0000 0.06184  0.56433  0.44715  Biso   1.000  O 
  O8       1.0000 0.05837  0.56522  0.94552  Biso   1.000  O 
  O9       1.0000 0.92411  0.43538  0.19581  Biso   1.000  O 
  O10      1.0000 0.92278  0.43218  0.69654  Biso   1.000  O 
  O11      1.0000 0.90435  0.92767  0.20334  Biso   1.000  O 
  O12      1.0000 0.91744  0.93150  0.69261  Biso   1.000  O 
  O13      1.0000 0.92285  0.31705  0.44628  Biso   1.000  O 
  O14      1.0000 0.92598  0.31622  0.94655  Biso   1.000  O 
  O15      1.0000 0.92456  0.81431  0.44929  Biso   1.000  O 
  O16      1.0000 0.93728  0.81769  0.94967  Biso   1.000  O 
  O17      1.0000 0.55316  0.12559  0.25609  Biso   1.000  O 
  O18      1.0000 0.53468  0.11566  0.74624  Biso   1.000  O 
  O19      1.0000 0.53494  0.61387  0.24911  Biso   1.000  O 
  O20      1.0000 0.53427  0.61496  0.74916  Biso   1.000  O 
  O21      1.0000 0.52826  0.13111  0.50146  Biso   1.000  O 
  O22      1.0000 0.54541  0.13293  0.99228  Biso   1.000  O 
  O23      1.0000 0.53258  0.63113  0.49937  Biso   1.000  O 
  O24      1.0000 0.53120  0.62476  0.99941  Biso   1.000  O 
  O25      1.0000 0.45281  0.38210  0.49920  Biso   1.000  O 
  O26      1.0000 0.44783  0.37943  0.99886  Biso   1.000  O 
  O27      1.0000 0.44974  0.88115  0.50072  Biso   1.000  O 
  O28      1.0000 0.46770  0.86898  0.99308  Biso   1.000  O 
  O29      1.0000 0.45065  0.36902  0.24959  Biso   1.000  O 
  O30      1.0000 0.45384  0.36611  0.74841  Biso   1.000  O 
  O31      1.0000 0.45808  0.85720  0.25504  Biso   1.000  O 
  O32      1.0000 0.44863  0.86531  0.74702  Biso   1.000  O 
