data_image0
_cell_length_a       5.04557
_cell_length_b       10.3753
_cell_length_c       10.131
_cell_angle_alpha    90
_cell_angle_beta     90
_cell_angle_gamma    90

_symmetry_space_group_name_H-M    "P 1"
_symmetry_int_tables_number       1

loop_
  _symmetry_equiv_pos_as_xyz
  'x, y, z'

loop_
  _atom_site_label
  _atom_site_occupancy
  _atom_site_fract_x
  _atom_site_fract_y
  _atom_site_fract_z
  _atom_site_thermal_displace_type
  _atom_site_B_iso_or_equiv
  _atom_site_type_symbol
  Hf1      1.0000 0.22462  0.99176  0.10167  Biso   1.000  Hf
  Hf2      1.0000 0.20568  0.23357  0.40818  Biso   1.000  Hf
  Hf3      1.0000 0.57929  0.25759  0.15395  Biso   1.000  Hf
  Hf4      1.0000 0.68837  0.48986  0.38021  Biso   1.000  Hf
  O1       1.0000 0.86442  0.18441  0.27683  Biso   1.000  O 
  O2       1.0000 0.04353  0.06355  0.46521  Biso   1.000  O 
  O3       1.0000 0.86680  0.42872  0.18581  Biso   1.000  O 
  O4       1.0000 0.90317  0.34034  0.46795  Biso   1.000  O 
  O5       1.0000 0.40162  0.10709  0.26180  Biso   1.000  O 
  O6       1.0000 0.52350  0.14447  0.50596  Biso   1.000  O 
  O7       1.0000 0.42938  0.39102  0.50660  Biso   1.000  O 
  O8       1.0000 0.36424  0.37639  0.26840  Biso   1.000  O 
  Hf5      1.0000 0.26196  0.01973  0.62906  Biso   1.000  Hf
  Hf6      1.0000 0.24139  0.24045  0.86159  Biso   1.000  Hf
  Hf7      1.0000 0.70994  0.28229  0.63878  Biso   1.000  Hf
  Hf8      1.0000 0.66917  0.49438  0.87259  Biso   1.000  Hf
  O9       1.0000 0.06918  0.19555  0.67577  Biso   1.000  O 
  O10      1.0000 0.07452  0.06095  0.91304  Biso   1.000  O 
  O11      1.0000 0.86763  0.46091  0.68774  Biso   1.000  O 
  O12      1.0000 0.86833  0.31912  0.88169  Biso   1.000  O 
  O13      1.0000 0.52585  0.12729  0.75403  Biso   1.000  O 
  O14      1.0000 0.59526  0.11825  0.00910  Biso   1.000  O 
  O15      1.0000 0.46311  0.38426  0.00094  Biso   1.000  O 
  O16      1.0000 0.40491  0.38316  0.74822  Biso   1.000  O 
  Hf9      1.0000 0.22810  0.52448  0.12762  Biso   1.000  Hf
  Hf10     1.0000 0.21938  0.74506  0.37575  Biso   1.000  Hf
  Hf11     1.0000 0.69961  0.76411  0.12689  Biso   1.000  Hf
  Hf12     1.0000 0.72377  0.00410  0.36390  Biso   1.000  Hf
  O17      1.0000 0.03724  0.68479  0.19565  Biso   1.000  O 
  O18      1.0000 0.02198  0.57907  0.44066  Biso   1.000  O 
  O19      1.0000 0.88110  0.94334  0.18798  Biso   1.000  O 
  O20      1.0000 0.87255  0.82547  0.43558  Biso   1.000  O 
  O21      1.0000 0.50397  0.61962  0.24911  Biso   1.000  O 
  O22      1.0000 0.48751  0.64109  0.49632  Biso   1.000  O 
  O23      1.0000 0.40643  0.89397  0.49453  Biso   1.000  O 
  O24      1.0000 0.42280  0.86536  0.24121  Biso   1.000  O 
  Hf13     1.0000 0.21520  0.52519  0.62073  Biso   1.000  Hf
  Hf14     1.0000 0.20215  0.74084  0.86928  Biso   1.000  Hf
  Hf15     1.0000 0.68217  0.77663  0.61702  Biso   1.000  Hf
  Hf16     1.0000 0.66851  0.98818  0.87081  Biso   1.000  Hf
  O25      1.0000 0.01847  0.69673  0.69014  Biso   1.000  O 
  O26      1.0000 0.99944  0.57681  0.94624  Biso   1.000  O 
  O27      1.0000 0.87022  0.93829  0.69539  Biso   1.000  O 
  O28      1.0000 0.88150  0.82839  0.95753  Biso   1.000  O 
  O29      1.0000 0.48053  0.62803  0.74819  Biso   1.000  O 
  O30      1.0000 0.51631  0.63107  0.00060  Biso   1.000  O 
  O31      1.0000 0.40096  0.88320  0.99051  Biso   1.000  O 
  O32      1.0000 0.40887  0.87354  0.74604  Biso   1.000  O 
  Cd1      1.0000 0.06312  0.24321  0.09298  Biso   1.000  Cd
