data_image0
_cell_length_a       10.0578
_cell_length_b       10.2677
_cell_length_c       10.5125
_cell_angle_alpha    90
_cell_angle_beta     90
_cell_angle_gamma    90

_symmetry_space_group_name_H-M    "P 1"
_symmetry_int_tables_number       1

loop_
  _symmetry_equiv_pos_as_xyz
  'x, y, z'

loop_
  _atom_site_label
  _atom_site_occupancy
  _atom_site_fract_x
  _atom_site_fract_y
  _atom_site_fract_z
  _atom_site_thermal_displace_type
  _atom_site_B_iso_or_equiv
  _atom_site_type_symbol
  Hf1      1.0000 0.13370  0.02121  0.17213  Biso   1.000  Hf
  Hf2      1.0000 0.12826  0.22844  0.42750  Biso   1.000  Hf
  Hf3      1.0000 0.34058  0.26940  0.18834  Biso   1.000  Hf
  Hf4      1.0000 0.35515  0.48133  0.42444  Biso   1.000  Hf
  Hf5      1.0000 0.64017  0.02012  0.07097  Biso   1.000  Hf
  Hf6      1.0000 0.63074  0.22550  0.33368  Biso   1.000  Hf
  Hf7      1.0000 0.85702  0.26942  0.07321  Biso   1.000  Hf
  Hf8      1.0000 0.85520  0.47842  0.32789  Biso   1.000  Hf
  O1       1.0000 0.03318  0.16651  0.08403  Biso   1.000  O 
  O2       1.0000 0.02491  0.08606  0.33402  Biso   1.000  O 
  O3       1.0000 0.45577  0.43049  0.09777  Biso   1.000  O 
  O4       1.0000 0.45897  0.33610  0.33685  Biso   1.000  O 
  O5       1.0000 0.26239  0.12560  0.30236  Biso   1.000  O 
  O6       1.0000 0.27799  0.12593  0.04787  Biso   1.000  O 
  O7       1.0000 0.21232  0.37579  0.30171  Biso   1.000  O 
  O8       1.0000 0.22148  0.37639  0.04931  Biso   1.000  O 
  O9       1.0000 0.50557  0.14108  0.19664  Biso   1.000  O 
  O10      1.0000 0.52376  0.08850  0.42820  Biso   1.000  O 
  O11      1.0000 0.96058  0.41474  0.16710  Biso   1.000  O 
  O12      1.0000 0.95943  0.33617  0.41841  Biso   1.000  O 
  O13      1.0000 0.76848  0.12438  0.45457  Biso   1.000  O 
  O14      1.0000 0.76885  0.12827  0.20612  Biso   1.000  O 
  O15      1.0000 0.71627  0.37460  0.45495  Biso   1.000  O 
  O16      1.0000 0.71455  0.38059  0.20622  Biso   1.000  O 
  Hf9      1.0000 0.13171  0.02180  0.67293  Biso   1.000  Hf
  Hf10     1.0000 0.12634  0.23022  0.92256  Biso   1.000  Hf
  Hf11     1.0000 0.35408  0.27268  0.67498  Biso   1.000  Hf
  Hf12     1.0000 0.34564  0.48467  0.92327  Biso   1.000  Hf
  Hf13     1.0000 0.63184  0.02049  0.58029  Biso   1.000  Hf
  Hf14     1.0000 0.63778  0.22718  0.81867  Biso   1.000  Hf
  Hf15     1.0000 0.85360  0.27301  0.57797  Biso   1.000  Hf
  Hf16     1.0000 0.85610  0.48471  0.82563  Biso   1.000  Hf
  O17      1.0000 0.02390  0.16531  0.58512  Biso   1.000  O 
  O18      1.0000 0.02747  0.08326  0.83298  Biso   1.000  O 
  O19      1.0000 0.46027  0.41682  0.58458  Biso   1.000  O 
  O20      1.0000 0.45933  0.33840  0.83610  Biso   1.000  O 
  O21      1.0000 0.26824  0.12641  0.79642  Biso   1.000  O 
  O22      1.0000 0.26833  0.12648  0.54849  Biso   1.000  O 
  O23      1.0000 0.21523  0.37598  0.79789  Biso   1.000  O 
  O24      1.0000 0.21746  0.37648  0.54864  Biso   1.000  O 
  O25      1.0000 0.52559  0.16709  0.66621  Biso   1.000  O 
  O26      1.0000 0.52638  0.06745  0.89870  Biso   1.000  O 
  O27      1.0000 0.96076  0.41626  0.66585  Biso   1.000  O 
  O28      1.0000 0.95861  0.33580  0.91386  Biso   1.000  O 
  O29      1.0000 0.78128  0.11996  0.94463  Biso   1.000  O 
  O30      1.0000 0.77207  0.12403  0.69934  Biso   1.000  O 
  O31      1.0000 0.72844  0.39598  0.95017  Biso   1.000  O 
  O32      1.0000 0.71770  0.37672  0.70242  Biso   1.000  O 
  Hf17     1.0000 0.13204  0.52212  0.17149  Biso   1.000  Hf
  Hf18     1.0000 0.13136  0.72961  0.42090  Biso   1.000  Hf
  Hf19     1.0000 0.35800  0.77419  0.17300  Biso   1.000  Hf
  Hf20     1.0000 0.35468  0.97902  0.42550  Biso   1.000  Hf
  Hf21     1.0000 0.64272  0.53393  0.07943  Biso   1.000  Hf
  Hf22     1.0000 0.63424  0.73242  0.32915  Biso   1.000  Hf
  Hf23     1.0000 0.86154  0.77392  0.07876  Biso   1.000  Hf
  Hf24     1.0000 0.85454  0.98075  0.32830  Biso   1.000  Hf
  O33      1.0000 0.03201  0.66600  0.08312  Biso   1.000  O 
  O34      1.0000 0.02656  0.58526  0.33260  Biso   1.000  O 
  O35      1.0000 0.46710  0.91313  0.08070  Biso   1.000  O 
  O36      1.0000 0.46284  0.83851  0.33416  Biso   1.000  O 
  O37      1.0000 0.27032  0.62489  0.29475  Biso   1.000  O 
  O38      1.0000 0.27506  0.62716  0.04519  Biso   1.000  O 
  O39      1.0000 0.21940  0.87537  0.29649  Biso   1.000  O 
  O40      1.0000 0.22193  0.87666  0.04747  Biso   1.000  O 
  O41      1.0000 0.53190  0.67103  0.16730  Biso   1.000  O 
  O42      1.0000 0.52579  0.58793  0.41698  Biso   1.000  O 
  O43      1.0000 0.96345  0.91801  0.16713  Biso   1.000  O 
  O44      1.0000 0.95975  0.83455  0.41527  Biso   1.000  O 
  O45      1.0000 0.76943  0.62464  0.45363  Biso   1.000  O 
  O46      1.0000 0.77527  0.63007  0.20488  Biso   1.000  O 
  O47      1.0000 0.71723  0.87581  0.45588  Biso   1.000  O 
  O48      1.0000 0.72184  0.87705  0.20516  Biso   1.000  O 
  Hf25     1.0000 0.13133  0.52189  0.67137  Biso   1.000  Hf
  Hf26     1.0000 0.12746  0.73294  0.92239  Biso   1.000  Hf
  Hf27     1.0000 0.35257  0.77067  0.67231  Biso   1.000  Hf
  Hf28     1.0000 0.34981  0.97926  0.92078  Biso   1.000  Hf
  Hf29     1.0000 0.63142  0.52262  0.57727  Biso   1.000  Hf
  Hf30     1.0000 0.62725  0.73109  0.82719  Biso   1.000  Hf
  Hf31     1.0000 0.85483  0.77162  0.57763  Biso   1.000  Hf
  Hf32     1.0000 0.85399  0.97773  0.82680  Biso   1.000  Hf
  O49      1.0000 0.02564  0.66513  0.58201  Biso   1.000  O 
  O50      1.0000 0.02591  0.58851  0.83295  Biso   1.000  O 
  O51      1.0000 0.45960  0.91382  0.58539  Biso   1.000  O 
  O52      1.0000 0.45293  0.82933  0.83459  Biso   1.000  O 
  O53      1.0000 0.26658  0.62509  0.79536  Biso   1.000  O 
  O54      1.0000 0.26799  0.62649  0.54532  Biso   1.000  O 
  O55      1.0000 0.21370  0.87471  0.79538  Biso   1.000  O 
  O56      1.0000 0.21664  0.87622  0.54543  Biso   1.000  O 
  O57      1.0000 0.52388  0.66471  0.66676  Biso   1.000  O 
  O58      1.0000 0.52007  0.58662  0.91875  Biso   1.000  O 
  O59      1.0000 0.96092  0.91427  0.66468  Biso   1.000  O 
  O60      1.0000 0.95670  0.83710  0.91847  Biso   1.000  O 
  O61      1.0000 0.76344  0.63436  0.95383  Biso   1.000  O 
  O62      1.0000 0.76730  0.62725  0.70321  Biso   1.000  O 
  O63      1.0000 0.71237  0.87678  0.95493  Biso   1.000  O 
  O64      1.0000 0.71579  0.87493  0.70521  Biso   1.000  O 
  Cd1      1.0000 0.56560  0.26864  0.04322  Biso   1.000  Cd
