data_image0
_cell_length_a       10.1351
_cell_length_b       10.2842
_cell_length_c       10.4544
_cell_angle_alpha    90
_cell_angle_beta     80
_cell_angle_gamma    90

_symmetry_space_group_name_H-M    "P 1"
_symmetry_int_tables_number       1

loop_
  _symmetry_equiv_pos_as_xyz
  'x, y, z'

loop_
  _atom_site_label
  _atom_site_occupancy
  _atom_site_fract_x
  _atom_site_fract_y
  _atom_site_fract_z
  _atom_site_thermal_displace_type
  _atom_site_B_iso_or_equiv
  _atom_site_type_symbol
  Cd1      1.0000 0.13168  0.01393  0.14800  Biso   1.000  Cd
  Hf1      1.0000 0.13549  0.02051  0.64557  Biso   1.000  Hf
  Hf2      1.0000 0.13812  0.52110  0.14465  Biso   1.000  Hf
  Hf3      1.0000 0.13572  0.52102  0.64693  Biso   1.000  Hf
  Hf4      1.0000 0.63900  0.02142  0.14632  Biso   1.000  Hf
  Hf5      1.0000 0.63483  0.02146  0.64733  Biso   1.000  Hf
  Hf6      1.0000 0.63661  0.51931  0.14598  Biso   1.000  Hf
  Hf7      1.0000 0.63475  0.52087  0.64632  Biso   1.000  Hf
  Hf8      1.0000 0.13773  0.22855  0.39500  Biso   1.000  Hf
  Hf9      1.0000 0.13411  0.22744  0.89765  Biso   1.000  Hf
  Hf10     1.0000 0.13661  0.72681  0.39590  Biso   1.000  Hf
  Hf11     1.0000 0.13490  0.72993  0.89635  Biso   1.000  Hf
  Hf12     1.0000 0.63563  0.22900  0.39640  Biso   1.000  Hf
  Hf13     1.0000 0.63374  0.22886  0.89732  Biso   1.000  Hf
  Hf14     1.0000 0.63507  0.72773  0.39640  Biso   1.000  Hf
  Hf15     1.0000 0.63326  0.72850  0.89622  Biso   1.000  Hf
  Hf16     1.0000 0.35729  0.26745  0.10349  Biso   1.000  Hf
  Hf17     1.0000 0.35644  0.27064  0.60472  Biso   1.000  Hf
  Hf18     1.0000 0.36048  0.77148  0.10462  Biso   1.000  Hf
  Hf19     1.0000 0.35683  0.77194  0.60453  Biso   1.000  Hf
  Hf20     1.0000 0.86090  0.27063  0.10381  Biso   1.000  Hf
  Hf21     1.0000 0.85640  0.27158  0.60439  Biso   1.000  Hf
  Hf22     1.0000 0.85848  0.76829  0.10277  Biso   1.000  Hf
  Hf23     1.0000 0.85739  0.77055  0.60442  Biso   1.000  Hf
  Hf24     1.0000 0.35762  0.47756  0.35321  Biso   1.000  Hf
  Hf25     1.0000 0.35578  0.47800  0.85516  Biso   1.000  Hf
  Hf26     1.0000 0.35641  0.97864  0.35313  Biso   1.000  Hf
  Hf27     1.0000 0.35496  0.98027  0.85555  Biso   1.000  Hf
  Hf28     1.0000 0.85862  0.47855  0.35410  Biso   1.000  Hf
  Hf29     1.0000 0.85610  0.47828  0.85464  Biso   1.000  Hf
  Hf30     1.0000 0.85634  0.97879  0.35824  Biso   1.000  Hf
  Hf31     1.0000 0.85522  0.97852  0.85518  Biso   1.000  Hf
  O1       1.0000 0.03690  0.18147  0.07945  Biso   1.000  O 
  O2       1.0000 0.03185  0.17045  0.58223  Biso   1.000  O 
  O3       1.0000 0.03591  0.67206  0.08090  Biso   1.000  O 
  O4       1.0000 0.03183  0.66856  0.58223  Biso   1.000  O 
  O5       1.0000 0.53561  0.16861  0.07985  Biso   1.000  O 
  O6       1.0000 0.53070  0.16816  0.58087  Biso   1.000  O 
  O7       1.0000 0.53498  0.66720  0.07897  Biso   1.000  O 
  O8       1.0000 0.53102  0.66771  0.58023  Biso   1.000  O 
  O9       1.0000 0.02900  0.07907  0.34853  Biso   1.000  O 
  O10      1.0000 0.03041  0.08037  0.83052  Biso   1.000  O 
  O11      1.0000 0.03346  0.58005  0.33010  Biso   1.000  O 
  O12      1.0000 0.03081  0.58032  0.83142  Biso   1.000  O 
  O13      1.0000 0.53357  0.08096  0.33048  Biso   1.000  O 
  O14      1.0000 0.53234  0.08108  0.83038  Biso   1.000  O 
  O15      1.0000 0.53178  0.58109  0.32978  Biso   1.000  O 
  O16      1.0000 0.52987  0.58192  0.82976  Biso   1.000  O 
  O17      1.0000 0.46321  0.41604  0.17062  Biso   1.000  O 
  O18      1.0000 0.46065  0.41790  0.67069  Biso   1.000  O 
  O19      1.0000 0.46571  0.91768  0.17028  Biso   1.000  O 
  O20      1.0000 0.46071  0.91787  0.67112  Biso   1.000  O 
  O21      1.0000 0.96057  0.42310  0.16818  Biso   1.000  O 
  O22      1.0000 0.96078  0.41874  0.66998  Biso   1.000  O 
  O23      1.0000 0.94452  0.92286  0.17179  Biso   1.000  O 
  O24      1.0000 0.95931  0.91926  0.66979  Biso   1.000  O 
  O25      1.0000 0.46136  0.33122  0.42086  Biso   1.000  O 
  O26      1.0000 0.46135  0.33337  0.92122  Biso   1.000  O 
  O27      1.0000 0.46238  0.83202  0.42145  Biso   1.000  O 
  O28      1.0000 0.46180  0.83304  0.92105  Biso   1.000  O 
  O29      1.0000 0.96127  0.33152  0.41999  Biso   1.000  O 
  O30      1.0000 0.95808  0.33089  0.91847  Biso   1.000  O 
  O31      1.0000 0.96063  0.82814  0.41944  Biso   1.000  O 
  O32      1.0000 0.95849  0.83018  0.92000  Biso   1.000  O 
  O33      1.0000 0.27973  0.13092  0.24560  Biso   1.000  O 
  O34      1.0000 0.27130  0.12773  0.73881  Biso   1.000  O 
  O35      1.0000 0.27536  0.62482  0.23931  Biso   1.000  O 
  O36      1.0000 0.27207  0.62938  0.74106  Biso   1.000  O 
  O37      1.0000 0.77414  0.13008  0.24254  Biso   1.000  O 
  O38      1.0000 0.77285  0.12922  0.74153  Biso   1.000  O 
  O39      1.0000 0.77325  0.62863  0.24058  Biso   1.000  O 
  O40      1.0000 0.77170  0.62868  0.74067  Biso   1.000  O 
  O41      1.0000 0.27299  0.12085  0.49177  Biso   1.000  O 
  O42      1.0000 0.27998  0.12800  0.98175  Biso   1.000  O 
  O43      1.0000 0.27329  0.62029  0.49085  Biso   1.000  O 
  O44      1.0000 0.27037  0.62036  0.99090  Biso   1.000  O 
  O45      1.0000 0.77103  0.12180  0.49292  Biso   1.000  O 
  O46      1.0000 0.77081  0.12041  0.99178  Biso   1.000  O 
  O47      1.0000 0.77262  0.62052  0.49087  Biso   1.000  O 
  O48      1.0000 0.76984  0.61991  0.99088  Biso   1.000  O 
  O49      1.0000 0.22427  0.38090  0.00834  Biso   1.000  O 
  O50      1.0000 0.21981  0.37878  0.50947  Biso   1.000  O 
  O51      1.0000 0.23039  0.87448  0.00334  Biso   1.000  O 
  O52      1.0000 0.21996  0.87853  0.51047  Biso   1.000  O 
  O53      1.0000 0.72336  0.37941  0.00888  Biso   1.000  O 
  O54      1.0000 0.71973  0.37903  0.51004  Biso   1.000  O 
  O55      1.0000 0.72312  0.87852  0.00906  Biso   1.000  O 
  O56      1.0000 0.71969  0.87862  0.51078  Biso   1.000  O 
  O57      1.0000 0.22015  0.37065  0.25821  Biso   1.000  O 
  O58      1.0000 0.21952  0.37080  0.75982  Biso   1.000  O 
  O59      1.0000 0.22911  0.86147  0.26309  Biso   1.000  O 
  O60      1.0000 0.21822  0.87144  0.75864  Biso   1.000  O 
  O61      1.0000 0.72104  0.37134  0.26042  Biso   1.000  O 
  O62      1.0000 0.71921  0.37100  0.75957  Biso   1.000  O 
  O63      1.0000 0.71818  0.87027  0.26100  Biso   1.000  O 
  O64      1.0000 0.71921  0.87064  0.75999  Biso   1.000  O 
