data_image0
_cell_length_a       10.0553
_cell_length_b       10.1897
_cell_length_c       5.00715
_cell_angle_alpha    90
_cell_angle_beta     90
_cell_angle_gamma    90

_symmetry_space_group_name_H-M    "P 1"
_symmetry_int_tables_number       1

loop_
  _symmetry_equiv_pos_as_xyz
  'x, y, z'

loop_
  _atom_site_label
  _atom_site_occupancy
  _atom_site_fract_x
  _atom_site_fract_y
  _atom_site_fract_z
  _atom_site_thermal_displace_type
  _atom_site_B_iso_or_equiv
  _atom_site_type_symbol
  Cd1      1.0000 0.12517  0.99978  0.25243  Biso   1.000  Cd
  Hf1      1.0000 0.12510  0.49976  0.25245  Biso   1.000  Hf
  Hf2      1.0000 0.62515  0.99976  0.25246  Biso   1.000  Hf
  Hf3      1.0000 0.62511  0.49976  0.25244  Biso   1.000  Hf
  Hf4      1.0000 0.12511  0.25169  0.75241  Biso   1.000  Hf
  Hf5      1.0000 0.12511  0.74778  0.75250  Biso   1.000  Hf
  Hf6      1.0000 0.62508  0.24768  0.75246  Biso   1.000  Hf
  Hf7      1.0000 0.62510  0.75179  0.75248  Biso   1.000  Hf
  Hf8      1.0000 0.37561  0.25114  0.25121  Biso   1.000  Hf
  Hf9      1.0000 0.37562  0.74839  0.25369  Biso   1.000  Hf
  Hf10     1.0000 0.87456  0.25111  0.25361  Biso   1.000  Hf
  Hf11     1.0000 0.87460  0.74842  0.25136  Biso   1.000  Hf
  Hf12     1.0000 0.37337  0.99972  0.75242  Biso   1.000  Hf
  Hf13     1.0000 0.37607  0.49974  0.75245  Biso   1.000  Hf
  Hf14     1.0000 0.87696  0.99974  0.75244  Biso   1.000  Hf
  Hf15     1.0000 0.87413  0.49974  0.75244  Biso   1.000  Hf
  O1       1.0000 0.99613  0.14530  0.99694  Biso   1.000  O 
  O2       1.0000 0.00287  0.64127  0.01441  Biso   1.000  O 
  O3       1.0000 0.50467  0.14769  0.01371  Biso   1.000  O 
  O4       1.0000 0.50229  0.64634  0.00214  Biso   1.000  O 
  O5       1.0000 0.99367  0.11627  0.51482  Biso   1.000  O 
  O6       1.0000 0.99986  0.60536  0.51203  Biso   1.000  O 
  O7       1.0000 0.50071  0.10212  0.51026  Biso   1.000  O 
  O8       1.0000 0.49794  0.60268  0.50085  Biso   1.000  O 
  O9       1.0000 0.00288  0.35827  0.49047  Biso   1.000  O 
  O10      1.0000 0.99613  0.85419  0.50803  Biso   1.000  O 
  O11      1.0000 0.50230  0.35319  0.50273  Biso   1.000  O 
  O12      1.0000 0.50466  0.85185  0.49125  Biso   1.000  O 
  O13      1.0000 0.99985  0.39412  0.99287  Biso   1.000  O 
  O14      1.0000 0.99370  0.88322  0.99016  Biso   1.000  O 
  O15      1.0000 0.49794  0.39686  0.00402  Biso   1.000  O 
  O16      1.0000 0.50074  0.89736  0.99471  Biso   1.000  O 
  O17      1.0000 0.25403  0.14525  0.50768  Biso   1.000  O 
  O18      1.0000 0.24737  0.64119  0.49061  Biso   1.000  O 
  O19      1.0000 0.74557  0.14767  0.49130  Biso   1.000  O 
  O20      1.0000 0.74794  0.64631  0.50281  Biso   1.000  O 
  O21      1.0000 0.25653  0.11631  0.98981  Biso   1.000  O 
  O22      1.0000 0.25038  0.60537  0.99298  Biso   1.000  O 
  O23      1.0000 0.74949  0.10207  0.99476  Biso   1.000  O 
  O24      1.0000 0.75229  0.60269  0.00408  Biso   1.000  O 
  O25      1.0000 0.24736  0.35835  0.01433  Biso   1.000  O 
  O26      1.0000 0.25407  0.85422  0.99714  Biso   1.000  O 
  O27      1.0000 0.74793  0.35322  0.00210  Biso   1.000  O 
  O28      1.0000 0.74559  0.85185  0.01371  Biso   1.000  O 
  O29      1.0000 0.25039  0.39411  0.51196  Biso   1.000  O 
  O30      1.0000 0.25653  0.88317  0.51502  Biso   1.000  O 
  O31      1.0000 0.75229  0.39683  0.50080  Biso   1.000  O 
  O32      1.0000 0.74949  0.89740  0.51026  Biso   1.000  O 
