data_image0
_cell_length_a       10.321
_cell_length_b       10.4688
_cell_length_c       5.16154
_cell_angle_alpha    90
_cell_angle_beta     80
_cell_angle_gamma    90

_symmetry_space_group_name_H-M    "P 1"
_symmetry_int_tables_number       1

loop_
  _symmetry_equiv_pos_as_xyz
  'x, y, z'

loop_
  _atom_site_label
  _atom_site_occupancy
  _atom_site_fract_x
  _atom_site_fract_y
  _atom_site_fract_z
  _atom_site_thermal_displace_type
  _atom_site_B_iso_or_equiv
  _atom_site_type_symbol
  Hf1      1.0000 0.15157  0.97830  0.38010  Biso   1.000  Hf
  Hf2      1.0000 0.05477  0.25788  0.61823  Biso   1.000  Hf
  Hf3      1.0000 0.32424  0.26031  0.15370  Biso   1.000  Hf
  Hf4      1.0000 0.37923  0.97804  0.86432  Biso   1.000  Hf
  O1       1.0000 0.88395  0.18257  0.82029  Biso   1.000  O 
  O2       1.0000 0.06091  0.05677  0.70228  Biso   1.000  O 
  O3       1.0000 0.92536  0.35444  0.40211  Biso   1.000  O 
  O4       1.0000 0.91376  0.40821  0.91565  Biso   1.000  O 
  O5       1.0000 0.23913  0.16807  0.47996  Biso   1.000  O 
  O6       1.0000 0.27165  0.07519  0.04288  Biso   1.000  O 
  O7       1.0000 0.15864  0.32259  0.91718  Biso   1.000  O 
  O8       1.0000 0.18278  0.40578  0.40687  Biso   1.000  O 
  Hf5      1.0000 0.05944  0.49316  0.15785  Biso   1.000  Hf
  Hf6      1.0000 0.12618  0.74997  0.85825  Biso   1.000  Hf
  Hf7      1.0000 0.39458  0.75497  0.35570  Biso   1.000  Hf
  Hf8      1.0000 0.29579  0.48397  0.66107  Biso   1.000  Hf
  O9       1.0000 0.99829  0.66799  0.02431  Biso   1.000  O 
  O10      1.0000 0.95968  0.58578  0.47896  Biso   1.000  O 
  O11      1.0000 0.00910  0.83165  0.60019  Biso   1.000  O 
  O12      1.0000 0.02176  0.90620  0.11281  Biso   1.000  O 
  O13      1.0000 0.23060  0.65879  0.53432  Biso   1.000  O 
  O14      1.0000 0.18978  0.57093  0.98111  Biso   1.000  O 
  O15      1.0000 0.27425  0.83702  0.10727  Biso   1.000  O 
  O16      1.0000 0.26573  0.89292  0.61274  Biso   1.000  O 
  Hf9      1.0000 0.63727  0.98707  0.35900  Biso   1.000  Hf
  Hf10     1.0000 0.54672  0.25658  0.65828  Biso   1.000  Hf
  Hf11     1.0000 0.80522  0.26751  0.14859  Biso   1.000  Hf
  Hf12     1.0000 0.86268  0.97491  0.85699  Biso   1.000  Hf
  O17      1.0000 0.45602  0.15877  0.98660  Biso   1.000  O 
  O18      1.0000 0.49142  0.07507  0.53916  Biso   1.000  O 
  O19      1.0000 0.43569  0.34340  0.40990  Biso   1.000  O 
  O20      1.0000 0.40955  0.39872  0.91949  Biso   1.000  O 
  O21      1.0000 0.71125  0.16950  0.47421  Biso   1.000  O 
  O22      1.0000 0.75388  0.07702  0.04372  Biso   1.000  O 
  O23      1.0000 0.65607  0.33893  0.92061  Biso   1.000  O 
  O24      1.0000 0.67885  0.40845  0.41557  Biso   1.000  O 
  Hf13     1.0000 0.56191  0.49027  0.15938  Biso   1.000  Hf
  Hf14     1.0000 0.62315  0.74676  0.85859  Biso   1.000  Hf
  Hf15     1.0000 0.89619  0.75903  0.34470  Biso   1.000  Hf
  Hf16     1.0000 0.79768  0.48746  0.66111  Biso   1.000  Hf
  O25      1.0000 0.49596  0.66444  0.02979  Biso   1.000  O 
  O26      1.0000 0.45884  0.58111  0.48630  Biso   1.000  O 
  O27      1.0000 0.51177  0.83553  0.60264  Biso   1.000  O 
  O28      1.0000 0.52345  0.90359  0.10242  Biso   1.000  O 
  O29      1.0000 0.73166  0.66440  0.53641  Biso   1.000  O 
  O30      1.0000 0.68929  0.57470  0.98814  Biso   1.000  O 
  O31      1.0000 0.77581  0.84007  0.08511  Biso   1.000  O 
  O32      1.0000 0.76452  0.90798  0.58210  Biso   1.000  O 
  Cd1      1.0000 0.05751  0.15765  0.11603  Biso   1.000  Cd
