data_image0
_cell_length_a       10.1835
_cell_length_b       10.2908
_cell_length_c       10.5242
_cell_angle_alpha    90
_cell_angle_beta     80
_cell_angle_gamma    90

_symmetry_space_group_name_H-M    "P 1"
_symmetry_int_tables_number       1

loop_
  _symmetry_equiv_pos_as_xyz
  'x, y, z'

loop_
  _atom_site_label
  _atom_site_occupancy
  _atom_site_fract_x
  _atom_site_fract_y
  _atom_site_fract_z
  _atom_site_thermal_displace_type
  _atom_site_B_iso_or_equiv
  _atom_site_type_symbol
  Hf1      1.0000 0.13135  0.02060  0.14143  Biso   1.000  Hf
  Hf2      1.0000 0.14521  0.22825  0.38973  Biso   1.000  Hf
  Hf3      1.0000 0.34985  0.27367  0.09615  Biso   1.000  Hf
  Hf4      1.0000 0.36155  0.47779  0.34610  Biso   1.000  Hf
  O1       1.0000 0.03109  0.16781  0.07529  Biso   1.000  O 
  O2       1.0000 0.03223  0.08213  0.32784  Biso   1.000  O 
  O3       1.0000 0.45841  0.43495  0.15495  Biso   1.000  O 
  O4       1.0000 0.49581  0.35937  0.44874  Biso   1.000  O 
  O5       1.0000 0.26348  0.11462  0.23114  Biso   1.000  O 
  O6       1.0000 0.28469  0.11444  0.48739  Biso   1.000  O 
  O7       1.0000 0.21678  0.38315  0.00326  Biso   1.000  O 
  O8       1.0000 0.20509  0.37582  0.25017  Biso   1.000  O 
  Hf5      1.0000 0.14476  0.01903  0.64393  Biso   1.000  Hf
  Hf6      1.0000 0.14217  0.22694  0.89117  Biso   1.000  Hf
  Hf7      1.0000 0.36883  0.27436  0.60772  Biso   1.000  Hf
  Hf8      1.0000 0.36659  0.47756  0.85524  Biso   1.000  Hf
  O9       1.0000 0.04529  0.16592  0.57571  Biso   1.000  O 
  O10      1.0000 0.03957  0.08129  0.82476  Biso   1.000  O 
  O11      1.0000 0.47347  0.41175  0.68278  Biso   1.000  O 
  O12      1.0000 0.47040  0.32966  0.92042  Biso   1.000  O 
  O13      1.0000 0.28138  0.12691  0.73710  Biso   1.000  O 
  O14      1.0000 0.27888  0.12091  0.98342  Biso   1.000  O 
  O15      1.0000 0.23289  0.37469  0.50766  Biso   1.000  O 
  O16      1.0000 0.23009  0.37026  0.75692  Biso   1.000  O 
  Hf9      1.0000 0.13674  0.52340  0.14339  Biso   1.000  Hf
  Hf10     1.0000 0.13935  0.72411  0.39617  Biso   1.000  Hf
  Hf11     1.0000 0.35993  0.77238  0.10385  Biso   1.000  Hf
  Hf12     1.0000 0.35903  0.96430  0.35586  Biso   1.000  Hf
  O17      1.0000 0.03100  0.66901  0.07643  Biso   1.000  O 
  O18      1.0000 0.03303  0.58491  0.32579  Biso   1.000  O 
  O19      1.0000 0.46538  0.91772  0.17421  Biso   1.000  O 
  O20      1.0000 0.46547  0.82552  0.42233  Biso   1.000  O 
  O21      1.0000 0.27504  0.62778  0.24025  Biso   1.000  O 
  O22      1.0000 0.27695  0.61782  0.48968  Biso   1.000  O 
  O23      1.0000 0.22245  0.87996  0.00942  Biso   1.000  O 
  O24      1.0000 0.22314  0.86563  0.26029  Biso   1.000  O 
  Hf13     1.0000 0.14487  0.51972  0.64426  Biso   1.000  Hf
  Hf14     1.0000 0.14309  0.72673  0.89511  Biso   1.000  Hf
  Hf15     1.0000 0.36524  0.76705  0.60481  Biso   1.000  Hf
  Hf16     1.0000 0.36567  0.97653  0.85234  Biso   1.000  Hf
  O25      1.0000 0.03573  0.66232  0.57769  Biso   1.000  O 
  O26      1.0000 0.04024  0.58186  0.82652  Biso   1.000  O 
  O27      1.0000 0.47005  0.91309  0.67129  Biso   1.000  O 
  O28      1.0000 0.47108  0.83290  0.92114  Biso   1.000  O 
  O29      1.0000 0.28148  0.62557  0.73979  Biso   1.000  O 
  O30      1.0000 0.28244  0.62196  0.98978  Biso   1.000  O 
  O31      1.0000 0.22532  0.87306  0.51037  Biso   1.000  O 
  O32      1.0000 0.22864  0.86886  0.75871  Biso   1.000  O 
  Hf17     1.0000 0.64199  0.01881  0.14762  Biso   1.000  Hf
  Hf18     1.0000 0.66112  0.23069  0.41090  Biso   1.000  Hf
  Hf19     1.0000 0.85865  0.27287  0.10563  Biso   1.000  Hf
  Hf20     1.0000 0.86548  0.47758  0.35331  Biso   1.000  Hf
  O33      1.0000 0.53151  0.16567  0.08160  Biso   1.000  O 
  O34      1.0000 0.54819  0.06772  0.34142  Biso   1.000  O 
  O35      1.0000 0.96097  0.42050  0.16873  Biso   1.000  O 
  O36      1.0000 0.97003  0.33172  0.42140  Biso   1.000  O 
  O37      1.0000 0.77853  0.12913  0.24382  Biso   1.000  O 
  O38      1.0000 0.78679  0.11679  0.49659  Biso   1.000  O 
  O39      1.0000 0.72122  0.37891  0.01288  Biso   1.000  O 
  O40      1.0000 0.72318  0.37025  0.26380  Biso   1.000  O 
  Hf21     1.0000 0.64366  0.01815  0.64849  Biso   1.000  Hf
  Hf22     1.0000 0.64391  0.22617  0.89790  Biso   1.000  Hf
  Hf23     1.0000 0.87353  0.26903  0.60835  Biso   1.000  Hf
  Hf24     1.0000 0.86688  0.47679  0.85459  Biso   1.000  Hf
  O41      1.0000 0.54138  0.16421  0.58071  Biso   1.000  O 
  O42      1.0000 0.53979  0.08060  0.82893  Biso   1.000  O 
  O43      1.0000 0.97351  0.41469  0.67309  Biso   1.000  O 
  O44      1.0000 0.96904  0.33036  0.91991  Biso   1.000  O 
  O45      1.0000 0.78150  0.12710  0.74275  Biso   1.000  O 
  O46      1.0000 0.78184  0.11845  0.99170  Biso   1.000  O 
  O47      1.0000 0.73759  0.37573  0.51666  Biso   1.000  O 
  O48      1.0000 0.73123  0.36924  0.76292  Biso   1.000  O 
  Hf25     1.0000 0.63563  0.52400  0.14482  Biso   1.000  Hf
  Hf26     1.0000 0.64112  0.72396  0.39586  Biso   1.000  Hf
  Hf27     1.0000 0.85783  0.76984  0.10408  Biso   1.000  Hf
  Hf28     1.0000 0.86314  0.97460  0.35495  Biso   1.000  Hf
  O49      1.0000 0.53638  0.67530  0.07930  Biso   1.000  O 
  O50      1.0000 0.53384  0.58430  0.32472  Biso   1.000  O 
  O51      1.0000 0.96105  0.91345  0.17370  Biso   1.000  O 
  O52      1.0000 0.96741  0.83078  0.42268  Biso   1.000  O 
  O53      1.0000 0.77629  0.62817  0.24071  Biso   1.000  O 
  O54      1.0000 0.77767  0.61823  0.48981  Biso   1.000  O 
  O55      1.0000 0.72266  0.88010  0.01060  Biso   1.000  O 
  O56      1.0000 0.72239  0.86897  0.26040  Biso   1.000  O 
  Hf29     1.0000 0.64350  0.51946  0.64818  Biso   1.000  Hf
  Hf30     1.0000 0.64347  0.72775  0.89547  Biso   1.000  Hf
  Hf31     1.0000 0.86499  0.76967  0.60370  Biso   1.000  Hf
  Hf32     1.0000 0.86655  0.97656  0.85332  Biso   1.000  Hf
  O57      1.0000 0.53704  0.66153  0.57853  Biso   1.000  O 
  O58      1.0000 0.53968  0.58292  0.82963  Biso   1.000  O 
  O59      1.0000 0.96965  0.91486  0.67062  Biso   1.000  O 
  O60      1.0000 0.97126  0.83238  0.92074  Biso   1.000  O 
  O61      1.0000 0.78048  0.62669  0.73935  Biso   1.000  O 
  O62      1.0000 0.78139  0.61908  0.98848  Biso   1.000  O 
  O63      1.0000 0.72551  0.87570  0.51064  Biso   1.000  O 
  O64      1.0000 0.72918  0.86970  0.76014  Biso   1.000  O 
  Cd1      1.0000 0.43743  0.22920  0.30563  Biso   1.000  Cd
