data_image0
_cell_length_a       4.97771
_cell_length_b       10.3796
_cell_length_c       10.0461
_cell_angle_alpha    90
_cell_angle_beta     90
_cell_angle_gamma    90

_symmetry_space_group_name_H-M    "P 1"
_symmetry_int_tables_number       1

loop_
  _symmetry_equiv_pos_as_xyz
  'x, y, z'

loop_
  _atom_site_label
  _atom_site_occupancy
  _atom_site_fract_x
  _atom_site_fract_y
  _atom_site_fract_z
  _atom_site_thermal_displace_type
  _atom_site_B_iso_or_equiv
  _atom_site_type_symbol
  Cd1      1.0000 0.25388  0.01898  0.11572  Biso   1.000  Cd
  Hf1      1.0000 0.27434  0.01761  0.62910  Biso   1.000  Hf
  Hf2      1.0000 0.27195  0.51593  0.12760  Biso   1.000  Hf
  Hf3      1.0000 0.27615  0.51743  0.62675  Biso   1.000  Hf
  Hf4      1.0000 0.27802  0.23183  0.37764  Biso   1.000  Hf
  Hf5      1.0000 0.27751  0.23420  0.87337  Biso   1.000  Hf
  Hf6      1.0000 0.27526  0.73471  0.37738  Biso   1.000  Hf
  Hf7      1.0000 0.27922  0.73217  0.87715  Biso   1.000  Hf
  Hf8      1.0000 0.72351  0.26602  0.12916  Biso   1.000  Hf
  Hf9      1.0000 0.74091  0.26784  0.62534  Biso   1.000  Hf
  Hf10     1.0000 0.73393  0.76356  0.12558  Biso   1.000  Hf
  Hf11     1.0000 0.73918  0.76687  0.62537  Biso   1.000  Hf
  Hf12     1.0000 0.73610  0.48377  0.37772  Biso   1.000  Hf
  Hf13     1.0000 0.74206  0.48285  0.87643  Biso   1.000  Hf
  Hf14     1.0000 0.73190  0.98494  0.37758  Biso   1.000  Hf
  Hf15     1.0000 0.73678  0.98151  0.87369  Biso   1.000  Hf
  O1       1.0000 0.08258  0.19471  0.19349  Biso   1.000  O 
  O2       1.0000 0.09178  0.19121  0.68501  Biso   1.000  O 
  O3       1.0000 0.07994  0.68477  0.19546  Biso   1.000  O 
  O4       1.0000 0.07973  0.68444  0.69542  Biso   1.000  O 
  O5       1.0000 0.08024  0.06546  0.44396  Biso   1.000  O 
  O6       1.0000 0.08765  0.06572  0.91054  Biso   1.000  O 
  O7       1.0000 0.07914  0.56561  0.44516  Biso   1.000  O 
  O8       1.0000 0.08305  0.56471  0.94664  Biso   1.000  O 
  O9       1.0000 0.92984  0.43255  0.19526  Biso   1.000  O 
  O10      1.0000 0.93610  0.43566  0.69528  Biso   1.000  O 
  O11      1.0000 0.91115  0.93584  0.19374  Biso   1.000  O 
  O12      1.0000 0.92646  0.93492  0.68852  Biso   1.000  O 
  O13      1.0000 0.93377  0.31704  0.44353  Biso   1.000  O 
  O14      1.0000 0.93462  0.31409  0.94334  Biso   1.000  O 
  O15      1.0000 0.93520  0.81569  0.44584  Biso   1.000  O 
  O16      1.0000 0.93783  0.81552  0.94304  Biso   1.000  O 
  O17      1.0000 0.56786  0.12842  0.25888  Biso   1.000  O 
  O18      1.0000 0.55823  0.12064  0.75023  Biso   1.000  O 
  O19      1.0000 0.54806  0.61477  0.24943  Biso   1.000  O 
  O20      1.0000 0.54961  0.61802  0.75064  Biso   1.000  O 
  O21      1.0000 0.54738  0.13143  0.50407  Biso   1.000  O 
  O22      1.0000 0.56031  0.13076  0.99906  Biso   1.000  O 
  O23      1.0000 0.54759  0.63248  0.50017  Biso   1.000  O 
  O24      1.0000 0.53952  0.62906  0.00004  Biso   1.000  O 
  O25      1.0000 0.46623  0.38238  0.50113  Biso   1.000  O 
  O26      1.0000 0.45447  0.38046  0.00137  Biso   1.000  O 
  O27      1.0000 0.46072  0.88304  0.50258  Biso   1.000  O 
  O28      1.0000 0.45849  0.87402  0.00058  Biso   1.000  O 
  O29      1.0000 0.45783  0.37142  0.25209  Biso   1.000  O 
  O30      1.0000 0.46830  0.36984  0.75020  Biso   1.000  O 
  O31      1.0000 0.48629  0.85999  0.25605  Biso   1.000  O 
  O32      1.0000 0.46331  0.86790  0.75049  Biso   1.000  O 
