data_image0
_cell_length_a       5.12656
_cell_length_b       10.3066
_cell_length_c       10.5789
_cell_angle_alpha    90
_cell_angle_beta     80
_cell_angle_gamma    90

_symmetry_space_group_name_H-M    "P 1"
_symmetry_int_tables_number       1

loop_
  _symmetry_equiv_pos_as_xyz
  'x, y, z'

loop_
  _atom_site_label
  _atom_site_occupancy
  _atom_site_fract_x
  _atom_site_fract_y
  _atom_site_fract_z
  _atom_site_thermal_displace_type
  _atom_site_B_iso_or_equiv
  _atom_site_type_symbol
  Hf1      1.0000 0.27358  0.01696  0.14400  Biso   1.000  Hf
  Hf2      1.0000 0.34785  0.23453  0.40414  Biso   1.000  Hf
  Hf3      1.0000 0.69146  0.27411  0.09809  Biso   1.000  Hf
  Hf4      1.0000 0.73003  0.48158  0.34601  Biso   1.000  Hf
  O1       1.0000 0.05608  0.16732  0.08100  Biso   1.000  O 
  O2       1.0000 0.09171  0.06665  0.33831  Biso   1.000  O 
  O3       1.0000 0.90771  0.43638  0.15428  Biso   1.000  O 
  O4       1.0000 0.01068  0.35893  0.44796  Biso   1.000  O 
  O5       1.0000 0.53517  0.11627  0.23410  Biso   1.000  O 
  O6       1.0000 0.59503  0.11273  0.49351  Biso   1.000  O 
  O7       1.0000 0.42652  0.38248  0.00556  Biso   1.000  O 
  O8       1.0000 0.40617  0.37260  0.25061  Biso   1.000  O 
  Hf5      1.0000 0.30856  0.01874  0.64573  Biso   1.000  Hf
  Hf6      1.0000 0.30440  0.22770  0.89205  Biso   1.000  Hf
  Hf7      1.0000 0.77112  0.27342  0.60935  Biso   1.000  Hf
  Hf8      1.0000 0.75209  0.47826  0.85415  Biso   1.000  Hf
  O9       1.0000 0.11285  0.16544  0.57814  Biso   1.000  O 
  O10      1.0000 0.09898  0.08201  0.82520  Biso   1.000  O 
  O11      1.0000 0.97036  0.41145  0.68348  Biso   1.000  O 
  O12      1.0000 0.95734  0.33009  0.91872  Biso   1.000  O 
  O13      1.0000 0.58244  0.12724  0.73920  Biso   1.000  O 
  O14      1.0000 0.57882  0.12126  0.98419  Biso   1.000  O 
  O15      1.0000 0.50033  0.37618  0.51316  Biso   1.000  O 
  O16      1.0000 0.48337  0.37041  0.75827  Biso   1.000  O 
  Hf9      1.0000 0.26566  0.52448  0.14275  Biso   1.000  Hf
  Hf10     1.0000 0.28268  0.72246  0.39622  Biso   1.000  Hf
  Hf11     1.0000 0.71230  0.77090  0.10363  Biso   1.000  Hf
  Hf12     1.0000 0.72197  0.96482  0.35607  Biso   1.000  Hf
  O17      1.0000 0.06200  0.67522  0.07765  Biso   1.000  O 
  O18      1.0000 0.06541  0.58698  0.32263  Biso   1.000  O 
  O19      1.0000 0.92158  0.91403  0.17525  Biso   1.000  O 
  O20      1.0000 0.93602  0.82621  0.42287  Biso   1.000  O 
  O21      1.0000 0.54829  0.62678  0.24110  Biso   1.000  O 
  O22      1.0000 0.55842  0.61865  0.48902  Biso   1.000  O 
  O23      1.0000 0.44024  0.87997  0.01012  Biso   1.000  O 
  O24      1.0000 0.44380  0.86487  0.26014  Biso   1.000  O 
  Hf13     1.0000 0.30430  0.52023  0.64609  Biso   1.000  Hf
  Hf14     1.0000 0.30378  0.72849  0.89387  Biso   1.000  Hf
  Hf15     1.0000 0.74223  0.76837  0.60385  Biso   1.000  Hf
  Hf16     1.0000 0.74904  0.97738  0.85031  Biso   1.000  Hf
  O25      1.0000 0.07922  0.65922  0.57724  Biso   1.000  O 
  O26      1.0000 0.09706  0.58486  0.82662  Biso   1.000  O 
  O27      1.0000 0.95431  0.91317  0.67016  Biso   1.000  O 
  O28      1.0000 0.96296  0.83521  0.91951  Biso   1.000  O 
  O29      1.0000 0.57723  0.62583  0.73826  Biso   1.000  O 
  O30      1.0000 0.58395  0.62239  0.98737  Biso   1.000  O 
  O31      1.0000 0.45691  0.87277  0.51021  Biso   1.000  O 
  O32      1.0000 0.47454  0.86980  0.75820  Biso   1.000  O 
  Cd1      1.0000 0.90265  0.23679  0.29906  Biso   1.000  Cd
