data_image0
_cell_length_a       10.0939
_cell_length_b       5.15596
_cell_length_c       10.5731
_cell_angle_alpha    90
_cell_angle_beta     90
_cell_angle_gamma    90

_symmetry_space_group_name_H-M    "P 1"
_symmetry_int_tables_number       1

loop_
  _symmetry_equiv_pos_as_xyz
  'x, y, z'

loop_
  _atom_site_label
  _atom_site_occupancy
  _atom_site_fract_x
  _atom_site_fract_y
  _atom_site_fract_z
  _atom_site_thermal_displace_type
  _atom_site_B_iso_or_equiv
  _atom_site_type_symbol
  Hf1      1.0000 0.12665  0.04282  0.17239  Biso   1.000  Hf
  Hf2      1.0000 0.12123  0.45661  0.42622  Biso   1.000  Hf
  Hf3      1.0000 0.33874  0.54303  0.18976  Biso   1.000  Hf
  Hf4      1.0000 0.34784  0.96059  0.42888  Biso   1.000  Hf
  Hf5      1.0000 0.64585  0.06781  0.07121  Biso   1.000  Hf
  Hf6      1.0000 0.62655  0.45796  0.33356  Biso   1.000  Hf
  Hf7      1.0000 0.85648  0.54264  0.07398  Biso   1.000  Hf
  Hf8      1.0000 0.84840  0.95876  0.32786  Biso   1.000  Hf
  O1       1.0000 0.03138  0.33142  0.08306  Biso   1.000  O 
  O2       1.0000 0.01928  0.17162  0.33307  Biso   1.000  O 
  O3       1.0000 0.45378  0.86051  0.09607  Biso   1.000  O 
  O4       1.0000 0.45464  0.67867  0.33850  Biso   1.000  O 
  O5       1.0000 0.25782  0.25179  0.30112  Biso   1.000  O 
  O6       1.0000 0.27578  0.25384  0.04767  Biso   1.000  O 
  O7       1.0000 0.20851  0.75256  0.30340  Biso   1.000  O 
  O8       1.0000 0.21917  0.75276  0.05225  Biso   1.000  O 
  O9       1.0000 0.50653  0.30080  0.19466  Biso   1.000  O 
  O10      1.0000 0.51638  0.18097  0.42734  Biso   1.000  O 
  O11      1.0000 0.95738  0.83099  0.16845  Biso   1.000  O 
  O12      1.0000 0.95271  0.67123  0.41777  Biso   1.000  O 
  O13      1.0000 0.76140  0.24928  0.45267  Biso   1.000  O 
  O14      1.0000 0.76977  0.26141  0.20587  Biso   1.000  O 
  O15      1.0000 0.71028  0.75173  0.45665  Biso   1.000  O 
  O16      1.0000 0.71343  0.75931  0.20788  Biso   1.000  O 
  Hf9      1.0000 0.12356  0.04418  0.67263  Biso   1.000  Hf
  Hf10     1.0000 0.11344  0.46839  0.92363  Biso   1.000  Hf
  Hf11     1.0000 0.34475  0.54374  0.67583  Biso   1.000  Hf
  Hf12     1.0000 0.33119  0.97210  0.92351  Biso   1.000  Hf
  Hf13     1.0000 0.62440  0.04233  0.57766  Biso   1.000  Hf
  Hf14     1.0000 0.62649  0.45676  0.81611  Biso   1.000  Hf
  Hf15     1.0000 0.84750  0.54609  0.57724  Biso   1.000  Hf
  Hf16     1.0000 0.84792  0.96749  0.82496  Biso   1.000  Hf
  O17      1.0000 0.01639  0.32855  0.58309  Biso   1.000  O 
  O18      1.0000 0.01922  0.17477  0.83176  Biso   1.000  O 
  O19      1.0000 0.45298  0.82780  0.58603  Biso   1.000  O 
  O20      1.0000 0.44585  0.66844  0.83533  Biso   1.000  O 
  O21      1.0000 0.25744  0.25515  0.79656  Biso   1.000  O 
  O22      1.0000 0.25960  0.25213  0.54857  Biso   1.000  O 
  O23      1.0000 0.20463  0.75328  0.79872  Biso   1.000  O 
  O24      1.0000 0.21003  0.75160  0.54970  Biso   1.000  O 
  O25      1.0000 0.51513  0.32783  0.66739  Biso   1.000  O 
  O26      1.0000 0.50997  0.14378  0.90617  Biso   1.000  O 
  O27      1.0000 0.95401  0.82941  0.66462  Biso   1.000  O 
  O28      1.0000 0.94752  0.67837  0.91637  Biso   1.000  O 
  O29      1.0000 0.76847  0.26186  0.93967  Biso   1.000  O 
  O30      1.0000 0.76179  0.24908  0.69648  Biso   1.000  O 
  O31      1.0000 0.71742  0.79864  0.95139  Biso   1.000  O 
  O32      1.0000 0.70993  0.75012  0.70346  Biso   1.000  O 
  Cd1      1.0000 0.56464  0.54915  0.03795  Biso   1.000  Cd
