data_image0
_cell_length_a       10.2663
_cell_length_b       10.318
_cell_length_c       5.29576
_cell_angle_alpha    90
_cell_angle_beta     80
_cell_angle_gamma    90

_symmetry_space_group_name_H-M    "P 1"
_symmetry_int_tables_number       1

loop_
  _symmetry_equiv_pos_as_xyz
  'x, y, z'

loop_
  _atom_site_label
  _atom_site_occupancy
  _atom_site_fract_x
  _atom_site_fract_y
  _atom_site_fract_z
  _atom_site_thermal_displace_type
  _atom_site_B_iso_or_equiv
  _atom_site_type_symbol
  Hf1      1.0000 0.13340  0.01983  0.27973  Biso   1.000  Hf
  Hf2      1.0000 0.14944  0.22795  0.76854  Biso   1.000  Hf
  Hf3      1.0000 0.35253  0.27615  0.19672  Biso   1.000  Hf
  Hf4      1.0000 0.36483  0.47854  0.69281  Biso   1.000  Hf
  O1       1.0000 0.03732  0.16696  0.14370  Biso   1.000  O 
  O2       1.0000 0.03513  0.08320  0.64718  Biso   1.000  O 
  O3       1.0000 0.46496  0.43126  0.33342  Biso   1.000  O 
  O4       1.0000 0.50012  0.35335  0.88685  Biso   1.000  O 
  O5       1.0000 0.26536  0.11393  0.45404  Biso   1.000  O 
  O6       1.0000 0.28669  0.11516  0.96240  Biso   1.000  O 
  O7       1.0000 0.21985  0.38186  0.00228  Biso   1.000  O 
  O8       1.0000 0.20933  0.37557  0.49117  Biso   1.000  O 
  Hf5      1.0000 0.13961  0.52349  0.28372  Biso   1.000  Hf
  Hf6      1.0000 0.14313  0.72368  0.79085  Biso   1.000  Hf
  Hf7      1.0000 0.36096  0.76956  0.21038  Biso   1.000  Hf
  Hf8      1.0000 0.36341  0.96321  0.70899  Biso   1.000  Hf
  O9       1.0000 0.02788  0.66425  0.14989  Biso   1.000  O 
  O10      1.0000 0.03689  0.58648  0.64629  Biso   1.000  O 
  O11      1.0000 0.46878  0.91436  0.35008  Biso   1.000  O 
  O12      1.0000 0.47189  0.82775  0.84586  Biso   1.000  O 
  O13      1.0000 0.27812  0.62546  0.47934  Biso   1.000  O 
  O14      1.0000 0.28362  0.62045  0.97696  Biso   1.000  O 
  O15      1.0000 0.22042  0.87541  0.02227  Biso   1.000  O 
  O16      1.0000 0.22774  0.86453  0.52038  Biso   1.000  O 
  Hf9      1.0000 0.64491  0.01655  0.30253  Biso   1.000  Hf
  Hf10     1.0000 0.66616  0.22917  0.82571  Biso   1.000  Hf
  Hf11     1.0000 0.86826  0.27206  0.21973  Biso   1.000  Hf
  Hf12     1.0000 0.87083  0.47674  0.70851  Biso   1.000  Hf
  O17      1.0000 0.53544  0.16482  0.17119  Biso   1.000  O 
  O18      1.0000 0.55173  0.06762  0.68385  Biso   1.000  O 
  O19      1.0000 0.96670  0.41905  0.34258  Biso   1.000  O 
  O20      1.0000 0.97444  0.33157  0.84049  Biso   1.000  O 
  O21      1.0000 0.78243  0.12823  0.49327  Biso   1.000  O 
  O22      1.0000 0.77980  0.11876  0.00074  Biso   1.000  O 
  O23      1.0000 0.73039  0.37736  0.04153  Biso   1.000  O 
  O24      1.0000 0.73034  0.36941  0.53544  Biso   1.000  O 
  Hf13     1.0000 0.63860  0.52408  0.29770  Biso   1.000  Hf
  Hf14     1.0000 0.64546  0.72412  0.79276  Biso   1.000  Hf
  Hf15     1.0000 0.85873  0.76945  0.20888  Biso   1.000  Hf
  Hf16     1.0000 0.86811  0.97389  0.70905  Biso   1.000  Hf
  O25      1.0000 0.53480  0.67026  0.16008  Biso   1.000  O 
  O26      1.0000 0.53770  0.58531  0.65497  Biso   1.000  O 
  O27      1.0000 0.96377  0.91051  0.34971  Biso   1.000  O 
  O28      1.0000 0.97425  0.83316  0.84674  Biso   1.000  O 
  O29      1.0000 0.77862  0.62782  0.48214  Biso   1.000  O 
  O30      1.0000 0.78320  0.61749  0.97749  Biso   1.000  O 
  O31      1.0000 0.72121  0.87817  0.02553  Biso   1.000  O 
  O32      1.0000 0.72628  0.86921  0.52335  Biso   1.000  O 
  Cd1      1.0000 0.44185  0.22796  0.60639  Biso   1.000  Cd
