data_image0
_cell_length_a       10.0426
_cell_length_b       5.08697
_cell_length_c       10.0426
_cell_angle_alpha    90
_cell_angle_beta     90
_cell_angle_gamma    90

_symmetry_space_group_name_H-M    "P 1"
_symmetry_int_tables_number       1

loop_
  _symmetry_equiv_pos_as_xyz
  'x, y, z'

loop_
  _atom_site_label
  _atom_site_occupancy
  _atom_site_fract_x
  _atom_site_fract_y
  _atom_site_fract_z
  _atom_site_thermal_displace_type
  _atom_site_B_iso_or_equiv
  _atom_site_type_symbol
  Cd1      1.0000 0.12486  0.00086  0.12487  Biso   1.000  Cd
  Hf1      1.0000 0.12487  0.00089  0.62487  Biso   1.000  Hf
  Hf2      1.0000 0.62486  0.00085  0.12487  Biso   1.000  Hf
  Hf3      1.0000 0.62488  0.00089  0.62487  Biso   1.000  Hf
  Hf4      1.0000 0.12489  0.50089  0.37501  Biso   1.000  Hf
  Hf5      1.0000 0.12490  0.50089  0.87475  Biso   1.000  Hf
  Hf6      1.0000 0.62490  0.50087  0.37488  Biso   1.000  Hf
  Hf7      1.0000 0.62491  0.50090  0.87486  Biso   1.000  Hf
  Hf8      1.0000 0.37502  0.50087  0.12488  Biso   1.000  Hf
  Hf9      1.0000 0.37490  0.50089  0.62488  Biso   1.000  Hf
  Hf10     1.0000 0.87476  0.50084  0.12488  Biso   1.000  Hf
  Hf11     1.0000 0.87488  0.50089  0.62488  Biso   1.000  Hf
  Hf12     1.0000 0.37521  0.00075  0.37521  Biso   1.000  Hf
  Hf13     1.0000 0.37522  0.00104  0.87453  Biso   1.000  Hf
  Hf14     1.0000 0.87453  0.00101  0.37520  Biso   1.000  Hf
  Hf15     1.0000 0.87455  0.00072  0.87453  Biso   1.000  Hf
  O1       1.0000 0.99659  0.28982  0.99656  Biso   1.000  O 
  O2       1.0000 0.00258  0.29373  0.50445  Biso   1.000  O 
  O3       1.0000 0.50445  0.29369  0.00257  Biso   1.000  O 
  O4       1.0000 0.50150  0.29514  0.50148  Biso   1.000  O 
  O5       1.0000 0.99376  0.23173  0.25600  Biso   1.000  O 
  O6       1.0000 0.99843  0.20728  0.75092  Biso   1.000  O 
  O7       1.0000 0.49885  0.20726  0.25134  Biso   1.000  O 
  O8       1.0000 0.49923  0.20726  0.75054  Biso   1.000  O 
  O9       1.0000 0.99655  0.71189  0.25320  Biso   1.000  O 
  O10      1.0000 0.00259  0.70804  0.74530  Biso   1.000  O 
  O11      1.0000 0.50444  0.70803  0.24719  Biso   1.000  O 
  O12      1.0000 0.50151  0.70663  0.74827  Biso   1.000  O 
  O13      1.0000 0.99378  0.76999  0.99375  Biso   1.000  O 
  O14      1.0000 0.99845  0.79451  0.49884  Biso   1.000  O 
  O15      1.0000 0.49889  0.79454  0.99842  Biso   1.000  O 
  O16      1.0000 0.49925  0.79452  0.49921  Biso   1.000  O 
  O17      1.0000 0.25322  0.28989  0.25321  Biso   1.000  O 
  O18      1.0000 0.24720  0.29372  0.74531  Biso   1.000  O 
  O19      1.0000 0.74532  0.29369  0.24718  Biso   1.000  O 
  O20      1.0000 0.74828  0.29514  0.74826  Biso   1.000  O 
  O21      1.0000 0.25603  0.23179  0.99376  Biso   1.000  O 
  O22      1.0000 0.25134  0.20728  0.49885  Biso   1.000  O 
  O23      1.0000 0.75094  0.20729  0.99841  Biso   1.000  O 
  O24      1.0000 0.75055  0.20725  0.49921  Biso   1.000  O 
  O25      1.0000 0.25324  0.71195  0.99654  Biso   1.000  O 
  O26      1.0000 0.24721  0.70804  0.50444  Biso   1.000  O 
  O27      1.0000 0.74531  0.70798  0.00257  Biso   1.000  O 
  O28      1.0000 0.74829  0.70663  0.50148  Biso   1.000  O 
  O29      1.0000 0.25600  0.77007  0.25599  Biso   1.000  O 
  O30      1.0000 0.25137  0.79450  0.75090  Biso   1.000  O 
  O31      1.0000 0.75092  0.79447  0.25134  Biso   1.000  O 
  O32      1.0000 0.75057  0.79452  0.75054  Biso   1.000  O 
