data_image0
_cell_length_a       10.0639
_cell_length_b       5.12277
_cell_length_c       10.476
_cell_angle_alpha    90
_cell_angle_beta     90
_cell_angle_gamma    90

_symmetry_space_group_name_H-M    "P 1"
_symmetry_int_tables_number       1

loop_
  _symmetry_equiv_pos_as_xyz
  'x, y, z'

loop_
  _atom_site_label
  _atom_site_occupancy
  _atom_site_fract_x
  _atom_site_fract_y
  _atom_site_fract_z
  _atom_site_thermal_displace_type
  _atom_site_B_iso_or_equiv
  _atom_site_type_symbol
  Cd1      1.0000 0.13113  0.03087  0.17141  Biso   1.000  Cd
  Hf1      1.0000 0.13602  0.04683  0.67128  Biso   1.000  Hf
  Hf2      1.0000 0.13691  0.46160  0.42102  Biso   1.000  Hf
  Hf3      1.0000 0.13827  0.46424  0.92147  Biso   1.000  Hf
  Hf4      1.0000 0.35761  0.53743  0.16795  Biso   1.000  Hf
  Hf5      1.0000 0.35675  0.54786  0.67069  Biso   1.000  Hf
  Hf6      1.0000 0.35650  0.96420  0.41951  Biso   1.000  Hf
  Hf7      1.0000 0.35578  0.96551  0.92148  Biso   1.000  Hf
  Hf8      1.0000 0.63871  0.04069  0.07817  Biso   1.000  Hf
  Hf9      1.0000 0.63421  0.04685  0.57935  Biso   1.000  Hf
  Hf10     1.0000 0.63514  0.46131  0.32846  Biso   1.000  Hf
  Hf11     1.0000 0.63415  0.46541  0.82801  Biso   1.000  Hf
  Hf12     1.0000 0.86017  0.53538  0.07732  Biso   1.000  Hf
  Hf13     1.0000 0.85688  0.54735  0.57919  Biso   1.000  Hf
  Hf14     1.0000 0.85606  0.96563  0.33303  Biso   1.000  Hf
  Hf15     1.0000 0.85723  0.96470  0.82925  Biso   1.000  Hf
  O1       1.0000 0.03658  0.35547  0.08430  Biso   1.000  O 
  O2       1.0000 0.03015  0.34432  0.58940  Biso   1.000  O 
  O3       1.0000 0.02373  0.17263  0.35313  Biso   1.000  O 
  O4       1.0000 0.02989  0.17046  0.83511  Biso   1.000  O 
  O5       1.0000 0.47111  0.82314  0.08107  Biso   1.000  O 
  O6       1.0000 0.46373  0.83348  0.58195  Biso   1.000  O 
  O7       1.0000 0.46680  0.68003  0.33075  Biso   1.000  O 
  O8       1.0000 0.46408  0.67843  0.83063  Biso   1.000  O 
  O9       1.0000 0.27897  0.25794  0.30054  Biso   1.000  O 
  O10      1.0000 0.27203  0.25296  0.79227  Biso   1.000  O 
  O11      1.0000 0.28656  0.25894  0.03709  Biso   1.000  O 
  O12      1.0000 0.27214  0.25631  0.54565  Biso   1.000  O 
  O13      1.0000 0.22561  0.74153  0.29545  Biso   1.000  O 
  O14      1.0000 0.22011  0.75345  0.79223  Biso   1.000  O 
  O15      1.0000 0.23228  0.74146  0.03818  Biso   1.000  O 
  O16      1.0000 0.22021  0.75822  0.54425  Biso   1.000  O 
  O17      1.0000 0.53250  0.32766  0.16691  Biso   1.000  O 
  O18      1.0000 0.52862  0.33492  0.66633  Biso   1.000  O 
  O19      1.0000 0.52941  0.17516  0.41727  Biso   1.000  O 
  O20      1.0000 0.52951  0.17689  0.91561  Biso   1.000  O 
  O21      1.0000 0.94409  0.84692  0.16358  Biso   1.000  O 
  O22      1.0000 0.96223  0.84046  0.66493  Biso   1.000  O 
  O23      1.0000 0.96287  0.67201  0.41600  Biso   1.000  O 
  O24      1.0000 0.96251  0.67217  0.91398  Biso   1.000  O 
  O25      1.0000 0.77131  0.25323  0.95464  Biso   1.000  O 
  O26      1.0000 0.77028  0.25565  0.45732  Biso   1.000  O 
  O27      1.0000 0.77405  0.25771  0.20672  Biso   1.000  O 
  O28      1.0000 0.77205  0.25808  0.70570  Biso   1.000  O 
  O29      1.0000 0.71919  0.75428  0.95421  Biso   1.000  O 
  O30      1.0000 0.71990  0.75430  0.45592  Biso   1.000  O 
  O31      1.0000 0.71851  0.75456  0.20596  Biso   1.000  O 
  O32      1.0000 0.72060  0.75770  0.70475  Biso   1.000  O 
