data_image0
_cell_length_a       10.055
_cell_length_b       5.26647
_cell_length_c       10.0997
_cell_angle_alpha    90
_cell_angle_beta     90
_cell_angle_gamma    90

_symmetry_space_group_name_H-M    "P 1"
_symmetry_int_tables_number       1

loop_
  _symmetry_equiv_pos_as_xyz
  'x, y, z'

loop_
  _atom_site_label
  _atom_site_occupancy
  _atom_site_fract_x
  _atom_site_fract_y
  _atom_site_fract_z
  _atom_site_thermal_displace_type
  _atom_site_B_iso_or_equiv
  _atom_site_type_symbol
  Hf1      1.0000 0.13192  0.12568  0.11403  Biso   1.000  Hf
  Hf2      1.0000 0.14673  0.46065  0.39595  Biso   1.000  Hf
  Hf3      1.0000 0.38107  0.53974  0.12230  Biso   1.000  Hf
  Hf4      1.0000 0.37521  0.96743  0.37859  Biso   1.000  Hf
  O1       1.0000 0.00090  0.32612  0.24877  Biso   1.000  O 
  O2       1.0000 0.05514  0.12169  0.45700  Biso   1.000  O 
  O3       1.0000 0.47748  0.86143  0.20757  Biso   1.000  O 
  O4       1.0000 0.48103  0.64664  0.45503  Biso   1.000  O 
  O5       1.0000 0.27197  0.22937  0.24846  Biso   1.000  O 
  O6       1.0000 0.28997  0.26751  0.50324  Biso   1.000  O 
  O7       1.0000 0.24627  0.76590  0.51265  Biso   1.000  O 
  O8       1.0000 0.25099  0.70083  0.27083  Biso   1.000  O 
  Hf5      1.0000 0.15141  0.03011  0.62981  Biso   1.000  Hf
  Hf6      1.0000 0.14171  0.46639  0.85171  Biso   1.000  Hf
  Hf7      1.0000 0.38587  0.54682  0.63177  Biso   1.000  Hf
  Hf8      1.0000 0.39654  0.00873  0.87403  Biso   1.000  Hf
  O9       1.0000 0.05161  0.37994  0.67649  Biso   1.000  O 
  O10      1.0000 0.05938  0.13366  0.92909  Biso   1.000  O 
  O11      1.0000 0.48431  0.88000  0.69315  Biso   1.000  O 
  O12      1.0000 0.49699  0.67053  0.94387  Biso   1.000  O 
  O13      1.0000 0.28381  0.24222  0.74458  Biso   1.000  O 
  O14      1.0000 0.30434  0.33138  0.97989  Biso   1.000  O 
  O15      1.0000 0.26757  0.85450  0.03220  Biso   1.000  O 
  O16      1.0000 0.25321  0.74782  0.76550  Biso   1.000  O 
  Hf9      1.0000 0.63522  0.02596  0.12738  Biso   1.000  Hf
  Hf10     1.0000 0.64159  0.47698  0.37501  Biso   1.000  Hf
  Hf11     1.0000 0.85099  0.51662  0.12196  Biso   1.000  Hf
  Hf12     1.0000 0.89087  0.99494  0.36460  Biso   1.000  Hf
  O17      1.0000 0.54041  0.36948  0.19737  Biso   1.000  O 
  O18      1.0000 0.54546  0.14513  0.44566  Biso   1.000  O 
  O19      1.0000 0.96720  0.87926  0.17694  Biso   1.000  O 
  O20      1.0000 0.98168  0.65674  0.44619  Biso   1.000  O 
  O21      1.0000 0.76316  0.22629  0.24657  Biso   1.000  O 
  O22      1.0000 0.78338  0.29190  0.49281  Biso   1.000  O 
  O23      1.0000 0.74965  0.79362  0.49481  Biso   1.000  O 
  O24      1.0000 0.74074  0.73150  0.24935  Biso   1.000  O 
  Hf13     1.0000 0.65022  0.04747  0.61871  Biso   1.000  Hf
  Hf14     1.0000 0.65759  0.48512  0.87291  Biso   1.000  Hf
  Hf15     1.0000 0.87794  0.55774  0.61776  Biso   1.000  Hf
  Hf16     1.0000 0.88138  0.97788  0.86857  Biso   1.000  Hf
  O25      1.0000 0.54934  0.37274  0.70285  Biso   1.000  O 
  O26      1.0000 0.56054  0.16472  0.95219  Biso   1.000  O 
  O27      1.0000 0.98156  0.87694  0.69429  Biso   1.000  O 
  O28      1.0000 0.96430  0.63520  0.91770  Biso   1.000  O 
  O29      1.0000 0.78718  0.25004  0.74338  Biso   1.000  O 
  O30      1.0000 0.79377  0.27949  0.99698  Biso   1.000  O 
  O31      1.0000 0.72466  0.75508  0.00079  Biso   1.000  O 
  O32      1.0000 0.74342  0.75492  0.74471  Biso   1.000  O 
  Cd1      1.0000 0.10742  0.62259  0.10073  Biso   1.000  Cd
