data_image0
_cell_length_a       10.156
_cell_length_b       5.14557
_cell_length_c       10.4564
_cell_angle_alpha    90
_cell_angle_beta     80
_cell_angle_gamma    90

_symmetry_space_group_name_H-M    "P 1"
_symmetry_int_tables_number       1

loop_
  _symmetry_equiv_pos_as_xyz
  'x, y, z'

loop_
  _atom_site_label
  _atom_site_occupancy
  _atom_site_fract_x
  _atom_site_fract_y
  _atom_site_fract_z
  _atom_site_thermal_displace_type
  _atom_site_B_iso_or_equiv
  _atom_site_type_symbol
  Cd1      1.0000 0.12933  0.02529  0.15006  Biso   1.000  Cd
  Hf1      1.0000 0.13500  0.03743  0.64623  Biso   1.000  Hf
  Hf2      1.0000 0.63777  0.03911  0.14582  Biso   1.000  Hf
  Hf3      1.0000 0.63347  0.03962  0.64768  Biso   1.000  Hf
  Hf4      1.0000 0.13682  0.45178  0.39549  Biso   1.000  Hf
  Hf5      1.0000 0.13403  0.45463  0.89752  Biso   1.000  Hf
  Hf6      1.0000 0.63396  0.45420  0.39698  Biso   1.000  Hf
  Hf7      1.0000 0.63271  0.45511  0.89703  Biso   1.000  Hf
  Hf8      1.0000 0.35871  0.53578  0.10288  Biso   1.000  Hf
  Hf9      1.0000 0.35574  0.53997  0.60495  Biso   1.000  Hf
  Hf10     1.0000 0.86013  0.53341  0.10255  Biso   1.000  Hf
  Hf11     1.0000 0.85586  0.53907  0.60469  Biso   1.000  Hf
  Hf12     1.0000 0.35701  0.95316  0.35254  Biso   1.000  Hf
  Hf13     1.0000 0.35463  0.95870  0.85556  Biso   1.000  Hf
  Hf14     1.0000 0.85483  0.95512  0.35827  Biso   1.000  Hf
  Hf15     1.0000 0.85539  0.95333  0.85531  Biso   1.000  Hf
  O1       1.0000 0.03965  0.37139  0.08154  Biso   1.000  O 
  O2       1.0000 0.03049  0.33475  0.58214  Biso   1.000  O 
  O3       1.0000 0.53652  0.33569  0.07901  Biso   1.000  O 
  O4       1.0000 0.52955  0.33261  0.58079  Biso   1.000  O 
  O5       1.0000 0.02874  0.15311  0.34551  Biso   1.000  O 
  O6       1.0000 0.02997  0.15700  0.83136  Biso   1.000  O 
  O7       1.0000 0.53204  0.16004  0.33012  Biso   1.000  O 
  O8       1.0000 0.53116  0.16035  0.82989  Biso   1.000  O 
  O9       1.0000 0.46600  0.83154  0.17010  Biso   1.000  O 
  O10      1.0000 0.46012  0.83307  0.67087  Biso   1.000  O 
  O11      1.0000 0.93994  0.85627  0.16853  Biso   1.000  O 
  O12      1.0000 0.95958  0.83436  0.66982  Biso   1.000  O 
  O13      1.0000 0.46154  0.66129  0.42186  Biso   1.000  O 
  O14      1.0000 0.46190  0.66560  0.92080  Biso   1.000  O 
  O15      1.0000 0.95961  0.65500  0.41874  Biso   1.000  O 
  O16      1.0000 0.95625  0.65505  0.91827  Biso   1.000  O 
  O17      1.0000 0.27830  0.25116  0.24287  Biso   1.000  O 
  O18      1.0000 0.27023  0.25330  0.73835  Biso   1.000  O 
  O19      1.0000 0.77225  0.25916  0.24277  Biso   1.000  O 
  O20      1.0000 0.77175  0.25536  0.74131  Biso   1.000  O 
  O21      1.0000 0.27237  0.23839  0.49103  Biso   1.000  O 
  O22      1.0000 0.27945  0.25603  0.98065  Biso   1.000  O 
  O23      1.0000 0.76982  0.23986  0.49297  Biso   1.000  O 
  O24      1.0000 0.76882  0.23524  0.99145  Biso   1.000  O 
  O25      1.0000 0.23147  0.76068  0.00403  Biso   1.000  O 
  O26      1.0000 0.21913  0.75391  0.51018  Biso   1.000  O 
  O27      1.0000 0.72412  0.75738  0.00864  Biso   1.000  O 
  O28      1.0000 0.71887  0.75449  0.51123  Biso   1.000  O 
  O29      1.0000 0.22903  0.71953  0.26174  Biso   1.000  O 
  O30      1.0000 0.21846  0.73924  0.75923  Biso   1.000  O 
  O31      1.0000 0.71761  0.74109  0.26226  Biso   1.000  O 
  O32      1.0000 0.71901  0.73908  0.75976  Biso   1.000  O 
