data_image0
_cell_length_a       10.0181
_cell_length_b       5.19668
_cell_length_c       10.0557
_cell_angle_alpha    90
_cell_angle_beta     90
_cell_angle_gamma    90

_symmetry_space_group_name_H-M    "P 1"
_symmetry_int_tables_number       1

loop_
  _symmetry_equiv_pos_as_xyz
  'x, y, z'

loop_
  _atom_site_label
  _atom_site_occupancy
  _atom_site_fract_x
  _atom_site_fract_y
  _atom_site_fract_z
  _atom_site_thermal_displace_type
  _atom_site_B_iso_or_equiv
  _atom_site_type_symbol
  Ce1      1.0000 0.12403  0.01785  0.11926  Biso   1.000  Ce
  Hf1      1.0000 0.13109  0.46300  0.37796  Biso   1.000  Hf
  Hf2      1.0000 0.36753  0.52550  0.12545  Biso   1.000  Hf
  Hf3      1.0000 0.36218  0.96284  0.37442  Biso   1.000  Hf
  O1       1.0000 0.02880  0.37984  0.20062  Biso   1.000  O 
  O2       1.0000 0.03173  0.12716  0.44428  Biso   1.000  O 
  O3       1.0000 0.46182  0.86544  0.19361  Biso   1.000  O 
  O4       1.0000 0.46055  0.62709  0.44552  Biso   1.000  O 
  O5       1.0000 0.27263  0.23756  0.25187  Biso   1.000  O 
  O6       1.0000 0.26608  0.25888  0.49996  Biso   1.000  O 
  O7       1.0000 0.22593  0.76200  0.49893  Biso   1.000  O 
  O8       1.0000 0.23381  0.71819  0.25260  Biso   1.000  O 
  Hf4      1.0000 0.12958  0.02788  0.62508  Biso   1.000  Hf
  Hf5      1.0000 0.13031  0.46642  0.87097  Biso   1.000  Hf
  Hf6      1.0000 0.36217  0.52654  0.62407  Biso   1.000  Hf
  Hf7      1.0000 0.36449  0.95985  0.87288  Biso   1.000  Hf
  O9       1.0000 0.03392  0.36870  0.68877  Biso   1.000  O 
  O10      1.0000 0.02442  0.14727  0.92862  Biso   1.000  O 
  O11      1.0000 0.46110  0.86008  0.69433  Biso   1.000  O 
  O12      1.0000 0.46384  0.62600  0.94484  Biso   1.000  O 
  O13      1.0000 0.26635  0.22909  0.74757  Biso   1.000  O 
  O14      1.0000 0.26684  0.25863  0.99357  Biso   1.000  O 
  O15      1.0000 0.23385  0.74593  0.99236  Biso   1.000  O 
  O16      1.0000 0.22639  0.73168  0.74596  Biso   1.000  O 
  Hf8      1.0000 0.63220  0.02835  0.12652  Biso   1.000  Hf
  Hf9      1.0000 0.62896  0.46196  0.37724  Biso   1.000  Hf
  Hf10     1.0000 0.85856  0.53140  0.12952  Biso   1.000  Hf
  Hf11     1.0000 0.85914  0.96386  0.38107  Biso   1.000  Hf
  O17      1.0000 0.53568  0.36260  0.19445  Biso   1.000  O 
  O18      1.0000 0.53193  0.12632  0.44567  Biso   1.000  O 
  O19      1.0000 0.94652  0.86643  0.20293  Biso   1.000  O 
  O20      1.0000 0.96002  0.63031  0.44707  Biso   1.000  O 
  O21      1.0000 0.76593  0.23180  0.25189  Biso   1.000  O 
  O22      1.0000 0.76496  0.26150  0.50098  Biso   1.000  O 
  O23      1.0000 0.72458  0.75911  0.50215  Biso   1.000  O 
  O24      1.0000 0.72047  0.73139  0.25235  Biso   1.000  O 
  Hf12     1.0000 0.62918  0.02827  0.62588  Biso   1.000  Hf
  Hf13     1.0000 0.62914  0.45874  0.87555  Biso   1.000  Hf
  Hf14     1.0000 0.86254  0.52816  0.62506  Biso   1.000  Hf
  Hf15     1.0000 0.85707  0.95804  0.87441  Biso   1.000  Hf
  O25      1.0000 0.53097  0.36087  0.69521  Biso   1.000  O 
  O26      1.0000 0.53239  0.12384  0.94433  Biso   1.000  O 
  O27      1.0000 0.95968  0.86191  0.69654  Biso   1.000  O 
  O28      1.0000 0.96816  0.64776  0.95731  Biso   1.000  O 
  O29      1.0000 0.76617  0.22897  0.74899  Biso   1.000  O 
  O30      1.0000 0.76504  0.25545  0.99990  Biso   1.000  O 
  O31      1.0000 0.73104  0.76237  0.00072  Biso   1.000  O 
  O32      1.0000 0.72584  0.72778  0.75074  Biso   1.000  O 
