data_image0
_cell_length_a       10.0786
_cell_length_b       10.3223
_cell_length_c       5.18133
_cell_angle_alpha    90
_cell_angle_beta     90
_cell_angle_gamma    90

_symmetry_space_group_name_H-M    "P 1"
_symmetry_int_tables_number       1

loop_
  _symmetry_equiv_pos_as_xyz
  'x, y, z'

loop_
  _atom_site_label
  _atom_site_occupancy
  _atom_site_fract_x
  _atom_site_fract_y
  _atom_site_fract_z
  _atom_site_thermal_displace_type
  _atom_site_B_iso_or_equiv
  _atom_site_type_symbol
  Hf1      1.0000 0.08674  0.97289  0.19840  Biso   1.000  Hf
  Hf2      1.0000 0.12167  0.23332  0.80755  Biso   1.000  Hf
  Hf3      1.0000 0.40458  0.23388  0.20290  Biso   1.000  Hf
  Hf4      1.0000 0.37008  0.99525  0.71716  Biso   1.000  Hf
  O1       1.0000 0.99625  0.13206  0.01699  Biso   1.000  O 
  O2       1.0000 0.03780  0.07112  0.53381  Biso   1.000  O 
  O3       1.0000 0.95613  0.30619  0.57997  Biso   1.000  O 
  O4       1.0000 0.99287  0.39125  0.05428  Biso   1.000  O 
  O5       1.0000 0.28980  0.17127  0.57777  Biso   1.000  O 
  O6       1.0000 0.25364  0.11691  0.02393  Biso   1.000  O 
  O7       1.0000 0.25828  0.38330  0.05012  Biso   1.000  O 
  O8       1.0000 0.20301  0.42200  0.56926  Biso   1.000  O 
  Hf5      1.0000 0.12485  0.53026  0.22950  Biso   1.000  Hf
  Hf6      1.0000 0.08372  0.71857  0.73203  Biso   1.000  Hf
  Hf7      1.0000 0.34184  0.77704  0.19499  Biso   1.000  Hf
  Hf8      1.0000 0.36651  0.47174  0.77975  Biso   1.000  Hf
  O9       1.0000 0.98185  0.63619  0.00059  Biso   1.000  O 
  O10      1.0000 0.97397  0.57632  0.50194  Biso   1.000  O 
  O11      1.0000 0.98679  0.82930  0.43751  Biso   1.000  O 
  O12      1.0000 0.96257  0.84880  0.93371  Biso   1.000  O 
  O13      1.0000 0.21458  0.67693  0.43507  Biso   1.000  O 
  O14      1.0000 0.23299  0.60341  0.95097  Biso   1.000  O 
  O15      1.0000 0.22179  0.84439  0.90831  Biso   1.000  O 
  O16      1.0000 0.25020  0.92658  0.39746  Biso   1.000  O 
  Hf9      1.0000 0.62127  0.96536  0.27383  Biso   1.000  Hf
  Hf10     1.0000 0.61057  0.23553  0.68784  Biso   1.000  Hf
  Hf11     1.0000 0.84219  0.23642  0.23123  Biso   1.000  Hf
  Hf12     1.0000 0.88788  0.98771  0.73440  Biso   1.000  Hf
  O17      1.0000 0.50330  0.11604  0.91108  Biso   1.000  O 
  O18      1.0000 0.51025  0.09961  0.41966  Biso   1.000  O 
  O19      1.0000 0.47588  0.35629  0.49132  Biso   1.000  O 
  O20      1.0000 0.50653  0.35979  0.98945  Biso   1.000  O 
  O21      1.0000 0.75626  0.11326  0.51184  Biso   1.000  O 
  O22      1.0000 0.76135  0.06963  0.03072  Biso   1.000  O 
  O23      1.0000 0.75485  0.29250  0.92536  Biso   1.000  O 
  O24      1.0000 0.72590  0.37169  0.45388  Biso   1.000  O 
  Hf13     1.0000 0.59288  0.50532  0.28893  Biso   1.000  Hf
  Hf14     1.0000 0.58486  0.73506  0.75227  Biso   1.000  Hf
  Hf15     1.0000 0.84024  0.71057  0.27863  Biso   1.000  Hf
  Hf16     1.0000 0.86290  0.45463  0.76991  Biso   1.000  Hf
  O25      1.0000 0.48560  0.64356  0.04382  Biso   1.000  O 
  O26      1.0000 0.47195  0.59734  0.55138  Biso   1.000  O 
  O27      1.0000 0.47748  0.84639  0.49320  Biso   1.000  O 
  O28      1.0000 0.47238  0.87233  0.98817  Biso   1.000  O 
  O29      1.0000 0.72195  0.61738  0.55039  Biso   1.000  O 
  O30      1.0000 0.74762  0.56147  0.06438  Biso   1.000  O 
  O31      1.0000 0.70647  0.81080  0.06772  Biso   1.000  O 
  O32      1.0000 0.72962  0.86260  0.55140  Biso   1.000  O 
  Ce1      1.0000 0.12686  0.24950  0.31589  Biso   1.000  Ce
