data_image0
_cell_length_a       10.1272
_cell_length_b       5.18524
_cell_length_c       10.5985
_cell_angle_alpha    90
_cell_angle_beta     90
_cell_angle_gamma    90

_symmetry_space_group_name_H-M    "P 1"
_symmetry_int_tables_number       1

loop_
  _symmetry_equiv_pos_as_xyz
  'x, y, z'

loop_
  _atom_site_label
  _atom_site_occupancy
  _atom_site_fract_x
  _atom_site_fract_y
  _atom_site_fract_z
  _atom_site_thermal_displace_type
  _atom_site_B_iso_or_equiv
  _atom_site_type_symbol
  Hf1      1.0000 0.12950  0.04132  0.17557  Biso   1.000  Hf
  Hf2      1.0000 0.12226  0.45345  0.42690  Biso   1.000  Hf
  Hf3      1.0000 0.33833  0.53652  0.19015  Biso   1.000  Hf
  Hf4      1.0000 0.34986  0.95203  0.43090  Biso   1.000  Hf
  Hf5      1.0000 0.63502  0.03674  0.07953  Biso   1.000  Hf
  Hf6      1.0000 0.62541  0.45242  0.33340  Biso   1.000  Hf
  Hf7      1.0000 0.87496  0.55126  0.07189  Biso   1.000  Hf
  Hf8      1.0000 0.85153  0.96168  0.32444  Biso   1.000  Hf
  O1       1.0000 0.03269  0.31738  0.07821  Biso   1.000  O 
  O2       1.0000 0.01509  0.18187  0.33064  Biso   1.000  O 
  O3       1.0000 0.45216  0.84472  0.10298  Biso   1.000  O 
  O4       1.0000 0.45445  0.66774  0.34015  Biso   1.000  O 
  O5       1.0000 0.25709  0.24581  0.30403  Biso   1.000  O 
  O6       1.0000 0.27238  0.24486  0.05066  Biso   1.000  O 
  O7       1.0000 0.20921  0.74991  0.30693  Biso   1.000  O 
  O8       1.0000 0.21771  0.74740  0.05411  Biso   1.000  O 
  O9       1.0000 0.50330  0.29233  0.19058  Biso   1.000  O 
  O10      1.0000 0.51338  0.17014  0.42359  Biso   1.000  O 
  O11      1.0000 0.96437  0.83497  0.17134  Biso   1.000  O 
  O12      1.0000 0.95609  0.67992  0.41947  Biso   1.000  O 
  O13      1.0000 0.76001  0.24745  0.44939  Biso   1.000  O 
  O14      1.0000 0.75998  0.26181  0.19922  Biso   1.000  O 
  O15      1.0000 0.71197  0.74948  0.45305  Biso   1.000  O 
  O16      1.0000 0.71979  0.74494  0.20658  Biso   1.000  O 
  Hf9      1.0000 0.11695  0.04147  0.67466  Biso   1.000  Hf
  Hf10     1.0000 0.11072  0.46124  0.92288  Biso   1.000  Hf
  Hf11     1.0000 0.34088  0.53994  0.67836  Biso   1.000  Hf
  Hf12     1.0000 0.32690  0.96011  0.92950  Biso   1.000  Hf
  Hf13     1.0000 0.62119  0.03777  0.57165  Biso   1.000  Hf
  Hf14     1.0000 0.62674  0.46439  0.79361  Biso   1.000  Hf
  Hf15     1.0000 0.85030  0.54946  0.57377  Biso   1.000  Hf
  Hf16     1.0000 0.84241  0.97548  0.82647  Biso   1.000  Hf
  O17      1.0000 0.01470  0.32512  0.58125  Biso   1.000  O 
  O18      1.0000 0.00829  0.17857  0.83069  Biso   1.000  O 
  O19      1.0000 0.45637  0.81513  0.58563  Biso   1.000  O 
  O20      1.0000 0.44918  0.66659  0.83694  Biso   1.000  O 
  O21      1.0000 0.24953  0.25054  0.79873  Biso   1.000  O 
  O22      1.0000 0.25677  0.24732  0.55063  Biso   1.000  O 
  O23      1.0000 0.20231  0.74740  0.80142  Biso   1.000  O 
  O24      1.0000 0.21065  0.74825  0.55296  Biso   1.000  O 
  O25      1.0000 0.50586  0.30875  0.66517  Biso   1.000  O 
  O26      1.0000 0.49138  0.16387  0.92228  Biso   1.000  O 
  O27      1.0000 0.95374  0.82630  0.66920  Biso   1.000  O 
  O28      1.0000 0.94366  0.67848  0.91579  Biso   1.000  O 
  O29      1.0000 0.73683  0.28121  0.94088  Biso   1.000  O 
  O30      1.0000 0.76352  0.24408  0.68879  Biso   1.000  O 
  O31      1.0000 0.70957  0.79258  0.94819  Biso   1.000  O 
  O32      1.0000 0.71356  0.75854  0.69844  Biso   1.000  O 
  Ce1      1.0000 0.59045  0.53340  0.03710  Biso   1.000  Ce
