data_image0
_cell_length_a       10.0143
_cell_length_b       10.4011
_cell_length_c       5.02553
_cell_angle_alpha    90
_cell_angle_beta     90
_cell_angle_gamma    90

_symmetry_space_group_name_H-M    "P 1"
_symmetry_int_tables_number       1

loop_
  _symmetry_equiv_pos_as_xyz
  'x, y, z'

loop_
  _atom_site_label
  _atom_site_occupancy
  _atom_site_fract_x
  _atom_site_fract_y
  _atom_site_fract_z
  _atom_site_thermal_displace_type
  _atom_site_B_iso_or_equiv
  _atom_site_type_symbol
  Ce1      1.0000 0.12488  0.00949  0.24086  Biso   1.000  Ce
  Hf1      1.0000 0.13286  0.23560  0.74596  Biso   1.000  Hf
  Hf2      1.0000 0.36503  0.26525  0.25059  Biso   1.000  Hf
  Hf3      1.0000 0.36371  0.48108  0.75105  Biso   1.000  Hf
  O1       1.0000 0.03288  0.19225  0.38418  Biso   1.000  O 
  O2       1.0000 0.02991  0.07024  0.85131  Biso   1.000  O 
  O3       1.0000 0.46359  0.43192  0.39112  Biso   1.000  O 
  O4       1.0000 0.46213  0.31403  0.88821  Biso   1.000  O 
  O5       1.0000 0.27518  0.12233  0.50216  Biso   1.000  O 
  O6       1.0000 0.26967  0.13222  0.99032  Biso   1.000  O 
  O7       1.0000 0.22730  0.38134  0.99766  Biso   1.000  O 
  O8       1.0000 0.22778  0.36797  0.49512  Biso   1.000  O 
  Hf4      1.0000 0.13229  0.51602  0.25113  Biso   1.000  Hf
  Hf5      1.0000 0.13266  0.73056  0.75327  Biso   1.000  Hf
  Hf6      1.0000 0.36834  0.76316  0.24907  Biso   1.000  Hf
  Hf7      1.0000 0.36724  0.98213  0.74500  Biso   1.000  Hf
  O9       1.0000 0.03419  0.68445  0.39404  Biso   1.000  O 
  O10      1.0000 0.03192  0.56674  0.89194  Biso   1.000  O 
  O11      1.0000 0.46292  0.93365  0.38482  Biso   1.000  O 
  O12      1.0000 0.46649  0.81490  0.89216  Biso   1.000  O 
  O13      1.0000 0.26831  0.61369  0.49851  Biso   1.000  O 
  O14      1.0000 0.26742  0.62880  0.99925  Biso   1.000  O 
  O15      1.0000 0.23638  0.87454  0.98761  Biso   1.000  O 
  O16      1.0000 0.23633  0.85849  0.50361  Biso   1.000  O 
  Hf8      1.0000 0.63276  0.01617  0.25248  Biso   1.000  Hf
  Hf9      1.0000 0.63123  0.23241  0.75018  Biso   1.000  Hf
  Hf10     1.0000 0.86312  0.26903  0.25034  Biso   1.000  Hf
  Hf11     1.0000 0.86416  0.48180  0.75272  Biso   1.000  Hf
  O17      1.0000 0.53604  0.18356  0.38587  Biso   1.000  O 
  O18      1.0000 0.53622  0.06364  0.88617  Biso   1.000  O 
  O19      1.0000 0.96150  0.43658  0.39063  Biso   1.000  O 
  O20      1.0000 0.96210  0.31738  0.89181  Biso   1.000  O 
  O21      1.0000 0.76803  0.11672  0.50096  Biso   1.000  O 
  O22      1.0000 0.77006  0.13301  0.00172  Biso   1.000  O 
  O23      1.0000 0.72622  0.38089  0.99817  Biso   1.000  O 
  O24      1.0000 0.72774  0.36689  0.49984  Biso   1.000  O 
  Hf12     1.0000 0.63193  0.51438  0.25217  Biso   1.000  Hf
  Hf13     1.0000 0.63108  0.73003  0.75481  Biso   1.000  Hf
  Hf14     1.0000 0.86156  0.76281  0.25717  Biso   1.000  Hf
  Hf15     1.0000 0.85661  0.98098  0.75693  Biso   1.000  Hf
  O25      1.0000 0.53504  0.68089  0.39260  Biso   1.000  O 
  O26      1.0000 0.53195  0.56373  0.89331  Biso   1.000  O 
  O27      1.0000 0.94898  0.92828  0.40752  Biso   1.000  O 
  O28      1.0000 0.96928  0.82179  0.91398  Biso   1.000  O 
  O29      1.0000 0.76814  0.61555  0.50000  Biso   1.000  O 
  O30      1.0000 0.76730  0.62922  0.99899  Biso   1.000  O 
  O31      1.0000 0.72995  0.87988  0.00727  Biso   1.000  O 
  O32      1.0000 0.72226  0.86528  0.50623  Biso   1.000  O 
