data_image0
_cell_length_a       10.3021
_cell_length_b       5.19759
_cell_length_c       10.5852
_cell_angle_alpha    90
_cell_angle_beta     80
_cell_angle_gamma    90

_symmetry_space_group_name_H-M    "P 1"
_symmetry_int_tables_number       1

loop_
  _symmetry_equiv_pos_as_xyz
  'x, y, z'

loop_
  _atom_site_label
  _atom_site_occupancy
  _atom_site_fract_x
  _atom_site_fract_y
  _atom_site_fract_z
  _atom_site_thermal_displace_type
  _atom_site_B_iso_or_equiv
  _atom_site_type_symbol
  Hf1      1.0000 0.13586  0.03490  0.14165  Biso   1.000  Hf
  Hf2      1.0000 0.13832  0.44723  0.39337  Biso   1.000  Hf
  Hf3      1.0000 0.34719  0.54216  0.07854  Biso   1.000  Hf
  Hf4      1.0000 0.37749  0.96455  0.35062  Biso   1.000  Hf
  O1       1.0000 0.03398  0.32710  0.07129  Biso   1.000  O 
  O2       1.0000 0.03504  0.16939  0.32144  Biso   1.000  O 
  O3       1.0000 0.47977  0.83818  0.17480  Biso   1.000  O 
  O4       1.0000 0.50942  0.72248  0.44144  Biso   1.000  O 
  O5       1.0000 0.27015  0.23070  0.22871  Biso   1.000  O 
  O6       1.0000 0.28701  0.24707  0.48688  Biso   1.000  O 
  O7       1.0000 0.24456  0.77710  0.99060  Biso   1.000  O 
  O8       1.0000 0.23650  0.72544  0.24819  Biso   1.000  O 
  Hf5      1.0000 0.15925  0.04575  0.63801  Biso   1.000  Hf
  Hf6      1.0000 0.15956  0.46286  0.88424  Biso   1.000  Hf
  Hf7      1.0000 0.38662  0.55868  0.60551  Biso   1.000  Hf
  Hf8      1.0000 0.38763  0.97251  0.84488  Biso   1.000  Hf
  O9       1.0000 0.04852  0.33319  0.57611  Biso   1.000  O 
  O10      1.0000 0.05577  0.17659  0.81846  Biso   1.000  O 
  O11      1.0000 0.49386  0.84079  0.67635  Biso   1.000  O 
  O12      1.0000 0.49727  0.69256  0.91655  Biso   1.000  O 
  O13      1.0000 0.29618  0.26268  0.73281  Biso   1.000  O 
  O14      1.0000 0.29854  0.25529  0.97745  Biso   1.000  O 
  O15      1.0000 0.25336  0.74635  0.49984  Biso   1.000  O 
  O16      1.0000 0.24942  0.75347  0.75037  Biso   1.000  O 
  Hf9      1.0000 0.64520  0.04424  0.15020  Biso   1.000  Hf
  Hf10     1.0000 0.67251  0.47009  0.40826  Biso   1.000  Hf
  Hf11     1.0000 0.86528  0.54353  0.10570  Biso   1.000  Hf
  Hf12     1.0000 0.87414  0.96056  0.35460  Biso   1.000  Hf
  O17      1.0000 0.52961  0.33960  0.08709  Biso   1.000  O 
  O18      1.0000 0.56146  0.15782  0.33996  Biso   1.000  O 
  O19      1.0000 0.97331  0.82161  0.17387  Biso   1.000  O 
  O20      1.0000 0.97864  0.67818  0.42459  Biso   1.000  O 
  O21      1.0000 0.78890  0.26297  0.24209  Biso   1.000  O 
  O22      1.0000 0.79822  0.24467  0.49724  Biso   1.000  O 
  O23      1.0000 0.72705  0.75792  0.01542  Biso   1.000  O 
  O24      1.0000 0.73830  0.74778  0.26317  Biso   1.000  O 
  Hf13     1.0000 0.65779  0.05528  0.65037  Biso   1.000  Hf
  Hf14     1.0000 0.66418  0.46851  0.89866  Biso   1.000  Hf
  Hf15     1.0000 0.88334  0.55390  0.60918  Biso   1.000  Hf
  Hf16     1.0000 0.88952  0.96743  0.85178  Biso   1.000  Hf
  O25      1.0000 0.55508  0.33887  0.57983  Biso   1.000  O 
  O26      1.0000 0.55403  0.18818  0.82846  Biso   1.000  O 
  O27      1.0000 0.99167  0.83774  0.67052  Biso   1.000  O 
  O28      1.0000 0.99228  0.67696  0.91647  Biso   1.000  O 
  O29      1.0000 0.79497  0.26867  0.74354  Biso   1.000  O 
  O30      1.0000 0.80196  0.25367  0.98961  Biso   1.000  O 
  O31      1.0000 0.74752  0.76436  0.51761  Biso   1.000  O 
  O32      1.0000 0.75130  0.75440  0.76390  Biso   1.000  O 
  Ce1      1.0000 0.42123  0.46933  0.30768  Biso   1.000  Ce
