data_image0
_cell_length_a       5.0062
_cell_length_b       10.3989
_cell_length_c       10.0547
_cell_angle_alpha    90
_cell_angle_beta     90
_cell_angle_gamma    90

_symmetry_space_group_name_H-M    "P 1"
_symmetry_int_tables_number       1

loop_
  _symmetry_equiv_pos_as_xyz
  'x, y, z'

loop_
  _atom_site_label
  _atom_site_occupancy
  _atom_site_fract_x
  _atom_site_fract_y
  _atom_site_fract_z
  _atom_site_thermal_displace_type
  _atom_site_B_iso_or_equiv
  _atom_site_type_symbol
  Ce1      1.0000 0.25090  0.00825  0.11967  Biso   1.000  Ce
  Hf1      1.0000 0.26190  0.23172  0.37628  Biso   1.000  Hf
  Hf2      1.0000 0.72405  0.26720  0.12669  Biso   1.000  Hf
  Hf3      1.0000 0.72498  0.48103  0.37586  Biso   1.000  Hf
  O1       1.0000 0.06147  0.18798  0.19732  Biso   1.000  O 
  O2       1.0000 0.06498  0.06285  0.44298  Biso   1.000  O 
  O3       1.0000 0.92114  0.43465  0.19493  Biso   1.000  O 
  O4       1.0000 0.91987  0.31424  0.44428  Biso   1.000  O 
  O5       1.0000 0.54455  0.12163  0.25403  Biso   1.000  O 
  O6       1.0000 0.53011  0.12987  0.50109  Biso   1.000  O 
  O7       1.0000 0.45215  0.38037  0.49924  Biso   1.000  O 
  O8       1.0000 0.44995  0.36684  0.24934  Biso   1.000  O 
  Hf4      1.0000 0.25822  0.01421  0.62549  Biso   1.000  Hf
  Hf5      1.0000 0.25902  0.23348  0.87135  Biso   1.000  Hf
  Hf6      1.0000 0.72582  0.26410  0.62384  Biso   1.000  Hf
  Hf7      1.0000 0.72372  0.47857  0.87641  Biso   1.000  Hf
  O9       1.0000 0.06854  0.18413  0.68755  Biso   1.000  O 
  O10      1.0000 0.06035  0.06815  0.92512  Biso   1.000  O 
  O11      1.0000 0.92362  0.43038  0.69677  Biso   1.000  O 
  O12      1.0000 0.92133  0.31413  0.94621  Biso   1.000  O 
  O13      1.0000 0.53377  0.11474  0.74723  Biso   1.000  O 
  O14      1.0000 0.53618  0.12989  0.99413  Biso   1.000  O 
  O15      1.0000 0.44726  0.37855  0.99872  Biso   1.000  O 
  O16      1.0000 0.45474  0.36521  0.74798  Biso   1.000  O 
  Hf8      1.0000 0.26262  0.51449  0.12587  Biso   1.000  Hf
  Hf9      1.0000 0.25908  0.72978  0.37902  Biso   1.000  Hf
  Hf10     1.0000 0.72968  0.76074  0.12851  Biso   1.000  Hf
  Hf11     1.0000 0.71978  0.98144  0.37980  Biso   1.000  Hf
  O17      1.0000 0.06879  0.68182  0.19771  Biso   1.000  O 
  O18      1.0000 0.06201  0.56302  0.44729  Biso   1.000  O 
  O19      1.0000 0.89870  0.93035  0.20208  Biso   1.000  O 
  O20      1.0000 0.92132  0.81333  0.44764  Biso   1.000  O 
  O21      1.0000 0.53347  0.61298  0.25001  Biso   1.000  O 
  O22      1.0000 0.53219  0.62927  0.50010  Biso   1.000  O 
  O23      1.0000 0.44972  0.87946  0.50183  Biso   1.000  O 
  O24      1.0000 0.45906  0.85678  0.25535  Biso   1.000  O 
  Hf12     1.0000 0.25963  0.51314  0.62608  Biso   1.000  Hf
  Hf13     1.0000 0.26153  0.72790  0.87558  Biso   1.000  Hf
  Hf14     1.0000 0.72438  0.76227  0.62504  Biso   1.000  Hf
  Hf15     1.0000 0.72235  0.97898  0.87057  Biso   1.000  Hf
  O25      1.0000 0.06260  0.68045  0.69647  Biso   1.000  O 
  O26      1.0000 0.05789  0.56477  0.94600  Biso   1.000  O 
  O27      1.0000 0.91943  0.92975  0.69341  Biso   1.000  O 
  O28      1.0000 0.94677  0.82130  0.95700  Biso   1.000  O 
  O29      1.0000 0.53345  0.61337  0.74952  Biso   1.000  O 
  O30      1.0000 0.52957  0.62520  0.99965  Biso   1.000  O 
  O31      1.0000 0.47353  0.86911  0.99405  Biso   1.000  O 
  O32      1.0000 0.45139  0.86367  0.74876  Biso   1.000  O 
