data_image0
_cell_length_a       5.08854
_cell_length_b       10.3464
_cell_length_c       10.6747
_cell_angle_alpha    90
_cell_angle_beta     80
_cell_angle_gamma    90

_symmetry_space_group_name_H-M    "P 1"
_symmetry_int_tables_number       1

loop_
  _symmetry_equiv_pos_as_xyz
  'x, y, z'

loop_
  _atom_site_label
  _atom_site_occupancy
  _atom_site_fract_x
  _atom_site_fract_y
  _atom_site_fract_z
  _atom_site_thermal_displace_type
  _atom_site_B_iso_or_equiv
  _atom_site_type_symbol
  Hf1      1.0000 0.29760  0.01482  0.15087  Biso   1.000  Hf
  Hf2      1.0000 0.33473  0.23224  0.41731  Biso   1.000  Hf
  Hf3      1.0000 0.66002  0.26992  0.08548  Biso   1.000  Hf
  Hf4      1.0000 0.69712  0.48736  0.35191  Biso   1.000  Hf
  O1       1.0000 0.02313  0.15210  0.06165  Biso   1.000  O 
  O2       1.0000 0.11410  0.06672  0.34299  Biso   1.000  O 
  O3       1.0000 0.88064  0.43546  0.15978  Biso   1.000  O 
  O4       1.0000 0.97161  0.35007  0.44115  Biso   1.000  O 
  O5       1.0000 0.59176  0.12921  0.24638  Biso   1.000  O 
  O6       1.0000 0.60947  0.11984  0.49530  Biso   1.000  O 
  O7       1.0000 0.38527  0.38233  0.00750  Biso   1.000  O 
  O8       1.0000 0.40298  0.37298  0.25643  Biso   1.000  O 
  Hf5      1.0000 0.31484  0.02167  0.64547  Biso   1.000  Hf
  Hf6      1.0000 0.28971  0.22890  0.88805  Biso   1.000  Hf
  Hf7      1.0000 0.75673  0.27777  0.61015  Biso   1.000  Hf
  Hf8      1.0000 0.73159  0.48500  0.85273  Biso   1.000  Hf
  O9       1.0000 0.10885  0.17176  0.58685  Biso   1.000  O 
  O10      1.0000 0.09603  0.08479  0.81932  Biso   1.000  O 
  O11      1.0000 0.95042  0.42189  0.67889  Biso   1.000  O 
  O12      1.0000 0.93760  0.33492  0.91135  Biso   1.000  O 
  O13      1.0000 0.58067  0.13162  0.74044  Biso   1.000  O 
  O14      1.0000 0.57007  0.12243  0.98199  Biso   1.000  O 
  O15      1.0000 0.47638  0.38425  0.51622  Biso   1.000  O 
  O16      1.0000 0.46577  0.37506  0.75776  Biso   1.000  O 
  Hf9      1.0000 0.25189  0.52862  0.14676  Biso   1.000  Hf
  Hf10     1.0000 0.25958  0.72864  0.39797  Biso   1.000  Hf
  Hf11     1.0000 0.69505  0.77334  0.10481  Biso   1.000  Hf
  Hf12     1.0000 0.70275  0.97336  0.35602  Biso   1.000  Hf
  O17      1.0000 0.04010  0.67239  0.07868  Biso   1.000  O 
  O18      1.0000 0.04680  0.58713  0.32562  Biso   1.000  O 
  O19      1.0000 0.90783  0.91485  0.17716  Biso   1.000  O 
  O20      1.0000 0.91454  0.82960  0.42411  Biso   1.000  O 
  O21      1.0000 0.52952  0.63292  0.24414  Biso   1.000  O 
  O22      1.0000 0.53885  0.62551  0.49137  Biso   1.000  O 
  O23      1.0000 0.41578  0.87647  0.01142  Biso   1.000  O 
  O24      1.0000 0.42512  0.86906  0.25864  Biso   1.000  O 
  Hf13     1.0000 0.28744  0.52709  0.64789  Biso   1.000  Hf
  Hf14     1.0000 0.28635  0.73300  0.89520  Biso   1.000  Hf
  Hf15     1.0000 0.71998  0.77348  0.60300  Biso   1.000  Hf
  Hf16     1.0000 0.71889  0.97940  0.85031  Biso   1.000  Hf
  O25      1.0000 0.06051  0.66564  0.57787  Biso   1.000  O 
  O26      1.0000 0.07901  0.59004  0.82727  Biso   1.000  O 
  O27      1.0000 0.92733  0.91645  0.67093  Biso   1.000  O 
  O28      1.0000 0.94583  0.84085  0.92033  Biso   1.000  O 
  O29      1.0000 0.56091  0.63237  0.74016  Biso   1.000  O 
  O30      1.0000 0.57216  0.62750  0.98865  Biso   1.000  O 
  O31      1.0000 0.43418  0.87899  0.50955  Biso   1.000  O 
  O32      1.0000 0.44543  0.87412  0.75804  Biso   1.000  O 
  Ce1      1.0000 0.99739  0.25110  0.25139  Biso   1.000  Ce
