data_image0
_cell_length_a       10.1331
_cell_length_b       10.3029
_cell_length_c       10.4571
_cell_angle_alpha    90
_cell_angle_beta     80
_cell_angle_gamma    90

_symmetry_space_group_name_H-M    "P 1"
_symmetry_int_tables_number       1

loop_
  _symmetry_equiv_pos_as_xyz
  'x, y, z'

loop_
  _atom_site_label
  _atom_site_occupancy
  _atom_site_fract_x
  _atom_site_fract_y
  _atom_site_fract_z
  _atom_site_thermal_displace_type
  _atom_site_B_iso_or_equiv
  _atom_site_type_symbol
  Ce1      1.0000 0.13390  0.01670  0.14520  Biso   1.000  Ce
  Hf1      1.0000 0.13537  0.22931  0.39840  Biso   1.000  Hf
  Hf2      1.0000 0.36042  0.27138  0.10379  Biso   1.000  Hf
  Hf3      1.0000 0.35650  0.47788  0.35406  Biso   1.000  Hf
  O1       1.0000 0.03486  0.18069  0.07803  Biso   1.000  O 
  O2       1.0000 0.02582  0.08275  0.33988  Biso   1.000  O 
  O3       1.0000 0.46188  0.41905  0.17010  Biso   1.000  O 
  O4       1.0000 0.45928  0.32974  0.41988  Biso   1.000  O 
  O5       1.0000 0.27870  0.13356  0.24646  Biso   1.000  O 
  O6       1.0000 0.27165  0.11998  0.49254  Biso   1.000  O 
  O7       1.0000 0.22372  0.37971  0.00838  Biso   1.000  O 
  O8       1.0000 0.21912  0.37127  0.25919  Biso   1.000  O 
  Hf4      1.0000 0.13341  0.02100  0.64701  Biso   1.000  Hf
  Hf5      1.0000 0.13099  0.23089  0.89480  Biso   1.000  Hf
  Hf6      1.0000 0.35585  0.27086  0.60477  Biso   1.000  Hf
  Hf7      1.0000 0.35439  0.47825  0.85510  Biso   1.000  Hf
  O9       1.0000 0.03172  0.17192  0.58474  Biso   1.000  O 
  O10      1.0000 0.03044  0.07833  0.83428  Biso   1.000  O 
  O11      1.0000 0.45818  0.41886  0.67054  Biso   1.000  O 
  O12      1.0000 0.45752  0.33182  0.92137  Biso   1.000  O 
  O13      1.0000 0.26995  0.12912  0.74023  Biso   1.000  O 
  O14      1.0000 0.27345  0.12516  0.98498  Biso   1.000  O 
  O15      1.0000 0.21857  0.37904  0.51000  Biso   1.000  O 
  O16      1.0000 0.21700  0.37153  0.75948  Biso   1.000  O 
  Hf8      1.0000 0.13678  0.52113  0.14527  Biso   1.000  Hf
  Hf9      1.0000 0.13444  0.72684  0.39731  Biso   1.000  Hf
  Hf10     1.0000 0.36384  0.76846  0.10337  Biso   1.000  Hf
  Hf11     1.0000 0.35911  0.97837  0.35617  Biso   1.000  Hf
  O17      1.0000 0.03566  0.67236  0.08144  Biso   1.000  O 
  O18      1.0000 0.03245  0.58014  0.33082  Biso   1.000  O 
  O19      1.0000 0.46117  0.92083  0.16909  Biso   1.000  O 
  O20      1.0000 0.45932  0.82949  0.42152  Biso   1.000  O 
  O21      1.0000 0.27415  0.62652  0.23987  Biso   1.000  O 
  O22      1.0000 0.27120  0.62013  0.49116  Biso   1.000  O 
  O23      1.0000 0.23234  0.87134  0.00143  Biso   1.000  O 
  O24      1.0000 0.22756  0.86390  0.26276  Biso   1.000  O 
  Hf12     1.0000 0.13260  0.52112  0.64670  Biso   1.000  Hf
  Hf13     1.0000 0.13083  0.72751  0.89604  Biso   1.000  Hf
  Hf14     1.0000 0.35482  0.77106  0.60506  Biso   1.000  Hf
  Hf15     1.0000 0.35507  0.97788  0.85345  Biso   1.000  Hf
  O25      1.0000 0.03051  0.67005  0.58190  Biso   1.000  O 
  O26      1.0000 0.02822  0.57937  0.83139  Biso   1.000  O 
  O27      1.0000 0.45818  0.91896  0.67025  Biso   1.000  O 
  O28      1.0000 0.46044  0.83134  0.92039  Biso   1.000  O 
  O29      1.0000 0.26948  0.62876  0.74128  Biso   1.000  O 
  O30      1.0000 0.26763  0.61904  0.99151  Biso   1.000  O 
  O31      1.0000 0.21821  0.87901  0.51076  Biso   1.000  O 
  O32      1.0000 0.21637  0.87041  0.75923  Biso   1.000  O 
  Hf16     1.0000 0.63764  0.02085  0.14611  Biso   1.000  Hf
  Hf17     1.0000 0.63435  0.22916  0.39682  Biso   1.000  Hf
  Hf18     1.0000 0.85780  0.27317  0.10369  Biso   1.000  Hf
  Hf19     1.0000 0.85782  0.47834  0.35491  Biso   1.000  Hf
  O33      1.0000 0.53568  0.16961  0.08045  Biso   1.000  O 
  O34      1.0000 0.53453  0.07906  0.33190  Biso   1.000  O 
  O35      1.0000 0.95982  0.42234  0.16877  Biso   1.000  O 
  O36      1.0000 0.95992  0.33103  0.42090  Biso   1.000  O 
  O37      1.0000 0.77344  0.13008  0.24162  Biso   1.000  O 
  O38      1.0000 0.77011  0.12128  0.49305  Biso   1.000  O 
  O39      1.0000 0.72234  0.37957  0.00907  Biso   1.000  O 
  O40      1.0000 0.71999  0.37108  0.26023  Biso   1.000  O 
  Hf20     1.0000 0.63337  0.02190  0.64752  Biso   1.000  Hf
  Hf21     1.0000 0.63104  0.22837  0.89721  Biso   1.000  Hf
  Hf22     1.0000 0.85597  0.27152  0.60540  Biso   1.000  Hf
  Hf23     1.0000 0.85306  0.47848  0.85413  Biso   1.000  Hf
  O41      1.0000 0.53020  0.16927  0.58141  Biso   1.000  O 
  O42      1.0000 0.52991  0.08058  0.83075  Biso   1.000  O 
  O43      1.0000 0.95713  0.42114  0.66925  Biso   1.000  O 
  O44      1.0000 0.95372  0.33028  0.91785  Biso   1.000  O 
  O45      1.0000 0.77088  0.12913  0.74211  Biso   1.000  O 
  O46      1.0000 0.76776  0.12036  0.99229  Biso   1.000  O 
  O47      1.0000 0.71852  0.37900  0.51008  Biso   1.000  O 
  O48      1.0000 0.71659  0.37045  0.76005  Biso   1.000  O 
  Hf24     1.0000 0.63657  0.51980  0.14639  Biso   1.000  Hf
  Hf25     1.0000 0.63311  0.72680  0.39695  Biso   1.000  Hf
  Hf26     1.0000 0.85588  0.76741  0.10385  Biso   1.000  Hf
  Hf27     1.0000 0.85077  0.97795  0.35856  Biso   1.000  Hf
  O49      1.0000 0.53730  0.66880  0.07973  Biso   1.000  O 
  O50      1.0000 0.53132  0.57977  0.33043  Biso   1.000  O 
  O51      1.0000 0.94533  0.92018  0.17316  Biso   1.000  O 
  O52      1.0000 0.95950  0.83083  0.41963  Biso   1.000  O 
  O53      1.0000 0.77256  0.62789  0.24112  Biso   1.000  O 
  O54      1.0000 0.77150  0.62069  0.49098  Biso   1.000  O 
  O55      1.0000 0.72328  0.87870  0.00921  Biso   1.000  O 
  O56      1.0000 0.71368  0.86885  0.26183  Biso   1.000  O 
  Hf28     1.0000 0.63270  0.52101  0.64639  Biso   1.000  Hf
  Hf29     1.0000 0.63190  0.72843  0.89546  Biso   1.000  Hf
  Hf30     1.0000 0.85582  0.77156  0.60479  Biso   1.000  Hf
  Hf31     1.0000 0.85377  0.97839  0.85597  Biso   1.000  Hf
  O57      1.0000 0.52956  0.66846  0.58153  Biso   1.000  O 
  O58      1.0000 0.52888  0.58041  0.83098  Biso   1.000  O 
  O59      1.0000 0.95730  0.92001  0.67084  Biso   1.000  O 
  O60      1.0000 0.95610  0.83039  0.92217  Biso   1.000  O 
  O61      1.0000 0.76981  0.62928  0.74048  Biso   1.000  O 
  O62      1.0000 0.76757  0.61951  0.99126  Biso   1.000  O 
  O63      1.0000 0.71736  0.87859  0.51137  Biso   1.000  O 
  O64      1.0000 0.71752  0.87083  0.76025  Biso   1.000  O 
