data_image0
_cell_length_a       5.00216
_cell_length_b       10.4227
_cell_length_c       10.0345
_cell_angle_alpha    90
_cell_angle_beta     90
_cell_angle_gamma    90

_symmetry_space_group_name_H-M    "P 1"
_symmetry_int_tables_number       1

loop_
  _symmetry_equiv_pos_as_xyz
  'x, y, z'

loop_
  _atom_site_label
  _atom_site_occupancy
  _atom_site_fract_x
  _atom_site_fract_y
  _atom_site_fract_z
  _atom_site_thermal_displace_type
  _atom_site_B_iso_or_equiv
  _atom_site_type_symbol
  Hf1      1.0000 0.26413  0.01988  0.12108  Biso   1.000  Hf
  Hf2      1.0000 0.26307  0.23249  0.38249  Biso   1.000  Hf
  Hf3      1.0000 0.69900  0.26149  0.12461  Biso   1.000  Hf
  Hf4      1.0000 0.73422  0.48602  0.37563  Biso   1.000  Hf
  O1       1.0000 0.03321  0.17396  0.21174  Biso   1.000  O 
  O2       1.0000 0.06774  0.06721  0.45008  Biso   1.000  O 
  O3       1.0000 0.91653  0.43559  0.19380  Biso   1.000  O 
  O4       1.0000 0.92934  0.32077  0.44825  Biso   1.000  O 
  O5       1.0000 0.52144  0.11719  0.25175  Biso   1.000  O 
  O6       1.0000 0.54175  0.13525  0.49985  Biso   1.000  O 
  O7       1.0000 0.46059  0.38550  0.50033  Biso   1.000  O 
  O8       1.0000 0.44131  0.36996  0.25123  Biso   1.000  O 
  Hf5      1.0000 0.26863  0.01764  0.62619  Biso   1.000  Hf
  Hf6      1.0000 0.27469  0.23042  0.87200  Biso   1.000  Hf
  Hf7      1.0000 0.73316  0.26957  0.62654  Biso   1.000  Hf
  Hf8      1.0000 0.73157  0.48764  0.87622  Biso   1.000  Hf
  O9       1.0000 0.07127  0.18524  0.69289  Biso   1.000  O 
  O10      1.0000 0.08111  0.06462  0.93728  Biso   1.000  O 
  O11      1.0000 0.93111  0.43636  0.69886  Biso   1.000  O 
  O12      1.0000 0.92965  0.31891  0.94801  Biso   1.000  O 
  O13      1.0000 0.54342  0.11822  0.74703  Biso   1.000  O 
  O14      1.0000 0.56599  0.12697  0.99342  Biso   1.000  O 
  O15      1.0000 0.45145  0.38943  0.99895  Biso   1.000  O 
  O16      1.0000 0.46264  0.36979  0.74989  Biso   1.000  O 
  Hf9      1.0000 0.26439  0.53157  0.12560  Biso   1.000  Hf
  Hf10     1.0000 0.26804  0.73766  0.37769  Biso   1.000  Hf
  Hf11     1.0000 0.72729  0.76976  0.12696  Biso   1.000  Hf
  Hf12     1.0000 0.73111  0.98630  0.37397  Biso   1.000  Hf
  O17      1.0000 0.06589  0.68799  0.19932  Biso   1.000  O 
  O18      1.0000 0.06826  0.56942  0.44619  Biso   1.000  O 
  O19      1.0000 0.92520  0.93482  0.19330  Biso   1.000  O 
  O20      1.0000 0.92642  0.81912  0.44402  Biso   1.000  O 
  O21      1.0000 0.54205  0.62300  0.25194  Biso   1.000  O 
  O22      1.0000 0.53756  0.63517  0.50046  Biso   1.000  O 
  O23      1.0000 0.46048  0.88598  0.49899  Biso   1.000  O 
  O24      1.0000 0.45551  0.87027  0.24942  Biso   1.000  O 
  Hf13     1.0000 0.26851  0.51826  0.62634  Biso   1.000  Hf
  Hf14     1.0000 0.26507  0.73935  0.87387  Biso   1.000  Hf
  Hf15     1.0000 0.73393  0.76789  0.62424  Biso   1.000  Hf
  Hf16     1.0000 0.73349  0.98274  0.87401  Biso   1.000  Hf
  O25      1.0000 0.07184  0.68615  0.69367  Biso   1.000  O 
  O26      1.0000 0.06604  0.57395  0.94491  Biso   1.000  O 
  O27      1.0000 0.93224  0.93322  0.69438  Biso   1.000  O 
  O28      1.0000 0.92591  0.81894  0.94646  Biso   1.000  O 
  O29      1.0000 0.53925  0.61927  0.75020  Biso   1.000  O 
  O30      1.0000 0.53607  0.63972  0.99926  Biso   1.000  O 
  O31      1.0000 0.45268  0.88570  0.99926  Biso   1.000  O 
  O32      1.0000 0.46303  0.86869  0.74820  Biso   1.000  O 
  Co1      1.0000 0.18679  0.30263  0.10533  Biso   1.000  Co
