data_image0
_cell_length_a       10.0712
_cell_length_b       10.1803
_cell_length_c       5.21651
_cell_angle_alpha    90
_cell_angle_beta     80
_cell_angle_gamma    90

_symmetry_space_group_name_H-M    "P 1"
_symmetry_int_tables_number       1

loop_
  _symmetry_equiv_pos_as_xyz
  'x, y, z'

loop_
  _atom_site_label
  _atom_site_occupancy
  _atom_site_fract_x
  _atom_site_fract_y
  _atom_site_fract_z
  _atom_site_thermal_displace_type
  _atom_site_B_iso_or_equiv
  _atom_site_type_symbol
  Co1      1.0000 0.11644  0.00957  0.33777  Biso   1.000  Co
  Hf1      1.0000 0.14615  0.52218  0.29517  Biso   1.000  Hf
  Hf2      1.0000 0.63535  0.02139  0.29340  Biso   1.000  Hf
  Hf3      1.0000 0.64100  0.51958  0.29305  Biso   1.000  Hf
  Hf4      1.0000 0.14042  0.22248  0.78077  Biso   1.000  Hf
  Hf5      1.0000 0.14064  0.73215  0.79807  Biso   1.000  Hf
  Hf6      1.0000 0.63652  0.22894  0.79631  Biso   1.000  Hf
  Hf7      1.0000 0.63783  0.72700  0.79689  Biso   1.000  Hf
  Hf8      1.0000 0.35968  0.26798  0.20033  Biso   1.000  Hf
  Hf9      1.0000 0.36352  0.77969  0.20666  Biso   1.000  Hf
  Hf10     1.0000 0.87129  0.26473  0.21623  Biso   1.000  Hf
  Hf11     1.0000 0.86781  0.76842  0.21260  Biso   1.000  Hf
  Hf12     1.0000 0.36179  0.47922  0.71040  Biso   1.000  Hf
  Hf13     1.0000 0.36507  0.98340  0.70362  Biso   1.000  Hf
  Hf14     1.0000 0.86442  0.47543  0.71673  Biso   1.000  Hf
  Hf15     1.0000 0.86348  0.97529  0.71448  Biso   1.000  Hf
  O1       1.0000 0.04885  0.14422  0.15466  Biso   1.000  O 
  O2       1.0000 0.04183  0.66616  0.16068  Biso   1.000  O 
  O3       1.0000 0.53738  0.16903  0.15787  Biso   1.000  O 
  O4       1.0000 0.54024  0.66946  0.15783  Biso   1.000  O 
  O5       1.0000 0.02859  0.07951  0.64094  Biso   1.000  O 
  O6       1.0000 0.03924  0.58095  0.66616  Biso   1.000  O 
  O7       1.0000 0.53371  0.08102  0.65873  Biso   1.000  O 
  O8       1.0000 0.53728  0.58175  0.65767  Biso   1.000  O 
  O9       1.0000 0.46640  0.41677  0.34387  Biso   1.000  O 
  O10      1.0000 0.47300  0.91869  0.34298  Biso   1.000  O 
  O11      1.0000 0.97474  0.40998  0.35406  Biso   1.000  O 
  O12      1.0000 0.97631  0.91446  0.34894  Biso   1.000  O 
  O13      1.0000 0.46901  0.33958  0.85028  Biso   1.000  O 
  O14      1.0000 0.46197  0.83138  0.84052  Biso   1.000  O 
  O15      1.0000 0.96604  0.32558  0.85845  Biso   1.000  O 
  O16      1.0000 0.96498  0.83026  0.85106  Biso   1.000  O 
  O17      1.0000 0.25952  0.11710  0.44205  Biso   1.000  O 
  O18      1.0000 0.28007  0.63439  0.48454  Biso   1.000  O 
  O19      1.0000 0.77599  0.12587  0.48282  Biso   1.000  O 
  O20      1.0000 0.78138  0.62552  0.48582  Biso   1.000  O 
  O21      1.0000 0.29380  0.14150  0.92367  Biso   1.000  O 
  O22      1.0000 0.27612  0.62452  0.98577  Biso   1.000  O 
  O23      1.0000 0.77282  0.11810  0.98670  Biso   1.000  O 
  O24      1.0000 0.77579  0.61864  0.98689  Biso   1.000  O 
  O25      1.0000 0.22741  0.38307  0.01556  Biso   1.000  O 
  O26      1.0000 0.22929  0.89763  0.02689  Biso   1.000  O 
  O27      1.0000 0.73447  0.37639  0.02621  Biso   1.000  O 
  O28      1.0000 0.73131  0.87807  0.02137  Biso   1.000  O 
  O29      1.0000 0.22780  0.36732  0.51952  Biso   1.000  O 
  O30      1.0000 0.21741  0.87640  0.51587  Biso   1.000  O 
  O31      1.0000 0.72922  0.36854  0.52359  Biso   1.000  O 
  O32      1.0000 0.73166  0.86877  0.52176  Biso   1.000  O 
