data_image0
_cell_length_a       9.92865
_cell_length_b       10.3655
_cell_length_c       9.98289
_cell_angle_alpha    90
_cell_angle_beta     90
_cell_angle_gamma    90

_symmetry_space_group_name_H-M    "P 1"
_symmetry_int_tables_number       1

loop_
  _symmetry_equiv_pos_as_xyz
  'x, y, z'

loop_
  _atom_site_label
  _atom_site_occupancy
  _atom_site_fract_x
  _atom_site_fract_y
  _atom_site_fract_z
  _atom_site_thermal_displace_type
  _atom_site_B_iso_or_equiv
  _atom_site_type_symbol
  Co1      1.0000 0.12453  0.03903  0.10511  Biso   1.000  Co
  Hf1      1.0000 0.14042  0.01438  0.62885  Biso   1.000  Hf
  Hf2      1.0000 0.13299  0.51402  0.12650  Biso   1.000  Hf
  Hf3      1.0000 0.13769  0.51371  0.62650  Biso   1.000  Hf
  Hf4      1.0000 0.63552  0.01632  0.12596  Biso   1.000  Hf
  Hf5      1.0000 0.63526  0.01109  0.62252  Biso   1.000  Hf
  Hf6      1.0000 0.63372  0.51681  0.12822  Biso   1.000  Hf
  Hf7      1.0000 0.63650  0.51410  0.62528  Biso   1.000  Hf
  Hf8      1.0000 0.13650  0.22638  0.37210  Biso   1.000  Hf
  Hf9      1.0000 0.13776  0.23268  0.87642  Biso   1.000  Hf
  Hf10     1.0000 0.13704  0.72941  0.37892  Biso   1.000  Hf
  Hf11     1.0000 0.13722  0.73160  0.88021  Biso   1.000  Hf
  Hf12     1.0000 0.63627  0.23037  0.37730  Biso   1.000  Hf
  Hf13     1.0000 0.63756  0.22906  0.87376  Biso   1.000  Hf
  Hf14     1.0000 0.63670  0.73362  0.37535  Biso   1.000  Hf
  Hf15     1.0000 0.63580  0.73001  0.87676  Biso   1.000  Hf
  Hf16     1.0000 0.36606  0.26273  0.12566  Biso   1.000  Hf
  Hf17     1.0000 0.36917  0.26354  0.62591  Biso   1.000  Hf
  Hf18     1.0000 0.36344  0.76407  0.12880  Biso   1.000  Hf
  Hf19     1.0000 0.36816  0.76524  0.62987  Biso   1.000  Hf
  Hf20     1.0000 0.86379  0.26613  0.12313  Biso   1.000  Hf
  Hf21     1.0000 0.86950  0.26251  0.62454  Biso   1.000  Hf
  Hf22     1.0000 0.87166  0.76694  0.12212  Biso   1.000  Hf
  Hf23     1.0000 0.86955  0.76381  0.62423  Biso   1.000  Hf
  Hf24     1.0000 0.36823  0.47991  0.37655  Biso   1.000  Hf
  Hf25     1.0000 0.37033  0.48110  0.87627  Biso   1.000  Hf
  Hf26     1.0000 0.36172  0.97767  0.37335  Biso   1.000  Hf
  Hf27     1.0000 0.36251  0.97947  0.88391  Biso   1.000  Hf
  Hf28     1.0000 0.86728  0.48094  0.37611  Biso   1.000  Hf
  Hf29     1.0000 0.86925  0.48100  0.87453  Biso   1.000  Hf
  Hf30     1.0000 0.87063  0.98451  0.37349  Biso   1.000  Hf
  Hf31     1.0000 0.86521  0.97966  0.87278  Biso   1.000  Hf
  O1       1.0000 0.03995  0.18223  0.18239  Biso   1.000  O 
  O2       1.0000 0.03871  0.18035  0.69862  Biso   1.000  O 
  O3       1.0000 0.03687  0.68356  0.19518  Biso   1.000  O 
  O4       1.0000 0.03959  0.68197  0.69528  Biso   1.000  O 
  O5       1.0000 0.53388  0.18141  0.19866  Biso   1.000  O 
  O6       1.0000 0.54073  0.18131  0.69227  Biso   1.000  O 
  O7       1.0000 0.53616  0.68351  0.19714  Biso   1.000  O 
  O8       1.0000 0.53794  0.67988  0.69672  Biso   1.000  O 
  O9       1.0000 0.04026  0.06386  0.44969  Biso   1.000  O 
  O10      1.0000 0.04168  0.06013  0.94558  Biso   1.000  O 
  O11      1.0000 0.03762  0.56069  0.44608  Biso   1.000  O 
  O12      1.0000 0.03915  0.56235  0.94643  Biso   1.000  O 
  O13      1.0000 0.53973  0.06254  0.44297  Biso   1.000  O 
  O14      1.0000 0.53745  0.06420  0.95007  Biso   1.000  O 
  O15      1.0000 0.53975  0.56391  0.44303  Biso   1.000  O 
  O16      1.0000 0.54074  0.56140  0.94658  Biso   1.000  O 
  O17      1.0000 0.46430  0.43094  0.19334  Biso   1.000  O 
  O18      1.0000 0.46655  0.43120  0.69480  Biso   1.000  O 
  O19      1.0000 0.46903  0.92942  0.19778  Biso   1.000  O 
  O20      1.0000 0.46409  0.93185  0.70063  Biso   1.000  O 
  O21      1.0000 0.96489  0.42953  0.19541  Biso   1.000  O 
  O22      1.0000 0.96670  0.43078  0.69280  Biso   1.000  O 
  O23      1.0000 0.98589  0.94292  0.18567  Biso   1.000  O 
  O24      1.0000 0.96538  0.93154  0.69341  Biso   1.000  O 
  O25      1.0000 0.46739  0.31376  0.44580  Biso   1.000  O 
  O26      1.0000 0.46530  0.30902  0.94277  Biso   1.000  O 
  O27      1.0000 0.46977  0.81554  0.45299  Biso   1.000  O 
  O28      1.0000 0.46219  0.81201  0.94379  Biso   1.000  O 
  O29      1.0000 0.96539  0.30988  0.44034  Biso   1.000  O 
  O30      1.0000 0.96707  0.31280  0.94187  Biso   1.000  O 
  O31      1.0000 0.96556  0.81462  0.44073  Biso   1.000  O 
  O32      1.0000 0.96371  0.81195  0.93920  Biso   1.000  O 
  O33      1.0000 0.25773  0.10096  0.24340  Biso   1.000  O 
  O34      1.0000 0.27665  0.11624  0.75283  Biso   1.000  O 
  O35      1.0000 0.26913  0.60652  0.24996  Biso   1.000  O 
  O36      1.0000 0.27305  0.61548  0.75240  Biso   1.000  O 
  O37      1.0000 0.77443  0.11662  0.24722  Biso   1.000  O 
  O38      1.0000 0.77276  0.11262  0.74727  Biso   1.000  O 
  O39      1.0000 0.77328  0.61576  0.24948  Biso   1.000  O 
  O40      1.0000 0.77308  0.61456  0.74978  Biso   1.000  O 
  O41      1.0000 0.27591  0.12949  0.49735  Biso   1.000  O 
  O42      1.0000 0.25753  0.13240  0.00455  Biso   1.000  O 
  O43      1.0000 0.27513  0.62877  0.50175  Biso   1.000  O 
  O44      1.0000 0.26580  0.63460  0.00107  Biso   1.000  O 
  O45      1.0000 0.77529  0.12914  0.49763  Biso   1.000  O 
  O46      1.0000 0.77573  0.12844  0.99647  Biso   1.000  O 
  O47      1.0000 0.77213  0.63080  0.49963  Biso   1.000  O 
  O48      1.0000 0.76745  0.63513  0.00056  Biso   1.000  O 
  O49      1.0000 0.23083  0.37782  0.49949  Biso   1.000  O 
  O50      1.0000 0.23514  0.37826  0.99974  Biso   1.000  O 
  O51      1.0000 0.22972  0.87907  0.50720  Biso   1.000  O 
  O52      1.0000 0.21710  0.89252  0.01571  Biso   1.000  O 
  O53      1.0000 0.73260  0.37951  0.50020  Biso   1.000  O 
  O54      1.0000 0.73391  0.37771  0.99927  Biso   1.000  O 
  O55      1.0000 0.73391  0.88160  0.49708  Biso   1.000  O 
  O56      1.0000 0.73127  0.87872  0.99763  Biso   1.000  O 
  O57      1.0000 0.23253  0.35992  0.24945  Biso   1.000  O 
  O58      1.0000 0.23218  0.36540  0.75012  Biso   1.000  O 
  O59      1.0000 0.24733  0.84701  0.26555  Biso   1.000  O 
  O60      1.0000 0.23002  0.86610  0.75719  Biso   1.000  O 
  O61      1.0000 0.72890  0.36587  0.24951  Biso   1.000  O 
  O62      1.0000 0.73282  0.36394  0.74911  Biso   1.000  O 
  O63      1.0000 0.74120  0.86716  0.24634  Biso   1.000  O 
  O64      1.0000 0.73073  0.86281  0.74768  Biso   1.000  O 
