data_image0
_cell_length_a       10.1232
_cell_length_b       10.299
_cell_length_c       10.4594
_cell_angle_alpha    90
_cell_angle_beta     80
_cell_angle_gamma    90

_symmetry_space_group_name_H-M    "P 1"
_symmetry_int_tables_number       1

loop_
  _symmetry_equiv_pos_as_xyz
  'x, y, z'

loop_
  _atom_site_label
  _atom_site_occupancy
  _atom_site_fract_x
  _atom_site_fract_y
  _atom_site_fract_z
  _atom_site_thermal_displace_type
  _atom_site_B_iso_or_equiv
  _atom_site_type_symbol
  Hf1      1.0000 0.13714  0.02248  0.14710  Biso   1.000  Hf
  Hf2      1.0000 0.13833  0.23184  0.39520  Biso   1.000  Hf
  Hf3      1.0000 0.35643  0.27470  0.10275  Biso   1.000  Hf
  Hf4      1.0000 0.35407  0.47377  0.35001  Biso   1.000  Hf
  O1       1.0000 0.03434  0.17021  0.08022  Biso   1.000  O 
  O2       1.0000 0.03561  0.08096  0.32980  Biso   1.000  O 
  O3       1.0000 0.45956  0.42438  0.16532  Biso   1.000  O 
  O4       1.0000 0.47345  0.34191  0.42673  Biso   1.000  O 
  O5       1.0000 0.27959  0.12855  0.24147  Biso   1.000  O 
  O6       1.0000 0.28034  0.11963  0.48677  Biso   1.000  O 
  O7       1.0000 0.22004  0.38174  0.00614  Biso   1.000  O 
  O8       1.0000 0.20715  0.37658  0.25336  Biso   1.000  O 
  Hf5      1.0000 0.13609  0.01971  0.64643  Biso   1.000  Hf
  Hf6      1.0000 0.13459  0.22689  0.89622  Biso   1.000  Hf
  Hf7      1.0000 0.35881  0.27224  0.60728  Biso   1.000  Hf
  Hf8      1.0000 0.35663  0.47731  0.85513  Biso   1.000  Hf
  O9       1.0000 0.03642  0.16846  0.58015  Biso   1.000  O 
  O10      1.0000 0.03295  0.07848  0.83017  Biso   1.000  O 
  O11      1.0000 0.46187  0.41728  0.67312  Biso   1.000  O 
  O12      1.0000 0.46037  0.32929  0.92046  Biso   1.000  O 
  O13      1.0000 0.27397  0.12763  0.74052  Biso   1.000  O 
  O14      1.0000 0.27207  0.11964  0.99109  Biso   1.000  O 
  O15      1.0000 0.22048  0.37795  0.51227  Biso   1.000  O 
  O16      1.0000 0.22020  0.36930  0.75960  Biso   1.000  O 
  Hf9      1.0000 0.13448  0.52316  0.14369  Biso   1.000  Hf
  Hf10     1.0000 0.13410  0.72568  0.39639  Biso   1.000  Hf
  Hf11     1.0000 0.35707  0.77061  0.10330  Biso   1.000  Hf
  Hf12     1.0000 0.35677  0.96625  0.35519  Biso   1.000  Hf
  O17      1.0000 0.03169  0.67287  0.07983  Biso   1.000  O 
  O18      1.0000 0.03011  0.58266  0.32870  Biso   1.000  O 
  O19      1.0000 0.46063  0.91792  0.17087  Biso   1.000  O 
  O20      1.0000 0.45971  0.82358  0.42142  Biso   1.000  O 
  O21      1.0000 0.27251  0.62890  0.24023  Biso   1.000  O 
  O22      1.0000 0.27089  0.61829  0.49067  Biso   1.000  O 
  O23      1.0000 0.22003  0.88056  0.00977  Biso   1.000  O 
  O24      1.0000 0.21791  0.86840  0.25910  Biso   1.000  O 
  Hf13     1.0000 0.13498  0.52087  0.64651  Biso   1.000  Hf
  Hf14     1.0000 0.13242  0.72805  0.89657  Biso   1.000  Hf
  Hf15     1.0000 0.35706  0.76773  0.60557  Biso   1.000  Hf
  Hf16     1.0000 0.35493  0.97682  0.85497  Biso   1.000  Hf
  O25      1.0000 0.03016  0.66729  0.58076  Biso   1.000  O 
  O26      1.0000 0.03130  0.57917  0.83160  Biso   1.000  O 
  O27      1.0000 0.45881  0.91726  0.67022  Biso   1.000  O 
  O28      1.0000 0.45845  0.82916  0.92001  Biso   1.000  O 
  O29      1.0000 0.27221  0.62709  0.74143  Biso   1.000  O 
  O30      1.0000 0.27086  0.62043  0.99042  Biso   1.000  O 
  O31      1.0000 0.21874  0.87655  0.51092  Biso   1.000  O 
  O32      1.0000 0.21789  0.86933  0.76000  Biso   1.000  O 
  Hf17     1.0000 0.63886  0.02082  0.14628  Biso   1.000  Hf
  Hf18     1.0000 0.64432  0.22712  0.39994  Biso   1.000  Hf
  Hf19     1.0000 0.85897  0.27210  0.10456  Biso   1.000  Hf
  Hf20     1.0000 0.85838  0.47782  0.35417  Biso   1.000  Hf
  O33      1.0000 0.53314  0.16988  0.08387  Biso   1.000  O 
  O34      1.0000 0.54146  0.06915  0.33831  Biso   1.000  O 
  O35      1.0000 0.95892  0.42219  0.16762  Biso   1.000  O 
  O36      1.0000 0.96183  0.33225  0.42118  Biso   1.000  O 
  O37      1.0000 0.77669  0.12871  0.24068  Biso   1.000  O 
  O38      1.0000 0.77841  0.11857  0.49291  Biso   1.000  O 
  O39      1.0000 0.72125  0.37970  0.01065  Biso   1.000  O 
  O40      1.0000 0.72119  0.37008  0.26061  Biso   1.000  O 
  Hf21     1.0000 0.63641  0.01984  0.64677  Biso   1.000  Hf
  Hf22     1.0000 0.63464  0.22708  0.89783  Biso   1.000  Hf
  Hf23     1.0000 0.86057  0.27016  0.60612  Biso   1.000  Hf
  Hf24     1.0000 0.85675  0.47682  0.85593  Biso   1.000  Hf
  O41      1.0000 0.53425  0.16856  0.58203  Biso   1.000  O 
  O42      1.0000 0.53272  0.07882  0.83170  Biso   1.000  O 
  O43      1.0000 0.96113  0.41803  0.67167  Biso   1.000  O 
  O44      1.0000 0.95941  0.32793  0.91964  Biso   1.000  O 
  O45      1.0000 0.77377  0.12777  0.74202  Biso   1.000  O 
  O46      1.0000 0.77199  0.11895  0.99174  Biso   1.000  O 
  O47      1.0000 0.72290  0.37710  0.51238  Biso   1.000  O 
  O48      1.0000 0.72021  0.36911  0.76150  Biso   1.000  O 
  Hf25     1.0000 0.63555  0.52259  0.14672  Biso   1.000  Hf
  Hf26     1.0000 0.63554  0.72492  0.39622  Biso   1.000  Hf
  Hf27     1.0000 0.85695  0.77200  0.10432  Biso   1.000  Hf
  Hf28     1.0000 0.85780  0.97726  0.35460  Biso   1.000  Hf
  O49      1.0000 0.53308  0.67089  0.08006  Biso   1.000  O 
  O50      1.0000 0.53099  0.58001  0.32924  Biso   1.000  O 
  O51      1.0000 0.96068  0.92040  0.16915  Biso   1.000  O 
  O52      1.0000 0.96041  0.83056  0.42080  Biso   1.000  O 
  O53      1.0000 0.77317  0.62916  0.24099  Biso   1.000  O 
  O54      1.0000 0.77276  0.61912  0.49124  Biso   1.000  O 
  O55      1.0000 0.71956  0.88038  0.01004  Biso   1.000  O 
  O56      1.0000 0.72005  0.86991  0.26001  Biso   1.000  O 
  Hf29     1.0000 0.63626  0.51977  0.64757  Biso   1.000  Hf
  Hf30     1.0000 0.63334  0.72694  0.89671  Biso   1.000  Hf
  Hf31     1.0000 0.85611  0.77044  0.60457  Biso   1.000  Hf
  Hf32     1.0000 0.85452  0.97727  0.85483  Biso   1.000  Hf
  O57      1.0000 0.53211  0.66629  0.58177  Biso   1.000  O 
  O58      1.0000 0.53148  0.57933  0.83150  Biso   1.000  O 
  O59      1.0000 0.95924  0.91802  0.67038  Biso   1.000  O 
  O60      1.0000 0.95747  0.82947  0.91967  Biso   1.000  O 
  O61      1.0000 0.77254  0.62772  0.74155  Biso   1.000  O 
  O62      1.0000 0.77097  0.61948  0.99149  Biso   1.000  O 
  O63      1.0000 0.71869  0.87752  0.51017  Biso   1.000  O 
  O64      1.0000 0.71811  0.86956  0.76016  Biso   1.000  O 
  Co1      1.0000 0.40392  0.20893  0.33645  Biso   1.000  Co
