data_image0
_cell_length_a       10.1384
_cell_length_b       5.16159
_cell_length_c       10.4779
_cell_angle_alpha    90
_cell_angle_beta     80
_cell_angle_gamma    90

_symmetry_space_group_name_H-M    "P 1"
_symmetry_int_tables_number       1

loop_
  _symmetry_equiv_pos_as_xyz
  'x, y, z'

loop_
  _atom_site_label
  _atom_site_occupancy
  _atom_site_fract_x
  _atom_site_fract_y
  _atom_site_fract_z
  _atom_site_thermal_displace_type
  _atom_site_B_iso_or_equiv
  _atom_site_type_symbol
  Hf1      1.0000 0.13536  0.04777  0.14489  Biso   1.000  Hf
  Hf2      1.0000 0.13669  0.45881  0.39568  Biso   1.000  Hf
  Hf3      1.0000 0.35598  0.54755  0.10280  Biso   1.000  Hf
  Hf4      1.0000 0.35260  0.92240  0.35053  Biso   1.000  Hf
  O1       1.0000 0.03210  0.34567  0.07936  Biso   1.000  O 
  O2       1.0000 0.03293  0.16701  0.32755  Biso   1.000  O 
  O3       1.0000 0.45915  0.84765  0.16576  Biso   1.000  O 
  O4       1.0000 0.47310  0.67384  0.42875  Biso   1.000  O 
  O5       1.0000 0.27810  0.25549  0.24106  Biso   1.000  O 
  O6       1.0000 0.27795  0.23357  0.48644  Biso   1.000  O 
  O7       1.0000 0.21907  0.76504  0.00725  Biso   1.000  O 
  O8       1.0000 0.20580  0.74920  0.25349  Biso   1.000  O 
  Hf5      1.0000 0.13710  0.03995  0.64665  Biso   1.000  Hf
  Hf6      1.0000 0.13491  0.45412  0.89653  Biso   1.000  Hf
  Hf7      1.0000 0.35925  0.53936  0.60851  Biso   1.000  Hf
  Hf8      1.0000 0.35680  0.95247  0.85568  Biso   1.000  Hf
  O9       1.0000 0.03470  0.33296  0.57989  Biso   1.000  O 
  O10      1.0000 0.03423  0.15676  0.83039  Biso   1.000  O 
  O11      1.0000 0.46207  0.83044  0.67371  Biso   1.000  O 
  O12      1.0000 0.46153  0.65784  0.92041  Biso   1.000  O 
  O13      1.0000 0.27502  0.25298  0.74093  Biso   1.000  O 
  O14      1.0000 0.27313  0.23946  0.99052  Biso   1.000  O 
  O15      1.0000 0.21941  0.75109  0.51438  Biso   1.000  O 
  O16      1.0000 0.22066  0.73748  0.76012  Biso   1.000  O 
  Hf9      1.0000 0.63844  0.04407  0.14605  Biso   1.000  Hf
  Hf10     1.0000 0.64419  0.44912  0.39958  Biso   1.000  Hf
  Hf11     1.0000 0.85745  0.54539  0.10446  Biso   1.000  Hf
  Hf12     1.0000 0.85870  0.95444  0.35412  Biso   1.000  Hf
  O17      1.0000 0.53312  0.34221  0.08223  Biso   1.000  O 
  O18      1.0000 0.53963  0.14025  0.33504  Biso   1.000  O 
  O19      1.0000 0.95857  0.84513  0.16746  Biso   1.000  O 
  O20      1.0000 0.96192  0.66613  0.42221  Biso   1.000  O 
  O21      1.0000 0.77601  0.25827  0.24062  Biso   1.000  O 
  O22      1.0000 0.77814  0.23559  0.49273  Biso   1.000  O 
  O23      1.0000 0.71985  0.76171  0.01085  Biso   1.000  O 
  O24      1.0000 0.72103  0.73929  0.26075  Biso   1.000  O 
  Hf13     1.0000 0.63852  0.03793  0.64771  Biso   1.000  Hf
  Hf14     1.0000 0.63556  0.45243  0.89748  Biso   1.000  Hf
  Hf15     1.0000 0.86017  0.53993  0.60593  Biso   1.000  Hf
  Hf16     1.0000 0.85680  0.95251  0.85558  Biso   1.000  Hf
  O25      1.0000 0.53436  0.33055  0.58189  Biso   1.000  O 
  O26      1.0000 0.53408  0.15762  0.83148  Biso   1.000  O 
  O27      1.0000 0.96180  0.83370  0.67203  Biso   1.000  O 
  O28      1.0000 0.96000  0.65644  0.91929  Biso   1.000  O 
  O29      1.0000 0.77501  0.25404  0.74190  Biso   1.000  O 
  O30      1.0000 0.77354  0.23694  0.99127  Biso   1.000  O 
  O31      1.0000 0.72235  0.75230  0.51234  Biso   1.000  O 
  O32      1.0000 0.72084  0.73730  0.76127  Biso   1.000  O 
  Co1      1.0000 0.40057  0.41247  0.33950  Biso   1.000  Co
