data_image0
_cell_length_a       9.99246
_cell_length_b       10.4345
_cell_length_c       5.01957
_cell_angle_alpha    90
_cell_angle_beta     90
_cell_angle_gamma    90

_symmetry_space_group_name_H-M    "P 1"
_symmetry_int_tables_number       1

loop_
  _symmetry_equiv_pos_as_xyz
  'x, y, z'

loop_
  _atom_site_label
  _atom_site_occupancy
  _atom_site_fract_x
  _atom_site_fract_y
  _atom_site_fract_z
  _atom_site_thermal_displace_type
  _atom_site_B_iso_or_equiv
  _atom_site_type_symbol
  Hf1      1.0000 0.13499  0.01946  0.24752  Biso   1.000  Hf
  Hf2      1.0000 0.13880  0.22599  0.75768  Biso   1.000  Hf
  Hf3      1.0000 0.36488  0.26485  0.24610  Biso   1.000  Hf
  Hf4      1.0000 0.36618  0.48535  0.74861  Biso   1.000  Hf
  O1       1.0000 0.01920  0.17355  0.42197  Biso   1.000  O 
  O2       1.0000 0.03587  0.06395  0.89366  Biso   1.000  O 
  O3       1.0000 0.46283  0.43376  0.38940  Biso   1.000  O 
  O4       1.0000 0.46241  0.31749  0.88601  Biso   1.000  O 
  O5       1.0000 0.27010  0.11646  0.49663  Biso   1.000  O 
  O6       1.0000 0.28424  0.12512  0.98798  Biso   1.000  O 
  O7       1.0000 0.23248  0.38612  0.00325  Biso   1.000  O 
  O8       1.0000 0.22774  0.36820  0.50083  Biso   1.000  O 
  Hf5      1.0000 0.13382  0.53147  0.25012  Biso   1.000  Hf
  Hf6      1.0000 0.13285  0.73989  0.75211  Biso   1.000  Hf
  Hf7      1.0000 0.36678  0.76745  0.25118  Biso   1.000  Hf
  Hf8      1.0000 0.36644  0.98141  0.74852  Biso   1.000  Hf
  O9       1.0000 0.03327  0.68822  0.39596  Biso   1.000  O 
  O10      1.0000 0.03347  0.57266  0.89189  Biso   1.000  O 
  O11      1.0000 0.46440  0.93300  0.38462  Biso   1.000  O 
  O12      1.0000 0.46430  0.81659  0.88908  Biso   1.000  O 
  O13      1.0000 0.27204  0.62239  0.50214  Biso   1.000  O 
  O14      1.0000 0.26926  0.63822  0.99751  Biso   1.000  O 
  O15      1.0000 0.22773  0.88403  0.99967  Biso   1.000  O 
  O16      1.0000 0.23004  0.86896  0.49742  Biso   1.000  O 
  Hf9      1.0000 0.63341  0.01461  0.24674  Biso   1.000  Hf
  Hf10     1.0000 0.62920  0.23245  0.74874  Biso   1.000  Hf
  Hf11     1.0000 0.85199  0.26491  0.25484  Biso   1.000  Hf
  Hf12     1.0000 0.86624  0.48438  0.75526  Biso   1.000  Hf
  O17      1.0000 0.53515  0.18254  0.38490  Biso   1.000  O 
  O18      1.0000 0.53866  0.06464  0.88207  Biso   1.000  O 
  O19      1.0000 0.96267  0.43515  0.39650  Biso   1.000  O 
  O20      1.0000 0.96762  0.31894  0.90581  Biso   1.000  O 
  O21      1.0000 0.76480  0.11552  0.49864  Biso   1.000  O 
  O22      1.0000 0.76935  0.13436  0.99568  Biso   1.000  O 
  O23      1.0000 0.72800  0.38111  0.00114  Biso   1.000  O 
  O24      1.0000 0.72601  0.36889  0.50490  Biso   1.000  O 
  Hf13     1.0000 0.63284  0.51675  0.25340  Biso   1.000  Hf
  Hf14     1.0000 0.63368  0.73388  0.75076  Biso   1.000  Hf
  Hf15     1.0000 0.86413  0.76751  0.25098  Biso   1.000  Hf
  Hf16     1.0000 0.86517  0.98430  0.74706  Biso   1.000  Hf
  O25      1.0000 0.53613  0.68347  0.38912  Biso   1.000  O 
  O26      1.0000 0.53375  0.56756  0.88951  Biso   1.000  O 
  O27      1.0000 0.96436  0.93245  0.39095  Biso   1.000  O 
  O28      1.0000 0.96190  0.81833  0.89148  Biso   1.000  O 
  O29      1.0000 0.76975  0.61720  0.50189  Biso   1.000  O 
  O30      1.0000 0.76975  0.63123  0.00141  Biso   1.000  O 
  O31      1.0000 0.72867  0.88454  0.99682  Biso   1.000  O 
  O32      1.0000 0.72877  0.86694  0.49765  Biso   1.000  O 
  Co1      1.0000 0.09765  0.30329  0.21667  Biso   1.000  Co
