data_image0
_cell_length_a       5.03134
_cell_length_b       10.1812
_cell_length_c       10.4395
_cell_angle_alpha    90
_cell_angle_beta     80
_cell_angle_gamma    90

_symmetry_space_group_name_H-M    "P 1"
_symmetry_int_tables_number       1

loop_
  _symmetry_equiv_pos_as_xyz
  'x, y, z'

loop_
  _atom_site_label
  _atom_site_occupancy
  _atom_site_fract_x
  _atom_site_fract_y
  _atom_site_fract_z
  _atom_site_thermal_displace_type
  _atom_site_B_iso_or_equiv
  _atom_site_type_symbol
  Co1      1.0000 0.23294  0.01062  0.17034  Biso   1.000  Co
  Hf1      1.0000 0.24915  0.01858  0.64558  Biso   1.000  Hf
  Hf2      1.0000 0.28408  0.52148  0.14560  Biso   1.000  Hf
  Hf3      1.0000 0.26928  0.51848  0.65037  Biso   1.000  Hf
  Hf4      1.0000 0.26752  0.22700  0.39048  Biso   1.000  Hf
  Hf5      1.0000 0.26362  0.22180  0.89964  Biso   1.000  Hf
  Hf6      1.0000 0.27473  0.72632  0.39785  Biso   1.000  Hf
  Hf7      1.0000 0.25910  0.73107  0.90118  Biso   1.000  Hf
  Hf8      1.0000 0.73528  0.26188  0.10448  Biso   1.000  Hf
  Hf9      1.0000 0.70662  0.26985  0.60520  Biso   1.000  Hf
  Hf10     1.0000 0.72675  0.77764  0.10344  Biso   1.000  Hf
  Hf11     1.0000 0.71550  0.76839  0.60852  Biso   1.000  Hf
  Hf12     1.0000 0.72066  0.47782  0.35453  Biso   1.000  Hf
  Hf13     1.0000 0.70969  0.47503  0.86120  Biso   1.000  Hf
  Hf14     1.0000 0.71940  0.97585  0.35325  Biso   1.000  Hf
  Hf15     1.0000 0.71500  0.98153  0.85743  Biso   1.000  Hf
  O1       1.0000 0.09981  0.14890  0.08478  Biso   1.000  O 
  O2       1.0000 0.05040  0.16172  0.57166  Biso   1.000  O 
  O3       1.0000 0.08078  0.67054  0.08111  Biso   1.000  O 
  O4       1.0000 0.06424  0.66442  0.58071  Biso   1.000  O 
  O5       1.0000 0.04885  0.08073  0.32232  Biso   1.000  O 
  O6       1.0000 0.04846  0.08070  0.82789  Biso   1.000  O 
  O7       1.0000 0.07553  0.57758  0.33128  Biso   1.000  O 
  O8       1.0000 0.05641  0.58295  0.83293  Biso   1.000  O 
  O9       1.0000 0.94110  0.41345  0.17346  Biso   1.000  O 
  O10      1.0000 0.92114  0.41125  0.67811  Biso   1.000  O 
  O11      1.0000 0.95369  0.91692  0.17360  Biso   1.000  O 
  O12      1.0000 0.92650  0.91459  0.67294  Biso   1.000  O 
  O13      1.0000 0.92179  0.33110  0.42269  Biso   1.000  O 
  O14      1.0000 0.92558  0.33366  0.93427  Biso   1.000  O 
  O15      1.0000 0.92579  0.82943  0.42166  Biso   1.000  O 
  O16      1.0000 0.90462  0.83014  0.92565  Biso   1.000  O 
  O17      1.0000 0.52094  0.11483  0.22790  Biso   1.000  O 
  O18      1.0000 0.52836  0.12516  0.73376  Biso   1.000  O 
  O19      1.0000 0.55881  0.63159  0.24197  Biso   1.000  O 
  O20      1.0000 0.54324  0.62600  0.74488  Biso   1.000  O 
  O21      1.0000 0.53963  0.12066  0.48376  Biso   1.000  O 
  O22      1.0000 0.56890  0.13633  0.97329  Biso   1.000  O 
  O23      1.0000 0.54996  0.61830  0.49356  Biso   1.000  O 
  O24      1.0000 0.53114  0.62339  0.99490  Biso   1.000  O 
  O25      1.0000 0.46880  0.38156  0.01212  Biso   1.000  O 
  O26      1.0000 0.43393  0.37629  0.51060  Biso   1.000  O 
  O27      1.0000 0.45873  0.89857  0.01688  Biso   1.000  O 
  O28      1.0000 0.44436  0.87626  0.51000  Biso   1.000  O 
  O29      1.0000 0.45736  0.36549  0.25910  Biso   1.000  O 
  O30      1.0000 0.43575  0.36792  0.76447  Biso   1.000  O 
  O31      1.0000 0.43733  0.87411  0.25829  Biso   1.000  O 
  O32      1.0000 0.43916  0.86875  0.76342  Biso   1.000  O 
