data_image0
_cell_length_a       10.0181
_cell_length_b       10.1917
_cell_length_c       5.00871
_cell_angle_alpha    90
_cell_angle_beta     90
_cell_angle_gamma    90

_symmetry_space_group_name_H-M    "P 1"
_symmetry_int_tables_number       1

loop_
  _symmetry_equiv_pos_as_xyz
  'x, y, z'

loop_
  _atom_site_label
  _atom_site_occupancy
  _atom_site_fract_x
  _atom_site_fract_y
  _atom_site_fract_z
  _atom_site_thermal_displace_type
  _atom_site_B_iso_or_equiv
  _atom_site_type_symbol
  Co1      1.0000 0.13197  0.96461  0.23853  Biso   1.000  Co
  Hf1      1.0000 0.13779  0.50036  0.25927  Biso   1.000  Hf
  Hf2      1.0000 0.60974  0.01002  0.24633  Biso   1.000  Hf
  Hf3      1.0000 0.64623  0.49539  0.23233  Biso   1.000  Hf
  Hf4      1.0000 0.15299  0.26873  0.78269  Biso   1.000  Hf
  Hf5      1.0000 0.15022  0.77352  0.74107  Biso   1.000  Hf
  Hf6      1.0000 0.64719  0.25368  0.75160  Biso   1.000  Hf
  Hf7      1.0000 0.65399  0.77277  0.70706  Biso   1.000  Hf
  Hf8      1.0000 0.39010  0.26841  0.29215  Biso   1.000  Hf
  Hf9      1.0000 0.40532  0.74706  0.23701  Biso   1.000  Hf
  Hf10     1.0000 0.89677  0.25179  0.24030  Biso   1.000  Hf
  Hf11     1.0000 0.88648  0.75646  0.21868  Biso   1.000  Hf
  Hf12     1.0000 0.37413  0.01650  0.76995  Biso   1.000  Hf
  Hf13     1.0000 0.41498  0.52171  0.75170  Biso   1.000  Hf
  Hf14     1.0000 0.89088  0.01293  0.70440  Biso   1.000  Hf
  Hf15     1.0000 0.90030  0.49844  0.72948  Biso   1.000  Hf
  O1       1.0000 0.98257  0.17557  0.88894  Biso   1.000  O 
  O2       1.0000 0.04896  0.66276  0.07055  Biso   1.000  O 
  O3       1.0000 0.47096  0.14605  0.01184  Biso   1.000  O 
  O4       1.0000 0.56359  0.65845  0.98672  Biso   1.000  O 
  O5       1.0000 0.01147  0.08962  0.38984  Biso   1.000  O 
  O6       1.0000 0.05395  0.60302  0.57238  Biso   1.000  O 
  O7       1.0000 0.51680  0.12061  0.51841  Biso   1.000  O 
  O8       1.0000 0.54084  0.61878  0.48483  Biso   1.000  O 
  O9       1.0000 0.02485  0.35286  0.49366  Biso   1.000  O 
  O10      1.0000 0.01793  0.85529  0.47660  Biso   1.000  O 
  O11      1.0000 0.52282  0.37205  0.51017  Biso   1.000  O 
  O12      1.0000 0.50944  0.87221  0.49770  Biso   1.000  O 
  O13      1.0000 0.00736  0.40324  0.00718  Biso   1.000  O 
  O14      1.0000 0.04139  0.92564  0.97732  Biso   1.000  O 
  O15      1.0000 0.51036  0.39422  0.00653  Biso   1.000  O 
  O16      1.0000 0.53937  0.90670  0.98989  Biso   1.000  O 
  O17      1.0000 0.28241  0.17153  0.56185  Biso   1.000  O 
  O18      1.0000 0.30958  0.68392  0.58235  Biso   1.000  O 
  O19      1.0000 0.76386  0.15107  0.46470  Biso   1.000  O 
  O20      1.0000 0.79334  0.65273  0.52317  Biso   1.000  O 
  O21      1.0000 0.20500  0.08526  0.03316  Biso   1.000  O 
  O22      1.0000 0.29947  0.58657  0.08723  Biso   1.000  O 
  O23      1.0000 0.74345  0.09846  0.94270  Biso   1.000  O 
  O24      1.0000 0.79483  0.58937  0.03693  Biso   1.000  O 
  O25      1.0000 0.24826  0.34348  0.05029  Biso   1.000  O 
  O26      1.0000 0.25639  0.84873  0.03073  Biso   1.000  O 
  O27      1.0000 0.78197  0.35615  0.98886  Biso   1.000  O 
  O28      1.0000 0.80648  0.85190  0.92107  Biso   1.000  O 
  O29      1.0000 0.27225  0.42167  0.54362  Biso   1.000  O 
  O30      1.0000 0.24765  0.93235  0.52021  Biso   1.000  O 
  O31      1.0000 0.77344  0.39680  0.48875  Biso   1.000  O 
  O32      1.0000 0.76522  0.90159  0.43535  Biso   1.000  O 
