data_image0
_cell_length_a       10.0849
_cell_length_b       10.2322
_cell_length_c       10.4409
_cell_angle_alpha    90
_cell_angle_beta     80
_cell_angle_gamma    90

_symmetry_space_group_name_H-M    "P 1"
_symmetry_int_tables_number       1

loop_
  _symmetry_equiv_pos_as_xyz
  'x, y, z'

loop_
  _atom_site_label
  _atom_site_occupancy
  _atom_site_fract_x
  _atom_site_fract_y
  _atom_site_fract_z
  _atom_site_thermal_displace_type
  _atom_site_B_iso_or_equiv
  _atom_site_type_symbol
  Co1      1.0000 0.11794  0.01133  0.17170  Biso   1.000  Co
  Hf1      1.0000 0.12954  0.01959  0.64409  Biso   1.000  Hf
  Hf2      1.0000 0.14196  0.52245  0.14617  Biso   1.000  Hf
  Hf3      1.0000 0.13564  0.52014  0.64809  Biso   1.000  Hf
  Hf4      1.0000 0.63626  0.02164  0.14563  Biso   1.000  Hf
  Hf5      1.0000 0.63015  0.02055  0.64821  Biso   1.000  Hf
  Hf6      1.0000 0.63817  0.52033  0.14506  Biso   1.000  Hf
  Hf7      1.0000 0.63408  0.52022  0.64841  Biso   1.000  Hf
  Hf8      1.0000 0.13594  0.22811  0.39105  Biso   1.000  Hf
  Hf9      1.0000 0.13496  0.22168  0.89755  Biso   1.000  Hf
  Hf10     1.0000 0.13659  0.72790  0.39732  Biso   1.000  Hf
  Hf11     1.0000 0.13344  0.73199  0.89845  Biso   1.000  Hf
  Hf12     1.0000 0.63507  0.22798  0.39643  Biso   1.000  Hf
  Hf13     1.0000 0.63085  0.22891  0.89881  Biso   1.000  Hf
  Hf14     1.0000 0.63721  0.72733  0.39639  Biso   1.000  Hf
  Hf15     1.0000 0.63036  0.72774  0.89919  Biso   1.000  Hf
  Hf16     1.0000 0.35870  0.26743  0.10130  Biso   1.000  Hf
  Hf17     1.0000 0.35487  0.27101  0.60414  Biso   1.000  Hf
  Hf18     1.0000 0.35881  0.77844  0.10283  Biso   1.000  Hf
  Hf19     1.0000 0.35871  0.77150  0.60536  Biso   1.000  Hf
  Hf20     1.0000 0.86854  0.26583  0.10753  Biso   1.000  Hf
  Hf21     1.0000 0.85577  0.27037  0.60571  Biso   1.000  Hf
  Hf22     1.0000 0.86498  0.77022  0.10395  Biso   1.000  Hf
  Hf23     1.0000 0.85653  0.76866  0.60760  Biso   1.000  Hf
  Hf24     1.0000 0.36024  0.47863  0.35388  Biso   1.000  Hf
  Hf25     1.0000 0.35366  0.47848  0.85657  Biso   1.000  Hf
  Hf26     1.0000 0.36002  0.97917  0.35091  Biso   1.000  Hf
  Hf27     1.0000 0.35600  0.98221  0.85675  Biso   1.000  Hf
  Hf28     1.0000 0.85921  0.47799  0.35476  Biso   1.000  Hf
  Hf29     1.0000 0.85741  0.47520  0.85911  Biso   1.000  Hf
  Hf30     1.0000 0.85853  0.97587  0.35763  Biso   1.000  Hf
  Hf31     1.0000 0.85693  0.97804  0.85587  Biso   1.000  Hf
  O1       1.0000 0.04819  0.15034  0.08664  Biso   1.000  O 
  O2       1.0000 0.02815  0.16361  0.57325  Biso   1.000  O 
  O3       1.0000 0.03933  0.66971  0.08118  Biso   1.000  O 
  O4       1.0000 0.03195  0.66624  0.58122  Biso   1.000  O 
  O5       1.0000 0.53715  0.16993  0.08027  Biso   1.000  O 
  O6       1.0000 0.52990  0.16879  0.58038  Biso   1.000  O 
  O7       1.0000 0.53685  0.67023  0.08003  Biso   1.000  O 
  O8       1.0000 0.53304  0.66847  0.58020  Biso   1.000  O 
  O9       1.0000 0.03080  0.07744  0.32591  Biso   1.000  O 
  O10      1.0000 0.02570  0.08082  0.82854  Biso   1.000  O 
  O11      1.0000 0.03550  0.57922  0.33119  Biso   1.000  O 
  O12      1.0000 0.03101  0.58096  0.83360  Biso   1.000  O 
  O13      1.0000 0.52973  0.08168  0.32948  Biso   1.000  O 
  O14      1.0000 0.53001  0.07971  0.83155  Biso   1.000  O 
  O15      1.0000 0.53652  0.57856  0.33082  Biso   1.000  O 
  O16      1.0000 0.52830  0.58248  0.83009  Biso   1.000  O 
  O17      1.0000 0.46384  0.41863  0.17014  Biso   1.000  O 
  O18      1.0000 0.45852  0.41810  0.67162  Biso   1.000  O 
  O19      1.0000 0.46710  0.91851  0.17117  Biso   1.000  O 
  O20      1.0000 0.46163  0.91916  0.67056  Biso   1.000  O 
  O21      1.0000 0.96885  0.41558  0.17190  Biso   1.000  O 
  O22      1.0000 0.96181  0.41379  0.67542  Biso   1.000  O 
  O23      1.0000 0.97267  0.91755  0.17407  Biso   1.000  O 
  O24      1.0000 0.96121  0.91581  0.67212  Biso   1.000  O 
  O25      1.0000 0.46131  0.33117  0.42081  Biso   1.000  O 
  O26      1.0000 0.46120  0.33695  0.92398  Biso   1.000  O 
  O27      1.0000 0.46243  0.83020  0.41866  Biso   1.000  O 
  O28      1.0000 0.45469  0.83099  0.92219  Biso   1.000  O 
  O29      1.0000 0.96038  0.32902  0.42026  Biso   1.000  O 
  O30      1.0000 0.95999  0.32664  0.92980  Biso   1.000  O 
  O31      1.0000 0.96193  0.82943  0.42287  Biso   1.000  O 
  O32      1.0000 0.95690  0.83000  0.92363  Biso   1.000  O 
  O33      1.0000 0.26233  0.11975  0.22973  Biso   1.000  O 
  O34      1.0000 0.26656  0.12606  0.73405  Biso   1.000  O 
  O35      1.0000 0.27691  0.63366  0.24175  Biso   1.000  O 
  O36      1.0000 0.27169  0.62907  0.74189  Biso   1.000  O 
  O37      1.0000 0.77447  0.12558  0.24184  Biso   1.000  O 
  O38      1.0000 0.77013  0.12877  0.74164  Biso   1.000  O 
  O39      1.0000 0.77759  0.62776  0.24067  Biso   1.000  O 
  O40      1.0000 0.77232  0.62656  0.74399  Biso   1.000  O 
  O41      1.0000 0.27189  0.12210  0.48469  Biso   1.000  O 
  O42      1.0000 0.28644  0.13686  0.97223  Biso   1.000  O 
  O43      1.0000 0.27451  0.62008  0.49192  Biso   1.000  O 
  O44      1.0000 0.26824  0.62379  0.99266  Biso   1.000  O 
  O45      1.0000 0.77153  0.11931  0.49173  Biso   1.000  O 
  O46      1.0000 0.76773  0.11911  0.99402  Biso   1.000  O 
  O47      1.0000 0.77428  0.61936  0.49225  Biso   1.000  O 
  O48      1.0000 0.76882  0.61962  0.99343  Biso   1.000  O 
  O49      1.0000 0.22574  0.38260  0.00912  Biso   1.000  O 
  O50      1.0000 0.21799  0.37807  0.50904  Biso   1.000  O 
  O51      1.0000 0.22472  0.89528  0.01419  Biso   1.000  O 
  O52      1.0000 0.22199  0.87850  0.50812  Biso   1.000  O 
  O53      1.0000 0.73111  0.37749  0.01191  Biso   1.000  O 
  O54      1.0000 0.71940  0.37776  0.51121  Biso   1.000  O 
  O55      1.0000 0.72777  0.87966  0.01011  Biso   1.000  O 
  O56      1.0000 0.72021  0.87711  0.51131  Biso   1.000  O 
  O57      1.0000 0.22445  0.36927  0.25902  Biso   1.000  O 
  O58      1.0000 0.21816  0.36811  0.76158  Biso   1.000  O 
  O59      1.0000 0.21278  0.87594  0.25741  Biso   1.000  O 
  O60      1.0000 0.21932  0.87048  0.76075  Biso   1.000  O 
  O61      1.0000 0.72536  0.36786  0.25959  Biso   1.000  O 
  O62      1.0000 0.71850  0.37086  0.76266  Biso   1.000  O 
  O63      1.0000 0.72826  0.86995  0.25950  Biso   1.000  O 
  O64      1.0000 0.71901  0.86940  0.76196  Biso   1.000  O 
