data_image0
_cell_length_a       9.99977
_cell_length_b       10.2081
_cell_length_c       10.4244
_cell_angle_alpha    90
_cell_angle_beta     90
_cell_angle_gamma    90

_symmetry_space_group_name_H-M    "P 1"
_symmetry_int_tables_number       1

loop_
  _symmetry_equiv_pos_as_xyz
  'x, y, z'

loop_
  _atom_site_label
  _atom_site_occupancy
  _atom_site_fract_x
  _atom_site_fract_y
  _atom_site_fract_z
  _atom_site_thermal_displace_type
  _atom_site_B_iso_or_equiv
  _atom_site_type_symbol
  Co1      1.0000 0.11738  0.01435  0.19599  Biso   1.000  Co
  Hf1      1.0000 0.13258  0.02103  0.66788  Biso   1.000  Hf
  Hf2      1.0000 0.14101  0.52287  0.17116  Biso   1.000  Hf
  Hf3      1.0000 0.13666  0.52143  0.67285  Biso   1.000  Hf
  Hf4      1.0000 0.13763  0.23152  0.41627  Biso   1.000  Hf
  Hf5      1.0000 0.13984  0.22422  0.92302  Biso   1.000  Hf
  Hf6      1.0000 0.13641  0.72939  0.42135  Biso   1.000  Hf
  Hf7      1.0000 0.13740  0.73431  0.92211  Biso   1.000  Hf
  Hf8      1.0000 0.35865  0.26912  0.16756  Biso   1.000  Hf
  Hf9      1.0000 0.35723  0.27206  0.67015  Biso   1.000  Hf
  Hf10     1.0000 0.35818  0.77825  0.16810  Biso   1.000  Hf
  Hf11     1.0000 0.36011  0.77216  0.67078  Biso   1.000  Hf
  Hf12     1.0000 0.35954  0.48026  0.42095  Biso   1.000  Hf
  Hf13     1.0000 0.35638  0.47938  0.92170  Biso   1.000  Hf
  Hf14     1.0000 0.35866  0.98170  0.41713  Biso   1.000  Hf
  Hf15     1.0000 0.35831  0.98202  0.92192  Biso   1.000  Hf
  Hf16     1.0000 0.63917  0.02207  0.07695  Biso   1.000  Hf
  Hf17     1.0000 0.63111  0.02112  0.57898  Biso   1.000  Hf
  Hf18     1.0000 0.64052  0.52076  0.07927  Biso   1.000  Hf
  Hf19     1.0000 0.63715  0.52101  0.58029  Biso   1.000  Hf
  Hf20     1.0000 0.63575  0.22965  0.32853  Biso   1.000  Hf
  Hf21     1.0000 0.63501  0.23027  0.82965  Biso   1.000  Hf
  Hf22     1.0000 0.63545  0.72826  0.32734  Biso   1.000  Hf
  Hf23     1.0000 0.63636  0.72962  0.82967  Biso   1.000  Hf
  Hf24     1.0000 0.86923  0.26631  0.08378  Biso   1.000  Hf
  Hf25     1.0000 0.85772  0.27061  0.57937  Biso   1.000  Hf
  Hf26     1.0000 0.86598  0.77090  0.07888  Biso   1.000  Hf
  Hf27     1.0000 0.85806  0.77004  0.58046  Biso   1.000  Hf
  Hf28     1.0000 0.86000  0.47960  0.32963  Biso   1.000  Hf
  Hf29     1.0000 0.86084  0.47681  0.83290  Biso   1.000  Hf
  Hf30     1.0000 0.85741  0.97725  0.33165  Biso   1.000  Hf
  Hf31     1.0000 0.86067  0.98032  0.82886  Biso   1.000  Hf
  O1       1.0000 0.04955  0.15245  0.09669  Biso   1.000  O 
  O2       1.0000 0.02858  0.16328  0.57729  Biso   1.000  O 
  O3       1.0000 0.03785  0.66930  0.08666  Biso   1.000  O 
  O4       1.0000 0.03112  0.66573  0.58508  Biso   1.000  O 
  O5       1.0000 0.03123  0.07879  0.33391  Biso   1.000  O 
  O6       1.0000 0.02844  0.08499  0.83255  Biso   1.000  O 
  O7       1.0000 0.03308  0.58263  0.33596  Biso   1.000  O 
  O8       1.0000 0.03186  0.58409  0.83747  Biso   1.000  O 
  O9       1.0000 0.46752  0.41770  0.08596  Biso   1.000  O 
  O10      1.0000 0.46256  0.41975  0.58559  Biso   1.000  O 
  O11      1.0000 0.47302  0.91759  0.08381  Biso   1.000  O 
  O12      1.0000 0.46310  0.91932  0.58371  Biso   1.000  O 
  O13      1.0000 0.46256  0.33014  0.33741  Biso   1.000  O 
  O14      1.0000 0.46286  0.33430  0.83410  Biso   1.000  O 
  O15      1.0000 0.46119  0.83338  0.33401  Biso   1.000  O 
  O16      1.0000 0.46411  0.83321  0.83446  Biso   1.000  O 
  O17      1.0000 0.26321  0.11839  0.28156  Biso   1.000  O 
  O18      1.0000 0.27066  0.12203  0.78643  Biso   1.000  O 
  O19      1.0000 0.27569  0.62854  0.29447  Biso   1.000  O 
  O20      1.0000 0.27434  0.62426  0.79445  Biso   1.000  O 
  O21      1.0000 0.30210  0.14422  0.02591  Biso   1.000  O 
  O22      1.0000 0.27317  0.12911  0.53798  Biso   1.000  O 
  O23      1.0000 0.28063  0.63029  0.04402  Biso   1.000  O 
  O24      1.0000 0.27444  0.62679  0.54481  Biso   1.000  O 
  O25      1.0000 0.22316  0.37545  0.29453  Biso   1.000  O 
  O26      1.0000 0.22012  0.37249  0.79571  Biso   1.000  O 
  O27      1.0000 0.21272  0.88003  0.29039  Biso   1.000  O 
  O28      1.0000 0.22133  0.87400  0.79340  Biso   1.000  O 
  O29      1.0000 0.22222  0.38126  0.04514  Biso   1.000  O 
  O30      1.0000 0.21925  0.37681  0.54369  Biso   1.000  O 
  O31      1.0000 0.22582  0.88594  0.04492  Biso   1.000  O 
  O32      1.0000 0.22226  0.87729  0.54199  Biso   1.000  O 
  O33      1.0000 0.53598  0.16888  0.16368  Biso   1.000  O 
  O34      1.0000 0.53039  0.16996  0.66296  Biso   1.000  O 
  O35      1.0000 0.53356  0.66933  0.16315  Biso   1.000  O 
  O36      1.0000 0.53334  0.66903  0.66365  Biso   1.000  O 
  O37      1.0000 0.52904  0.08164  0.41200  Biso   1.000  O 
  O38      1.0000 0.53292  0.08040  0.91049  Biso   1.000  O 
  O39      1.0000 0.53292  0.58232  0.41383  Biso   1.000  O 
  O40      1.0000 0.53126  0.58209  0.91402  Biso   1.000  O 
  O41      1.0000 0.96895  0.41606  0.16705  Biso   1.000  O 
  O42      1.0000 0.96537  0.41294  0.66938  Biso   1.000  O 
  O43      1.0000 0.97400  0.91890  0.17020  Biso   1.000  O 
  O44      1.0000 0.96528  0.91549  0.66575  Biso   1.000  O 
  O45      1.0000 0.96295  0.33143  0.41413  Biso   1.000  O 
  O46      1.0000 0.96555  0.32978  0.92347  Biso   1.000  O 
  O47      1.0000 0.96352  0.83261  0.41648  Biso   1.000  O 
  O48      1.0000 0.96320  0.83469  0.91706  Biso   1.000  O 
  O49      1.0000 0.77449  0.12407  0.95692  Biso   1.000  O 
  O50      1.0000 0.77204  0.12282  0.45574  Biso   1.000  O 
  O51      1.0000 0.77453  0.62418  0.95770  Biso   1.000  O 
  O52      1.0000 0.77461  0.62367  0.45605  Biso   1.000  O 
  O53      1.0000 0.77792  0.12469  0.20622  Biso   1.000  O 
  O54      1.0000 0.77205  0.12686  0.70507  Biso   1.000  O 
  O55      1.0000 0.77681  0.62610  0.20605  Biso   1.000  O 
  O56      1.0000 0.77576  0.62523  0.70772  Biso   1.000  O 
  O57      1.0000 0.72191  0.37275  0.95841  Biso   1.000  O 
  O58      1.0000 0.72127  0.37380  0.45676  Biso   1.000  O 
  O59      1.0000 0.72149  0.87403  0.95549  Biso   1.000  O 
  O60      1.0000 0.71975  0.87263  0.45553  Biso   1.000  O 
  O61      1.0000 0.72589  0.37429  0.20615  Biso   1.000  O 
  O62      1.0000 0.72136  0.37712  0.70717  Biso   1.000  O 
  O63      1.0000 0.72920  0.87593  0.20538  Biso   1.000  O 
  O64      1.0000 0.72163  0.87684  0.70564  Biso   1.000  O 
