data_image0
_cell_length_a       9.97554
_cell_length_b       10.3955
_cell_length_c       10.0195
_cell_angle_alpha    90
_cell_angle_beta     90
_cell_angle_gamma    90

_symmetry_space_group_name_H-M    "P 1"
_symmetry_int_tables_number       1

loop_
  _symmetry_equiv_pos_as_xyz
  'x, y, z'

loop_
  _atom_site_label
  _atom_site_occupancy
  _atom_site_fract_x
  _atom_site_fract_y
  _atom_site_fract_z
  _atom_site_thermal_displace_type
  _atom_site_B_iso_or_equiv
  _atom_site_type_symbol
  Hf1      1.0000 0.13445  0.02162  0.12240  Biso   1.000  Hf
  Hf2      1.0000 0.13400  0.23251  0.38175  Biso   1.000  Hf
  Hf3      1.0000 0.36428  0.26473  0.12291  Biso   1.000  Hf
  Hf4      1.0000 0.36604  0.48490  0.37529  Biso   1.000  Hf
  O1       1.0000 0.01834  0.17428  0.21220  Biso   1.000  O 
  O2       1.0000 0.03500  0.06631  0.44959  Biso   1.000  O 
  O3       1.0000 0.46116  0.43422  0.19389  Biso   1.000  O 
  O4       1.0000 0.46249  0.31740  0.44478  Biso   1.000  O 
  O5       1.0000 0.26773  0.11916  0.25106  Biso   1.000  O 
  O6       1.0000 0.27075  0.13309  0.50070  Biso   1.000  O 
  O7       1.0000 0.22965  0.38409  0.50023  Biso   1.000  O 
  O8       1.0000 0.22559  0.36869  0.24992  Biso   1.000  O 
  Hf5      1.0000 0.13320  0.01650  0.62709  Biso   1.000  Hf
  Hf6      1.0000 0.13883  0.22925  0.87339  Biso   1.000  Hf
  Hf7      1.0000 0.36618  0.26831  0.62609  Biso   1.000  Hf
  Hf8      1.0000 0.36566  0.48617  0.87470  Biso   1.000  Hf
  O9       1.0000 0.03503  0.18372  0.69449  Biso   1.000  O 
  O10      1.0000 0.03677  0.06502  0.94131  Biso   1.000  O 
  O11      1.0000 0.46429  0.43574  0.69482  Biso   1.000  O 
  O12      1.0000 0.46263  0.31757  0.94220  Biso   1.000  O 
  O13      1.0000 0.27159  0.11717  0.74742  Biso   1.000  O 
  O14      1.0000 0.28362  0.12592  0.99359  Biso   1.000  O 
  O15      1.0000 0.23103  0.38480  0.00002  Biso   1.000  O 
  O16      1.0000 0.23024  0.36859  0.74964  Biso   1.000  O 
  Hf9      1.0000 0.13378  0.53148  0.12474  Biso   1.000  Hf
  Hf10     1.0000 0.13396  0.73675  0.37807  Biso   1.000  Hf
  Hf11     1.0000 0.36507  0.76892  0.12684  Biso   1.000  Hf
  Hf12     1.0000 0.36419  0.98463  0.37582  Biso   1.000  Hf
  O17      1.0000 0.03334  0.68799  0.19915  Biso   1.000  O 
  O18      1.0000 0.03515  0.56832  0.44543  Biso   1.000  O 
  O19      1.0000 0.46231  0.93505  0.19467  Biso   1.000  O 
  O20      1.0000 0.46277  0.81639  0.44277  Biso   1.000  O 
  O21      1.0000 0.27234  0.62284  0.25123  Biso   1.000  O 
  O22      1.0000 0.26977  0.63334  0.50002  Biso   1.000  O 
  O23      1.0000 0.22928  0.88375  0.50015  Biso   1.000  O 
  O24      1.0000 0.22797  0.87040  0.24992  Biso   1.000  O 
  Hf13     1.0000 0.13295  0.51736  0.62624  Biso   1.000  Hf
  Hf14     1.0000 0.13216  0.73819  0.87392  Biso   1.000  Hf
  Hf15     1.0000 0.36686  0.76660  0.62461  Biso   1.000  Hf
  Hf16     1.0000 0.36750  0.98182  0.87429  Biso   1.000  Hf
  O25      1.0000 0.03576  0.68573  0.69294  Biso   1.000  O 
  O26      1.0000 0.03397  0.57168  0.94475  Biso   1.000  O 
  O27      1.0000 0.46498  0.93397  0.69180  Biso   1.000  O 
  O28      1.0000 0.46450  0.81754  0.94615  Biso   1.000  O 
  O29      1.0000 0.26921  0.61852  0.74945  Biso   1.000  O 
  O30      1.0000 0.26961  0.63830  0.99837  Biso   1.000  O 
  O31      1.0000 0.22702  0.88410  0.99949  Biso   1.000  O 
  O32      1.0000 0.23102  0.86784  0.74864  Biso   1.000  O 
  Hf17     1.0000 0.63172  0.01500  0.12435  Biso   1.000  Hf
  Hf18     1.0000 0.63081  0.23300  0.37693  Biso   1.000  Hf
  Hf19     1.0000 0.85116  0.26509  0.12774  Biso   1.000  Hf
  Hf20     1.0000 0.86620  0.48461  0.37649  Biso   1.000  Hf
  O33      1.0000 0.53407  0.18284  0.19407  Biso   1.000  O 
  O34      1.0000 0.53457  0.06648  0.44512  Biso   1.000  O 
  O35      1.0000 0.96091  0.43596  0.19444  Biso   1.000  O 
  O36      1.0000 0.96516  0.31909  0.44786  Biso   1.000  O 
  O37      1.0000 0.76344  0.11604  0.25038  Biso   1.000  O 
  O38      1.0000 0.77031  0.13437  0.49884  Biso   1.000  O 
  O39      1.0000 0.72928  0.38351  0.50055  Biso   1.000  O 
  O40      1.0000 0.72440  0.36947  0.25222  Biso   1.000  O 
  Hf21     1.0000 0.63473  0.01739  0.62495  Biso   1.000  Hf
  Hf22     1.0000 0.63153  0.23448  0.87382  Biso   1.000  Hf
  Hf23     1.0000 0.86579  0.26776  0.62645  Biso   1.000  Hf
  Hf24     1.0000 0.86509  0.48476  0.87770  Biso   1.000  Hf
  O41      1.0000 0.53672  0.18578  0.69234  Biso   1.000  O 
  O42      1.0000 0.53945  0.06543  0.93987  Biso   1.000  O 
  O43      1.0000 0.96430  0.43479  0.69829  Biso   1.000  O 
  O44      1.0000 0.96570  0.31753  0.94988  Biso   1.000  O 
  O45      1.0000 0.77060  0.11853  0.74899  Biso   1.000  O 
  O46      1.0000 0.76897  0.13377  0.99897  Biso   1.000  O 
  O47      1.0000 0.72717  0.38126  0.00021  Biso   1.000  O 
  O48      1.0000 0.72994  0.36890  0.75069  Biso   1.000  O 
  Hf25     1.0000 0.63160  0.51754  0.12682  Biso   1.000  Hf
  Hf26     1.0000 0.63352  0.73445  0.37564  Biso   1.000  Hf
  Hf27     1.0000 0.86414  0.76767  0.12604  Biso   1.000  Hf
  Hf28     1.0000 0.86668  0.98531  0.37385  Biso   1.000  Hf
  O49      1.0000 0.53565  0.68463  0.19427  Biso   1.000  O 
  O50      1.0000 0.53495  0.56679  0.44484  Biso   1.000  O 
  O51      1.0000 0.96322  0.93428  0.19266  Biso   1.000  O 
  O52      1.0000 0.96339  0.81836  0.44520  Biso   1.000  O 
  O53      1.0000 0.76918  0.61817  0.25046  Biso   1.000  O 
  O54      1.0000 0.76925  0.63393  0.50016  Biso   1.000  O 
  O55      1.0000 0.72973  0.88444  0.49858  Biso   1.000  O 
  O56      1.0000 0.72830  0.86779  0.24921  Biso   1.000  O 
  Hf29     1.0000 0.63459  0.51734  0.62610  Biso   1.000  Hf
  Hf30     1.0000 0.63364  0.73481  0.87576  Biso   1.000  Hf
  Hf31     1.0000 0.86548  0.76768  0.62547  Biso   1.000  Hf
  Hf32     1.0000 0.86438  0.98439  0.87553  Biso   1.000  Hf
  O57      1.0000 0.53603  0.68478  0.69470  Biso   1.000  O 
  O58      1.0000 0.53452  0.56812  0.94424  Biso   1.000  O 
  O59      1.0000 0.96414  0.93341  0.69670  Biso   1.000  O 
  O60      1.0000 0.96139  0.81714  0.94454  Biso   1.000  O 
  O61      1.0000 0.77058  0.61834  0.75047  Biso   1.000  O 
  O62      1.0000 0.77042  0.63095  0.00046  Biso   1.000  O 
  O63      1.0000 0.72779  0.88405  0.99942  Biso   1.000  O 
  O64      1.0000 0.72920  0.86842  0.74925  Biso   1.000  O 
  Co1      1.0000 0.09585  0.30284  0.10676  Biso   1.000  Co
