data_image0
_cell_length_a       10.0342
_cell_length_b       5.14539
_cell_length_c       10.4719
_cell_angle_alpha    90
_cell_angle_beta     90
_cell_angle_gamma    90

_symmetry_space_group_name_H-M    "P 1"
_symmetry_int_tables_number       1

loop_
  _symmetry_equiv_pos_as_xyz
  'x, y, z'

loop_
  _atom_site_label
  _atom_site_occupancy
  _atom_site_fract_x
  _atom_site_fract_y
  _atom_site_fract_z
  _atom_site_thermal_displace_type
  _atom_site_B_iso_or_equiv
  _atom_site_type_symbol
  Hf1      1.0000 0.13662  0.04180  0.17206  Biso   1.000  Hf
  Hf2      1.0000 0.13467  0.45661  0.42349  Biso   1.000  Hf
  Hf3      1.0000 0.35263  0.54810  0.17626  Biso   1.000  Hf
  Hf4      1.0000 0.35684  0.95818  0.42337  Biso   1.000  Hf
  Hf5      1.0000 0.64383  0.07343  0.07462  Biso   1.000  Hf
  Hf6      1.0000 0.63673  0.45706  0.33390  Biso   1.000  Hf
  Hf7      1.0000 0.85976  0.53741  0.07778  Biso   1.000  Hf
  Hf8      1.0000 0.85784  0.95552  0.32910  Biso   1.000  Hf
  O1       1.0000 0.03309  0.32769  0.08438  Biso   1.000  O 
  O2       1.0000 0.03092  0.16426  0.33628  Biso   1.000  O 
  O3       1.0000 0.45811  0.85546  0.09134  Biso   1.000  O 
  O4       1.0000 0.46287  0.66774  0.33714  Biso   1.000  O 
  O5       1.0000 0.27185  0.24997  0.29675  Biso   1.000  O 
  O6       1.0000 0.27584  0.25286  0.04521  Biso   1.000  O 
  O7       1.0000 0.21821  0.75003  0.29769  Biso   1.000  O 
  O8       1.0000 0.21915  0.75214  0.04570  Biso   1.000  O 
  O9       1.0000 0.52286  0.32249  0.17418  Biso   1.000  O 
  O10      1.0000 0.53098  0.16846  0.41843  Biso   1.000  O 
  O11      1.0000 0.96254  0.83014  0.16778  Biso   1.000  O 
  O12      1.0000 0.96241  0.66364  0.41657  Biso   1.000  O 
  O13      1.0000 0.77361  0.24642  0.45693  Biso   1.000  O 
  O14      1.0000 0.77766  0.25310  0.21122  Biso   1.000  O 
  O15      1.0000 0.71950  0.74731  0.45653  Biso   1.000  O 
  O16      1.0000 0.71684  0.75351  0.20326  Biso   1.000  O 
  Hf9      1.0000 0.13727  0.04154  0.67147  Biso   1.000  Hf
  Hf10     1.0000 0.13301  0.45833  0.92207  Biso   1.000  Hf
  Hf11     1.0000 0.35818  0.54184  0.67315  Biso   1.000  Hf
  Hf12     1.0000 0.35239  0.96112  0.92157  Biso   1.000  Hf
  Hf13     1.0000 0.63687  0.04176  0.58055  Biso   1.000  Hf
  Hf14     1.0000 0.63562  0.45575  0.82825  Biso   1.000  Hf
  Hf15     1.0000 0.85827  0.54028  0.57966  Biso   1.000  Hf
  Hf16     1.0000 0.85822  0.95588  0.82740  Biso   1.000  Hf
  O17      1.0000 0.03070  0.33192  0.58567  Biso   1.000  O 
  O18      1.0000 0.03174  0.16659  0.83308  Biso   1.000  O 
  O19      1.0000 0.46199  0.83347  0.58634  Biso   1.000  O 
  O20      1.0000 0.46095  0.66511  0.83743  Biso   1.000  O 
  O21      1.0000 0.27321  0.24829  0.79568  Biso   1.000  O 
  O22      1.0000 0.27371  0.25133  0.54603  Biso   1.000  O 
  O23      1.0000 0.21859  0.74769  0.79564  Biso   1.000  O 
  O24      1.0000 0.22021  0.75052  0.54617  Biso   1.000  O 
  O25      1.0000 0.53010  0.33342  0.66561  Biso   1.000  O 
  O26      1.0000 0.53009  0.15759  0.91012  Biso   1.000  O 
  O27      1.0000 0.96335  0.83195  0.66447  Biso   1.000  O 
  O28      1.0000 0.96092  0.66836  0.91610  Biso   1.000  O 
  O29      1.0000 0.78365  0.24181  0.94884  Biso   1.000  O 
  O30      1.0000 0.77399  0.24931  0.70404  Biso   1.000  O 
  O31      1.0000 0.71453  0.75201  0.95725  Biso   1.000  O 
  O32      1.0000 0.72018  0.74998  0.70572  Biso   1.000  O 
  Co1      1.0000 0.59643  0.58342  0.07254  Biso   1.000  Co
