data_image0
_cell_length_a       9.99796
_cell_length_b       5.10513
_cell_length_c       9.99808
_cell_angle_alpha    90
_cell_angle_beta     90
_cell_angle_gamma    90

_symmetry_space_group_name_H-M    "P 1"
_symmetry_int_tables_number       1

loop_
  _symmetry_equiv_pos_as_xyz
  'x, y, z'

loop_
  _atom_site_label
  _atom_site_occupancy
  _atom_site_fract_x
  _atom_site_fract_y
  _atom_site_fract_z
  _atom_site_thermal_displace_type
  _atom_site_B_iso_or_equiv
  _atom_site_type_symbol
  Co1      1.0000 0.12157  0.07928  0.12239  Biso   1.000  Co
  Hf1      1.0000 0.07733  0.99931  0.63676  Biso   1.000  Hf
  Hf2      1.0000 0.60485  0.01821  0.13729  Biso   1.000  Hf
  Hf3      1.0000 0.58790  0.98401  0.62630  Biso   1.000  Hf
  Hf4      1.0000 0.09054  0.45559  0.38673  Biso   1.000  Hf
  Hf5      1.0000 0.07859  0.47142  0.88829  Biso   1.000  Hf
  Hf6      1.0000 0.59546  0.48413  0.38208  Biso   1.000  Hf
  Hf7      1.0000 0.58105  0.46606  0.87953  Biso   1.000  Hf
  Hf8      1.0000 0.35846  0.50024  0.12703  Biso   1.000  Hf
  Hf9      1.0000 0.33944  0.47572  0.62413  Biso   1.000  Hf
  Hf10     1.0000 0.85966  0.46483  0.14266  Biso   1.000  Hf
  Hf11     1.0000 0.83702  0.47446  0.63743  Biso   1.000  Hf
  Hf12     1.0000 0.35083  0.97907  0.36920  Biso   1.000  Hf
  Hf13     1.0000 0.34203  0.96594  0.86856  Biso   1.000  Hf
  Hf14     1.0000 0.86044  0.95669  0.37806  Biso   1.000  Hf
  Hf15     1.0000 0.84114  0.95942  0.88752  Biso   1.000  Hf
  O1       1.0000 0.01257  0.31736  0.02236  Biso   1.000  O 
  O2       1.0000 0.96064  0.25807  0.50756  Biso   1.000  O 
  O3       1.0000 0.50175  0.31445  0.00431  Biso   1.000  O 
  O4       1.0000 0.46605  0.27528  0.49796  Biso   1.000  O 
  O5       1.0000 0.98568  0.15351  0.25167  Biso   1.000  O 
  O6       1.0000 0.95791  0.19448  0.76595  Biso   1.000  O 
  O7       1.0000 0.47115  0.21397  0.25138  Biso   1.000  O 
  O8       1.0000 0.46027  0.18334  0.74898  Biso   1.000  O 
  O9       1.0000 0.97128  0.66315  0.27031  Biso   1.000  O 
  O10      1.0000 0.97132  0.69276  0.75833  Biso   1.000  O 
  O11      1.0000 0.48440  0.71225  0.24361  Biso   1.000  O 
  O12      1.0000 0.47432  0.67522  0.74054  Biso   1.000  O 
  O13      1.0000 0.05249  0.84184  0.00834  Biso   1.000  O 
  O14      1.0000 0.99001  0.75685  0.50971  Biso   1.000  O 
  O15      1.0000 0.48853  0.78177  0.98108  Biso   1.000  O 
  O16      1.0000 0.48724  0.78202  0.49032  Biso   1.000  O 
  O17      1.0000 0.21769  0.30916  0.23920  Biso   1.000  O 
  O18      1.0000 0.20724  0.28622  0.75010  Biso   1.000  O 
  O19      1.0000 0.72987  0.26730  0.26361  Biso   1.000  O 
  O20      1.0000 0.71208  0.26544  0.75804  Biso   1.000  O 
  O21      1.0000 0.24983  0.18909  0.00214  Biso   1.000  O 
  O22      1.0000 0.21051  0.16269  0.49833  Biso   1.000  O 
  O23      1.0000 0.75206  0.18101  0.01370  Biso   1.000  O 
  O24      1.0000 0.71660  0.18135  0.50649  Biso   1.000  O 
  O25      1.0000 0.24578  0.64204  0.95642  Biso   1.000  O 
  O26      1.0000 0.25103  0.65124  0.45634  Biso   1.000  O 
  O27      1.0000 0.74537  0.63144  0.97891  Biso   1.000  O 
  O28      1.0000 0.73763  0.67852  0.49149  Biso   1.000  O 
  O29      1.0000 0.23908  0.83439  0.20557  Biso   1.000  O 
  O30      1.0000 0.23604  0.79188  0.71418  Biso   1.000  O 
  O31      1.0000 0.73425  0.76709  0.23935  Biso   1.000  O 
  O32      1.0000 0.72588  0.77246  0.74260  Biso   1.000  O 
