data_image0
_cell_length_a       9.9329
_cell_length_b       5.18505
_cell_length_c       9.95825
_cell_angle_alpha    90
_cell_angle_beta     90
_cell_angle_gamma    90

_symmetry_space_group_name_H-M    "P 1"
_symmetry_int_tables_number       1

loop_
  _symmetry_equiv_pos_as_xyz
  'x, y, z'

loop_
  _atom_site_label
  _atom_site_occupancy
  _atom_site_fract_x
  _atom_site_fract_y
  _atom_site_fract_z
  _atom_site_thermal_displace_type
  _atom_site_B_iso_or_equiv
  _atom_site_type_symbol
  Co1      1.0000 0.12044  0.06607  0.10819  Biso   1.000  Co
  Hf1      1.0000 0.14564  0.99739  0.63113  Biso   1.000  Hf
  Hf2      1.0000 0.64025  0.03704  0.12663  Biso   1.000  Hf
  Hf3      1.0000 0.63316  0.98731  0.61538  Biso   1.000  Hf
  Hf4      1.0000 0.14091  0.41190  0.37272  Biso   1.000  Hf
  Hf5      1.0000 0.14173  0.42674  0.88623  Biso   1.000  Hf
  Hf6      1.0000 0.64281  0.44651  0.37862  Biso   1.000  Hf
  Hf7      1.0000 0.64606  0.41627  0.86656  Biso   1.000  Hf
  Hf8      1.0000 0.38885  0.52361  0.10826  Biso   1.000  Hf
  Hf9      1.0000 0.37089  0.50111  0.63049  Biso   1.000  Hf
  Hf10     1.0000 0.87122  0.53446  0.11943  Biso   1.000  Hf
  Hf11     1.0000 0.87988  0.48950  0.61795  Biso   1.000  Hf
  Hf12     1.0000 0.36640  0.91531  0.37152  Biso   1.000  Hf
  Hf13     1.0000 0.36450  0.92708  0.88605  Biso   1.000  Hf
  Hf14     1.0000 0.87531  0.94735  0.37149  Biso   1.000  Hf
  Hf15     1.0000 0.87215  0.91754  0.86772  Biso   1.000  Hf
  O1       1.0000 0.04116  0.35573  0.18305  Biso   1.000  O 
  O2       1.0000 0.04354  0.32679  0.70304  Biso   1.000  O 
  O3       1.0000 0.54228  0.36360  0.20271  Biso   1.000  O 
  O4       1.0000 0.54216  0.32604  0.69096  Biso   1.000  O 
  O5       1.0000 0.03582  0.10507  0.46067  Biso   1.000  O 
  O6       1.0000 0.04549  0.07374  0.94371  Biso   1.000  O 
  O7       1.0000 0.54219  0.10416  0.43550  Biso   1.000  O 
  O8       1.0000 0.53121  0.11450  0.96013  Biso   1.000  O 
  O9       1.0000 0.46924  0.86451  0.18825  Biso   1.000  O 
  O10      1.0000 0.46546  0.83808  0.70047  Biso   1.000  O 
  O11      1.0000 0.98182  0.86832  0.18382  Biso   1.000  O 
  O12      1.0000 0.97262  0.82397  0.69020  Biso   1.000  O 
  O13      1.0000 0.48048  0.61640  0.46092  Biso   1.000  O 
  O14      1.0000 0.47172  0.59719  0.92920  Biso   1.000  O 
  O15      1.0000 0.97052  0.59848  0.43192  Biso   1.000  O 
  O16      1.0000 0.96587  0.57788  0.93621  Biso   1.000  O 
  O17      1.0000 0.22233  0.08823  0.25801  Biso   1.000  O 
  O18      1.0000 0.27986  0.20427  0.75983  Biso   1.000  O 
  O19      1.0000 0.78188  0.22536  0.24617  Biso   1.000  O 
  O20      1.0000 0.77383  0.17992  0.74361  Biso   1.000  O 
  O21      1.0000 0.28196  0.22182  0.50036  Biso   1.000  O 
  O22      1.0000 0.25397  0.26963  0.01840  Biso   1.000  O 
  O23      1.0000 0.77468  0.23365  0.49616  Biso   1.000  O 
  O24      1.0000 0.77920  0.21070  0.99447  Biso   1.000  O 
  O25      1.0000 0.23086  0.72085  0.50444  Biso   1.000  O 
  O26      1.0000 0.22005  0.78587  0.01874  Biso   1.000  O 
  O27      1.0000 0.74372  0.73832  0.49472  Biso   1.000  O 
  O28      1.0000 0.73520  0.71238  0.99241  Biso   1.000  O 
  O29      1.0000 0.28065  0.59574  0.26833  Biso   1.000  O 
  O30      1.0000 0.23268  0.69929  0.75955  Biso   1.000  O 
  O31      1.0000 0.73780  0.72608  0.24433  Biso   1.000  O 
  O32      1.0000 0.73834  0.68208  0.74108  Biso   1.000  O 
