data_image0
_cell_length_a       4.95581
_cell_length_b       10.3583
_cell_length_c       9.96516
_cell_angle_alpha    90
_cell_angle_beta     90
_cell_angle_gamma    90

_symmetry_space_group_name_H-M    "P 1"
_symmetry_int_tables_number       1

loop_
  _symmetry_equiv_pos_as_xyz
  'x, y, z'

loop_
  _atom_site_label
  _atom_site_occupancy
  _atom_site_fract_x
  _atom_site_fract_y
  _atom_site_fract_z
  _atom_site_thermal_displace_type
  _atom_site_B_iso_or_equiv
  _atom_site_type_symbol
  Co1      1.0000 0.24826  0.03784  0.10525  Biso   1.000  Co
  Hf1      1.0000 0.28731  0.00826  0.62475  Biso   1.000  Hf
  Hf2      1.0000 0.26560  0.51352  0.12859  Biso   1.000  Hf
  Hf3      1.0000 0.28445  0.51082  0.62483  Biso   1.000  Hf
  Hf4      1.0000 0.28077  0.22215  0.37241  Biso   1.000  Hf
  Hf5      1.0000 0.28697  0.22795  0.87293  Biso   1.000  Hf
  Hf6      1.0000 0.28489  0.72939  0.37754  Biso   1.000  Hf
  Hf7      1.0000 0.28189  0.72741  0.88067  Biso   1.000  Hf
  Hf8      1.0000 0.72785  0.25997  0.12218  Biso   1.000  Hf
  Hf9      1.0000 0.74965  0.25882  0.62342  Biso   1.000  Hf
  Hf10     1.0000 0.74192  0.76183  0.12340  Biso   1.000  Hf
  Hf11     1.0000 0.74795  0.76210  0.62765  Biso   1.000  Hf
  Hf12     1.0000 0.74328  0.47634  0.37586  Biso   1.000  Hf
  Hf13     1.0000 0.75123  0.47749  0.87414  Biso   1.000  Hf
  Hf14     1.0000 0.73688  0.97871  0.36996  Biso   1.000  Hf
  Hf15     1.0000 0.72535  0.97508  0.88077  Biso   1.000  Hf
  O1       1.0000 0.07373  0.17726  0.18882  Biso   1.000  O 
  O2       1.0000 0.09086  0.17695  0.69540  Biso   1.000  O 
  O3       1.0000 0.07584  0.68259  0.19883  Biso   1.000  O 
  O4       1.0000 0.08557  0.67659  0.69807  Biso   1.000  O 
  O5       1.0000 0.09005  0.05993  0.44841  Biso   1.000  O 
  O6       1.0000 0.08568  0.05868  0.95317  Biso   1.000  O 
  O7       1.0000 0.08580  0.55883  0.44424  Biso   1.000  O 
  O8       1.0000 0.08779  0.55827  0.95036  Biso   1.000  O 
  O9       1.0000 0.93254  0.42469  0.19409  Biso   1.000  O 
  O10      1.0000 0.94408  0.42687  0.69302  Biso   1.000  O 
  O11      1.0000 0.97823  0.93820  0.18837  Biso   1.000  O 
  O12      1.0000 0.93497  0.92860  0.70017  Biso   1.000  O 
  O13      1.0000 0.94269  0.30750  0.44149  Biso   1.000  O 
  O14      1.0000 0.94186  0.30485  0.93981  Biso   1.000  O 
  O15      1.0000 0.94908  0.81422  0.45000  Biso   1.000  O 
  O16      1.0000 0.92928  0.80823  0.93860  Biso   1.000  O 
  O17      1.0000 0.52600  0.09845  0.23823  Biso   1.000  O 
  O18      1.0000 0.56180  0.11035  0.74931  Biso   1.000  O 
  O19      1.0000 0.54596  0.60346  0.24887  Biso   1.000  O 
  O20      1.0000 0.55453  0.61157  0.75179  Biso   1.000  O 
  O21      1.0000 0.56434  0.12598  0.49380  Biso   1.000  O 
  O22      1.0000 0.50492  0.13436  0.00012  Biso   1.000  O 
  O23      1.0000 0.55737  0.62689  0.50079  Biso   1.000  O 
  O24      1.0000 0.52231  0.63718  0.00111  Biso   1.000  O 
  O25      1.0000 0.47222  0.37452  0.49888  Biso   1.000  O 
  O26      1.0000 0.48342  0.37289  0.99798  Biso   1.000  O 
  O27      1.0000 0.47367  0.87796  0.50377  Biso   1.000  O 
  O28      1.0000 0.41906  0.89476  0.01380  Biso   1.000  O 
  O29      1.0000 0.46595  0.35691  0.24805  Biso   1.000  O 
  O30      1.0000 0.47589  0.36105  0.74829  Biso   1.000  O 
  O31      1.0000 0.52070  0.84503  0.26179  Biso   1.000  O 
  O32      1.0000 0.46592  0.86038  0.75479  Biso   1.000  O 
