data_image0
_cell_length_a       10.0757
_cell_length_b       5.0857
_cell_length_c       10.4573
_cell_angle_alpha    90
_cell_angle_beta     80
_cell_angle_gamma    90

_symmetry_space_group_name_H-M    "P 1"
_symmetry_int_tables_number       1

loop_
  _symmetry_equiv_pos_as_xyz
  'x, y, z'

loop_
  _atom_site_label
  _atom_site_occupancy
  _atom_site_fract_x
  _atom_site_fract_y
  _atom_site_fract_z
  _atom_site_thermal_displace_type
  _atom_site_B_iso_or_equiv
  _atom_site_type_symbol
  Co1      1.0000 0.11907  0.02154  0.17037  Biso   1.000  Co
  Hf1      1.0000 0.12833  0.03508  0.64500  Biso   1.000  Hf
  Hf2      1.0000 0.63375  0.04035  0.14483  Biso   1.000  Hf
  Hf3      1.0000 0.62762  0.03837  0.64978  Biso   1.000  Hf
  Hf4      1.0000 0.13453  0.45332  0.39153  Biso   1.000  Hf
  Hf5      1.0000 0.13239  0.44973  0.89652  Biso   1.000  Hf
  Hf6      1.0000 0.63390  0.45279  0.39625  Biso   1.000  Hf
  Hf7      1.0000 0.62688  0.45631  0.90127  Biso   1.000  Hf
  Hf8      1.0000 0.35466  0.55159  0.10059  Biso   1.000  Hf
  Hf9      1.0000 0.35533  0.54212  0.60480  Biso   1.000  Hf
  Hf10     1.0000 0.87107  0.52746  0.10737  Biso   1.000  Hf
  Hf11     1.0000 0.85383  0.53440  0.60814  Biso   1.000  Hf
  Hf12     1.0000 0.35962  0.95779  0.34995  Biso   1.000  Hf
  Hf13     1.0000 0.35340  0.96628  0.85893  Biso   1.000  Hf
  Hf14     1.0000 0.85791  0.94982  0.35760  Biso   1.000  Hf
  Hf15     1.0000 0.85739  0.94807  0.85965  Biso   1.000  Hf
  O1       1.0000 0.04862  0.29541  0.08523  Biso   1.000  O 
  O2       1.0000 0.02491  0.31488  0.57142  Biso   1.000  O 
  O3       1.0000 0.53433  0.33532  0.07789  Biso   1.000  O 
  O4       1.0000 0.52788  0.33050  0.57754  Biso   1.000  O 
  O5       1.0000 0.02936  0.15505  0.32418  Biso   1.000  O 
  O6       1.0000 0.02355  0.16418  0.82898  Biso   1.000  O 
  O7       1.0000 0.52880  0.16388  0.32773  Biso   1.000  O 
  O8       1.0000 0.52454  0.17045  0.82795  Biso   1.000  O 
  O9       1.0000 0.46788  0.82754  0.17422  Biso   1.000  O 
  O10      1.0000 0.46028  0.83075  0.67424  Biso   1.000  O 
  O11      1.0000 0.97764  0.82188  0.17626  Biso   1.000  O 
  O12      1.0000 0.96334  0.81422  0.67877  Biso   1.000  O 
  O13      1.0000 0.46168  0.66608  0.42164  Biso   1.000  O 
  O14      1.0000 0.45934  0.68321  0.92843  Biso   1.000  O 
  O15      1.0000 0.96075  0.65928  0.42478  Biso   1.000  O 
  O16      1.0000 0.95828  0.65516  0.93386  Biso   1.000  O 
  O17      1.0000 0.26205  0.24640  0.22933  Biso   1.000  O 
  O18      1.0000 0.26421  0.25080  0.73327  Biso   1.000  O 
  O19      1.0000 0.77403  0.24637  0.24115  Biso   1.000  O 
  O20      1.0000 0.76872  0.25071  0.74369  Biso   1.000  O 
  O21      1.0000 0.27067  0.24275  0.48480  Biso   1.000  O 
  O22      1.0000 0.28306  0.28663  0.97088  Biso   1.000  O 
  O23      1.0000 0.77006  0.23554  0.49224  Biso   1.000  O 
  O24      1.0000 0.76522  0.23536  0.99509  Biso   1.000  O 
  O25      1.0000 0.22520  0.80569  0.01716  Biso   1.000  O 
  O26      1.0000 0.21856  0.75316  0.50764  Biso   1.000  O 
  O27      1.0000 0.73340  0.75486  0.01304  Biso   1.000  O 
  O28      1.0000 0.71852  0.75049  0.51261  Biso   1.000  O 
  O29      1.0000 0.21406  0.74935  0.25746  Biso   1.000  O 
  O30      1.0000 0.21855  0.73671  0.76335  Biso   1.000  O 
  O31      1.0000 0.73077  0.73241  0.25970  Biso   1.000  O 
  O32      1.0000 0.71818  0.73892  0.76447  Biso   1.000  O 
