data_image0
_cell_length_a       9.90736
_cell_length_b       10.3633
_cell_length_c       4.98511
_cell_angle_alpha    90
_cell_angle_beta     90
_cell_angle_gamma    90

_symmetry_space_group_name_H-M    "P 1"
_symmetry_int_tables_number       1

loop_
  _symmetry_equiv_pos_as_xyz
  'x, y, z'

loop_
  _atom_site_label
  _atom_site_occupancy
  _atom_site_fract_x
  _atom_site_fract_y
  _atom_site_fract_z
  _atom_site_thermal_displace_type
  _atom_site_B_iso_or_equiv
  _atom_site_type_symbol
  Co1      1.0000 0.12707  0.03863  0.21195  Biso   1.000  Co
  Hf1      1.0000 0.13272  0.51312  0.25274  Biso   1.000  Hf
  Hf2      1.0000 0.63225  0.01361  0.24374  Biso   1.000  Hf
  Hf3      1.0000 0.63191  0.51727  0.25460  Biso   1.000  Hf
  Hf4      1.0000 0.13577  0.22756  0.74063  Biso   1.000  Hf
  Hf5      1.0000 0.13448  0.72846  0.76427  Biso   1.000  Hf
  Hf6      1.0000 0.63578  0.22854  0.74916  Biso   1.000  Hf
  Hf7      1.0000 0.63446  0.73265  0.75276  Biso   1.000  Hf
  Hf8      1.0000 0.36500  0.26180  0.24893  Biso   1.000  Hf
  Hf9      1.0000 0.36141  0.76585  0.26468  Biso   1.000  Hf
  Hf10     1.0000 0.86351  0.26444  0.24303  Biso   1.000  Hf
  Hf11     1.0000 0.87155  0.76732  0.24100  Biso   1.000  Hf
  Hf12     1.0000 0.36868  0.47985  0.75222  Biso   1.000  Hf
  Hf13     1.0000 0.35523  0.97680  0.76193  Biso   1.000  Hf
  Hf14     1.0000 0.86586  0.48037  0.74843  Biso   1.000  Hf
  Hf15     1.0000 0.86609  0.98335  0.73756  Biso   1.000  Hf
  O1       1.0000 0.03754  0.17979  0.37299  Biso   1.000  O 
  O2       1.0000 0.03529  0.68250  0.39368  Biso   1.000  O 
  O3       1.0000 0.53317  0.18066  0.39446  Biso   1.000  O 
  O4       1.0000 0.53281  0.68157  0.40025  Biso   1.000  O 
  O5       1.0000 0.04126  0.05945  0.90256  Biso   1.000  O 
  O6       1.0000 0.03535  0.55915  0.89730  Biso   1.000  O 
  O7       1.0000 0.53606  0.06446  0.89916  Biso   1.000  O 
  O8       1.0000 0.53959  0.56234  0.89143  Biso   1.000  O 
  O9       1.0000 0.46329  0.43021  0.38717  Biso   1.000  O 
  O10      1.0000 0.46694  0.92894  0.41167  Biso   1.000  O 
  O11      1.0000 0.96406  0.42829  0.38812  Biso   1.000  O 
  O12      1.0000 0.98492  0.94196  0.37572  Biso   1.000  O 
  O13      1.0000 0.46490  0.30967  0.88764  Biso   1.000  O 
  O14      1.0000 0.46589  0.81545  0.90845  Biso   1.000  O 
  O15      1.0000 0.96466  0.30800  0.87481  Biso   1.000  O 
  O16      1.0000 0.96240  0.81414  0.87525  Biso   1.000  O 
  O17      1.0000 0.25912  0.10095  0.48739  Biso   1.000  O 
  O18      1.0000 0.26722  0.60640  0.50370  Biso   1.000  O 
  O19      1.0000 0.77121  0.11408  0.48795  Biso   1.000  O 
  O20      1.0000 0.77105  0.61479  0.49939  Biso   1.000  O 
  O21      1.0000 0.25871  0.13330  0.00054  Biso   1.000  O 
  O22      1.0000 0.26578  0.63477  0.00492  Biso   1.000  O 
  O23      1.0000 0.77619  0.12756  0.98685  Biso   1.000  O 
  O24      1.0000 0.76499  0.63672  0.00117  Biso   1.000  O 
  O25      1.0000 0.23205  0.37632  0.99558  Biso   1.000  O 
  O26      1.0000 0.21460  0.89419  0.04579  Biso   1.000  O 
  O27      1.0000 0.73296  0.37724  0.99836  Biso   1.000  O 
  O28      1.0000 0.73232  0.88060  0.98902  Biso   1.000  O 
  O29      1.0000 0.23141  0.35969  0.49679  Biso   1.000  O 
  O30      1.0000 0.24451  0.84684  0.54580  Biso   1.000  O 
  O31      1.0000 0.72827  0.36448  0.49647  Biso   1.000  O 
  O32      1.0000 0.73876  0.86453  0.48854  Biso   1.000  O 
