data_image0
_cell_length_a       5.02477
_cell_length_b       10.2338
_cell_length_c       10.3865
_cell_angle_alpha    90
_cell_angle_beta     80
_cell_angle_gamma    90

_symmetry_space_group_name_H-M    "P 1"
_symmetry_int_tables_number       1

loop_
  _symmetry_equiv_pos_as_xyz
  'x, y, z'

loop_
  _atom_site_label
  _atom_site_occupancy
  _atom_site_fract_x
  _atom_site_fract_y
  _atom_site_fract_z
  _atom_site_thermal_displace_type
  _atom_site_B_iso_or_equiv
  _atom_site_type_symbol
  Cr1      1.0000 0.26754  0.02510  0.14935  Biso   1.000  Cr
  Hf1      1.0000 0.27539  0.22757  0.39280  Biso   1.000  Hf
  Hf2      1.0000 0.72301  0.26715  0.10598  Biso   1.000  Hf
  Hf3      1.0000 0.72069  0.47930  0.35415  Biso   1.000  Hf
  O1       1.0000 0.07906  0.16214  0.08536  Biso   1.000  O 
  O2       1.0000 0.07762  0.07938  0.31806  Biso   1.000  O 
  O3       1.0000 0.92911  0.41911  0.16847  Biso   1.000  O 
  O4       1.0000 0.92284  0.32806  0.41772  Biso   1.000  O 
  O5       1.0000 0.54197  0.12376  0.23632  Biso   1.000  O 
  O6       1.0000 0.55217  0.12073  0.48831  Biso   1.000  O 
  O7       1.0000 0.44818  0.37885  0.01051  Biso   1.000  O 
  O8       1.0000 0.44800  0.36941  0.25903  Biso   1.000  O 
  Hf4      1.0000 0.26807  0.02055  0.64640  Biso   1.000  Hf
  Hf5      1.0000 0.26865  0.22603  0.89921  Biso   1.000  Hf
  Hf6      1.0000 0.71487  0.27130  0.60444  Biso   1.000  Hf
  Hf7      1.0000 0.71318  0.47822  0.85698  Biso   1.000  Hf
  O9       1.0000 0.06456  0.16683  0.57655  Biso   1.000  O 
  O10      1.0000 0.05862  0.08036  0.83155  Biso   1.000  O 
  O11      1.0000 0.92156  0.41908  0.67051  Biso   1.000  O 
  O12      1.0000 0.91595  0.32564  0.92219  Biso   1.000  O 
  O13      1.0000 0.54428  0.12895  0.74230  Biso   1.000  O 
  O14      1.0000 0.53322  0.11785  0.99821  Biso   1.000  O 
  O15      1.0000 0.44055  0.37874  0.50955  Biso   1.000  O 
  O16      1.0000 0.43787  0.36999  0.76125  Biso   1.000  O 
  Hf8      1.0000 0.27862  0.52262  0.14611  Biso   1.000  Hf
  Hf9      1.0000 0.27800  0.73077  0.39504  Biso   1.000  Hf
  Hf10     1.0000 0.72216  0.77816  0.10502  Biso   1.000  Hf
  Hf11     1.0000 0.72295  0.97965  0.35000  Biso   1.000  Hf
  O17      1.0000 0.07084  0.67137  0.08319  Biso   1.000  O 
  O18      1.0000 0.07421  0.57844  0.33293  Biso   1.000  O 
  O19      1.0000 0.95616  0.92453  0.16423  Biso   1.000  O 
  O20      1.0000 0.92499  0.83026  0.41694  Biso   1.000  O 
  O21      1.0000 0.55515  0.63186  0.24138  Biso   1.000  O 
  O22      1.0000 0.55162  0.62087  0.49172  Biso   1.000  O 
  O23      1.0000 0.43689  0.88603  0.01413  Biso   1.000  O 
  O24      1.0000 0.45011  0.87573  0.25654  Biso   1.000  O 
  Hf12     1.0000 0.27285  0.52153  0.64733  Biso   1.000  Hf
  Hf13     1.0000 0.26751  0.73033  0.89961  Biso   1.000  Hf
  Hf14     1.0000 0.71693  0.77130  0.60502  Biso   1.000  Hf
  Hf15     1.0000 0.70814  0.97939  0.85758  Biso   1.000  Hf
  O25      1.0000 0.06958  0.67118  0.58174  Biso   1.000  O 
  O26      1.0000 0.06582  0.57886  0.83419  Biso   1.000  O 
  O27      1.0000 0.91995  0.92037  0.66974  Biso   1.000  O 
  O28      1.0000 0.91148  0.82902  0.91937  Biso   1.000  O 
  O29      1.0000 0.54823  0.62921  0.74304  Biso   1.000  O 
  O30      1.0000 0.54515  0.62321  0.99342  Biso   1.000  O 
  O31      1.0000 0.44276  0.87949  0.50883  Biso   1.000  O 
  O32      1.0000 0.43687  0.87077  0.76097  Biso   1.000  O 
