data_image0
_cell_length_a       10.0538
_cell_length_b       5.11408
_cell_length_c       10.3928
_cell_angle_alpha    90
_cell_angle_beta     80
_cell_angle_gamma    90

_symmetry_space_group_name_H-M    "P 1"
_symmetry_int_tables_number       1

loop_
  _symmetry_equiv_pos_as_xyz
  'x, y, z'

loop_
  _atom_site_label
  _atom_site_occupancy
  _atom_site_fract_x
  _atom_site_fract_y
  _atom_site_fract_z
  _atom_site_thermal_displace_type
  _atom_site_B_iso_or_equiv
  _atom_site_type_symbol
  Cr1      1.0000 0.13222  0.04924  0.14969  Biso   1.000  Cr
  Hf1      1.0000 0.13811  0.45886  0.39229  Biso   1.000  Hf
  Hf2      1.0000 0.35435  0.54680  0.10596  Biso   1.000  Hf
  Hf3      1.0000 0.35781  0.95873  0.35155  Biso   1.000  Hf
  O1       1.0000 0.03923  0.32023  0.08420  Biso   1.000  O 
  O2       1.0000 0.03903  0.16000  0.31863  Biso   1.000  O 
  O3       1.0000 0.46482  0.83814  0.16873  Biso   1.000  O 
  O4       1.0000 0.46218  0.66098  0.41818  Biso   1.000  O 
  O5       1.0000 0.27026  0.25168  0.23718  Biso   1.000  O 
  O6       1.0000 0.27514  0.24431  0.48985  Biso   1.000  O 
  O7       1.0000 0.21700  0.77042  0.01451  Biso   1.000  O 
  O8       1.0000 0.22003  0.74647  0.25777  Biso   1.000  O 
  Hf4      1.0000 0.13582  0.04366  0.64616  Biso   1.000  Hf
  Hf5      1.0000 0.13592  0.45613  0.89931  Biso   1.000  Hf
  Hf6      1.0000 0.35838  0.54511  0.60464  Biso   1.000  Hf
  Hf7      1.0000 0.35310  0.95896  0.85893  Biso   1.000  Hf
  O9       1.0000 0.03100  0.33027  0.57520  Biso   1.000  O 
  O10      1.0000 0.03071  0.16560  0.83008  Biso   1.000  O 
  O11      1.0000 0.45880  0.84437  0.66995  Biso   1.000  O 
  O12      1.0000 0.45260  0.65237  0.91913  Biso   1.000  O 
  O13      1.0000 0.27363  0.25941  0.74277  Biso   1.000  O 
  O14      1.0000 0.26623  0.23802  0.99865  Biso   1.000  O 
  O15      1.0000 0.22010  0.75854  0.50874  Biso   1.000  O 
  O16      1.0000 0.21848  0.74159  0.76111  Biso   1.000  O 
  Hf8      1.0000 0.63742  0.04595  0.14551  Biso   1.000  Hf
  Hf9      1.0000 0.63782  0.45896  0.39559  Biso   1.000  Hf
  Hf10     1.0000 0.86668  0.54256  0.10480  Biso   1.000  Hf
  Hf11     1.0000 0.86256  0.96047  0.35265  Biso   1.000  Hf
  O17      1.0000 0.53450  0.34392  0.08272  Biso   1.000  O 
  O18      1.0000 0.53489  0.16011  0.33143  Biso   1.000  O 
  O19      1.0000 0.98077  0.84092  0.16602  Biso   1.000  O 
  O20      1.0000 0.96197  0.66000  0.41785  Biso   1.000  O 
  O21      1.0000 0.77750  0.25833  0.24042  Biso   1.000  O 
  O22      1.0000 0.77585  0.24050  0.49021  Biso   1.000  O 
  O23      1.0000 0.72473  0.75903  0.01008  Biso   1.000  O 
  O24      1.0000 0.73053  0.74340  0.25766  Biso   1.000  O 
  Hf12     1.0000 0.63425  0.04191  0.64750  Biso   1.000  Hf
  Hf13     1.0000 0.63222  0.45825  0.89866  Biso   1.000  Hf
  Hf14     1.0000 0.85735  0.54192  0.60464  Biso   1.000  Hf
  Hf15     1.0000 0.85721  0.95747  0.85587  Biso   1.000  Hf
  O25      1.0000 0.53506  0.34482  0.58224  Biso   1.000  O 
  O26      1.0000 0.53111  0.15537  0.83507  Biso   1.000  O 
  O27      1.0000 0.96203  0.83420  0.67127  Biso   1.000  O 
  O28      1.0000 0.96077  0.65925  0.92299  Biso   1.000  O 
  O29      1.0000 0.77229  0.25818  0.74234  Biso   1.000  O 
  O30      1.0000 0.77290  0.24550  0.99264  Biso   1.000  O 
  O31      1.0000 0.72112  0.75916  0.50965  Biso   1.000  O 
  O32      1.0000 0.71862  0.74188  0.76097  Biso   1.000  O 
