data_image0
_cell_length_a       9.90918
_cell_length_b       10.3685
_cell_length_c       4.98431
_cell_angle_alpha    90
_cell_angle_beta     90
_cell_angle_gamma    90

_symmetry_space_group_name_H-M    "P 1"
_symmetry_int_tables_number       1

loop_
  _symmetry_equiv_pos_as_xyz
  'x, y, z'

loop_
  _atom_site_label
  _atom_site_occupancy
  _atom_site_fract_x
  _atom_site_fract_y
  _atom_site_fract_z
  _atom_site_thermal_displace_type
  _atom_site_B_iso_or_equiv
  _atom_site_type_symbol
  Cr1      1.0000 0.12482  0.03046  0.22825  Biso   1.000  Cr
  Hf1      1.0000 0.13416  0.22924  0.74308  Biso   1.000  Hf
  Hf2      1.0000 0.36450  0.26198  0.24455  Biso   1.000  Hf
  Hf3      1.0000 0.36760  0.48024  0.75087  Biso   1.000  Hf
  O1       1.0000 0.03319  0.17873  0.38752  Biso   1.000  O 
  O2       1.0000 0.03911  0.06308  0.91280  Biso   1.000  O 
  O3       1.0000 0.46257  0.43116  0.38469  Biso   1.000  O 
  O4       1.0000 0.46508  0.31206  0.88700  Biso   1.000  O 
  O5       1.0000 0.25753  0.10249  0.47580  Biso   1.000  O 
  O6       1.0000 0.26991  0.12923  0.98727  Biso   1.000  O 
  O7       1.0000 0.23040  0.37805  0.99551  Biso   1.000  O 
  O8       1.0000 0.23092  0.36001  0.49596  Biso   1.000  O 
  Hf4      1.0000 0.13312  0.51367  0.25230  Biso   1.000  Hf
  Hf5      1.0000 0.13455  0.73000  0.76271  Biso   1.000  Hf
  Hf6      1.0000 0.36145  0.76642  0.26150  Biso   1.000  Hf
  Hf7      1.0000 0.35584  0.97786  0.75873  Biso   1.000  Hf
  O9       1.0000 0.03561  0.68290  0.39179  Biso   1.000  O 
  O10      1.0000 0.03426  0.56136  0.89637  Biso   1.000  O 
  O11      1.0000 0.46627  0.92991  0.40655  Biso   1.000  O 
  O12      1.0000 0.46398  0.81590  0.90321  Biso   1.000  O 
  O13      1.0000 0.26758  0.60903  0.50300  Biso   1.000  O 
  O14      1.0000 0.26828  0.63341  0.00364  Biso   1.000  O 
  O15      1.0000 0.21734  0.89009  0.03575  Biso   1.000  O 
  O16      1.0000 0.23983  0.85195  0.53448  Biso   1.000  O 
  Hf8      1.0000 0.63202  0.01398  0.24541  Biso   1.000  Hf
  Hf9      1.0000 0.63441  0.22911  0.74948  Biso   1.000  Hf
  Hf10     1.0000 0.86420  0.26512  0.24712  Biso   1.000  Hf
  Hf11     1.0000 0.86513  0.48091  0.74977  Biso   1.000  Hf
  O17      1.0000 0.53292  0.18112  0.39210  Biso   1.000  O 
  O18      1.0000 0.53579  0.06401  0.89437  Biso   1.000  O 
  O19      1.0000 0.96435  0.42977  0.39100  Biso   1.000  O 
  O20      1.0000 0.96467  0.31077  0.88406  Biso   1.000  O 
  O21      1.0000 0.77067  0.11352  0.49104  Biso   1.000  O 
  O22      1.0000 0.77436  0.12843  0.99058  Biso   1.000  O 
  O23      1.0000 0.73094  0.37857  0.99827  Biso   1.000  O 
  O24      1.0000 0.72804  0.36470  0.49715  Biso   1.000  O 
  Hf12     1.0000 0.63171  0.51667  0.25243  Biso   1.000  Hf
  Hf13     1.0000 0.63302  0.73337  0.75017  Biso   1.000  Hf
  Hf14     1.0000 0.87009  0.76506  0.24216  Biso   1.000  Hf
  Hf15     1.0000 0.86569  0.98376  0.74490  Biso   1.000  Hf
  O25      1.0000 0.53381  0.68258  0.39513  Biso   1.000  O 
  O26      1.0000 0.53819  0.56363  0.88771  Biso   1.000  O 
  O27      1.0000 0.98534  0.93904  0.37718  Biso   1.000  O 
  O28      1.0000 0.96162  0.81443  0.87615  Biso   1.000  O 
  O29      1.0000 0.77072  0.61506  0.49786  Biso   1.000  O 
  O30      1.0000 0.77089  0.63128  0.99916  Biso   1.000  O 
  O31      1.0000 0.73124  0.88140  0.99168  Biso   1.000  O 
  O32      1.0000 0.73902  0.86527  0.49105  Biso   1.000  O 
