data_image0
_cell_length_a       10.0779
_cell_length_b       10.2568
_cell_length_c       10.4134
_cell_angle_alpha    90
_cell_angle_beta     80
_cell_angle_gamma    90

_symmetry_space_group_name_H-M    "P 1"
_symmetry_int_tables_number       1

loop_
  _symmetry_equiv_pos_as_xyz
  'x, y, z'

loop_
  _atom_site_label
  _atom_site_occupancy
  _atom_site_fract_x
  _atom_site_fract_y
  _atom_site_fract_z
  _atom_site_thermal_displace_type
  _atom_site_B_iso_or_equiv
  _atom_site_type_symbol
  Cr1      1.0000 0.13340  0.02499  0.14956  Biso   1.000  Cr
  Hf1      1.0000 0.13732  0.22827  0.39347  Biso   1.000  Hf
  Hf2      1.0000 0.35872  0.26927  0.10494  Biso   1.000  Hf
  Hf3      1.0000 0.35997  0.47933  0.35455  Biso   1.000  Hf
  O1       1.0000 0.03877  0.16131  0.08403  Biso   1.000  O 
  O2       1.0000 0.03933  0.08016  0.31821  Biso   1.000  O 
  O3       1.0000 0.46245  0.42035  0.16859  Biso   1.000  O 
  O4       1.0000 0.46130  0.33002  0.41960  Biso   1.000  O 
  O5       1.0000 0.27055  0.12463  0.23704  Biso   1.000  O 
  O6       1.0000 0.27428  0.12172  0.49004  Biso   1.000  O 
  O7       1.0000 0.22271  0.37886  0.01010  Biso   1.000  O 
  O8       1.0000 0.22281  0.37031  0.25967  Biso   1.000  O 
  Hf4      1.0000 0.13490  0.02149  0.64614  Biso   1.000  Hf
  Hf5      1.0000 0.13399  0.22608  0.89909  Biso   1.000  Hf
  Hf6      1.0000 0.35719  0.27197  0.60514  Biso   1.000  Hf
  Hf7      1.0000 0.35509  0.47891  0.85559  Biso   1.000  Hf
  O9       1.0000 0.03094  0.16580  0.57576  Biso   1.000  O 
  O10      1.0000 0.02960  0.08207  0.82936  Biso   1.000  O 
  O11      1.0000 0.45920  0.42144  0.66942  Biso   1.000  O 
  O12      1.0000 0.45551  0.32727  0.91919  Biso   1.000  O 
  O13      1.0000 0.27249  0.12923  0.74290  Biso   1.000  O 
  O14      1.0000 0.26553  0.11761  0.99877  Biso   1.000  O 
  O15      1.0000 0.21971  0.37913  0.50956  Biso   1.000  O 
  O16      1.0000 0.21827  0.37017  0.76082  Biso   1.000  O 
  Hf8      1.0000 0.13927  0.52158  0.14637  Biso   1.000  Hf
  Hf9      1.0000 0.13717  0.73000  0.39522  Biso   1.000  Hf
  Hf10     1.0000 0.35624  0.77581  0.10519  Biso   1.000  Hf
  Hf11     1.0000 0.35705  0.97876  0.35203  Biso   1.000  Hf
  O17      1.0000 0.03646  0.66959  0.08160  Biso   1.000  O 
  O18      1.0000 0.03483  0.57980  0.33153  Biso   1.000  O 
  O19      1.0000 0.46466  0.91938  0.16945  Biso   1.000  O 
  O20      1.0000 0.46183  0.83025  0.41813  Biso   1.000  O 
  O21      1.0000 0.27575  0.63097  0.24147  Biso   1.000  O 
  O22      1.0000 0.27456  0.62130  0.49125  Biso   1.000  O 
  O23      1.0000 0.21781  0.88522  0.01329  Biso   1.000  O 
  O24      1.0000 0.21813  0.87439  0.25741  Biso   1.000  O 
  Hf12     1.0000 0.13556  0.52182  0.64667  Biso   1.000  Hf
  Hf13     1.0000 0.13426  0.73055  0.89757  Biso   1.000  Hf
  Hf14     1.0000 0.35833  0.77202  0.60450  Biso   1.000  Hf
  Hf15     1.0000 0.35354  0.97935  0.85805  Biso   1.000  Hf
  O25      1.0000 0.03278  0.66996  0.58108  Biso   1.000  O 
  O26      1.0000 0.03190  0.58053  0.83259  Biso   1.000  O 
  O27      1.0000 0.45895  0.92109  0.67024  Biso   1.000  O 
  O28      1.0000 0.45503  0.82934  0.92008  Biso   1.000  O 
  O29      1.0000 0.27296  0.62984  0.74168  Biso   1.000  O 
  O30      1.0000 0.27079  0.62221  0.99218  Biso   1.000  O 
  O31      1.0000 0.22040  0.87951  0.50908  Biso   1.000  O 
  O32      1.0000 0.21840  0.87141  0.76040  Biso   1.000  O 
  Hf16     1.0000 0.63788  0.02202  0.14580  Biso   1.000  Hf
  Hf17     1.0000 0.63652  0.22839  0.39600  Biso   1.000  Hf
  Hf18     1.0000 0.86272  0.26964  0.10549  Biso   1.000  Hf
  Hf19     1.0000 0.85901  0.47901  0.35420  Biso   1.000  Hf
  O33      1.0000 0.53596  0.17098  0.08182  Biso   1.000  O 
  O34      1.0000 0.53320  0.08057  0.33069  Biso   1.000  O 
  O35      1.0000 0.96465  0.41873  0.16957  Biso   1.000  O 
  O36      1.0000 0.96116  0.32890  0.41823  Biso   1.000  O 
  O37      1.0000 0.77582  0.12874  0.24086  Biso   1.000  O 
  O38      1.0000 0.77516  0.12028  0.48985  Biso   1.000  O 
  O39      1.0000 0.72432  0.37906  0.00984  Biso   1.000  O 
  O40      1.0000 0.72258  0.37032  0.25919  Biso   1.000  O 
  Hf20     1.0000 0.63384  0.02088  0.64682  Biso   1.000  Hf
  Hf21     1.0000 0.63299  0.22912  0.89694  Biso   1.000  Hf
  Hf22     1.0000 0.85728  0.27127  0.60425  Biso   1.000  Hf
  Hf23     1.0000 0.85678  0.47851  0.85637  Biso   1.000  Hf
  O41      1.0000 0.53345  0.17121  0.58216  Biso   1.000  O 
  O42      1.0000 0.53041  0.07900  0.83378  Biso   1.000  O 
  O43      1.0000 0.96088  0.41808  0.67115  Biso   1.000  O 
  O44      1.0000 0.95986  0.32897  0.92319  Biso   1.000  O 
  O45      1.0000 0.77147  0.12944  0.74116  Biso   1.000  O 
  O46      1.0000 0.77096  0.12151  0.99174  Biso   1.000  O 
  O47      1.0000 0.72042  0.37936  0.51004  Biso   1.000  O 
  O48      1.0000 0.71872  0.37122  0.76063  Biso   1.000  O 
  Hf24     1.0000 0.63779  0.52259  0.14572  Biso   1.000  Hf
  Hf25     1.0000 0.63791  0.72998  0.39596  Biso   1.000  Hf
  Hf26     1.0000 0.86473  0.77374  0.10384  Biso   1.000  Hf
  Hf27     1.0000 0.86288  0.98013  0.35222  Biso   1.000  Hf
  O49      1.0000 0.53448  0.67134  0.08197  Biso   1.000  O 
  O50      1.0000 0.53595  0.57944  0.33222  Biso   1.000  O 
  O51      1.0000 0.97685  0.92408  0.16524  Biso   1.000  O 
  O52      1.0000 0.96188  0.83111  0.41896  Biso   1.000  O 
  O53      1.0000 0.77664  0.63044  0.24069  Biso   1.000  O 
  O54      1.0000 0.77459  0.62103  0.49143  Biso   1.000  O 
  O55      1.0000 0.72367  0.87958  0.00964  Biso   1.000  O 
  O56      1.0000 0.72919  0.87272  0.25815  Biso   1.000  O 
  Hf28     1.0000 0.63535  0.52169  0.64708  Biso   1.000  Hf
  Hf29     1.0000 0.63228  0.72891  0.89860  Biso   1.000  Hf
  Hf30     1.0000 0.85719  0.77135  0.60512  Biso   1.000  Hf
  Hf31     1.0000 0.85562  0.97921  0.85469  Biso   1.000  Hf
  O57      1.0000 0.53419  0.67156  0.58172  Biso   1.000  O 
  O58      1.0000 0.53151  0.57898  0.83301  Biso   1.000  O 
  O59      1.0000 0.96028  0.91958  0.66980  Biso   1.000  O 
  O60      1.0000 0.95831  0.83054  0.91972  Biso   1.000  O 
  O61      1.0000 0.77284  0.62911  0.74261  Biso   1.000  O 
  O62      1.0000 0.77196  0.62243  0.99276  Biso   1.000  O 
  O63      1.0000 0.72066  0.87965  0.50939  Biso   1.000  O 
  O64      1.0000 0.71808  0.87077  0.76048  Biso   1.000  O 
