data_image0
_cell_length_a       4.95735
_cell_length_b       10.375
_cell_length_c       9.96616
_cell_angle_alpha    90
_cell_angle_beta     90
_cell_angle_gamma    90

_symmetry_space_group_name_H-M    "P 1"
_symmetry_int_tables_number       1

loop_
  _symmetry_equiv_pos_as_xyz
  'x, y, z'

loop_
  _atom_site_label
  _atom_site_occupancy
  _atom_site_fract_x
  _atom_site_fract_y
  _atom_site_fract_z
  _atom_site_thermal_displace_type
  _atom_site_B_iso_or_equiv
  _atom_site_type_symbol
  Cr1      1.0000 0.24439  0.03177  0.11386  Biso   1.000  Cr
  Hf1      1.0000 0.27040  0.22389  0.37268  Biso   1.000  Hf
  Hf2      1.0000 0.72636  0.26113  0.12115  Biso   1.000  Hf
  Hf3      1.0000 0.73659  0.47669  0.37576  Biso   1.000  Hf
  O1       1.0000 0.06177  0.17742  0.19384  Biso   1.000  O 
  O2       1.0000 0.08142  0.05986  0.44711  Biso   1.000  O 
  O3       1.0000 0.92784  0.42699  0.19419  Biso   1.000  O 
  O4       1.0000 0.93606  0.30886  0.44317  Biso   1.000  O 
  O5       1.0000 0.51764  0.09675  0.23564  Biso   1.000  O 
  O6       1.0000 0.55575  0.12632  0.49227  Biso   1.000  O 
  O7       1.0000 0.46443  0.37525  0.49866  Biso   1.000  O 
  O8       1.0000 0.46123  0.35599  0.24766  Biso   1.000  O 
  Hf4      1.0000 0.27682  0.00865  0.62487  Biso   1.000  Hf
  Hf5      1.0000 0.27824  0.22720  0.87293  Biso   1.000  Hf
  Hf6      1.0000 0.74037  0.25915  0.62357  Biso   1.000  Hf
  Hf7      1.0000 0.74102  0.47689  0.87409  Biso   1.000  Hf
  O9       1.0000 0.08141  0.17712  0.69480  Biso   1.000  O 
  O10      1.0000 0.07941  0.06023  0.95519  Biso   1.000  O 
  O11      1.0000 0.93559  0.42707  0.69308  Biso   1.000  O 
  O12      1.0000 0.93619  0.30715  0.94159  Biso   1.000  O 
  O13      1.0000 0.55221  0.10985  0.74738  Biso   1.000  O 
  O14      1.0000 0.54095  0.12426  0.99636  Biso   1.000  O 
  O15      1.0000 0.47106  0.37371  0.99762  Biso   1.000  O 
  O16      1.0000 0.46718  0.36090  0.74812  Biso   1.000  O 
  Hf8      1.0000 0.26198  0.51287  0.12714  Biso   1.000  Hf
  Hf9      1.0000 0.27769  0.72890  0.37713  Biso   1.000  Hf
  Hf10     1.0000 0.73535  0.75984  0.12220  Biso   1.000  Hf
  Hf11     1.0000 0.72860  0.97829  0.37242  Biso   1.000  Hf
  O17      1.0000 0.07294  0.68298  0.19763  Biso   1.000  O 
  O18      1.0000 0.07852  0.55947  0.44406  Biso   1.000  O 
  O19      1.0000 0.97849  0.93682  0.18751  Biso   1.000  O 
  O20      1.0000 0.94210  0.81486  0.44955  Biso   1.000  O 
  O21      1.0000 0.54003  0.60365  0.24860  Biso   1.000  O 
  O22      1.0000 0.55030  0.62736  0.50049  Biso   1.000  O 
  O23      1.0000 0.46652  0.87831  0.50355  Biso   1.000  O 
  O24      1.0000 0.51462  0.84554  0.26117  Biso   1.000  O 
  Hf12     1.0000 0.27597  0.51102  0.62490  Biso   1.000  Hf
  Hf13     1.0000 0.27304  0.72804  0.88010  Biso   1.000  Hf
  Hf14     1.0000 0.74013  0.76224  0.62808  Biso   1.000  Hf
  Hf15     1.0000 0.71966  0.97566  0.88140  Biso   1.000  Hf
  O25      1.0000 0.07834  0.67724  0.69692  Biso   1.000  O 
  O26      1.0000 0.07635  0.55934  0.94901  Biso   1.000  O 
  O27      1.0000 0.92882  0.92869  0.70053  Biso   1.000  O 
  O28      1.0000 0.92222  0.80827  0.93985  Biso   1.000  O 
  O29      1.0000 0.54673  0.61181  0.75131  Biso   1.000  O 
  O30      1.0000 0.52547  0.63493  0.00037  Biso   1.000  O 
  O31      1.0000 0.43044  0.89094  0.01319  Biso   1.000  O 
  O32      1.0000 0.45920  0.86115  0.75469  Biso   1.000  O 
