data_image0
_cell_length_a       9.99896
_cell_length_b       10.1849
_cell_length_c       9.99895
_cell_angle_alpha    90
_cell_angle_beta     90
_cell_angle_gamma    90

_symmetry_space_group_name_H-M    "P 1"
_symmetry_int_tables_number       1

loop_
  _symmetry_equiv_pos_as_xyz
  'x, y, z'

loop_
  _atom_site_label
  _atom_site_occupancy
  _atom_site_fract_x
  _atom_site_fract_y
  _atom_site_fract_z
  _atom_site_thermal_displace_type
  _atom_site_B_iso_or_equiv
  _atom_site_type_symbol
  Cr1      1.0000 0.12491  0.00004  0.12491  Biso   1.000  Cr
  Hf1      1.0000 0.12834  0.25192  0.37487  Biso   1.000  Hf
  Hf2      1.0000 0.37487  0.25192  0.12834  Biso   1.000  Hf
  Hf3      1.0000 0.37253  0.00256  0.37253  Biso   1.000  Hf
  O1       1.0000 0.98182  0.15414  0.98181  Biso   1.000  O 
  O2       1.0000 0.01625  0.09276  0.23357  Biso   1.000  O 
  O3       1.0000 0.00082  0.34792  0.24899  Biso   1.000  O 
  O4       1.0000 0.99975  0.40115  0.99974  Biso   1.000  O 
  O5       1.0000 0.26800  0.15414  0.26801  Biso   1.000  O 
  O6       1.0000 0.23357  0.09276  0.01625  Biso   1.000  O 
  O7       1.0000 0.24899  0.34792  0.00083  Biso   1.000  O 
  O8       1.0000 0.25008  0.40115  0.25008  Biso   1.000  O 
  Hf4      1.0000 0.12491  0.00005  0.62491  Biso   1.000  Hf
  Hf5      1.0000 0.12149  0.25192  0.87495  Biso   1.000  Hf
  Hf6      1.0000 0.37446  0.24787  0.62719  Biso   1.000  Hf
  Hf7      1.0000 0.37253  0.99755  0.87730  Biso   1.000  Hf
  O9       1.0000 0.99284  0.14597  0.48447  Biso   1.000  O 
  O10      1.0000 0.00156  0.10484  0.73972  Biso   1.000  O 
  O11      1.0000 0.99751  0.35414  0.74946  Biso   1.000  O 
  O12      1.0000 0.00190  0.39610  0.49969  Biso   1.000  O 
  O13      1.0000 0.25699  0.14598  0.76535  Biso   1.000  O 
  O14      1.0000 0.24827  0.10485  0.51010  Biso   1.000  O 
  O15      1.0000 0.25232  0.35414  0.50036  Biso   1.000  O 
  O16      1.0000 0.24793  0.39610  0.75013  Biso   1.000  O 
  Hf8      1.0000 0.12491  0.50006  0.12491  Biso   1.000  Hf
  Hf9      1.0000 0.12148  0.74819  0.37487  Biso   1.000  Hf
  Hf10     1.0000 0.37487  0.74818  0.12148  Biso   1.000  Hf
  Hf11     1.0000 0.37700  0.50104  0.37700  Biso   1.000  Hf
  O17      1.0000 0.00083  0.65219  0.00083  Biso   1.000  O 
  O18      1.0000 0.99974  0.59896  0.25008  Biso   1.000  O 
  O19      1.0000 0.98183  0.84597  0.26799  Biso   1.000  O 
  O20      1.0000 0.01624  0.90735  0.01624  Biso   1.000  O 
  O21      1.0000 0.24899  0.65219  0.24899  Biso   1.000  O 
  O22      1.0000 0.25009  0.59896  0.99974  Biso   1.000  O 
  O23      1.0000 0.26800  0.84597  0.98183  Biso   1.000  O 
  O24      1.0000 0.23358  0.90735  0.23358  Biso   1.000  O 
  Hf12     1.0000 0.12491  0.50005  0.62491  Biso   1.000  Hf
  Hf13     1.0000 0.12835  0.74819  0.87494  Biso   1.000  Hf
  Hf14     1.0000 0.37446  0.75224  0.62262  Biso   1.000  Hf
  Hf15     1.0000 0.37701  0.49907  0.87282  Biso   1.000  Hf
  O25      1.0000 0.99750  0.64597  0.50036  Biso   1.000  O 
  O26      1.0000 0.00191  0.60401  0.75013  Biso   1.000  O 
  O27      1.0000 0.99285  0.85414  0.76534  Biso   1.000  O 
  O28      1.0000 0.00155  0.89526  0.51009  Biso   1.000  O 
  O29      1.0000 0.25233  0.64597  0.74946  Biso   1.000  O 
  O30      1.0000 0.24792  0.60401  0.49969  Biso   1.000  O 
  O31      1.0000 0.25698  0.85413  0.48447  Biso   1.000  O 
  O32      1.0000 0.24827  0.89526  0.73972  Biso   1.000  O 
  Hf16     1.0000 0.62491  0.00005  0.12491  Biso   1.000  Hf
  Hf17     1.0000 0.62719  0.24786  0.37446  Biso   1.000  Hf
  Hf18     1.0000 0.87495  0.25192  0.12148  Biso   1.000  Hf
  Hf19     1.0000 0.87730  0.99755  0.37252  Biso   1.000  Hf
  O33      1.0000 0.48448  0.14597  0.99284  Biso   1.000  O 
  O34      1.0000 0.51010  0.10484  0.24827  Biso   1.000  O 
  O35      1.0000 0.50036  0.35414  0.25232  Biso   1.000  O 
  O36      1.0000 0.49969  0.39610  0.00190  Biso   1.000  O 
  O37      1.0000 0.76535  0.14597  0.25698  Biso   1.000  O 
  O38      1.0000 0.73972  0.10485  0.00155  Biso   1.000  O 
  O39      1.0000 0.74947  0.35414  0.99750  Biso   1.000  O 
  O40      1.0000 0.75013  0.39610  0.24792  Biso   1.000  O 
  Hf20     1.0000 0.62491  0.00006  0.62491  Biso   1.000  Hf
  Hf21     1.0000 0.62263  0.24786  0.87536  Biso   1.000  Hf
  Hf22     1.0000 0.87536  0.24786  0.62262  Biso   1.000  Hf
  Hf23     1.0000 0.87730  0.00256  0.87729  Biso   1.000  Hf
  O41      1.0000 0.49432  0.14721  0.49432  Biso   1.000  O 
  O42      1.0000 0.50272  0.10297  0.74710  Biso   1.000  O 
  O43      1.0000 0.49746  0.35340  0.75236  Biso   1.000  O 
  O44      1.0000 0.50161  0.39609  0.50161  Biso   1.000  O 
  O45      1.0000 0.75550  0.14722  0.75549  Biso   1.000  O 
  O46      1.0000 0.74710  0.10298  0.50272  Biso   1.000  O 
  O47      1.0000 0.75236  0.35339  0.49745  Biso   1.000  O 
  O48      1.0000 0.74822  0.39609  0.74821  Biso   1.000  O 
  Hf24     1.0000 0.62491  0.50005  0.12491  Biso   1.000  Hf
  Hf25     1.0000 0.62263  0.75224  0.37446  Biso   1.000  Hf
  Hf26     1.0000 0.87495  0.74819  0.12834  Biso   1.000  Hf
  Hf27     1.0000 0.87281  0.49907  0.37700  Biso   1.000  Hf
  O49      1.0000 0.50037  0.64597  0.99750  Biso   1.000  O 
  O50      1.0000 0.49969  0.60401  0.24792  Biso   1.000  O 
  O51      1.0000 0.48448  0.85413  0.25698  Biso   1.000  O 
  O52      1.0000 0.51009  0.89526  0.00155  Biso   1.000  O 
  O53      1.0000 0.74946  0.64597  0.25232  Biso   1.000  O 
  O54      1.0000 0.75013  0.60401  0.00190  Biso   1.000  O 
  O55      1.0000 0.76535  0.85413  0.99284  Biso   1.000  O 
  O56      1.0000 0.73973  0.89526  0.24826  Biso   1.000  O 
  Hf28     1.0000 0.62491  0.50005  0.62491  Biso   1.000  Hf
  Hf29     1.0000 0.62720  0.75224  0.87536  Biso   1.000  Hf
  Hf30     1.0000 0.87536  0.75224  0.62719  Biso   1.000  Hf
  Hf31     1.0000 0.87282  0.50104  0.87281  Biso   1.000  Hf
  O57      1.0000 0.49745  0.64671  0.49745  Biso   1.000  O 
  O58      1.0000 0.50162  0.60402  0.74821  Biso   1.000  O 
  O59      1.0000 0.49433  0.85289  0.75550  Biso   1.000  O 
  O60      1.0000 0.50272  0.89713  0.50272  Biso   1.000  O 
  O61      1.0000 0.75237  0.64671  0.75236  Biso   1.000  O 
  O62      1.0000 0.74821  0.60402  0.50161  Biso   1.000  O 
  O63      1.0000 0.75550  0.85289  0.49432  Biso   1.000  O 
  O64      1.0000 0.74711  0.89713  0.74710  Biso   1.000  O 
