data_image0
_cell_length_a       10.1034
_cell_length_b       10.2501
_cell_length_c       5.25931
_cell_angle_alpha    90
_cell_angle_beta     90
_cell_angle_gamma    90

_symmetry_space_group_name_H-M    "P 1"
_symmetry_int_tables_number       1

loop_
  _symmetry_equiv_pos_as_xyz
  'x, y, z'

loop_
  _atom_site_label
  _atom_site_occupancy
  _atom_site_fract_x
  _atom_site_fract_y
  _atom_site_fract_z
  _atom_site_thermal_displace_type
  _atom_site_B_iso_or_equiv
  _atom_site_type_symbol
  Hf1      1.0000 0.13811  0.02087  0.34087  Biso   1.000  Hf
  Hf2      1.0000 0.13387  0.23149  0.83925  Biso   1.000  Hf
  Hf3      1.0000 0.35354  0.27099  0.35304  Biso   1.000  Hf
  Hf4      1.0000 0.35624  0.48370  0.84451  Biso   1.000  Hf
  Hf5      1.0000 0.63814  0.01952  0.14417  Biso   1.000  Hf
  Hf6      1.0000 0.63339  0.23164  0.69872  Biso   1.000  Hf
  Hf7      1.0000 0.87196  0.27088  0.15560  Biso   1.000  Hf
  Hf8      1.0000 0.86145  0.48529  0.65813  Biso   1.000  Hf
  O1       1.0000 0.03642  0.16112  0.15488  Biso   1.000  O 
  O2       1.0000 0.02640  0.09353  0.64891  Biso   1.000  O 
  O3       1.0000 0.47386  0.40961  0.16967  Biso   1.000  O 
  O4       1.0000 0.45981  0.33673  0.67685  Biso   1.000  O 
  O5       1.0000 0.26834  0.12600  0.59262  Biso   1.000  O 
  O6       1.0000 0.27563  0.12447  0.08779  Biso   1.000  O 
  O7       1.0000 0.21889  0.37762  0.59397  Biso   1.000  O 
  O8       1.0000 0.22571  0.37692  0.09093  Biso   1.000  O 
  O9       1.0000 0.50849  0.14544  0.34523  Biso   1.000  O 
  O10      1.0000 0.52557  0.07855  0.82401  Biso   1.000  O 
  O11      1.0000 0.96860  0.41676  0.33907  Biso   1.000  O 
  O12      1.0000 0.96458  0.34303  0.83494  Biso   1.000  O 
  O13      1.0000 0.78623  0.12052  0.89756  Biso   1.000  O 
  O14      1.0000 0.75407  0.14341  0.39471  Biso   1.000  O 
  O15      1.0000 0.71692  0.37733  0.94326  Biso   1.000  O 
  O16      1.0000 0.72248  0.38797  0.43399  Biso   1.000  O 
  Hf9      1.0000 0.13848  0.52335  0.34234  Biso   1.000  Hf
  Hf10     1.0000 0.13445  0.73318  0.84255  Biso   1.000  Hf
  Hf11     1.0000 0.36149  0.77209  0.34526  Biso   1.000  Hf
  Hf12     1.0000 0.35722  0.97941  0.84482  Biso   1.000  Hf
  Hf13     1.0000 0.64327  0.53182  0.15851  Biso   1.000  Hf
  Hf14     1.0000 0.63689  0.73409  0.65444  Biso   1.000  Hf
  Hf15     1.0000 0.86478  0.77489  0.15390  Biso   1.000  Hf
  Hf16     1.0000 0.86096  0.98235  0.64965  Biso   1.000  Hf
  O17      1.0000 0.03409  0.66488  0.15911  Biso   1.000  O 
  O18      1.0000 0.02995  0.59222  0.65845  Biso   1.000  O 
  O19      1.0000 0.46906  0.90805  0.15902  Biso   1.000  O 
  O20      1.0000 0.46466  0.83744  0.66228  Biso   1.000  O 
  O21      1.0000 0.27296  0.62563  0.59237  Biso   1.000  O 
  O22      1.0000 0.27844  0.62463  0.09175  Biso   1.000  O 
  O23      1.0000 0.22226  0.87525  0.59126  Biso   1.000  O 
  O24      1.0000 0.22479  0.87437  0.09141  Biso   1.000  O 
  O25      1.0000 0.53032  0.66407  0.34265  Biso   1.000  O 
  O26      1.0000 0.52806  0.59167  0.83902  Biso   1.000  O 
  O27      1.0000 0.96888  0.91774  0.32776  Biso   1.000  O 
  O28      1.0000 0.96504  0.84291  0.83083  Biso   1.000  O 
  O29      1.0000 0.77379  0.62917  0.90461  Biso   1.000  O 
  O30      1.0000 0.77839  0.63502  0.40712  Biso   1.000  O 
  O31      1.0000 0.72089  0.87646  0.90597  Biso   1.000  O 
  O32      1.0000 0.72633  0.88044  0.40755  Biso   1.000  O 
  Cr1      1.0000 0.61537  0.27596  0.22107  Biso   1.000  Cr
