data_image0
_cell_length_a       10.084
_cell_length_b       5.14275
_cell_length_c       10.4915
_cell_angle_alpha    90
_cell_angle_beta     90
_cell_angle_gamma    90

_symmetry_space_group_name_H-M    "P 1"
_symmetry_int_tables_number       1

loop_
  _symmetry_equiv_pos_as_xyz
  'x, y, z'

loop_
  _atom_site_label
  _atom_site_occupancy
  _atom_site_fract_x
  _atom_site_fract_y
  _atom_site_fract_z
  _atom_site_thermal_displace_type
  _atom_site_B_iso_or_equiv
  _atom_site_type_symbol
  Hf1      1.0000 0.13761  0.04352  0.17183  Biso   1.000  Hf
  Hf2      1.0000 0.13021  0.46614  0.42262  Biso   1.000  Hf
  Hf3      1.0000 0.35186  0.54292  0.17727  Biso   1.000  Hf
  Hf4      1.0000 0.35564  0.96629  0.42541  Biso   1.000  Hf
  Hf5      1.0000 0.64111  0.06347  0.06857  Biso   1.000  Hf
  Hf6      1.0000 0.63038  0.47023  0.34038  Biso   1.000  Hf
  Hf7      1.0000 0.87317  0.54766  0.07431  Biso   1.000  Hf
  Hf8      1.0000 0.85794  0.96588  0.32947  Biso   1.000  Hf
  O1       1.0000 0.03804  0.32663  0.07922  Biso   1.000  O 
  O2       1.0000 0.02317  0.18799  0.32788  Biso   1.000  O 
  O3       1.0000 0.47190  0.81038  0.07939  Biso   1.000  O 
  O4       1.0000 0.45790  0.67587  0.33714  Biso   1.000  O 
  O5       1.0000 0.26623  0.25361  0.29829  Biso   1.000  O 
  O6       1.0000 0.27871  0.24480  0.04417  Biso   1.000  O 
  O7       1.0000 0.21657  0.75450  0.29785  Biso   1.000  O 
  O8       1.0000 0.22402  0.74961  0.04532  Biso   1.000  O 
  O9       1.0000 0.50937  0.29315  0.17556  Biso   1.000  O 
  O10      1.0000 0.52538  0.17660  0.42340  Biso   1.000  O 
  O11      1.0000 0.96729  0.83721  0.16821  Biso   1.000  O 
  O12      1.0000 0.95982  0.68469  0.41805  Biso   1.000  O 
  O13      1.0000 0.77268  0.25050  0.45506  Biso   1.000  O 
  O14      1.0000 0.75605  0.30286  0.19638  Biso   1.000  O 
  O15      1.0000 0.71767  0.75474  0.46092  Biso   1.000  O 
  O16      1.0000 0.72200  0.78692  0.20844  Biso   1.000  O 
  Hf9      1.0000 0.13062  0.04944  0.66980  Biso   1.000  Hf
  Hf10     1.0000 0.13164  0.46495  0.91887  Biso   1.000  Hf
  Hf11     1.0000 0.35637  0.54742  0.67220  Biso   1.000  Hf
  Hf12     1.0000 0.34932  0.96321  0.91857  Biso   1.000  Hf
  Hf13     1.0000 0.63180  0.05092  0.58212  Biso   1.000  Hf
  Hf14     1.0000 0.63140  0.46444  0.83353  Biso   1.000  Hf
  Hf15     1.0000 0.85365  0.54974  0.58116  Biso   1.000  Hf
  Hf16     1.0000 0.85597  0.96830  0.82712  Biso   1.000  Hf
  O17      1.0000 0.02492  0.33731  0.58136  Biso   1.000  O 
  O18      1.0000 0.02655  0.17993  0.82976  Biso   1.000  O 
  O19      1.0000 0.46026  0.84035  0.58748  Biso   1.000  O 
  O20      1.0000 0.45591  0.66829  0.83672  Biso   1.000  O 
  O21      1.0000 0.26822  0.25340  0.79376  Biso   1.000  O 
  O22      1.0000 0.26749  0.26012  0.54567  Biso   1.000  O 
  O23      1.0000 0.21601  0.75489  0.79409  Biso   1.000  O 
  O24      1.0000 0.21800  0.75891  0.54561  Biso   1.000  O 
  O25      1.0000 0.52707  0.34219  0.66705  Biso   1.000  O 
  O26      1.0000 0.52237  0.15917  0.90487  Biso   1.000  O 
  O27      1.0000 0.96079  0.83889  0.66417  Biso   1.000  O 
  O28      1.0000 0.96176  0.68241  0.91297  Biso   1.000  O 
  O29      1.0000 0.77988  0.25074  0.94762  Biso   1.000  O 
  O30      1.0000 0.76926  0.26032  0.70349  Biso   1.000  O 
  O31      1.0000 0.71321  0.75826  0.96285  Biso   1.000  O 
  O32      1.0000 0.71751  0.76000  0.71034  Biso   1.000  O 
  Cr1      1.0000 0.61360  0.55745  0.10612  Biso   1.000  Cr
