data_image0
_cell_length_a       5.01635
_cell_length_b       10.4001
_cell_length_c       10.1117
_cell_angle_alpha    90
_cell_angle_beta     90
_cell_angle_gamma    90

_symmetry_space_group_name_H-M    "P 1"
_symmetry_int_tables_number       1

loop_
  _symmetry_equiv_pos_as_xyz
  'x, y, z'

loop_
  _atom_site_label
  _atom_site_occupancy
  _atom_site_fract_x
  _atom_site_fract_y
  _atom_site_fract_z
  _atom_site_thermal_displace_type
  _atom_site_B_iso_or_equiv
  _atom_site_type_symbol
  Hf1      1.0000 0.25332  0.00731  0.13156  Biso   1.000  Hf
  Hf2      1.0000 0.25753  0.23372  0.38535  Biso   1.000  Hf
  Hf3      1.0000 0.83063  0.24133  0.06888  Biso   1.000  Hf
  Hf4      1.0000 0.71694  0.48146  0.39089  Biso   1.000  Hf
  O1       1.0000 0.04560  0.15992  0.21994  Biso   1.000  O 
  O2       1.0000 0.05298  0.06402  0.45417  Biso   1.000  O 
  O3       1.0000 0.01278  0.39605  0.15446  Biso   1.000  O 
  O4       1.0000 0.91883  0.31894  0.45111  Biso   1.000  O 
  O5       1.0000 0.51587  0.11813  0.25013  Biso   1.000  O 
  O6       1.0000 0.53262  0.13359  0.50582  Biso   1.000  O 
  O7       1.0000 0.45068  0.38325  0.51152  Biso   1.000  O 
  O8       1.0000 0.46637  0.38291  0.26573  Biso   1.000  O 
  Hf5      1.0000 0.24498  0.01561  0.62557  Biso   1.000  Hf
  Hf6      1.0000 0.25667  0.23693  0.86679  Biso   1.000  Hf
  Hf7      1.0000 0.72157  0.26923  0.63370  Biso   1.000  Hf
  Hf8      1.0000 0.72262  0.49058  0.86894  Biso   1.000  Hf
  O9       1.0000 0.06387  0.18185  0.68817  Biso   1.000  O 
  O10      1.0000 0.99015  0.07625  0.96391  Biso   1.000  O 
  O11      1.0000 0.89868  0.44684  0.67917  Biso   1.000  O 
  O12      1.0000 0.88626  0.31046  0.88396  Biso   1.000  O 
  O13      1.0000 0.52276  0.11793  0.75400  Biso   1.000  O 
  O14      1.0000 0.50030  0.12983  0.00401  Biso   1.000  O 
  O15      1.0000 0.50394  0.37877  0.00591  Biso   1.000  O 
  O16      1.0000 0.43399  0.37643  0.75289  Biso   1.000  O 
  Hf9      1.0000 0.30803  0.52289  0.12555  Biso   1.000  Hf
  Hf10     1.0000 0.26902  0.73505  0.37589  Biso   1.000  Hf
  Hf11     1.0000 0.74890  0.76542  0.12989  Biso   1.000  Hf
  Hf12     1.0000 0.74203  0.98883  0.37647  Biso   1.000  Hf
  O17      1.0000 0.09119  0.67745  0.19371  Biso   1.000  O 
  O18      1.0000 0.07126  0.56778  0.44026  Biso   1.000  O 
  O19      1.0000 0.94140  0.92337  0.20411  Biso   1.000  O 
  O20      1.0000 0.93909  0.81827  0.45098  Biso   1.000  O 
  O21      1.0000 0.57742  0.62087  0.25269  Biso   1.000  O 
  O22      1.0000 0.53315  0.63391  0.50177  Biso   1.000  O 
  O23      1.0000 0.47088  0.88503  0.49881  Biso   1.000  O 
  O24      1.0000 0.47140  0.86486  0.25122  Biso   1.000  O 
  Hf13     1.0000 0.25228  0.52001  0.62548  Biso   1.000  Hf
  Hf14     1.0000 0.25780  0.73241  0.87533  Biso   1.000  Hf
  Hf15     1.0000 0.73004  0.76988  0.62546  Biso   1.000  Hf
  Hf16     1.0000 0.71601  0.97657  0.87710  Biso   1.000  Hf
  O25      1.0000 0.06278  0.68676  0.69694  Biso   1.000  O 
  O26      1.0000 0.07267  0.56146  0.93837  Biso   1.000  O 
  O27      1.0000 0.93111  0.93324  0.70453  Biso   1.000  O 
  O28      1.0000 0.92471  0.81586  0.95009  Biso   1.000  O 
  O29      1.0000 0.53048  0.62241  0.74864  Biso   1.000  O 
  O30      1.0000 0.53713  0.63145  0.99838  Biso   1.000  O 
  O31      1.0000 0.47385  0.87811  0.00009  Biso   1.000  O 
  O32      1.0000 0.45427  0.86674  0.74959  Biso   1.000  O 
  Cr1      1.0000 0.33677  0.25795  0.13684  Biso   1.000  Cr
