data_image0
_cell_length_a       9.99691
_cell_length_b       10.3798
_cell_length_c       10.0386
_cell_angle_alpha    90
_cell_angle_beta     90
_cell_angle_gamma    90

_symmetry_space_group_name_H-M    "P 1"
_symmetry_int_tables_number       1

loop_
  _symmetry_equiv_pos_as_xyz
  'x, y, z'

loop_
  _atom_site_label
  _atom_site_occupancy
  _atom_site_fract_x
  _atom_site_fract_y
  _atom_site_fract_z
  _atom_site_thermal_displace_type
  _atom_site_B_iso_or_equiv
  _atom_site_type_symbol
  Hf1      1.0000 0.12817  0.01118  0.12318  Biso   1.000  Hf
  Hf2      1.0000 0.13670  0.22994  0.38999  Biso   1.000  Hf
  Hf3      1.0000 0.39145  0.27235  0.12008  Biso   1.000  Hf
  Hf4      1.0000 0.37685  0.48285  0.37900  Biso   1.000  Hf
  O1       1.0000 0.01486  0.15639  0.22608  Biso   1.000  O 
  O2       1.0000 0.04100  0.06243  0.45729  Biso   1.000  O 
  O3       1.0000 0.48390  0.43390  0.20180  Biso   1.000  O 
  O4       1.0000 0.47605  0.31813  0.44972  Biso   1.000  O 
  O5       1.0000 0.26091  0.12893  0.24750  Biso   1.000  O 
  O6       1.0000 0.28065  0.13023  0.50417  Biso   1.000  O 
  O7       1.0000 0.24005  0.38232  0.50347  Biso   1.000  O 
  O8       1.0000 0.24932  0.37450  0.25195  Biso   1.000  O 
  Hf5      1.0000 0.14085  0.01528  0.63118  Biso   1.000  Hf
  Hf6      1.0000 0.13638  0.23499  0.87483  Biso   1.000  Hf
  Hf7      1.0000 0.37488  0.26762  0.62846  Biso   1.000  Hf
  Hf8      1.0000 0.37782  0.48631  0.87346  Biso   1.000  Hf
  O9       1.0000 0.04212  0.18201  0.69216  Biso   1.000  O 
  O10      1.0000 0.03975  0.06112  0.94377  Biso   1.000  O 
  O11      1.0000 0.47204  0.43711  0.69297  Biso   1.000  O 
  O12      1.0000 0.47838  0.32165  0.93817  Biso   1.000  O 
  O13      1.0000 0.27675  0.11908  0.75547  Biso   1.000  O 
  O14      1.0000 0.25775  0.14421  0.00972  Biso   1.000  O 
  O15      1.0000 0.22962  0.38299  0.00530  Biso   1.000  O 
  O16      1.0000 0.23875  0.37010  0.75277  Biso   1.000  O 
  Hf9      1.0000 0.14776  0.52760  0.12754  Biso   1.000  Hf
  Hf10     1.0000 0.14559  0.73503  0.37725  Biso   1.000  Hf
  Hf11     1.0000 0.37653  0.76913  0.12571  Biso   1.000  Hf
  Hf12     1.0000 0.37657  0.98729  0.37486  Biso   1.000  Hf
  O17      1.0000 0.04054  0.67929  0.19865  Biso   1.000  O 
  O18      1.0000 0.04859  0.56488  0.44157  Biso   1.000  O 
  O19      1.0000 0.46963  0.93682  0.19472  Biso   1.000  O 
  O20      1.0000 0.47661  0.82141  0.44478  Biso   1.000  O 
  O21      1.0000 0.28549  0.62331  0.25069  Biso   1.000  O 
  O22      1.0000 0.28105  0.63330  0.50043  Biso   1.000  O 
  O23      1.0000 0.24274  0.88341  0.49981  Biso   1.000  O 
  O24      1.0000 0.23834  0.86984  0.24992  Biso   1.000  O 
  Hf13     1.0000 0.14412  0.51702  0.62570  Biso   1.000  Hf
  Hf14     1.0000 0.14738  0.73363  0.87431  Biso   1.000  Hf
  Hf15     1.0000 0.37824  0.76811  0.62492  Biso   1.000  Hf
  Hf16     1.0000 0.38178  0.98568  0.87665  Biso   1.000  Hf
  O25      1.0000 0.04716  0.68418  0.69499  Biso   1.000  O 
  O26      1.0000 0.05031  0.56402  0.94594  Biso   1.000  O 
  O27      1.0000 0.47774  0.93550  0.69729  Biso   1.000  O 
  O28      1.0000 0.48137  0.81965  0.94454  Biso   1.000  O 
  O29      1.0000 0.28177  0.61910  0.74880  Biso   1.000  O 
  O30      1.0000 0.28675  0.63572  0.99851  Biso   1.000  O 
  O31      1.0000 0.24744  0.88225  0.99811  Biso   1.000  O 
  O32      1.0000 0.24432  0.86730  0.75033  Biso   1.000  O 
  Hf17     1.0000 0.63563  0.01349  0.12647  Biso   1.000  Hf
  Hf18     1.0000 0.64488  0.23525  0.37366  Biso   1.000  Hf
  Hf19     1.0000 0.87602  0.25621  0.11013  Biso   1.000  Hf
  Hf20     1.0000 0.87702  0.48064  0.37558  Biso   1.000  Hf
  O33      1.0000 0.54291  0.18009  0.20194  Biso   1.000  O 
  O34      1.0000 0.54104  0.06804  0.44463  Biso   1.000  O 
  O35      1.0000 0.00011  0.40382  0.18741  Biso   1.000  O 
  O36      1.0000 0.97117  0.31920  0.45149  Biso   1.000  O 
  O37      1.0000 0.76944  0.11087  0.24724  Biso   1.000  O 
  O38      1.0000 0.77719  0.13609  0.49811  Biso   1.000  O 
  O39      1.0000 0.73850  0.38584  0.49628  Biso   1.000  O 
  O40      1.0000 0.75218  0.36508  0.24570  Biso   1.000  O 
  Hf21     1.0000 0.63925  0.01708  0.62209  Biso   1.000  Hf
  Hf22     1.0000 0.64766  0.23320  0.87267  Biso   1.000  Hf
  Hf23     1.0000 0.87361  0.26787  0.62780  Biso   1.000  Hf
  Hf24     1.0000 0.87770  0.48597  0.87088  Biso   1.000  Hf
  O41      1.0000 0.54316  0.18364  0.69670  Biso   1.000  O 
  O42      1.0000 0.53669  0.07419  0.95251  Biso   1.000  O 
  O43      1.0000 0.97205  0.43779  0.68920  Biso   1.000  O 
  O44      1.0000 0.95424  0.31057  0.91596  Biso   1.000  O 
  O45      1.0000 0.77693  0.11617  0.74703  Biso   1.000  O 
  O46      1.0000 0.77628  0.12585  0.99544  Biso   1.000  O 
  O47      1.0000 0.73883  0.38082  0.99696  Biso   1.000  O 
  O48      1.0000 0.73475  0.37033  0.74552  Biso   1.000  O 
  Hf25     1.0000 0.64565  0.51657  0.12394  Biso   1.000  Hf
  Hf26     1.0000 0.64407  0.73465  0.37467  Biso   1.000  Hf
  Hf27     1.0000 0.87083  0.76313  0.12445  Biso   1.000  Hf
  Hf28     1.0000 0.88225  0.98637  0.37243  Biso   1.000  Hf
  O49      1.0000 0.54752  0.68673  0.19268  Biso   1.000  O 
  O50      1.0000 0.54504  0.57002  0.44435  Biso   1.000  O 
  O51      1.0000 0.97039  0.92206  0.19496  Biso   1.000  O 
  O52      1.0000 0.97658  0.81603  0.44458  Biso   1.000  O 
  O53      1.0000 0.78281  0.61306  0.24649  Biso   1.000  O 
  O54      1.0000 0.78217  0.63227  0.49562  Biso   1.000  O 
  O55      1.0000 0.74426  0.88499  0.49641  Biso   1.000  O 
  O56      1.0000 0.73720  0.86467  0.24772  Biso   1.000  O 
  Hf29     1.0000 0.64298  0.51763  0.62342  Biso   1.000  Hf
  Hf30     1.0000 0.64731  0.73297  0.87392  Biso   1.000  Hf
  Hf31     1.0000 0.87800  0.76650  0.62245  Biso   1.000  Hf
  Hf32     1.0000 0.87947  0.97959  0.87262  Biso   1.000  Hf
  O57      1.0000 0.54668  0.68527  0.69404  Biso   1.000  O 
  O58      1.0000 0.54798  0.56782  0.94489  Biso   1.000  O 
  O59      1.0000 0.97845  0.93016  0.69608  Biso   1.000  O 
  O60      1.0000 0.97903  0.81362  0.94523  Biso   1.000  O 
  O61      1.0000 0.78026  0.61840  0.74535  Biso   1.000  O 
  O62      1.0000 0.78495  0.63174  0.99567  Biso   1.000  O 
  O63      1.0000 0.74453  0.87934  0.99763  Biso   1.000  O 
  O64      1.0000 0.74191  0.86685  0.74647  Biso   1.000  O 
  Cr1      1.0000 0.14665  0.26040  0.13829  Biso   1.000  Cr
