data_image0
_cell_length_a       10.0595
_cell_length_b       10.3447
_cell_length_c       5.06146
_cell_angle_alpha    90
_cell_angle_beta     90
_cell_angle_gamma    90

_symmetry_space_group_name_H-M    "P 1"
_symmetry_int_tables_number       1

loop_
  _symmetry_equiv_pos_as_xyz
  'x, y, z'

loop_
  _atom_site_label
  _atom_site_occupancy
  _atom_site_fract_x
  _atom_site_fract_y
  _atom_site_fract_z
  _atom_site_thermal_displace_type
  _atom_site_B_iso_or_equiv
  _atom_site_type_symbol
  Hf1      1.0000 0.10741  0.96083  0.22121  Biso   1.000  Hf
  Hf2      1.0000 0.14336  0.29007  0.74501  Biso   1.000  Hf
  Hf3      1.0000 0.38939  0.26746  0.29537  Biso   1.000  Hf
  Hf4      1.0000 0.35595  0.00706  0.75248  Biso   1.000  Hf
  O1       1.0000 0.03252  0.15346  0.95021  Biso   1.000  O 
  O2       1.0000 0.00704  0.08998  0.43625  Biso   1.000  O 
  O3       1.0000 0.02783  0.33441  0.42895  Biso   1.000  O 
  O4       1.0000 0.00744  0.41015  0.96415  Biso   1.000  O 
  O5       1.0000 0.26808  0.16192  0.55719  Biso   1.000  O 
  O6       1.0000 0.27063  0.08590  0.06476  Biso   1.000  O 
  O7       1.0000 0.24199  0.33826  0.04970  Biso   1.000  O 
  O8       1.0000 0.26622  0.42072  0.51573  Biso   1.000  O 
  Hf5      1.0000 0.12057  0.50178  0.24974  Biso   1.000  Hf
  Hf6      1.0000 0.11927  0.73880  0.72892  Biso   1.000  Hf
  Hf7      1.0000 0.37182  0.76834  0.25435  Biso   1.000  Hf
  Hf8      1.0000 0.39650  0.51612  0.77014  Biso   1.000  Hf
  O9       1.0000 0.97200  0.64222  0.02567  Biso   1.000  O 
  O10      1.0000 0.00463  0.58374  0.53707  Biso   1.000  O 
  O11      1.0000 0.98547  0.83638  0.47558  Biso   1.000  O 
  O12      1.0000 0.99453  0.89491  0.95783  Biso   1.000  O 
  O13      1.0000 0.22761  0.66123  0.41577  Biso   1.000  O 
  O14      1.0000 0.22907  0.59114  0.91819  Biso   1.000  O 
  O15      1.0000 0.25204  0.84617  0.97984  Biso   1.000  O 
  O16      1.0000 0.23865  0.89893  0.50247  Biso   1.000  O 
  Hf9      1.0000 0.62497  0.01914  0.25238  Biso   1.000  Hf
  Hf10     1.0000 0.65570  0.25178  0.74783  Biso   1.000  Hf
  Hf11     1.0000 0.88533  0.24487  0.20443  Biso   1.000  Hf
  Hf12     1.0000 0.87618  0.00498  0.71434  Biso   1.000  Hf
  O17      1.0000 0.52643  0.17530  0.06281  Biso   1.000  O 
  O18      1.0000 0.51774  0.11656  0.55006  Biso   1.000  O 
  O19      1.0000 0.51651  0.37000  0.56571  Biso   1.000  O 
  O20      1.0000 0.47881  0.42794  0.07599  Biso   1.000  O 
  O21      1.0000 0.76181  0.15196  0.47506  Biso   1.000  O 
  O22      1.0000 0.78140  0.11677  0.97251  Biso   1.000  O 
  O23      1.0000 0.73580  0.36263  0.02227  Biso   1.000  O 
  O24      1.0000 0.76844  0.40078  0.52245  Biso   1.000  O 
  Hf13     1.0000 0.63076  0.49683  0.29809  Biso   1.000  Hf
  Hf14     1.0000 0.62001  0.77295  0.74138  Biso   1.000  Hf
  Hf15     1.0000 0.84564  0.76023  0.22733  Biso   1.000  Hf
  Hf16     1.0000 0.86523  0.52082  0.78839  Biso   1.000  Hf
  O25      1.0000 0.47767  0.68272  0.95295  Biso   1.000  O 
  O26      1.0000 0.49440  0.62156  0.47626  Biso   1.000  O 
  O27      1.0000 0.49198  0.87315  0.50033  Biso   1.000  O 
  O28      1.0000 0.47824  0.91759  0.00629  Biso   1.000  O 
  O29      1.0000 0.74706  0.65370  0.52128  Biso   1.000  O 
  O30      1.0000 0.71600  0.61657  0.02180  Biso   1.000  O 
  O31      1.0000 0.74429  0.87320  0.98511  Biso   1.000  O 
  O32      1.0000 0.74040  0.90589  0.48198  Biso   1.000  O 
  Cr1      1.0000 0.14024  0.19502  0.24920  Biso   1.000  Cr
