data_image0
_cell_length_a       9.9311
_cell_length_b       10.3668
_cell_length_c       9.98101
_cell_angle_alpha    90
_cell_angle_beta     90
_cell_angle_gamma    90

_symmetry_space_group_name_H-M    "P 1"
_symmetry_int_tables_number       1

loop_
  _symmetry_equiv_pos_as_xyz
  'x, y, z'

loop_
  _atom_site_label
  _atom_site_occupancy
  _atom_site_fract_x
  _atom_site_fract_y
  _atom_site_fract_z
  _atom_site_thermal_displace_type
  _atom_site_B_iso_or_equiv
  _atom_site_type_symbol
  Cr1      1.0000 0.12292  0.03107  0.11501  Biso   1.000  Cr
  Hf1      1.0000 0.13382  0.22853  0.37242  Biso   1.000  Hf
  Hf2      1.0000 0.36527  0.26291  0.12419  Biso   1.000  Hf
  Hf3      1.0000 0.36706  0.48059  0.37592  Biso   1.000  Hf
  O1       1.0000 0.03583  0.18128  0.18951  Biso   1.000  O 
  O2       1.0000 0.03773  0.06432  0.44820  Biso   1.000  O 
  O3       1.0000 0.46336  0.43182  0.19283  Biso   1.000  O 
  O4       1.0000 0.46563  0.31411  0.44466  Biso   1.000  O 
  O5       1.0000 0.25794  0.10403  0.23975  Biso   1.000  O 
  O6       1.0000 0.27371  0.13033  0.49535  Biso   1.000  O 
  O7       1.0000 0.22953  0.37920  0.49910  Biso   1.000  O 
  O8       1.0000 0.23126  0.36108  0.24888  Biso   1.000  O 
  Hf4      1.0000 0.13764  0.01485  0.62704  Biso   1.000  Hf
  Hf5      1.0000 0.13659  0.23264  0.87628  Biso   1.000  Hf
  Hf6      1.0000 0.36716  0.26417  0.62498  Biso   1.000  Hf
  Hf7      1.0000 0.36796  0.48153  0.87585  Biso   1.000  Hf
  O9       1.0000 0.03634  0.18037  0.69883  Biso   1.000  O 
  O10      1.0000 0.03946  0.06313  0.95314  Biso   1.000  O 
  O11      1.0000 0.46448  0.43216  0.69359  Biso   1.000  O 
  O12      1.0000 0.46408  0.31136  0.94273  Biso   1.000  O 
  O13      1.0000 0.27374  0.11611  0.75005  Biso   1.000  O 
  O14      1.0000 0.26348  0.13280  0.00029  Biso   1.000  O 
  O15      1.0000 0.23193  0.37927  0.99935  Biso   1.000  O 
  O16      1.0000 0.23053  0.36572  0.74970  Biso   1.000  O 
  Hf8      1.0000 0.13311  0.51431  0.12626  Biso   1.000  Hf
  Hf9      1.0000 0.13587  0.73058  0.37807  Biso   1.000  Hf
  Hf10     1.0000 0.36280  0.76504  0.12787  Biso   1.000  Hf
  Hf11     1.0000 0.36176  0.97901  0.37258  Biso   1.000  Hf
  O17      1.0000 0.03638  0.68350  0.19478  Biso   1.000  O 
  O18      1.0000 0.03637  0.56214  0.44557  Biso   1.000  O 
  O19      1.0000 0.46778  0.93038  0.19666  Biso   1.000  O 
  O20      1.0000 0.46692  0.81576  0.44972  Biso   1.000  O 
  O21      1.0000 0.26895  0.60955  0.24999  Biso   1.000  O 
  O22      1.0000 0.27336  0.62967  0.50110  Biso   1.000  O 
  O23      1.0000 0.22915  0.87994  0.50498  Biso   1.000  O 
  O24      1.0000 0.24111  0.85295  0.26082  Biso   1.000  O 
  Hf12     1.0000 0.13585  0.51453  0.62617  Biso   1.000  Hf
  Hf13     1.0000 0.13558  0.73225  0.87958  Biso   1.000  Hf
  Hf14     1.0000 0.36657  0.76582  0.62874  Biso   1.000  Hf
  Hf15     1.0000 0.36063  0.98036  0.88276  Biso   1.000  Hf
  O25      1.0000 0.03798  0.68264  0.69452  Biso   1.000  O 
  O26      1.0000 0.03674  0.56342  0.94607  Biso   1.000  O 
  O27      1.0000 0.46283  0.93236  0.69927  Biso   1.000  O 
  O28      1.0000 0.46114  0.81304  0.94415  Biso   1.000  O 
  O29      1.0000 0.27152  0.61630  0.75162  Biso   1.000  O 
  O30      1.0000 0.26794  0.63312  0.00068  Biso   1.000  O 
  O31      1.0000 0.21948  0.88828  0.01211  Biso   1.000  O 
  O32      1.0000 0.22854  0.86666  0.75530  Biso   1.000  O 
  Hf16     1.0000 0.63478  0.01608  0.12508  Biso   1.000  Hf
  Hf17     1.0000 0.63466  0.23075  0.37669  Biso   1.000  Hf
  Hf18     1.0000 0.86439  0.26626  0.12429  Biso   1.000  Hf
  Hf19     1.0000 0.86611  0.48158  0.37612  Biso   1.000  Hf
  O33      1.0000 0.53357  0.18164  0.19725  Biso   1.000  O 
  O34      1.0000 0.53786  0.06303  0.44303  Biso   1.000  O 
  O35      1.0000 0.96429  0.43110  0.19550  Biso   1.000  O 
  O36      1.0000 0.96425  0.31175  0.44262  Biso   1.000  O 
  O37      1.0000 0.77285  0.11573  0.24771  Biso   1.000  O 
  O38      1.0000 0.77333  0.12958  0.49825  Biso   1.000  O 
  O39      1.0000 0.73071  0.38002  0.50000  Biso   1.000  O 
  O40      1.0000 0.72842  0.36576  0.24947  Biso   1.000  O 
  Hf20     1.0000 0.63321  0.01251  0.62404  Biso   1.000  Hf
  Hf21     1.0000 0.63520  0.23005  0.87422  Biso   1.000  Hf
  Hf22     1.0000 0.86758  0.26350  0.62541  Biso   1.000  Hf
  Hf23     1.0000 0.86716  0.48119  0.87494  Biso   1.000  Hf
  O41      1.0000 0.53864  0.18241  0.69207  Biso   1.000  O 
  O42      1.0000 0.53610  0.06416  0.94752  Biso   1.000  O 
  O43      1.0000 0.96517  0.43138  0.69363  Biso   1.000  O 
  O44      1.0000 0.96556  0.31326  0.94347  Biso   1.000  O 
  O45      1.0000 0.77110  0.11375  0.74813  Biso   1.000  O 
  O46      1.0000 0.77303  0.12941  0.99742  Biso   1.000  O 
  O47      1.0000 0.73118  0.37899  0.99912  Biso   1.000  O 
  O48      1.0000 0.73077  0.36486  0.74918  Biso   1.000  O 
  Hf24     1.0000 0.63293  0.51630  0.12706  Biso   1.000  Hf
  Hf25     1.0000 0.63502  0.73351  0.37471  Biso   1.000  Hf
  Hf26     1.0000 0.86975  0.76478  0.12210  Biso   1.000  Hf
  Hf27     1.0000 0.86721  0.98442  0.37566  Biso   1.000  Hf
  O49      1.0000 0.53602  0.68383  0.19561  Biso   1.000  O 
  O50      1.0000 0.53831  0.56439  0.44261  Biso   1.000  O 
  O51      1.0000 0.98523  0.93954  0.18548  Biso   1.000  O 
  O52      1.0000 0.96443  0.81542  0.44122  Biso   1.000  O 
  O53      1.0000 0.77195  0.61570  0.24905  Biso   1.000  O 
  O54      1.0000 0.77097  0.63147  0.49933  Biso   1.000  O 
  O55      1.0000 0.73151  0.88187  0.49796  Biso   1.000  O 
  O56      1.0000 0.74016  0.86678  0.24690  Biso   1.000  O 
  Hf28     1.0000 0.63492  0.51474  0.62518  Biso   1.000  Hf
  Hf29     1.0000 0.63363  0.73140  0.87609  Biso   1.000  Hf
  Hf30     1.0000 0.86786  0.76440  0.62499  Biso   1.000  Hf
  Hf31     1.0000 0.86536  0.98101  0.87416  Biso   1.000  Hf
  O57      1.0000 0.53692  0.68146  0.69523  Biso   1.000  O 
  O58      1.0000 0.53844  0.56261  0.94479  Biso   1.000  O 
  O59      1.0000 0.96455  0.93238  0.69442  Biso   1.000  O 
  O60      1.0000 0.96187  0.81251  0.93968  Biso   1.000  O 
  O61      1.0000 0.77165  0.61536  0.74961  Biso   1.000  O 
  O62      1.0000 0.77241  0.63018  0.99995  Biso   1.000  O 
  O63      1.0000 0.73011  0.87984  0.99813  Biso   1.000  O 
  O64      1.0000 0.72992  0.86455  0.74859  Biso   1.000  O 
