data_image0
_cell_length_a       10.0501
_cell_length_b       5.18357
_cell_length_c       10.0501
_cell_angle_alpha    90
_cell_angle_beta     90
_cell_angle_gamma    90

_symmetry_space_group_name_H-M    "P 1"
_symmetry_int_tables_number       1

loop_
  _symmetry_equiv_pos_as_xyz
  'x, y, z'

loop_
  _atom_site_label
  _atom_site_occupancy
  _atom_site_fract_x
  _atom_site_fract_y
  _atom_site_fract_z
  _atom_site_thermal_displace_type
  _atom_site_B_iso_or_equiv
  _atom_site_type_symbol
  Hf1      1.0000 0.12789  0.89600  0.12487  Biso   1.000  Hf
  Hf2      1.0000 0.14646  0.50690  0.38567  Biso   1.000  Hf
  Hf3      1.0000 0.38906  0.50690  0.13721  Biso   1.000  Hf
  Hf4      1.0000 0.38917  0.01918  0.37998  Biso   1.000  Hf
  O1       1.0000 0.01011  0.29805  0.98627  Biso   1.000  O 
  O2       1.0000 0.01619  0.14034  0.23928  Biso   1.000  O 
  O3       1.0000 0.01357  0.62281  0.24195  Biso   1.000  O 
  O4       1.0000 0.01062  0.79596  0.98677  Biso   1.000  O 
  O5       1.0000 0.26956  0.29804  0.26319  Biso   1.000  O 
  O6       1.0000 0.23960  0.14034  0.01047  Biso   1.000  O 
  O7       1.0000 0.24222  0.62281  0.00779  Biso   1.000  O 
  O8       1.0000 0.26905  0.79595  0.26270  Biso   1.000  O 
  Hf5      1.0000 0.13984  0.99875  0.62473  Biso   1.000  Hf
  Hf6      1.0000 0.13320  0.50691  0.86379  Biso   1.000  Hf
  Hf7      1.0000 0.39065  0.51249  0.63131  Biso   1.000  Hf
  Hf8      1.0000 0.39528  0.01687  0.87520  Biso   1.000  Hf
  O9       1.0000 0.00710  0.30298  0.49127  Biso   1.000  O 
  O10      1.0000 0.01619  0.21926  0.74054  Biso   1.000  O 
  O11      1.0000 0.01144  0.72184  0.73945  Biso   1.000  O 
  O12      1.0000 0.01959  0.80745  0.49016  Biso   1.000  O 
  O13      1.0000 0.27256  0.30300  0.75820  Biso   1.000  O 
  O14      1.0000 0.26348  0.21926  0.50891  Biso   1.000  O 
  O15      1.0000 0.26823  0.72183  0.51001  Biso   1.000  O 
  O16      1.0000 0.26008  0.80746  0.75930  Biso   1.000  O 
  Hf9      1.0000 0.62789  0.99874  0.12487  Biso   1.000  Hf
  Hf10     1.0000 0.64046  0.51248  0.37546  Biso   1.000  Hf
  Hf11     1.0000 0.86673  0.50690  0.11253  Biso   1.000  Hf
  Hf12     1.0000 0.88439  0.01686  0.37426  Biso   1.000  Hf
  O17      1.0000 0.51517  0.30299  0.99508  Biso   1.000  O 
  O18      1.0000 0.51506  0.21925  0.25125  Biso   1.000  O 
  O19      1.0000 0.51628  0.72183  0.25598  Biso   1.000  O 
  O20      1.0000 0.49049  0.80745  0.00788  Biso   1.000  O 
  O21      1.0000 0.76450  0.30298  0.25439  Biso   1.000  O 
  O22      1.0000 0.76460  0.21927  0.99822  Biso   1.000  O 
  O23      1.0000 0.76339  0.72184  0.99349  Biso   1.000  O 
  O24      1.0000 0.76530  0.80745  0.24187  Biso   1.000  O 
  Hf13     1.0000 0.63983  0.01722  0.62473  Biso   1.000  Hf
  Hf14     1.0000 0.63921  0.51249  0.87400  Biso   1.000  Hf
  Hf15     1.0000 0.88902  0.51248  0.61815  Biso   1.000  Hf
  Hf16     1.0000 0.89050  0.01919  0.86948  Biso   1.000  Hf
  O25      1.0000 0.51182  0.31972  0.49974  Biso   1.000  O 
  O26      1.0000 0.51868  0.22055  0.74882  Biso   1.000  O 
  O27      1.0000 0.51149  0.72076  0.75618  Biso   1.000  O 
  O28      1.0000 0.51663  0.81663  0.50444  Biso   1.000  O 
  O29      1.0000 0.76785  0.31972  0.74973  Biso   1.000  O 
  O30      1.0000 0.76099  0.22055  0.50065  Biso   1.000  O 
  O31      1.0000 0.76818  0.72074  0.49328  Biso   1.000  O 
  O32      1.0000 0.76303  0.81663  0.74502  Biso   1.000  O 
  Cr1      1.0000 0.12789  0.36943  0.12487  Biso   1.000  Cr
