data_image0
_cell_length_a       5.06145
_cell_length_b       10.3448
_cell_length_c       10.0595
_cell_angle_alpha    90
_cell_angle_beta     90
_cell_angle_gamma    90

_symmetry_space_group_name_H-M    "P 1"
_symmetry_int_tables_number       1

loop_
  _symmetry_equiv_pos_as_xyz
  'x, y, z'

loop_
  _atom_site_label
  _atom_site_occupancy
  _atom_site_fract_x
  _atom_site_fract_y
  _atom_site_fract_z
  _atom_site_thermal_displace_type
  _atom_site_B_iso_or_equiv
  _atom_site_type_symbol
  Hf1      1.0000 0.27674  0.95579  0.12084  Biso   1.000  Hf
  Hf2      1.0000 0.34041  0.25656  0.38774  Biso   1.000  Hf
  Hf3      1.0000 0.77020  0.27876  0.13284  Biso   1.000  Hf
  Hf4      1.0000 0.83027  0.99129  0.35869  Biso   1.000  Hf
  O1       1.0000 0.95931  0.14203  0.01512  Biso   1.000  O 
  O2       1.0000 0.09139  0.07992  0.27054  Biso   1.000  O 
  O3       1.0000 0.08626  0.33288  0.24706  Biso   1.000  O 
  O4       1.0000 0.06675  0.37984  0.99364  Biso   1.000  O 
  O5       1.0000 0.58674  0.15041  0.25898  Biso   1.000  O 
  O6       1.0000 0.52384  0.06575  0.99835  Biso   1.000  O 
  O7       1.0000 0.44708  0.32883  0.02500  Biso   1.000  O 
  O8       1.0000 0.55777  0.40960  0.26296  Biso   1.000  O 
  Hf5      1.0000 0.30495  0.00435  0.61921  Biso   1.000  Hf
  Hf6      1.0000 0.28968  0.22553  0.88467  Biso   1.000  Hf
  Hf7      1.0000 0.81369  0.23071  0.64385  Biso   1.000  Hf
  Hf8      1.0000 0.83523  0.97970  0.87910  Biso   1.000  Hf
  O9       1.0000 0.11500  0.16446  0.52782  Biso   1.000  O 
  O10      1.0000 0.04200  0.09082  0.76204  Biso   1.000  O 
  O11      1.0000 0.10103  0.34814  0.74141  Biso   1.000  O 
  O12      1.0000 0.13654  0.41775  0.48477  Biso   1.000  O 
  O13      1.0000 0.54524  0.13196  0.75375  Biso   1.000  O 
  O14      1.0000 0.59812  0.10042  0.50766  Biso   1.000  O 
  O15      1.0000 0.62600  0.35360  0.51096  Biso   1.000  O 
  O16      1.0000 0.60518  0.38000  0.76412  Biso   1.000  O 
  Hf9      1.0000 0.28392  0.49637  0.12468  Biso   1.000  Hf
  Hf10     1.0000 0.32232  0.75800  0.38062  Biso   1.000  Hf
  Hf11     1.0000 0.77392  0.72793  0.11768  Biso   1.000  Hf
  Hf12     1.0000 0.82730  0.49963  0.38950  Biso   1.000  Hf
  O17      1.0000 0.13770  0.62305  0.98264  Biso   1.000  O 
  O18      1.0000 0.96499  0.57612  0.22054  Biso   1.000  O 
  O19      1.0000 0.04091  0.82989  0.24699  Biso   1.000  O 
  O20      1.0000 0.08294  0.86472  0.99009  Biso   1.000  O 
  O21      1.0000 0.46647  0.65184  0.23114  Biso   1.000  O 
  O22      1.0000 0.56532  0.57725  0.00435  Biso   1.000  O 
  O23      1.0000 0.59764  0.81177  0.99017  Biso   1.000  O 
  O24      1.0000 0.56554  0.88825  0.24477  Biso   1.000  O 
  Hf13     1.0000 0.37433  0.48117  0.63321  Biso   1.000  Hf
  Hf14     1.0000 0.33416  0.74117  0.85435  Biso   1.000  Hf
  Hf15     1.0000 0.82946  0.75232  0.61829  Biso   1.000  Hf
  Hf16     1.0000 0.88473  0.49516  0.85745  Biso   1.000  Hf
  O25      1.0000 0.02474  0.66256  0.46986  Biso   1.000  O 
  O26      1.0000 0.11121  0.60234  0.72648  Biso   1.000  O 
  O27      1.0000 0.08807  0.84748  0.73913  Biso   1.000  O 
  O28      1.0000 0.09077  0.90796  0.49500  Biso   1.000  O 
  O29      1.0000 0.61449  0.63322  0.74764  Biso   1.000  O 
  O30      1.0000 0.54703  0.60647  0.49562  Biso   1.000  O 
  O31      1.0000 0.58317  0.85770  0.49739  Biso   1.000  O 
  O32      1.0000 0.58684  0.88586  0.74657  Biso   1.000  O 
  Cr1      1.0000 0.27009  0.18939  0.13845  Biso   1.000  Cr
