data_image0
_cell_length_a       10.0253
_cell_length_b       5.20495
_cell_length_c       10.0649
_cell_angle_alpha    90
_cell_angle_beta     90
_cell_angle_gamma    90

_symmetry_space_group_name_H-M    "P 1"
_symmetry_int_tables_number       1

loop_
  _symmetry_equiv_pos_as_xyz
  'x, y, z'

loop_
  _atom_site_label
  _atom_site_occupancy
  _atom_site_fract_x
  _atom_site_fract_y
  _atom_site_fract_z
  _atom_site_thermal_displace_type
  _atom_site_B_iso_or_equiv
  _atom_site_type_symbol
  Hf1      1.0000 0.13729  0.04512  0.12338  Biso   1.000  Hf
  Hf2      1.0000 0.14584  0.45858  0.39179  Biso   1.000  Hf
  Hf3      1.0000 0.39464  0.54882  0.12167  Biso   1.000  Hf
  Hf4      1.0000 0.38505  0.96617  0.37980  Biso   1.000  Hf
  O1       1.0000 0.01858  0.30618  0.22730  Biso   1.000  O 
  O2       1.0000 0.05174  0.12171  0.45580  Biso   1.000  O 
  O3       1.0000 0.48502  0.87166  0.20274  Biso   1.000  O 
  O4       1.0000 0.48566  0.64421  0.45001  Biso   1.000  O 
  O5       1.0000 0.26973  0.27550  0.24585  Biso   1.000  O 
  O6       1.0000 0.29064  0.25664  0.50416  Biso   1.000  O 
  O7       1.0000 0.24987  0.75987  0.50468  Biso   1.000  O 
  O8       1.0000 0.25146  0.76085  0.25263  Biso   1.000  O 
  Hf5      1.0000 0.14988  0.02840  0.63146  Biso   1.000  Hf
  Hf6      1.0000 0.14792  0.46669  0.87426  Biso   1.000  Hf
  Hf7      1.0000 0.38461  0.53406  0.62865  Biso   1.000  Hf
  Hf8      1.0000 0.39211  0.97379  0.87456  Biso   1.000  Hf
  O9       1.0000 0.05174  0.36227  0.69189  Biso   1.000  O 
  O10      1.0000 0.05244  0.11363  0.94453  Biso   1.000  O 
  O11      1.0000 0.48372  0.87284  0.69540  Biso   1.000  O 
  O12      1.0000 0.49400  0.64650  0.93887  Biso   1.000  O 
  O13      1.0000 0.28641  0.23732  0.75457  Biso   1.000  O 
  O14      1.0000 0.25929  0.29726  0.00765  Biso   1.000  O 
  O15      1.0000 0.23324  0.76829  0.00426  Biso   1.000  O 
  O16      1.0000 0.25150  0.73574  0.75443  Biso   1.000  O 
  Hf9      1.0000 0.64334  0.02772  0.12495  Biso   1.000  Hf
  Hf10     1.0000 0.65316  0.47122  0.37164  Biso   1.000  Hf
  Hf11     1.0000 0.87810  0.50599  0.10928  Biso   1.000  Hf
  Hf12     1.0000 0.89055  0.96731  0.37018  Biso   1.000  Hf
  O17      1.0000 0.55052  0.36722  0.19932  Biso   1.000  O 
  O18      1.0000 0.54913  0.14238  0.44382  Biso   1.000  O 
  O19      1.0000 0.00109  0.79287  0.18914  Biso   1.000  O 
  O20      1.0000 0.98043  0.63776  0.44856  Biso   1.000  O 
  O21      1.0000 0.77774  0.21483  0.24403  Biso   1.000  O 
  O22      1.0000 0.78763  0.26973  0.49313  Biso   1.000  O 
  O23      1.0000 0.75061  0.77496  0.49248  Biso   1.000  O 
  O24      1.0000 0.75667  0.72491  0.24344  Biso   1.000  O 
  Hf13     1.0000 0.64738  0.03402  0.61923  Biso   1.000  Hf
  Hf14     1.0000 0.65915  0.46297  0.87114  Biso   1.000  Hf
  Hf15     1.0000 0.88376  0.53344  0.62329  Biso   1.000  Hf
  Hf16     1.0000 0.88761  0.96077  0.86749  Biso   1.000  Hf
  O25      1.0000 0.55180  0.36577  0.69648  Biso   1.000  O 
  O26      1.0000 0.54865  0.14772  0.95261  Biso   1.000  O 
  O27      1.0000 0.98440  0.86420  0.69050  Biso   1.000  O 
  O28      1.0000 0.96691  0.61391  0.91680  Biso   1.000  O 
  O29      1.0000 0.78538  0.23133  0.74232  Biso   1.000  O 
  O30      1.0000 0.78993  0.25014  0.99182  Biso   1.000  O 
  O31      1.0000 0.75179  0.75457  0.99493  Biso   1.000  O 
  O32      1.0000 0.74545  0.73559  0.74208  Biso   1.000  O 
  Cr1      1.0000 0.14846  0.52617  0.13950  Biso   1.000  Cr
