data_image0
_cell_length_a       10.0619
_cell_length_b       10.2403
_cell_length_c       10.4822
_cell_angle_alpha    90
_cell_angle_beta     90
_cell_angle_gamma    90

_symmetry_space_group_name_H-M    "P 1"
_symmetry_int_tables_number       1

loop_
  _symmetry_equiv_pos_as_xyz
  'x, y, z'

loop_
  _atom_site_label
  _atom_site_occupancy
  _atom_site_fract_x
  _atom_site_fract_y
  _atom_site_fract_z
  _atom_site_thermal_displace_type
  _atom_site_B_iso_or_equiv
  _atom_site_type_symbol
  Hf1      1.0000 0.13775  0.02070  0.17165  Biso   1.000  Hf
  Hf2      1.0000 0.13266  0.23151  0.42332  Biso   1.000  Hf
  Hf3      1.0000 0.35156  0.27073  0.17703  Biso   1.000  Hf
  Hf4      1.0000 0.35750  0.48261  0.42392  Biso   1.000  Hf
  Hf5      1.0000 0.63839  0.01857  0.06971  Biso   1.000  Hf
  Hf6      1.0000 0.63186  0.23312  0.33820  Biso   1.000  Hf
  Hf7      1.0000 0.87199  0.27158  0.07448  Biso   1.000  Hf
  Hf8      1.0000 0.86010  0.48179  0.32893  Biso   1.000  Hf
  O1       1.0000 0.03771  0.16335  0.07974  Biso   1.000  O 
  O2       1.0000 0.02463  0.09196  0.32844  Biso   1.000  O 
  O3       1.0000 0.47212  0.40914  0.08358  Biso   1.000  O 
  O4       1.0000 0.45995  0.33715  0.33616  Biso   1.000  O 
  O5       1.0000 0.26775  0.12568  0.29812  Biso   1.000  O 
  O6       1.0000 0.27685  0.12433  0.04417  Biso   1.000  O 
  O7       1.0000 0.21788  0.37665  0.29774  Biso   1.000  O 
  O8       1.0000 0.22472  0.37672  0.04483  Biso   1.000  O 
  O9       1.0000 0.50924  0.14501  0.17606  Biso   1.000  O 
  O10      1.0000 0.52645  0.08875  0.42372  Biso   1.000  O 
  O11      1.0000 0.96862  0.41606  0.16875  Biso   1.000  O 
  O12      1.0000 0.96311  0.33965  0.41976  Biso   1.000  O 
  O13      1.0000 0.77427  0.12488  0.45416  Biso   1.000  O 
  O14      1.0000 0.75453  0.14285  0.19455  Biso   1.000  O 
  O15      1.0000 0.72017  0.37647  0.45976  Biso   1.000  O 
  O16      1.0000 0.72232  0.38646  0.20840  Biso   1.000  O 
  Hf9      1.0000 0.13449  0.02385  0.67076  Biso   1.000  Hf
  Hf10     1.0000 0.13548  0.23130  0.91886  Biso   1.000  Hf
  Hf11     1.0000 0.35933  0.27332  0.67274  Biso   1.000  Hf
  Hf12     1.0000 0.35454  0.48246  0.92027  Biso   1.000  Hf
  Hf13     1.0000 0.63403  0.02442  0.58025  Biso   1.000  Hf
  Hf14     1.0000 0.63596  0.22921  0.83415  Biso   1.000  Hf
  Hf15     1.0000 0.85654  0.27366  0.58112  Biso   1.000  Hf
  Hf16     1.0000 0.85624  0.48344  0.82924  Biso   1.000  Hf
  O17      1.0000 0.02782  0.16730  0.58292  Biso   1.000  O 
  O18      1.0000 0.03043  0.08775  0.83099  Biso   1.000  O 
  O19      1.0000 0.46358  0.41865  0.58516  Biso   1.000  O 
  O20      1.0000 0.46202  0.33721  0.83689  Biso   1.000  O 
  O21      1.0000 0.27215  0.12666  0.79435  Biso   1.000  O 
  O22      1.0000 0.27139  0.12890  0.54594  Biso   1.000  O 
  O23      1.0000 0.21979  0.37712  0.79481  Biso   1.000  O 
  O24      1.0000 0.22010  0.37890  0.54630  Biso   1.000  O 
  O25      1.0000 0.52941  0.16840  0.66885  Biso   1.000  O 
  O26      1.0000 0.52610  0.07900  0.90771  Biso   1.000  O 
  O27      1.0000 0.96173  0.41876  0.66723  Biso   1.000  O 
  O28      1.0000 0.96396  0.34000  0.91361  Biso   1.000  O 
  O29      1.0000 0.78407  0.12158  0.94764  Biso   1.000  O 
  O30      1.0000 0.77218  0.12850  0.70296  Biso   1.000  O 
  O31      1.0000 0.71562  0.37754  0.96461  Biso   1.000  O 
  O32      1.0000 0.71946  0.37944  0.71052  Biso   1.000  O 
  Hf17     1.0000 0.13860  0.52289  0.17224  Biso   1.000  Hf
  Hf18     1.0000 0.13472  0.73189  0.42143  Biso   1.000  Hf
  Hf19     1.0000 0.36022  0.77261  0.17269  Biso   1.000  Hf
  Hf20     1.0000 0.35880  0.98095  0.42359  Biso   1.000  Hf
  Hf21     1.0000 0.64206  0.53161  0.07794  Biso   1.000  Hf
  Hf22     1.0000 0.63679  0.73242  0.32902  Biso   1.000  Hf
  Hf23     1.0000 0.86375  0.77382  0.07828  Biso   1.000  Hf
  Hf24     1.0000 0.85781  0.98194  0.32731  Biso   1.000  Hf
  O33      1.0000 0.03410  0.66562  0.08292  Biso   1.000  O 
  O34      1.0000 0.03000  0.58883  0.33223  Biso   1.000  O 
  O35      1.0000 0.46717  0.90976  0.07931  Biso   1.000  O 
  O36      1.0000 0.46556  0.83919  0.33278  Biso   1.000  O 
  O37      1.0000 0.27309  0.62629  0.29653  Biso   1.000  O 
  O38      1.0000 0.27875  0.62439  0.04578  Biso   1.000  O 
  O39      1.0000 0.22170  0.87563  0.29599  Biso   1.000  O 
  O40      1.0000 0.22261  0.87472  0.04599  Biso   1.000  O 
  O41      1.0000 0.53001  0.66494  0.17053  Biso   1.000  O 
  O42      1.0000 0.52973  0.58849  0.41860  Biso   1.000  O 
  O43      1.0000 0.96542  0.91920  0.16569  Biso   1.000  O 
  O44      1.0000 0.96278  0.84012  0.41475  Biso   1.000  O 
  O45      1.0000 0.77311  0.62625  0.45440  Biso   1.000  O 
  O46      1.0000 0.77727  0.63357  0.20495  Biso   1.000  O 
  O47      1.0000 0.72009  0.87684  0.45495  Biso   1.000  O 
  O48      1.0000 0.72436  0.88034  0.20489  Biso   1.000  O 
  Hf25     1.0000 0.13334  0.52374  0.67097  Biso   1.000  Hf
  Hf26     1.0000 0.13271  0.73211  0.92161  Biso   1.000  Hf
  Hf27     1.0000 0.35702  0.77323  0.67173  Biso   1.000  Hf
  Hf28     1.0000 0.35388  0.97987  0.92084  Biso   1.000  Hf
  Hf29     1.0000 0.63528  0.52396  0.57957  Biso   1.000  Hf
  Hf30     1.0000 0.63336  0.73293  0.82666  Biso   1.000  Hf
  Hf31     1.0000 0.85716  0.77454  0.57754  Biso   1.000  Hf
  Hf32     1.0000 0.85903  0.98116  0.82627  Biso   1.000  Hf
  O49      1.0000 0.02816  0.66776  0.58130  Biso   1.000  O 
  O50      1.0000 0.02716  0.58921  0.83177  Biso   1.000  O 
  O51      1.0000 0.46357  0.91647  0.58440  Biso   1.000  O 
  O52      1.0000 0.46070  0.83560  0.83238  Biso   1.000  O 
  O53      1.0000 0.27072  0.62573  0.79513  Biso   1.000  O 
  O54      1.0000 0.27099  0.62899  0.54555  Biso   1.000  O 
  O55      1.0000 0.21845  0.87571  0.79483  Biso   1.000  O 
  O56      1.0000 0.22051  0.87853  0.54486  Biso   1.000  O 
  O57      1.0000 0.52814  0.66729  0.66681  Biso   1.000  O 
  O58      1.0000 0.52613  0.58995  0.91710  Biso   1.000  O 
  O59      1.0000 0.96484  0.91727  0.66376  Biso   1.000  O 
  O60      1.0000 0.96321  0.83890  0.91673  Biso   1.000  O 
  O61      1.0000 0.77184  0.62935  0.95316  Biso   1.000  O 
  O62      1.0000 0.77213  0.62951  0.70407  Biso   1.000  O 
  O63      1.0000 0.71879  0.87566  0.95316  Biso   1.000  O 
  O64      1.0000 0.72016  0.87833  0.70409  Biso   1.000  O 
  Cr1      1.0000 0.61275  0.27463  0.10292  Biso   1.000  Cr
