data_image0
_cell_length_a       10.0427
_cell_length_b       10.3099
_cell_length_c       10.4492
_cell_angle_alpha    90
_cell_angle_beta     90
_cell_angle_gamma    90

_symmetry_space_group_name_H-M    "P 1"
_symmetry_int_tables_number       1

loop_
  _symmetry_equiv_pos_as_xyz
  'x, y, z'

loop_
  _atom_site_label
  _atom_site_occupancy
  _atom_site_fract_x
  _atom_site_fract_y
  _atom_site_fract_z
  _atom_site_thermal_displace_type
  _atom_site_B_iso_or_equiv
  _atom_site_type_symbol
  Cs1      1.0000 0.11660  0.01166  0.13982  Biso   1.000  Cs
  Hf1      1.0000 0.13548  0.02241  0.67208  Biso   1.000  Hf
  Hf2      1.0000 0.13628  0.51967  0.17036  Biso   1.000  Hf
  Hf3      1.0000 0.13281  0.52250  0.66881  Biso   1.000  Hf
  Hf4      1.0000 0.13501  0.22644  0.42062  Biso   1.000  Hf
  Hf5      1.0000 0.12980  0.23808  0.91513  Biso   1.000  Hf
  Hf6      1.0000 0.13292  0.72998  0.41960  Biso   1.000  Hf
  Hf7      1.0000 0.13286  0.72740  0.91836  Biso   1.000  Hf
  Hf8      1.0000 0.35677  0.26841  0.17446  Biso   1.000  Hf
  Hf9      1.0000 0.35557  0.27161  0.67022  Biso   1.000  Hf
  Hf10     1.0000 0.36240  0.76750  0.17149  Biso   1.000  Hf
  Hf11     1.0000 0.35300  0.77204  0.66770  Biso   1.000  Hf
  Hf12     1.0000 0.35533  0.47917  0.42019  Biso   1.000  Hf
  Hf13     1.0000 0.35491  0.47953  0.92107  Biso   1.000  Hf
  Hf14     1.0000 0.35214  0.98040  0.41751  Biso   1.000  Hf
  Hf15     1.0000 0.35925  0.97703  0.91653  Biso   1.000  Hf
  Hf16     1.0000 0.64038  0.02131  0.08149  Biso   1.000  Hf
  Hf17     1.0000 0.63141  0.02176  0.58201  Biso   1.000  Hf
  Hf18     1.0000 0.63404  0.51927  0.07965  Biso   1.000  Hf
  Hf19     1.0000 0.63231  0.52168  0.57754  Biso   1.000  Hf
  Hf20     1.0000 0.63334  0.23050  0.33083  Biso   1.000  Hf
  Hf21     1.0000 0.63320  0.23112  0.82864  Biso   1.000  Hf
  Hf22     1.0000 0.63536  0.72924  0.33033  Biso   1.000  Hf
  Hf23     1.0000 0.63065  0.72998  0.82644  Biso   1.000  Hf
  Hf24     1.0000 0.85194  0.27589  0.07927  Biso   1.000  Hf
  Hf25     1.0000 0.85771  0.27308  0.57962  Biso   1.000  Hf
  Hf26     1.0000 0.85467  0.76217  0.07537  Biso   1.000  Hf
  Hf27     1.0000 0.85623  0.77200  0.58049  Biso   1.000  Hf
  Hf28     1.0000 0.85807  0.48024  0.32983  Biso   1.000  Hf
  Hf29     1.0000 0.85343  0.48116  0.82612  Biso   1.000  Hf
  Hf30     1.0000 0.84926  0.98404  0.34291  Biso   1.000  Hf
  Hf31     1.0000 0.85327  0.98096  0.83033  Biso   1.000  Hf
  O1       1.0000 0.03844  0.21156  0.09211  Biso   1.000  O 
  O2       1.0000 0.03153  0.17415  0.59317  Biso   1.000  O 
  O3       1.0000 0.03511  0.67518  0.08857  Biso   1.000  O 
  O4       1.0000 0.02929  0.67113  0.58814  Biso   1.000  O 
  O5       1.0000 0.02245  0.08136  0.35481  Biso   1.000  O 
  O6       1.0000 0.03080  0.08172  0.84238  Biso   1.000  O 
  O7       1.0000 0.03132  0.58142  0.33585  Biso   1.000  O 
  O8       1.0000 0.02725  0.58032  0.83586  Biso   1.000  O 
  O9       1.0000 0.46510  0.41448  0.08487  Biso   1.000  O 
  O10      1.0000 0.46140  0.41662  0.58357  Biso   1.000  O 
  O11      1.0000 0.46990  0.91661  0.08455  Biso   1.000  O 
  O12      1.0000 0.45751  0.91750  0.58359  Biso   1.000  O 
  O13      1.0000 0.46290  0.33593  0.33370  Biso   1.000  O 
  O14      1.0000 0.46019  0.33422  0.83373  Biso   1.000  O 
  O15      1.0000 0.46785  0.83756  0.33255  Biso   1.000  O 
  O16      1.0000 0.46177  0.83560  0.82884  Biso   1.000  O 
  O17      1.0000 0.28007  0.13057  0.30358  Biso   1.000  O 
  O18      1.0000 0.27209  0.12627  0.79490  Biso   1.000  O 
  O19      1.0000 0.27413  0.62023  0.29288  Biso   1.000  O 
  O20      1.0000 0.27011  0.62495  0.79277  Biso   1.000  O 
  O21      1.0000 0.27396  0.12226  0.03982  Biso   1.000  O 
  O22      1.0000 0.27170  0.12564  0.54700  Biso   1.000  O 
  O23      1.0000 0.27185  0.61595  0.04461  Biso   1.000  O 
  O24      1.0000 0.27010  0.62712  0.54243  Biso   1.000  O 
  O25      1.0000 0.21802  0.37418  0.29314  Biso   1.000  O 
  O26      1.0000 0.21692  0.37634  0.79247  Biso   1.000  O 
  O27      1.0000 0.22712  0.86196  0.29736  Biso   1.000  O 
  O28      1.0000 0.21643  0.87459  0.78983  Biso   1.000  O 
  O29      1.0000 0.22579  0.37312  0.04226  Biso   1.000  O 
  O30      1.0000 0.21858  0.37748  0.54376  Biso   1.000  O 
  O31      1.0000 0.25002  0.85234  0.02769  Biso   1.000  O 
  O32      1.0000 0.21496  0.87828  0.54317  Biso   1.000  O 
  O33      1.0000 0.53211  0.16695  0.16596  Biso   1.000  O 
  O34      1.0000 0.52795  0.16771  0.66659  Biso   1.000  O 
  O35      1.0000 0.53309  0.66503  0.16670  Biso   1.000  O 
  O36      1.0000 0.52646  0.66678  0.66444  Biso   1.000  O 
  O37      1.0000 0.53110  0.08370  0.41641  Biso   1.000  O 
  O38      1.0000 0.53193  0.08515  0.91625  Biso   1.000  O 
  O39      1.0000 0.52830  0.58463  0.41543  Biso   1.000  O 
  O40      1.0000 0.52518  0.58640  0.91660  Biso   1.000  O 
  O41      1.0000 0.95582  0.42969  0.15780  Biso   1.000  O 
  O42      1.0000 0.95841  0.42340  0.66112  Biso   1.000  O 
  O43      1.0000 0.94020  0.92032  0.17210  Biso   1.000  O 
  O44      1.0000 0.95762  0.92096  0.66594  Biso   1.000  O 
  O45      1.0000 0.96070  0.33268  0.41319  Biso   1.000  O 
  O46      1.0000 0.95290  0.33155  0.90637  Biso   1.000  O 
  O47      1.0000 0.95740  0.83083  0.41488  Biso   1.000  O 
  O48      1.0000 0.96162  0.83656  0.91966  Biso   1.000  O 
  O49      1.0000 0.77334  0.12618  0.95893  Biso   1.000  O 
  O50      1.0000 0.76880  0.12690  0.46149  Biso   1.000  O 
  O51      1.0000 0.76812  0.62451  0.95438  Biso   1.000  O 
  O52      1.0000 0.77205  0.62477  0.45589  Biso   1.000  O 
  O53      1.0000 0.77528  0.12853  0.21002  Biso   1.000  O 
  O54      1.0000 0.77124  0.12752  0.70863  Biso   1.000  O 
  O55      1.0000 0.77260  0.62562  0.20561  Biso   1.000  O 
  O56      1.0000 0.76896  0.62769  0.70500  Biso   1.000  O 
  O57      1.0000 0.71364  0.37769  0.95427  Biso   1.000  O 
  O58      1.0000 0.71884  0.37580  0.45531  Biso   1.000  O 
  O59      1.0000 0.71640  0.87496  0.95574  Biso   1.000  O 
  O60      1.0000 0.71572  0.87468  0.46041  Biso   1.000  O 
  O61      1.0000 0.71891  0.37698  0.20640  Biso   1.000  O 
  O62      1.0000 0.71775  0.37687  0.70442  Biso   1.000  O 
  O63      1.0000 0.72383  0.87507  0.20732  Biso   1.000  O 
  O64      1.0000 0.71704  0.87690  0.70703  Biso   1.000  O 
