data_image0
_cell_length_a       10.1067
_cell_length_b       10.4289
_cell_length_c       5.2319
_cell_angle_alpha    90
_cell_angle_beta     80
_cell_angle_gamma    90

_symmetry_space_group_name_H-M    "P 1"
_symmetry_int_tables_number       1

loop_
  _symmetry_equiv_pos_as_xyz
  'x, y, z'

loop_
  _atom_site_label
  _atom_site_occupancy
  _atom_site_fract_x
  _atom_site_fract_y
  _atom_site_fract_z
  _atom_site_thermal_displace_type
  _atom_site_B_iso_or_equiv
  _atom_site_type_symbol
  Cs1      1.0000 0.11133  0.01644  0.23689  Biso   1.000  Cs
  Hf1      1.0000 0.13125  0.52106  0.28440  Biso   1.000  Hf
  Hf2      1.0000 0.63677  0.02242  0.29937  Biso   1.000  Hf
  Hf3      1.0000 0.62854  0.51929  0.29233  Biso   1.000  Hf
  Hf4      1.0000 0.12558  0.23698  0.78341  Biso   1.000  Hf
  Hf5      1.0000 0.12692  0.72659  0.78446  Biso   1.000  Hf
  Hf6      1.0000 0.62502  0.22944  0.79778  Biso   1.000  Hf
  Hf7      1.0000 0.62390  0.72864  0.79084  Biso   1.000  Hf
  Hf8      1.0000 0.35443  0.26991  0.21554  Biso   1.000  Hf
  Hf9      1.0000 0.35648  0.76785  0.20384  Biso   1.000  Hf
  Hf10     1.0000 0.84996  0.27764  0.21258  Biso   1.000  Hf
  Hf11     1.0000 0.85009  0.76180  0.20461  Biso   1.000  Hf
  Hf12     1.0000 0.34888  0.47805  0.70877  Biso   1.000  Hf
  Hf13     1.0000 0.34521  0.97647  0.69025  Biso   1.000  Hf
  Hf14     1.0000 0.84804  0.48121  0.70726  Biso   1.000  Hf
  Hf15     1.0000 0.84021  0.98253  0.73992  Biso   1.000  Hf
  O1       1.0000 0.04193  0.22103  0.17968  Biso   1.000  O 
  O2       1.0000 0.03230  0.67479  0.16436  Biso   1.000  O 
  O3       1.0000 0.53257  0.16988  0.16541  Biso   1.000  O 
  O4       1.0000 0.53226  0.66793  0.15872  Biso   1.000  O 
  O5       1.0000 0.01939  0.08332  0.71795  Biso   1.000  O 
  O6       1.0000 0.02375  0.57930  0.66041  Biso   1.000  O 
  O7       1.0000 0.53273  0.07725  0.66516  Biso   1.000  O 
  O8       1.0000 0.52429  0.57827  0.66393  Biso   1.000  O 
  O9       1.0000 0.45548  0.41784  0.34042  Biso   1.000  O 
  O10      1.0000 0.45672  0.91848  0.33401  Biso   1.000  O 
  O11      1.0000 0.94588  0.43522  0.32644  Biso   1.000  O 
  O12      1.0000 0.93808  0.91156  0.37869  Biso   1.000  O 
  O13      1.0000 0.44938  0.32587  0.83936  Biso   1.000  O 
  O14      1.0000 0.45782  0.83281  0.83506  Biso   1.000  O 
  O15      1.0000 0.94492  0.33153  0.82776  Biso   1.000  O 
  O16      1.0000 0.95158  0.83501  0.85928  Biso   1.000  O 
  O17      1.0000 0.28018  0.13939  0.50391  Biso   1.000  O 
  O18      1.0000 0.26817  0.62294  0.47391  Biso   1.000  O 
  O19      1.0000 0.77519  0.13109  0.48901  Biso   1.000  O 
  O20      1.0000 0.76254  0.62854  0.48188  Biso   1.000  O 
  O21      1.0000 0.25964  0.11942  0.98422  Biso   1.000  O 
  O22      1.0000 0.26074  0.61855  0.97760  Biso   1.000  O 
  O23      1.0000 0.76225  0.12459  0.99871  Biso   1.000  O 
  O24      1.0000 0.76267  0.62182  0.98217  Biso   1.000  O 
  O25      1.0000 0.22396  0.38150  0.01125  Biso   1.000  O 
  O26      1.0000 0.22716  0.86394  0.98489  Biso   1.000  O 
  O27      1.0000 0.71578  0.38160  0.01769  Biso   1.000  O 
  O28      1.0000 0.71709  0.87889  0.02785  Biso   1.000  O 
  O29      1.0000 0.21037  0.37485  0.51331  Biso   1.000  O 
  O30      1.0000 0.22135  0.85638  0.51147  Biso   1.000  O 
  O31      1.0000 0.71122  0.37031  0.52102  Biso   1.000  O 
  O32      1.0000 0.71490  0.86998  0.52465  Biso   1.000  O 
