data_image0
_cell_length_a       10.1816
_cell_length_b       10.3155
_cell_length_c       10.5619
_cell_angle_alpha    90
_cell_angle_beta     80
_cell_angle_gamma    90

_symmetry_space_group_name_H-M    "P 1"
_symmetry_int_tables_number       1

loop_
  _symmetry_equiv_pos_as_xyz
  'x, y, z'

loop_
  _atom_site_label
  _atom_site_occupancy
  _atom_site_fract_x
  _atom_site_fract_y
  _atom_site_fract_z
  _atom_site_thermal_displace_type
  _atom_site_B_iso_or_equiv
  _atom_site_type_symbol
  Hf1      1.0000 0.13048  0.02095  0.14351  Biso   1.000  Hf
  Hf2      1.0000 0.13235  0.22576  0.39245  Biso   1.000  Hf
  Hf3      1.0000 0.34646  0.27322  0.08381  Biso   1.000  Hf
  Hf4      1.0000 0.36007  0.49084  0.35592  Biso   1.000  Hf
  O1       1.0000 0.03082  0.16611  0.07258  Biso   1.000  O 
  O2       1.0000 0.02578  0.08199  0.32790  Biso   1.000  O 
  O3       1.0000 0.45632  0.43487  0.15718  Biso   1.000  O 
  O4       1.0000 0.48683  0.38751  0.46034  Biso   1.000  O 
  O5       1.0000 0.25568  0.12992  0.22894  Biso   1.000  O 
  O6       1.0000 0.27806  0.11519  0.48393  Biso   1.000  O 
  O7       1.0000 0.21385  0.38429  0.00356  Biso   1.000  O 
  O8       1.0000 0.22071  0.37448  0.25727  Biso   1.000  O 
  Hf5      1.0000 0.14358  0.02122  0.64256  Biso   1.000  Hf
  Hf6      1.0000 0.13642  0.22879  0.88873  Biso   1.000  Hf
  Hf7      1.0000 0.36788  0.28236  0.60784  Biso   1.000  Hf
  Hf8      1.0000 0.36213  0.48271  0.85674  Biso   1.000  Hf
  O9       1.0000 0.03953  0.16639  0.57693  Biso   1.000  O 
  O10      1.0000 0.03556  0.08436  0.82293  Biso   1.000  O 
  O11      1.0000 0.47185  0.41075  0.69202  Biso   1.000  O 
  O12      1.0000 0.46888  0.33541  0.92070  Biso   1.000  O 
  O13      1.0000 0.27742  0.13021  0.73499  Biso   1.000  O 
  O14      1.0000 0.27443  0.12365  0.98019  Biso   1.000  O 
  O15      1.0000 0.22931  0.37565  0.50679  Biso   1.000  O 
  O16      1.0000 0.22637  0.37427  0.75781  Biso   1.000  O 
  Hf9      1.0000 0.13818  0.52280  0.14849  Biso   1.000  Hf
  Hf10     1.0000 0.13507  0.73002  0.39696  Biso   1.000  Hf
  Hf11     1.0000 0.35798  0.77528  0.10423  Biso   1.000  Hf
  Hf12     1.0000 0.36553  0.96296  0.35980  Biso   1.000  Hf
  O17      1.0000 0.03160  0.66504  0.07722  Biso   1.000  O 
  O18      1.0000 0.03270  0.58496  0.32748  Biso   1.000  O 
  O19      1.0000 0.46355  0.91886  0.17619  Biso   1.000  O 
  O20      1.0000 0.46094  0.81910  0.42485  Biso   1.000  O 
  O21      1.0000 0.27312  0.63387  0.24243  Biso   1.000  O 
  O22      1.0000 0.27206  0.62225  0.49279  Biso   1.000  O 
  O23      1.0000 0.22051  0.88077  0.01067  Biso   1.000  O 
  O24      1.0000 0.22219  0.87217  0.26224  Biso   1.000  O 
  Hf13     1.0000 0.13911  0.52162  0.64567  Biso   1.000  Hf
  Hf14     1.0000 0.13921  0.72879  0.89686  Biso   1.000  Hf
  Hf15     1.0000 0.36189  0.76804  0.60774  Biso   1.000  Hf
  Hf16     1.0000 0.36104  0.97992  0.85092  Biso   1.000  Hf
  O25      1.0000 0.03197  0.66459  0.57723  Biso   1.000  O 
  O26      1.0000 0.03522  0.58585  0.82598  Biso   1.000  O 
  O27      1.0000 0.46536  0.91595  0.66986  Biso   1.000  O 
  O28      1.0000 0.46679  0.83877  0.92182  Biso   1.000  O 
  O29      1.0000 0.27718  0.62729  0.74165  Biso   1.000  O 
  O30      1.0000 0.27883  0.62594  0.99271  Biso   1.000  O 
  O31      1.0000 0.22402  0.87401  0.51273  Biso   1.000  O 
  O32      1.0000 0.22462  0.87079  0.76060  Biso   1.000  O 
  Hf17     1.0000 0.64389  0.01508  0.14824  Biso   1.000  Hf
  Hf18     1.0000 0.66203  0.23011  0.41169  Biso   1.000  Hf
  Hf19     1.0000 0.85914  0.27346  0.10519  Biso   1.000  Hf
  Hf20     1.0000 0.86207  0.47861  0.35348  Biso   1.000  Hf
  O33      1.0000 0.52932  0.15575  0.06849  Biso   1.000  O 
  O34      1.0000 0.56804  0.04358  0.35119  Biso   1.000  O 
  O35      1.0000 0.96602  0.41556  0.17307  Biso   1.000  O 
  O36      1.0000 0.96545  0.33258  0.42349  Biso   1.000  O 
  O37      1.0000 0.77933  0.13051  0.24112  Biso   1.000  O 
  O38      1.0000 0.78692  0.11762  0.49794  Biso   1.000  O 
  O39      1.0000 0.72055  0.37834  0.01336  Biso   1.000  O 
  O40      1.0000 0.72256  0.37231  0.26374  Biso   1.000  O 
  Hf21     1.0000 0.63973  0.02132  0.64523  Biso   1.000  Hf
  Hf22     1.0000 0.64128  0.22546  0.89691  Biso   1.000  Hf
  Hf23     1.0000 0.86784  0.27090  0.61110  Biso   1.000  Hf
  Hf24     1.0000 0.86164  0.47968  0.85507  Biso   1.000  Hf
  O41      1.0000 0.53877  0.17055  0.57873  Biso   1.000  O 
  O42      1.0000 0.53502  0.08586  0.82214  Biso   1.000  O 
  O43      1.0000 0.96997  0.41597  0.67441  Biso   1.000  O 
  O44      1.0000 0.96564  0.33503  0.92088  Biso   1.000  O 
  O45      1.0000 0.77792  0.12814  0.74300  Biso   1.000  O 
  O46      1.0000 0.78057  0.12129  0.99130  Biso   1.000  O 
  O47      1.0000 0.73426  0.37693  0.51804  Biso   1.000  O 
  O48      1.0000 0.72827  0.37156  0.76373  Biso   1.000  O 
  Hf25     1.0000 0.63312  0.52540  0.14269  Biso   1.000  Hf
  Hf26     1.0000 0.64086  0.72437  0.39606  Biso   1.000  Hf
  Hf27     1.0000 0.85878  0.76758  0.10339  Biso   1.000  Hf
  Hf28     1.0000 0.85443  0.97449  0.35427  Biso   1.000  Hf
  O49      1.0000 0.53398  0.67595  0.07676  Biso   1.000  O 
  O50      1.0000 0.53225  0.59288  0.31903  Biso   1.000  O 
  O51      1.0000 0.95976  0.91260  0.17439  Biso   1.000  O 
  O52      1.0000 0.96311  0.83333  0.42294  Biso   1.000  O 
  O53      1.0000 0.77679  0.62472  0.23939  Biso   1.000  O 
  O54      1.0000 0.77493  0.61864  0.48929  Biso   1.000  O 
  O55      1.0000 0.72256  0.87852  0.00996  Biso   1.000  O 
  O56      1.0000 0.72470  0.86181  0.25637  Biso   1.000  O 
  Hf29     1.0000 0.63859  0.52040  0.64789  Biso   1.000  Hf
  Hf30     1.0000 0.63862  0.73154  0.89477  Biso   1.000  Hf
  Hf31     1.0000 0.86114  0.77194  0.60470  Biso   1.000  Hf
  Hf32     1.0000 0.86233  0.97822  0.85341  Biso   1.000  Hf
  O57      1.0000 0.53390  0.66219  0.57907  Biso   1.000  O 
  O58      1.0000 0.53452  0.58824  0.82909  Biso   1.000  O 
  O59      1.0000 0.96660  0.91529  0.67194  Biso   1.000  O 
  O60      1.0000 0.96835  0.83505  0.92242  Biso   1.000  O 
  O61      1.0000 0.77575  0.62881  0.73881  Biso   1.000  O 
  O62      1.0000 0.77646  0.62220  0.98780  Biso   1.000  O 
  O63      1.0000 0.72230  0.87527  0.51069  Biso   1.000  O 
  O64      1.0000 0.72448  0.87297  0.75965  Biso   1.000  O 
  Cs1      1.0000 0.44967  0.23341  0.29664  Biso   1.000  Cs
