data_image0
_cell_length_a       5.06032
_cell_length_b       10.4198
_cell_length_c       10.4562
_cell_angle_alpha    90
_cell_angle_beta     80
_cell_angle_gamma    90

_symmetry_space_group_name_H-M    "P 1"
_symmetry_int_tables_number       1

loop_
  _symmetry_equiv_pos_as_xyz
  'x, y, z'

loop_
  _atom_site_label
  _atom_site_occupancy
  _atom_site_fract_x
  _atom_site_fract_y
  _atom_site_fract_z
  _atom_site_thermal_displace_type
  _atom_site_B_iso_or_equiv
  _atom_site_type_symbol
  Cs1      1.0000 0.22910  0.01102  0.11943  Biso   1.000  Cs
  Hf1      1.0000 0.25279  0.02536  0.65063  Biso   1.000  Hf
  Hf2      1.0000 0.25432  0.51740  0.14641  Biso   1.000  Hf
  Hf3      1.0000 0.24003  0.52329  0.64522  Biso   1.000  Hf
  Hf4      1.0000 0.24980  0.22747  0.39752  Biso   1.000  Hf
  Hf5      1.0000 0.22944  0.23939  0.89450  Biso   1.000  Hf
  Hf6      1.0000 0.24029  0.72825  0.39721  Biso   1.000  Hf
  Hf7      1.0000 0.23647  0.72860  0.89382  Biso   1.000  Hf
  Hf8      1.0000 0.69243  0.27351  0.10958  Biso   1.000  Hf
  Hf9      1.0000 0.69260  0.27381  0.60607  Biso   1.000  Hf
  Hf10     1.0000 0.70612  0.75521  0.10299  Biso   1.000  Hf
  Hf11     1.0000 0.68366  0.77354  0.60353  Biso   1.000  Hf
  Hf12     1.0000 0.69106  0.47881  0.35655  Biso   1.000  Hf
  Hf13     1.0000 0.67900  0.48074  0.85415  Biso   1.000  Hf
  Hf14     1.0000 0.66824  0.98453  0.36579  Biso   1.000  Hf
  Hf15     1.0000 0.67979  0.97725  0.85317  Biso   1.000  Hf
  O1       1.0000 0.07443  0.21271  0.08436  Biso   1.000  O 
  O2       1.0000 0.04417  0.17597  0.58957  Biso   1.000  O 
  O3       1.0000 0.07389  0.67519  0.08246  Biso   1.000  O 
  O4       1.0000 0.03535  0.67324  0.58469  Biso   1.000  O 
  O5       1.0000 0.04171  0.07754  0.35125  Biso   1.000  O 
  O6       1.0000 0.04319  0.08138  0.83892  Biso   1.000  O 
  O7       1.0000 0.04119  0.57989  0.33213  Biso   1.000  O 
  O8       1.0000 0.03109  0.57789  0.83442  Biso   1.000  O 
  O9       1.0000 0.89098  0.42921  0.16701  Biso   1.000  O 
  O10      1.0000 0.88736  0.42604  0.66795  Biso   1.000  O 
  O11      1.0000 0.85876  0.92031  0.18078  Biso   1.000  O 
  O12      1.0000 0.88485  0.92206  0.67225  Biso   1.000  O 
  O13      1.0000 0.89756  0.33028  0.41974  Biso   1.000  O 
  O14      1.0000 0.86730  0.32696  0.91354  Biso   1.000  O 
  O15      1.0000 0.89229  0.83101  0.42198  Biso   1.000  O 
  O16      1.0000 0.90609  0.83802  0.92572  Biso   1.000  O 
  O17      1.0000 0.55766  0.13911  0.25247  Biso   1.000  O 
  O18      1.0000 0.52347  0.13332  0.74554  Biso   1.000  O 
  O19      1.0000 0.52400  0.62157  0.24030  Biso   1.000  O 
  O20      1.0000 0.51287  0.63140  0.74051  Biso   1.000  O 
  O21      1.0000 0.51946  0.12413  0.49992  Biso   1.000  O 
  O22      1.0000 0.51069  0.12224  0.99134  Biso   1.000  O 
  O23      1.0000 0.51650  0.62299  0.49081  Biso   1.000  O 
  O24      1.0000 0.50520  0.61707  0.99288  Biso   1.000  O 
  O25      1.0000 0.43866  0.38148  0.00614  Biso   1.000  O 
  O26      1.0000 0.41570  0.38221  0.51080  Biso   1.000  O 
  O27      1.0000 0.44270  0.86062  0.99407  Biso   1.000  O 
  O28      1.0000 0.40401  0.88291  0.51388  Biso   1.000  O 
  O29      1.0000 0.41317  0.37234  0.26035  Biso   1.000  O 
  O30      1.0000 0.40502  0.37448  0.75908  Biso   1.000  O 
  O31      1.0000 0.45115  0.85508  0.26316  Biso   1.000  O 
  O32      1.0000 0.40337  0.87254  0.75771  Biso   1.000  O 
