data_image0
_cell_length_a       10.0999
_cell_length_b       5.1686
_cell_length_c       10.4781
_cell_angle_alpha    90
_cell_angle_beta     90
_cell_angle_gamma    90

_symmetry_space_group_name_H-M    "P 1"
_symmetry_int_tables_number       1

loop_
  _symmetry_equiv_pos_as_xyz
  'x, y, z'

loop_
  _atom_site_label
  _atom_site_occupancy
  _atom_site_fract_x
  _atom_site_fract_y
  _atom_site_fract_z
  _atom_site_thermal_displace_type
  _atom_site_B_iso_or_equiv
  _atom_site_type_symbol
  Cs1      1.0000 0.11301  0.01071  0.13576  Biso   1.000  Cs
  Hf1      1.0000 0.13130  0.04719  0.66963  Biso   1.000  Hf
  Hf2      1.0000 0.13082  0.45351  0.41896  Biso   1.000  Hf
  Hf3      1.0000 0.12555  0.47211  0.91124  Biso   1.000  Hf
  Hf4      1.0000 0.36014  0.52753  0.17599  Biso   1.000  Hf
  Hf5      1.0000 0.34907  0.54487  0.66729  Biso   1.000  Hf
  Hf6      1.0000 0.34789  0.96019  0.41730  Biso   1.000  Hf
  Hf7      1.0000 0.35535  0.95431  0.91697  Biso   1.000  Hf
  Hf8      1.0000 0.63814  0.04079  0.08264  Biso   1.000  Hf
  Hf9      1.0000 0.62677  0.04493  0.58086  Biso   1.000  Hf
  Hf10     1.0000 0.63140  0.46247  0.33313  Biso   1.000  Hf
  Hf11     1.0000 0.62693  0.46479  0.82647  Biso   1.000  Hf
  Hf12     1.0000 0.84740  0.53597  0.07754  Biso   1.000  Hf
  Hf13     1.0000 0.85461  0.54805  0.58100  Biso   1.000  Hf
  Hf14     1.0000 0.84698  0.97118  0.34391  Biso   1.000  Hf
  Hf15     1.0000 0.84632  0.96783  0.82763  Biso   1.000  Hf
  O1       1.0000 0.03794  0.43546  0.08982  Biso   1.000  O 
  O2       1.0000 0.02795  0.35317  0.59455  Biso   1.000  O 
  O3       1.0000 0.01997  0.16379  0.35361  Biso   1.000  O 
  O4       1.0000 0.02515  0.16161  0.84091  Biso   1.000  O 
  O5       1.0000 0.47039  0.83074  0.08499  Biso   1.000  O 
  O6       1.0000 0.45467  0.83240  0.58214  Biso   1.000  O 
  O7       1.0000 0.46591  0.68052  0.33181  Biso   1.000  O 
  O8       1.0000 0.45794  0.67547  0.82716  Biso   1.000  O 
  O9       1.0000 0.27795  0.25079  0.30135  Biso   1.000  O 
  O10      1.0000 0.26707  0.25410  0.79314  Biso   1.000  O 
  O11      1.0000 0.27049  0.22229  0.03971  Biso   1.000  O 
  O12      1.0000 0.26662  0.25357  0.54488  Biso   1.000  O 
  O13      1.0000 0.22563  0.72320  0.29825  Biso   1.000  O 
  O14      1.0000 0.21137  0.75363  0.78856  Biso   1.000  O 
  O15      1.0000 0.25641  0.69243  0.02527  Biso   1.000  O 
  O16      1.0000 0.21184  0.75845  0.54333  Biso   1.000  O 
  O17      1.0000 0.53262  0.32953  0.16867  Biso   1.000  O 
  O18      1.0000 0.52194  0.33341  0.66691  Biso   1.000  O 
  O19      1.0000 0.52733  0.17138  0.41767  Biso   1.000  O 
  O20      1.0000 0.52425  0.17979  0.91858  Biso   1.000  O 
  O21      1.0000 0.92301  0.87589  0.16300  Biso   1.000  O 
  O22      1.0000 0.95166  0.85236  0.66303  Biso   1.000  O 
  O23      1.0000 0.95394  0.66421  0.41368  Biso   1.000  O 
  O24      1.0000 0.95020  0.67329  0.91015  Biso   1.000  O 
  O25      1.0000 0.76586  0.25442  0.95748  Biso   1.000  O 
  O26      1.0000 0.76578  0.25537  0.46215  Biso   1.000  O 
  O27      1.0000 0.77155  0.26280  0.21118  Biso   1.000  O 
  O28      1.0000 0.76511  0.25926  0.70797  Biso   1.000  O 
  O29      1.0000 0.70829  0.75732  0.95532  Biso   1.000  O 
  O30      1.0000 0.71295  0.75292  0.46086  Biso   1.000  O 
  O31      1.0000 0.71793  0.75574  0.20910  Biso   1.000  O 
  O32      1.0000 0.71316  0.75627  0.70637  Biso   1.000  O 
