data_image0
_cell_length_a       10.0081
_cell_length_b       10.4467
_cell_length_c       5.05341
_cell_angle_alpha    90
_cell_angle_beta     90
_cell_angle_gamma    90

_symmetry_space_group_name_H-M    "P 1"
_symmetry_int_tables_number       1

loop_
  _symmetry_equiv_pos_as_xyz
  'x, y, z'

loop_
  _atom_site_label
  _atom_site_occupancy
  _atom_site_fract_x
  _atom_site_fract_y
  _atom_site_fract_z
  _atom_site_thermal_displace_type
  _atom_site_B_iso_or_equiv
  _atom_site_type_symbol
  Cs1      1.0000 0.11277  0.01262  0.24413  Biso   1.000  Cs
  Hf1      1.0000 0.13307  0.51663  0.25501  Biso   1.000  Hf
  Hf2      1.0000 0.63485  0.01615  0.24971  Biso   1.000  Hf
  Hf3      1.0000 0.62982  0.51494  0.25589  Biso   1.000  Hf
  Hf4      1.0000 0.13330  0.23908  0.74705  Biso   1.000  Hf
  Hf5      1.0000 0.13537  0.73195  0.75788  Biso   1.000  Hf
  Hf6      1.0000 0.63130  0.23327  0.75005  Biso   1.000  Hf
  Hf7      1.0000 0.63182  0.73197  0.75410  Biso   1.000  Hf
  Hf8      1.0000 0.36475  0.26746  0.26676  Biso   1.000  Hf
  Hf9      1.0000 0.36672  0.76209  0.25463  Biso   1.000  Hf
  Hf10     1.0000 0.85636  0.27206  0.24744  Biso   1.000  Hf
  Hf11     1.0000 0.86064  0.75717  0.24323  Biso   1.000  Hf
  Hf12     1.0000 0.36427  0.48249  0.75957  Biso   1.000  Hf
  Hf13     1.0000 0.36483  0.98094  0.74666  Biso   1.000  Hf
  Hf14     1.0000 0.86522  0.48398  0.75355  Biso   1.000  Hf
  Hf15     1.0000 0.85437  0.98458  0.75423  Biso   1.000  Hf
  O1       1.0000 0.03820  0.22563  0.37225  Biso   1.000  O 
  O2       1.0000 0.03561  0.68967  0.38899  Biso   1.000  O 
  O3       1.0000 0.54118  0.18593  0.38187  Biso   1.000  O 
  O4       1.0000 0.53559  0.68100  0.39789  Biso   1.000  O 
  O5       1.0000 0.03142  0.07438  0.76865  Biso   1.000  O 
  O6       1.0000 0.03356  0.56801  0.89420  Biso   1.000  O 
  O7       1.0000 0.53978  0.06565  0.89047  Biso   1.000  O 
  O8       1.0000 0.53389  0.56573  0.89830  Biso   1.000  O 
  O9       1.0000 0.46400  0.43169  0.40019  Biso   1.000  O 
  O10      1.0000 0.46569  0.93235  0.39467  Biso   1.000  O 
  O11      1.0000 0.95696  0.44302  0.38645  Biso   1.000  O 
  O12      1.0000 0.93383  0.93491  0.37843  Biso   1.000  O 
  O13      1.0000 0.46248  0.31349  0.89452  Biso   1.000  O 
  O14      1.0000 0.47119  0.81699  0.90077  Biso   1.000  O 
  O15      1.0000 0.96133  0.32103  0.88774  Biso   1.000  O 
  O16      1.0000 0.96689  0.82234  0.89479  Biso   1.000  O 
  O17      1.0000 0.29218  0.13714  0.54175  Biso   1.000  O 
  O18      1.0000 0.26837  0.61279  0.50384  Biso   1.000  O 
  O19      1.0000 0.76980  0.11896  0.49738  Biso   1.000  O 
  O20      1.0000 0.76867  0.61572  0.49691  Biso   1.000  O 
  O21      1.0000 0.26059  0.12396  0.02235  Biso   1.000  O 
  O22      1.0000 0.26840  0.62742  0.00539  Biso   1.000  O 
  O23      1.0000 0.77424  0.13334  0.99774  Biso   1.000  O 
  O24      1.0000 0.76860  0.63073  0.99547  Biso   1.000  O 
  O25      1.0000 0.22844  0.38029  0.00857  Biso   1.000  O 
  O26      1.0000 0.24239  0.87036  0.99202  Biso   1.000  O 
  O27      1.0000 0.72388  0.38252  0.00030  Biso   1.000  O 
  O28      1.0000 0.72380  0.87740  0.00725  Biso   1.000  O 
  O29      1.0000 0.22790  0.37483  0.50589  Biso   1.000  O 
  O30      1.0000 0.24486  0.85246  0.51946  Biso   1.000  O 
  O31      1.0000 0.72671  0.36949  0.50374  Biso   1.000  O 
  O32      1.0000 0.72995  0.86494  0.50264  Biso   1.000  O 
