data_image0
_cell_length_a       10.5234
_cell_length_b       10.605
_cell_length_c       5.15319
_cell_angle_alpha    90
_cell_angle_beta     90
_cell_angle_gamma    90

_symmetry_space_group_name_H-M    "P 1"
_symmetry_int_tables_number       1

loop_
  _symmetry_equiv_pos_as_xyz
  'x, y, z'

loop_
  _atom_site_label
  _atom_site_occupancy
  _atom_site_fract_x
  _atom_site_fract_y
  _atom_site_fract_z
  _atom_site_thermal_displace_type
  _atom_site_B_iso_or_equiv
  _atom_site_type_symbol
  Hf1      1.0000 0.03221  0.94572  0.38728  Biso   1.000  Hf
  Hf2      1.0000 0.10741  0.08498  0.95375  Biso   1.000  Hf
  Hf3      1.0000 0.32817  0.26879  0.21558  Biso   1.000  Hf
  Hf4      1.0000 0.39311  0.98586  0.81402  Biso   1.000  Hf
  O1       1.0000 0.91069  0.17249  0.01218  Biso   1.000  O 
  O2       1.0000 0.01546  0.00706  0.62885  Biso   1.000  O 
  O3       1.0000 0.81484  0.38687  0.46195  Biso   1.000  O 
  O4       1.0000 0.91278  0.42699  0.00596  Biso   1.000  O 
  O5       1.0000 0.23689  0.07746  0.65933  Biso   1.000  O 
  O6       1.0000 0.26678  0.07934  0.14782  Biso   1.000  O 
  O7       1.0000 0.14807  0.30036  0.03873  Biso   1.000  O 
  O8       1.0000 0.21689  0.40245  0.42654  Biso   1.000  O 
  Hf5      1.0000 0.08026  0.47763  0.18530  Biso   1.000  Hf
  Hf6      1.0000 0.09246  0.69500  0.69707  Biso   1.000  Hf
  Hf7      1.0000 0.29826  0.75103  0.19629  Biso   1.000  Hf
  Hf8      1.0000 0.34000  0.48185  0.68398  Biso   1.000  Hf
  O9       1.0000 0.93817  0.65223  0.94703  Biso   1.000  O 
  O10      1.0000 0.00335  0.53665  0.52290  Biso   1.000  O 
  O11      1.0000 0.95834  0.77077  0.45361  Biso   1.000  O 
  O12      1.0000 0.89297  0.93495  0.10415  Biso   1.000  O 
  O13      1.0000 0.24346  0.62760  0.47635  Biso   1.000  O 
  O14      1.0000 0.19708  0.55956  0.94950  Biso   1.000  O 
  O15      1.0000 0.16502  0.80797  0.99703  Biso   1.000  O 
  O16      1.0000 0.19563  0.85364  0.51078  Biso   1.000  O 
  Hf9      1.0000 0.51740  0.96931  0.26653  Biso   1.000  Hf
  Hf10     1.0000 0.58050  0.22134  0.66026  Biso   1.000  Hf
  Hf11     1.0000 0.77248  0.29047  0.15530  Biso   1.000  Hf
  Hf12     1.0000 0.83625  0.01552  0.75310  Biso   1.000  Hf
  O17      1.0000 0.45945  0.15922  0.94311  Biso   1.000  O 
  O18      1.0000 0.51686  0.05181  0.51578  Biso   1.000  O 
  O19      1.0000 0.40553  0.30395  0.56759  Biso   1.000  O 
  O20      1.0000 0.39262  0.42858  0.03036  Biso   1.000  O 
  O21      1.0000 0.74815  0.13171  0.47440  Biso   1.000  O 
  O22      1.0000 0.69267  0.09711  0.97437  Biso   1.000  O 
  O23      1.0000 0.68250  0.36450  0.87969  Biso   1.000  O 
  O24      1.0000 0.59537  0.32856  0.31930  Biso   1.000  O 
  Hf13     1.0000 0.55455  0.50351  0.15232  Biso   1.000  Hf
  Hf14     1.0000 0.57862  0.71710  0.68641  Biso   1.000  Hf
  Hf15     1.0000 0.80285  0.76950  0.20450  Biso   1.000  Hf
  Hf16     1.0000 0.83139  0.51274  0.73769  Biso   1.000  Hf
  O25      1.0000 0.44832  0.62990  0.95858  Biso   1.000  O 
  O26      1.0000 0.49823  0.55102  0.50977  Biso   1.000  O 
  O27      1.0000 0.45018  0.79758  0.43648  Biso   1.000  O 
  O28      1.0000 0.38161  0.91134  0.01702  Biso   1.000  O 
  O29      1.0000 0.73204  0.64512  0.49706  Biso   1.000  O 
  O30      1.0000 0.69543  0.60442  0.98914  Biso   1.000  O 
  O31      1.0000 0.65692  0.84798  0.96426  Biso   1.000  O 
  O32      1.0000 0.66732  0.87717  0.46438  Biso   1.000  O 
  Cs1      1.0000 0.02178  0.26028  0.54839  Biso   1.000  Cs
