data_image0
_cell_length_a       5.15317
_cell_length_b       10.6051
_cell_length_c       10.5235
_cell_angle_alpha    90
_cell_angle_beta     90
_cell_angle_gamma    90

_symmetry_space_group_name_H-M    "P 1"
_symmetry_int_tables_number       1

loop_
  _symmetry_equiv_pos_as_xyz
  'x, y, z'

loop_
  _atom_site_label
  _atom_site_occupancy
  _atom_site_fract_x
  _atom_site_fract_y
  _atom_site_fract_z
  _atom_site_thermal_displace_type
  _atom_site_B_iso_or_equiv
  _atom_site_type_symbol
  Hf1      1.0000 0.18044  0.99864  0.10701  Biso   1.000  Hf
  Hf2      1.0000 0.15463  0.14518  0.43648  Biso   1.000  Hf
  Hf3      1.0000 0.99866  0.36630  0.14070  Biso   1.000  Hf
  Hf4      1.0000 0.84545  0.91229  0.35520  Biso   1.000  Hf
  O1       1.0000 0.06110  0.18740  0.06163  Biso   1.000  O 
  O2       1.0000 0.99728  0.03291  0.27768  Biso   1.000  O 
  O3       1.0000 0.03569  0.28423  0.31352  Biso   1.000  O 
  O4       1.0000 0.14175  0.28926  0.96552  Biso   1.000  O 
  O5       1.0000 0.45106  0.04556  0.38516  Biso   1.000  O 
  O6       1.0000 0.37551  0.95431  0.97531  Biso   1.000  O 
  O7       1.0000 0.71420  0.39974  0.01006  Biso   1.000  O 
  O8       1.0000 0.67855  0.44186  0.23849  Biso   1.000  O 
  Hf5      1.0000 0.24493  0.90431  0.62423  Biso   1.000  Hf
  Hf6      1.0000 0.18914  0.10756  0.88036  Biso   1.000  Hf
  Hf7      1.0000 0.65490  0.17290  0.64157  Biso   1.000  Hf
  Hf8      1.0000 0.76439  0.88131  0.84568  Biso   1.000  Hf
  O9       1.0000 0.86216  0.03742  0.52398  Biso   1.000  O 
  O10      1.0000 0.98820  0.96363  0.79325  Biso   1.000  O 
  O11      1.0000 0.93726  0.20983  0.77291  Biso   1.000  O 
  O12      1.0000 0.99123  0.30031  0.55035  Biso   1.000  O 
  O13      1.0000 0.54081  0.07159  0.80301  Biso   1.000  O 
  O14      1.0000 0.30212  0.07952  0.60880  Biso   1.000  O 
  O15      1.0000 0.49162  0.28904  0.48520  Biso   1.000  O 
  O16      1.0000 0.52825  0.33703  0.72545  Biso   1.000  O 
  Hf9      1.0000 0.45377  0.52081  0.09490  Biso   1.000  Hf
  Hf10     1.0000 0.27916  0.67146  0.34349  Biso   1.000  Hf
  Hf11     1.0000 0.79849  0.76680  0.07186  Biso   1.000  Hf
  Hf12     1.0000 0.78998  0.40649  0.41638  Biso   1.000  Hf
  O17      1.0000 0.02422  0.52623  0.97945  Biso   1.000  O 
  O18      1.0000 0.16377  0.52253  0.23116  Biso   1.000  O 
  O19      1.0000 0.04349  0.78141  0.23324  Biso   1.000  O 
  O20      1.0000 0.01031  0.77766  0.98001  Biso   1.000  O 
  O21      1.0000 0.53747  0.68229  0.19203  Biso   1.000  O 
  O22      1.0000 0.53528  0.50040  0.93759  Biso   1.000  O 
  O23      1.0000 0.53265  0.73127  0.91972  Biso   1.000  O 
  O24      1.0000 0.63909  0.91753  0.17920  Biso   1.000  O 
  Hf13     1.0000 0.29745  0.43506  0.60064  Biso   1.000  Hf
  Hf14     1.0000 0.24111  0.62506  0.84594  Biso   1.000  Hf
  Hf15     1.0000 0.75223  0.67919  0.57807  Biso   1.000  Hf
  Hf16     1.0000 0.82627  0.37691  0.86017  Biso   1.000  Hf
  O25      1.0000 0.01779  0.55097  0.48628  Biso   1.000  O 
  O26      1.0000 0.04724  0.48285  0.74010  Biso   1.000  O 
  O27      1.0000 0.02649  0.74008  0.72181  Biso   1.000  O 
  O28      1.0000 0.07599  0.79611  0.48063  Biso   1.000  O 
  O29      1.0000 0.48448  0.59096  0.69190  Biso   1.000  O 
  O30      1.0000 0.51607  0.53926  0.46648  Biso   1.000  O 
  O31      1.0000 0.58229  0.77614  0.43342  Biso   1.000  O 
  O32      1.0000 0.59194  0.83877  0.67773  Biso   1.000  O 
  Cs1      1.0000 0.56651  0.19469  0.19778  Biso   1.000  Cs
