data_image0
_cell_length_a       10.0735
_cell_length_b       10.2987
_cell_length_c       5.07412
_cell_angle_alpha    90
_cell_angle_beta     90
_cell_angle_gamma    90

_symmetry_space_group_name_H-M    "P 1"
_symmetry_int_tables_number       1

loop_
  _symmetry_equiv_pos_as_xyz
  'x, y, z'

loop_
  _atom_site_label
  _atom_site_occupancy
  _atom_site_fract_x
  _atom_site_fract_y
  _atom_site_fract_z
  _atom_site_thermal_displace_type
  _atom_site_B_iso_or_equiv
  _atom_site_type_symbol
  Hf1      1.0000 0.14106  0.96487  0.30654  Biso   1.000  Hf
  Hf2      1.0000 0.11437  0.25369  0.63494  Biso   1.000  Hf
  Hf3      1.0000 0.38094  0.23788  0.22970  Biso   1.000  Hf
  Hf4      1.0000 0.40297  0.00161  0.74927  Biso   1.000  Hf
  O1       1.0000 0.00123  0.14929  0.90842  Biso   1.000  O 
  O2       1.0000 0.99314  0.09684  0.43852  Biso   1.000  O 
  O3       1.0000 0.96680  0.36743  0.47097  Biso   1.000  O 
  O4       1.0000 0.00159  0.39591  0.97055  Biso   1.000  O 
  O5       1.0000 0.25607  0.11816  0.54619  Biso   1.000  O 
  O6       1.0000 0.28145  0.06267  0.06679  Biso   1.000  O 
  O7       1.0000 0.26633  0.30748  0.91142  Biso   1.000  O 
  O8       1.0000 0.24186  0.39044  0.44118  Biso   1.000  O 
  Hf5      1.0000 0.09877  0.50681  0.25678  Biso   1.000  Hf
  Hf6      1.0000 0.13170  0.72858  0.78265  Biso   1.000  Hf
  Hf7      1.0000 0.38712  0.74963  0.31253  Biso   1.000  Hf
  Hf8      1.0000 0.36058  0.47833  0.73393  Biso   1.000  Hf
  O9       1.0000 0.98461  0.65256  0.04449  Biso   1.000  O 
  O10      1.0000 0.00764  0.60110  0.55279  Biso   1.000  O 
  O11      1.0000 0.00694  0.84483  0.53063  Biso   1.000  O 
  O12      1.0000 0.00011  0.90347  0.02689  Biso   1.000  O 
  O13      1.0000 0.25313  0.63093  0.49860  Biso   1.000  O 
  O14      1.0000 0.22547  0.56319  0.96512  Biso   1.000  O 
  O15      1.0000 0.23041  0.81173  0.09834  Biso   1.000  O 
  O16      1.0000 0.25964  0.87290  0.58804  Biso   1.000  O 
  Hf9      1.0000 0.64215  0.01844  0.22266  Biso   1.000  Hf
  Hf10     1.0000 0.63400  0.26129  0.72760  Biso   1.000  Hf
  Hf11     1.0000 0.88237  0.24919  0.18769  Biso   1.000  Hf
  Hf12     1.0000 0.89211  0.98927  0.75199  Biso   1.000  Hf
  O17      1.0000 0.51741  0.14129  0.97036  Biso   1.000  O 
  O18      1.0000 0.50294  0.10383  0.46852  Biso   1.000  O 
  O19      1.0000 0.48815  0.34967  0.49380  Biso   1.000  O 
  O20      1.0000 0.49446  0.38564  0.99893  Biso   1.000  O 
  O21      1.0000 0.73610  0.18141  0.42853  Biso   1.000  O 
  O22      1.0000 0.76131  0.10830  0.94189  Biso   1.000  O 
  O23      1.0000 0.74148  0.36737  0.01874  Biso   1.000  O 
  O24      1.0000 0.71859  0.43086  0.55419  Biso   1.000  O 
  Hf13     1.0000 0.60483  0.49481  0.24994  Biso   1.000  Hf
  Hf14     1.0000 0.61275  0.73899  0.80262  Biso   1.000  Hf
  Hf15     1.0000 0.86098  0.76986  0.26493  Biso   1.000  Hf
  Hf16     1.0000 0.86382  0.51334  0.77168  Biso   1.000  Hf
  O25      1.0000 0.48056  0.63852  0.03637  Biso   1.000  O 
  O26      1.0000 0.50379  0.60396  0.53687  Biso   1.000  O 
  O27      1.0000 0.51388  0.85686  0.54078  Biso   1.000  O 
  O28      1.0000 0.49354  0.89238  0.03735  Biso   1.000  O 
  O29      1.0000 0.76597  0.67901  0.56726  Biso   1.000  O 
  O30      1.0000 0.73389  0.61818  0.05520  Biso   1.000  O 
  O31      1.0000 0.75354  0.85997  0.97770  Biso   1.000  O 
  O32      1.0000 0.76908  0.93008  0.45336  Biso   1.000  O 
  Cu1      1.0000 0.14268  0.20152  0.11997  Biso   1.000  Cu
