data_image0
_cell_length_a       5.02993
_cell_length_b       10.2332
_cell_length_c       10.054
_cell_angle_alpha    90
_cell_angle_beta     90
_cell_angle_gamma    90

_symmetry_space_group_name_H-M    "P 1"
_symmetry_int_tables_number       1

loop_
  _symmetry_equiv_pos_as_xyz
  'x, y, z'

loop_
  _atom_site_label
  _atom_site_occupancy
  _atom_site_fract_x
  _atom_site_fract_y
  _atom_site_fract_z
  _atom_site_thermal_displace_type
  _atom_site_B_iso_or_equiv
  _atom_site_type_symbol
  Cu1      1.0000 0.27157  0.03117  0.10934  Biso   1.000  Cu
  Hf1      1.0000 0.19642  0.23625  0.37205  Biso   1.000  Hf
  Hf2      1.0000 0.74884  0.23577  0.10837  Biso   1.000  Hf
  Hf3      1.0000 0.70852  0.98372  0.35290  Biso   1.000  Hf
  O1       1.0000 0.90721  0.09577  0.99315  Biso   1.000  O 
  O2       1.0000 0.96592  0.08971  0.23665  Biso   1.000  O 
  O3       1.0000 0.86483  0.31841  0.28192  Biso   1.000  O 
  O4       1.0000 0.93392  0.40250  0.03145  Biso   1.000  O 
  O5       1.0000 0.45014  0.14730  0.22770  Biso   1.000  O 
  O6       1.0000 0.41343  0.05642  0.96876  Biso   1.000  O 
  O7       1.0000 0.43434  0.34173  0.03253  Biso   1.000  O 
  O8       1.0000 0.36562  0.40534  0.28734  Biso   1.000  O 
  Hf4      1.0000 0.19458  0.98095  0.60185  Biso   1.000  Hf
  Hf5      1.0000 0.15737  0.20421  0.86117  Biso   1.000  Hf
  Hf6      1.0000 0.69340  0.20979  0.61686  Biso   1.000  Hf
  Hf7      1.0000 0.70822  0.94113  0.87412  Biso   1.000  Hf
  O9       1.0000 0.94291  0.11811  0.48738  Biso   1.000  O 
  O10      1.0000 0.91005  0.05721  0.73628  Biso   1.000  O 
  O11      1.0000 0.84439  0.30125  0.77808  Biso   1.000  O 
  O12      1.0000 0.94323  0.36478  0.52077  Biso   1.000  O 
  O13      1.0000 0.38524  0.12933  0.71728  Biso   1.000  O 
  O14      1.0000 0.44065  0.08628  0.47471  Biso   1.000  O 
  O15      1.0000 0.44409  0.33450  0.51739  Biso   1.000  O 
  O16      1.0000 0.35325  0.37055  0.77787  Biso   1.000  O 
  Hf8      1.0000 0.23343  0.50268  0.12482  Biso   1.000  Hf
  Hf9      1.0000 0.15173  0.71865  0.38210  Biso   1.000  Hf
  Hf10     1.0000 0.71042  0.73856  0.12945  Biso   1.000  Hf
  Hf11     1.0000 0.69924  0.46964  0.39211  Biso   1.000  Hf
  O17      1.0000 0.01349  0.65303  0.01173  Biso   1.000  O 
  O18      1.0000 0.92070  0.57781  0.25683  Biso   1.000  O 
  O19      1.0000 0.93329  0.83215  0.26263  Biso   1.000  O 
  O20      1.0000 0.12279  0.90543  0.00348  Biso   1.000  O 
  O21      1.0000 0.41303  0.65787  0.24010  Biso   1.000  O 
  O22      1.0000 0.50358  0.59526  0.00255  Biso   1.000  O 
  O23      1.0000 0.48795  0.78856  0.95789  Biso   1.000  O 
  O24      1.0000 0.47953  0.91082  0.20378  Biso   1.000  O 
  Hf12     1.0000 0.20161  0.47988  0.62742  Biso   1.000  Hf
  Hf13     1.0000 0.15144  0.69942  0.88238  Biso   1.000  Hf
  Hf14     1.0000 0.65041  0.73779  0.61285  Biso   1.000  Hf
  Hf15     1.0000 0.65633  0.46569  0.87215  Biso   1.000  Hf
  O25      1.0000 0.92564  0.61350  0.51323  Biso   1.000  O 
  O26      1.0000 0.94953  0.54983  0.76775  Biso   1.000  O 
  O27      1.0000 0.92071  0.80020  0.75428  Biso   1.000  O 
  O28      1.0000 0.91604  0.86911  0.50379  Biso   1.000  O 
  O29      1.0000 0.44062  0.61783  0.74717  Biso   1.000  O 
  O30      1.0000 0.42725  0.58943  0.49758  Biso   1.000  O 
  O31      1.0000 0.42239  0.83879  0.47236  Biso   1.000  O 
  O32      1.0000 0.44782  0.87936  0.72161  Biso   1.000  O 
