data_image0
_cell_length_a       10.1408
_cell_length_b       10.2877
_cell_length_c       10.4837
_cell_angle_alpha    90
_cell_angle_beta     80
_cell_angle_gamma    90

_symmetry_space_group_name_H-M    "P 1"
_symmetry_int_tables_number       1

loop_
  _symmetry_equiv_pos_as_xyz
  'x, y, z'

loop_
  _atom_site_label
  _atom_site_occupancy
  _atom_site_fract_x
  _atom_site_fract_y
  _atom_site_fract_z
  _atom_site_thermal_displace_type
  _atom_site_B_iso_or_equiv
  _atom_site_type_symbol
  Hf1      1.0000 0.13558  0.02143  0.14457  Biso   1.000  Hf
  Hf2      1.0000 0.14004  0.22937  0.39431  Biso   1.000  Hf
  Hf3      1.0000 0.35550  0.27406  0.10063  Biso   1.000  Hf
  Hf4      1.0000 0.35816  0.47610  0.34896  Biso   1.000  Hf
  O1       1.0000 0.03341  0.16930  0.07908  Biso   1.000  O 
  O2       1.0000 0.03492  0.08031  0.32965  Biso   1.000  O 
  O3       1.0000 0.46086  0.42567  0.16446  Biso   1.000  O 
  O4       1.0000 0.47922  0.34513  0.43183  Biso   1.000  O 
  O5       1.0000 0.27235  0.12375  0.23798  Biso   1.000  O 
  O6       1.0000 0.28012  0.11731  0.48976  Biso   1.000  O 
  O7       1.0000 0.21950  0.38173  0.00549  Biso   1.000  O 
  O8       1.0000 0.20896  0.37444  0.25367  Biso   1.000  O 
  Hf5      1.0000 0.13918  0.01956  0.64594  Biso   1.000  Hf
  Hf6      1.0000 0.13760  0.22680  0.89507  Biso   1.000  Hf
  Hf7      1.0000 0.36187  0.27132  0.60798  Biso   1.000  Hf
  Hf8      1.0000 0.36066  0.47739  0.85465  Biso   1.000  Hf
  O9       1.0000 0.03888  0.16785  0.57942  Biso   1.000  O 
  O10      1.0000 0.03523  0.07951  0.82880  Biso   1.000  O 
  O11      1.0000 0.46612  0.41547  0.67471  Biso   1.000  O 
  O12      1.0000 0.46473  0.33043  0.92045  Biso   1.000  O 
  O13      1.0000 0.27677  0.12723  0.74028  Biso   1.000  O 
  O14      1.0000 0.27469  0.11961  0.98879  Biso   1.000  O 
  O15      1.0000 0.22658  0.37595  0.50978  Biso   1.000  O 
  O16      1.0000 0.22393  0.36937  0.75884  Biso   1.000  O 
  Hf9      1.0000 0.13661  0.52265  0.14410  Biso   1.000  Hf
  Hf10     1.0000 0.13698  0.72510  0.39636  Biso   1.000  Hf
  Hf11     1.0000 0.35952  0.77133  0.10388  Biso   1.000  Hf
  Hf12     1.0000 0.35747  0.96782  0.35598  Biso   1.000  Hf
  O17      1.0000 0.03237  0.67046  0.07882  Biso   1.000  O 
  O18      1.0000 0.03281  0.58218  0.32844  Biso   1.000  O 
  O19      1.0000 0.46334  0.91782  0.17273  Biso   1.000  O 
  O20      1.0000 0.46318  0.82739  0.42195  Biso   1.000  O 
  O21      1.0000 0.27465  0.62855  0.24020  Biso   1.000  O 
  O22      1.0000 0.27482  0.61848  0.49029  Biso   1.000  O 
  O23      1.0000 0.22202  0.87962  0.00986  Biso   1.000  O 
  O24      1.0000 0.22106  0.86826  0.26004  Biso   1.000  O 
  Hf13     1.0000 0.13950  0.52008  0.64530  Biso   1.000  Hf
  Hf14     1.0000 0.13732  0.72702  0.89618  Biso   1.000  Hf
  Hf15     1.0000 0.36058  0.76811  0.60523  Biso   1.000  Hf
  Hf16     1.0000 0.36006  0.97646  0.85433  Biso   1.000  Hf
  O25      1.0000 0.03343  0.66559  0.57967  Biso   1.000  O 
  O26      1.0000 0.03545  0.57986  0.82936  Biso   1.000  O 
  O27      1.0000 0.46403  0.91571  0.67116  Biso   1.000  O 
  O28      1.0000 0.46438  0.83082  0.92117  Biso   1.000  O 
  O29      1.0000 0.27634  0.62656  0.74059  Biso   1.000  O 
  O30      1.0000 0.27604  0.62058  0.99013  Biso   1.000  O 
  O31      1.0000 0.22188  0.87540  0.51066  Biso   1.000  O 
  O32      1.0000 0.22278  0.86909  0.75983  Biso   1.000  O 
  Hf17     1.0000 0.63935  0.02075  0.14631  Biso   1.000  Hf
  Hf18     1.0000 0.65095  0.22890  0.40293  Biso   1.000  Hf
  Hf19     1.0000 0.85918  0.27242  0.10495  Biso   1.000  Hf
  Hf20     1.0000 0.86139  0.47770  0.35393  Biso   1.000  Hf
  O33      1.0000 0.53248  0.16828  0.08203  Biso   1.000  O 
  O34      1.0000 0.53883  0.07557  0.33604  Biso   1.000  O 
  O35      1.0000 0.96065  0.42083  0.16873  Biso   1.000  O 
  O36      1.0000 0.96486  0.33126  0.42139  Biso   1.000  O 
  O37      1.0000 0.77657  0.12872  0.24207  Biso   1.000  O 
  O38      1.0000 0.78104  0.11825  0.49376  Biso   1.000  O 
  O39      1.0000 0.72173  0.37941  0.01118  Biso   1.000  O 
  O40      1.0000 0.72181  0.37062  0.26143  Biso   1.000  O 
  Hf21     1.0000 0.63891  0.01939  0.64768  Biso   1.000  Hf
  Hf22     1.0000 0.63825  0.22694  0.89765  Biso   1.000  Hf
  Hf23     1.0000 0.86475  0.27003  0.60702  Biso   1.000  Hf
  Hf24     1.0000 0.86106  0.47693  0.85531  Biso   1.000  Hf
  O41      1.0000 0.53693  0.16666  0.58062  Biso   1.000  O 
  O42      1.0000 0.53498  0.07999  0.83047  Biso   1.000  O 
  O43      1.0000 0.96618  0.41680  0.67185  Biso   1.000  O 
  O44      1.0000 0.96319  0.32881  0.92009  Biso   1.000  O 
  O45      1.0000 0.77656  0.12758  0.74229  Biso   1.000  O 
  O46      1.0000 0.77555  0.11874  0.99178  Biso   1.000  O 
  O47      1.0000 0.72740  0.37683  0.51336  Biso   1.000  O 
  O48      1.0000 0.72453  0.36948  0.76169  Biso   1.000  O 
  Hf25     1.0000 0.63702  0.52271  0.14672  Biso   1.000  Hf
  Hf26     1.0000 0.63844  0.72558  0.39631  Biso   1.000  Hf
  Hf27     1.0000 0.85836  0.77144  0.10437  Biso   1.000  Hf
  Hf28     1.0000 0.86110  0.97615  0.35484  Biso   1.000  Hf
  O49      1.0000 0.53468  0.67096  0.07952  Biso   1.000  O 
  O50      1.0000 0.53294  0.58251  0.32812  Biso   1.000  O 
  O51      1.0000 0.96174  0.91799  0.17093  Biso   1.000  O 
  O52      1.0000 0.96355  0.82984  0.42118  Biso   1.000  O 
  O53      1.0000 0.77553  0.62967  0.24124  Biso   1.000  O 
  O54      1.0000 0.77540  0.61902  0.49093  Biso   1.000  O 
  O55      1.0000 0.72156  0.88012  0.01039  Biso   1.000  O 
  O56      1.0000 0.72111  0.87081  0.26062  Biso   1.000  O 
  Hf29     1.0000 0.63920  0.52017  0.64755  Biso   1.000  Hf
  Hf30     1.0000 0.63796  0.72687  0.89648  Biso   1.000  Hf
  Hf31     1.0000 0.86026  0.77002  0.60445  Biso   1.000  Hf
  Hf32     1.0000 0.86010  0.97682  0.85433  Biso   1.000  Hf
  O57      1.0000 0.53451  0.66525  0.58016  Biso   1.000  O 
  O58      1.0000 0.53478  0.58095  0.83009  Biso   1.000  O 
  O59      1.0000 0.96380  0.91703  0.67032  Biso   1.000  O 
  O60      1.0000 0.96349  0.83023  0.92028  Biso   1.000  O 
  O61      1.0000 0.77629  0.62727  0.74090  Biso   1.000  O 
  O62      1.0000 0.77570  0.61932  0.99060  Biso   1.000  O 
  O63      1.0000 0.72224  0.87730  0.51060  Biso   1.000  O 
  O64      1.0000 0.72300  0.86946  0.76042  Biso   1.000  O 
  Cu1      1.0000 0.42166  0.22026  0.31884  Biso   1.000  Cu
