data_image0
_cell_length_a       10.0086
_cell_length_b       5.018
_cell_length_c       10.1843
_cell_angle_alpha    90
_cell_angle_beta     90
_cell_angle_gamma    90

_symmetry_space_group_name_H-M    "P 1"
_symmetry_int_tables_number       1

loop_
  _symmetry_equiv_pos_as_xyz
  'x, y, z'

loop_
  _atom_site_label
  _atom_site_occupancy
  _atom_site_fract_x
  _atom_site_fract_y
  _atom_site_fract_z
  _atom_site_thermal_displace_type
  _atom_site_B_iso_or_equiv
  _atom_site_type_symbol
  Cu1      1.0000 0.12965  0.01448  0.10088  Biso   1.000  Cu
  Hf1      1.0000 0.12608  0.47096  0.39473  Biso   1.000  Hf
  Hf2      1.0000 0.37211  0.55568  0.13632  Biso   1.000  Hf
  Hf3      1.0000 0.35798  0.00728  0.38187  Biso   1.000  Hf
  O1       1.0000 0.01086  0.19935  0.98768  Biso   1.000  O 
  O2       1.0000 0.03001  0.19592  0.22989  Biso   1.000  O 
  O3       1.0000 0.99712  0.67741  0.28666  Biso   1.000  O 
  O4       1.0000 0.00882  0.72039  0.02337  Biso   1.000  O 
  O5       1.0000 0.28842  0.34863  0.29358  Biso   1.000  O 
  O6       1.0000 0.27067  0.28996  0.02493  Biso   1.000  O 
  O7       1.0000 0.24722  0.77092  0.98534  Biso   1.000  O 
  O8       1.0000 0.25522  0.84443  0.22617  Biso   1.000  O 
  Hf4      1.0000 0.13782  0.97316  0.64004  Biso   1.000  Hf
  Hf5      1.0000 0.12980  0.48270  0.88078  Biso   1.000  Hf
  Hf6      1.0000 0.38902  0.49765  0.61179  Biso   1.000  Hf
  Hf7      1.0000 0.39678  0.97688  0.87028  Biso   1.000  Hf
  O9       1.0000 0.99796  0.20697  0.48408  Biso   1.000  O 
  O10      1.0000 0.98786  0.25431  0.73948  Biso   1.000  O 
  O11      1.0000 0.01980  0.76002  0.78001  Biso   1.000  O 
  O12      1.0000 0.00948  0.71124  0.53411  Biso   1.000  O 
  O13      1.0000 0.22369  0.17742  0.78620  Biso   1.000  O 
  O14      1.0000 0.24589  0.23631  0.53482  Biso   1.000  O 
  O15      1.0000 0.25568  0.74782  0.48342  Biso   1.000  O 
  O16      1.0000 0.26012  0.68538  0.73597  Biso   1.000  O 
  Hf8      1.0000 0.62422  0.00734  0.11620  Biso   1.000  Hf
  Hf9      1.0000 0.63008  0.50140  0.35780  Biso   1.000  Hf
  Hf10     1.0000 0.90077  0.46787  0.13698  Biso   1.000  Hf
  Hf11     1.0000 0.89167  0.96337  0.37703  Biso   1.000  Hf
  O17      1.0000 0.51634  0.20117  0.95657  Biso   1.000  O 
  O18      1.0000 0.52814  0.31848  0.20252  Biso   1.000  O 
  O19      1.0000 0.51243  0.80300  0.26593  Biso   1.000  O 
  O20      1.0000 0.51105  0.74183  0.01563  Biso   1.000  O 
  O21      1.0000 0.76709  0.23479  0.26951  Biso   1.000  O 
  O22      1.0000 0.76739  0.26598  0.01818  Biso   1.000  O 
  O23      1.0000 0.74947  0.75961  0.97375  Biso   1.000  O 
  O24      1.0000 0.76020  0.73218  0.22232  Biso   1.000  O 
  Hf12     1.0000 0.64119  0.98428  0.61952  Biso   1.000  Hf
  Hf13     1.0000 0.63437  0.49210  0.88106  Biso   1.000  Hf
  Hf14     1.0000 0.86921  0.46935  0.62017  Biso   1.000  Hf
  Hf15     1.0000 0.86403  0.98585  0.87669  Biso   1.000  Hf
  O25      1.0000 0.50071  0.25528  0.46386  Biso   1.000  O 
  O26      1.0000 0.47225  0.19376  0.71177  Biso   1.000  O 
  O27      1.0000 0.51238  0.70637  0.76033  Biso   1.000  O 
  O28      1.0000 0.50894  0.75146  0.51076  Biso   1.000  O 
  O29      1.0000 0.73474  0.22863  0.76377  Biso   1.000  O 
  O30      1.0000 0.74554  0.23083  0.51603  Biso   1.000  O 
  O31      1.0000 0.75878  0.73181  0.47588  Biso   1.000  O 
  O32      1.0000 0.76561  0.73642  0.72871  Biso   1.000  O 
