data_image0
_cell_length_a       10.1825
_cell_length_b       10.2996
_cell_length_c       5.26044
_cell_angle_alpha    90
_cell_angle_beta     80
_cell_angle_gamma    90

_symmetry_space_group_name_H-M    "P 1"
_symmetry_int_tables_number       1

loop_
  _symmetry_equiv_pos_as_xyz
  'x, y, z'

loop_
  _atom_site_label
  _atom_site_occupancy
  _atom_site_fract_x
  _atom_site_fract_y
  _atom_site_fract_z
  _atom_site_thermal_displace_type
  _atom_site_B_iso_or_equiv
  _atom_site_type_symbol
  Hf1      1.0000 0.13634  0.02156  0.28777  Biso   1.000  Hf
  Hf2      1.0000 0.14130  0.22935  0.78600  Biso   1.000  Hf
  Hf3      1.0000 0.35842  0.27514  0.21344  Biso   1.000  Hf
  Hf4      1.0000 0.36022  0.47609  0.69907  Biso   1.000  Hf
  O1       1.0000 0.03583  0.16875  0.15441  Biso   1.000  O 
  O2       1.0000 0.03514  0.08190  0.65415  Biso   1.000  O 
  O3       1.0000 0.46413  0.42542  0.33843  Biso   1.000  O 
  O4       1.0000 0.48124  0.34542  0.86549  Biso   1.000  O 
  O5       1.0000 0.27219  0.12190  0.47527  Biso   1.000  O 
  O6       1.0000 0.28158  0.11854  0.97381  Biso   1.000  O 
  O7       1.0000 0.22336  0.37913  0.01253  Biso   1.000  O 
  O8       1.0000 0.21091  0.37552  0.50695  Biso   1.000  O 
  Hf5      1.0000 0.13798  0.52201  0.28646  Biso   1.000  Hf
  Hf6      1.0000 0.13828  0.72492  0.79184  Biso   1.000  Hf
  Hf7      1.0000 0.35957  0.76920  0.20957  Biso   1.000  Hf
  Hf8      1.0000 0.35884  0.96707  0.71055  Biso   1.000  Hf
  O9       1.0000 0.03054  0.66757  0.15560  Biso   1.000  O 
  O10      1.0000 0.03401  0.58357  0.65326  Biso   1.000  O 
  O11      1.0000 0.46466  0.91551  0.34700  Biso   1.000  O 
  O12      1.0000 0.46639  0.82903  0.84528  Biso   1.000  O 
  O13      1.0000 0.27553  0.62716  0.47974  Biso   1.000  O 
  O14      1.0000 0.27748  0.61987  0.97866  Biso   1.000  O 
  O15      1.0000 0.22091  0.87721  0.02163  Biso   1.000  O 
  O16      1.0000 0.22262  0.86755  0.51969  Biso   1.000  O 
  Hf9      1.0000 0.63997  0.01982  0.29554  Biso   1.000  Hf
  Hf10     1.0000 0.65237  0.22871  0.80775  Biso   1.000  Hf
  Hf11     1.0000 0.86301  0.27251  0.21463  Biso   1.000  Hf
  Hf12     1.0000 0.86368  0.47796  0.70934  Biso   1.000  Hf
  O17      1.0000 0.53407  0.16662  0.16328  Biso   1.000  O 
  O18      1.0000 0.54003  0.07575  0.67131  Biso   1.000  O 
  O19      1.0000 0.96352  0.41946  0.34128  Biso   1.000  O 
  O20      1.0000 0.96664  0.33185  0.84267  Biso   1.000  O 
  O21      1.0000 0.77748  0.12867  0.48633  Biso   1.000  O 
  O22      1.0000 0.78258  0.11809  0.98790  Biso   1.000  O 
  O23      1.0000 0.72528  0.37850  0.02966  Biso   1.000  O 
  O24      1.0000 0.72485  0.37094  0.52682  Biso   1.000  O 
  Hf13     1.0000 0.63825  0.52350  0.29713  Biso   1.000  Hf
  Hf14     1.0000 0.64028  0.72585  0.79318  Biso   1.000  Hf
  Hf15     1.0000 0.85879  0.77148  0.20901  Biso   1.000  Hf
  Hf16     1.0000 0.86306  0.97612  0.70866  Biso   1.000  Hf
  O25      1.0000 0.53423  0.66899  0.15948  Biso   1.000  O 
  O26      1.0000 0.53452  0.58430  0.65689  Biso   1.000  O 
  O27      1.0000 0.96330  0.91644  0.34341  Biso   1.000  O 
  O28      1.0000 0.96648  0.83170  0.84315  Biso   1.000  O 
  O29      1.0000 0.77680  0.62940  0.48303  Biso   1.000  O 
  O30      1.0000 0.77791  0.61935  0.98125  Biso   1.000  O 
  O31      1.0000 0.72113  0.87961  0.02278  Biso   1.000  O 
  O32      1.0000 0.72297  0.87108  0.52221  Biso   1.000  O 
  Cu1      1.0000 0.42107  0.21932  0.64814  Biso   1.000  Cu
