data_image0
_cell_length_a       9.97598
_cell_length_b       5.11161
_cell_length_c       10.3952
_cell_angle_alpha    90
_cell_angle_beta     90
_cell_angle_gamma    90

_symmetry_space_group_name_H-M    "P 1"
_symmetry_int_tables_number       1

loop_
  _symmetry_equiv_pos_as_xyz
  'x, y, z'

loop_
  _atom_site_label
  _atom_site_occupancy
  _atom_site_fract_x
  _atom_site_fract_y
  _atom_site_fract_z
  _atom_site_thermal_displace_type
  _atom_site_B_iso_or_equiv
  _atom_site_type_symbol
  Cu1      1.0000 0.11753  0.04063  0.19689  Biso   1.000  Cu
  Hf1      1.0000 0.12770  0.47245  0.41627  Biso   1.000  Hf
  Hf2      1.0000 0.35310  0.54908  0.16154  Biso   1.000  Hf
  Hf3      1.0000 0.34967  0.96823  0.41554  Biso   1.000  Hf
  Hf4      1.0000 0.63996  0.04419  0.07820  Biso   1.000  Hf
  Hf5      1.0000 0.62778  0.46215  0.32727  Biso   1.000  Hf
  Hf6      1.0000 0.87126  0.53493  0.08435  Biso   1.000  Hf
  Hf7      1.0000 0.84975  0.96382  0.33501  Biso   1.000  Hf
  O1       1.0000 0.04778  0.32588  0.09890  Biso   1.000  O 
  O2       1.0000 0.02374  0.15645  0.35717  Biso   1.000  O 
  O3       1.0000 0.47097  0.83736  0.08567  Biso   1.000  O 
  O4       1.0000 0.44833  0.65572  0.33737  Biso   1.000  O 
  O5       1.0000 0.25649  0.24866  0.28103  Biso   1.000  O 
  O6       1.0000 0.29990  0.27954  0.02686  Biso   1.000  O 
  O7       1.0000 0.20915  0.76357  0.28642  Biso   1.000  O 
  O8       1.0000 0.22749  0.76094  0.03823  Biso   1.000  O 
  O9       1.0000 0.53313  0.34411  0.16053  Biso   1.000  O 
  O10      1.0000 0.52361  0.16164  0.40841  Biso   1.000  O 
  O11      1.0000 0.96449  0.85717  0.16909  Biso   1.000  O 
  O12      1.0000 0.95051  0.66002  0.41352  Biso   1.000  O 
  O13      1.0000 0.76266  0.25321  0.45833  Biso   1.000  O 
  O14      1.0000 0.77368  0.25567  0.20907  Biso   1.000  O 
  O15      1.0000 0.70950  0.75318  0.45714  Biso   1.000  O 
  O16      1.0000 0.72681  0.75121  0.20651  Biso   1.000  O 
  Hf8      1.0000 0.12545  0.04806  0.66768  Biso   1.000  Hf
  Hf9      1.0000 0.13086  0.46384  0.92159  Biso   1.000  Hf
  Hf10     1.0000 0.34894  0.55076  0.66811  Biso   1.000  Hf
  Hf11     1.0000 0.34538  0.97024  0.92025  Biso   1.000  Hf
  Hf12     1.0000 0.62381  0.04838  0.58109  Biso   1.000  Hf
  Hf13     1.0000 0.62568  0.47029  0.83091  Biso   1.000  Hf
  Hf14     1.0000 0.84676  0.54696  0.58157  Biso   1.000  Hf
  Hf15     1.0000 0.85130  0.96582  0.83331  Biso   1.000  Hf
  O17      1.0000 0.02256  0.34633  0.58531  Biso   1.000  O 
  O18      1.0000 0.02204  0.17115  0.83559  Biso   1.000  O 
  O19      1.0000 0.45079  0.85145  0.58424  Biso   1.000  O 
  O20      1.0000 0.45261  0.67281  0.83340  Biso   1.000  O 
  O21      1.0000 0.26320  0.25080  0.78518  Biso   1.000  O 
  O22      1.0000 0.26538  0.26419  0.53599  Biso   1.000  O 
  O23      1.0000 0.20963  0.75085  0.79047  Biso   1.000  O 
  O24      1.0000 0.21054  0.76166  0.53932  Biso   1.000  O 
  O25      1.0000 0.52415  0.35220  0.65996  Biso   1.000  O 
  O26      1.0000 0.52453  0.16636  0.90898  Biso   1.000  O 
  O27      1.0000 0.95378  0.83978  0.66611  Biso   1.000  O 
  O28      1.0000 0.95420  0.66720  0.92217  Biso   1.000  O 
  O29      1.0000 0.76586  0.25981  0.95976  Biso   1.000  O 
  O30      1.0000 0.76471  0.25946  0.70875  Biso   1.000  O 
  O31      1.0000 0.71198  0.75667  0.95857  Biso   1.000  O 
  O32      1.0000 0.71148  0.76250  0.70748  Biso   1.000  O 
