data_image0
_cell_length_a       10.0377
_cell_length_b       10.2494
_cell_length_c       10.4821
_cell_angle_alpha    90
_cell_angle_beta     90
_cell_angle_gamma    90

_symmetry_space_group_name_H-M    "P 1"
_symmetry_int_tables_number       1

loop_
  _symmetry_equiv_pos_as_xyz
  'x, y, z'

loop_
  _atom_site_label
  _atom_site_occupancy
  _atom_site_fract_x
  _atom_site_fract_y
  _atom_site_fract_z
  _atom_site_thermal_displace_type
  _atom_site_B_iso_or_equiv
  _atom_site_type_symbol
  Hf1      1.0000 0.13650  0.02124  0.17228  Biso   1.000  Hf
  Hf2      1.0000 0.13361  0.22878  0.42507  Biso   1.000  Hf
  Hf3      1.0000 0.34891  0.27030  0.18015  Biso   1.000  Hf
  Hf4      1.0000 0.35869  0.48010  0.42322  Biso   1.000  Hf
  Hf5      1.0000 0.64097  0.02297  0.07318  Biso   1.000  Hf
  Hf6      1.0000 0.63587  0.22788  0.33282  Biso   1.000  Hf
  Hf7      1.0000 0.85885  0.26918  0.07673  Biso   1.000  Hf
  Hf8      1.0000 0.85884  0.47894  0.32869  Biso   1.000  Hf
  O1       1.0000 0.03325  0.16602  0.08433  Biso   1.000  O 
  O2       1.0000 0.02955  0.08509  0.33447  Biso   1.000  O 
  O3       1.0000 0.46272  0.42220  0.09120  Biso   1.000  O 
  O4       1.0000 0.46294  0.33459  0.33534  Biso   1.000  O 
  O5       1.0000 0.27018  0.12492  0.29914  Biso   1.000  O 
  O6       1.0000 0.27664  0.12564  0.04689  Biso   1.000  O 
  O7       1.0000 0.21760  0.37494  0.29861  Biso   1.000  O 
  O8       1.0000 0.22279  0.37649  0.04695  Biso   1.000  O 
  O9       1.0000 0.51862  0.15196  0.17994  Biso   1.000  O 
  O10      1.0000 0.52889  0.08635  0.42103  Biso   1.000  O 
  O11      1.0000 0.96325  0.41555  0.16681  Biso   1.000  O 
  O12      1.0000 0.96300  0.33522  0.41775  Biso   1.000  O 
  O13      1.0000 0.77277  0.12440  0.45554  Biso   1.000  O 
  O14      1.0000 0.77334  0.12783  0.20714  Biso   1.000  O 
  O15      1.0000 0.71982  0.37412  0.45551  Biso   1.000  O 
  O16      1.0000 0.71855  0.37869  0.20582  Biso   1.000  O 
  Hf9      1.0000 0.13575  0.02169  0.67268  Biso   1.000  Hf
  Hf10     1.0000 0.13216  0.22965  0.92221  Biso   1.000  Hf
  Hf11     1.0000 0.35827  0.27175  0.67389  Biso   1.000  Hf
  Hf12     1.0000 0.35353  0.48175  0.92182  Biso   1.000  Hf
  Hf13     1.0000 0.63553  0.02136  0.57977  Biso   1.000  Hf
  Hf14     1.0000 0.63815  0.22795  0.82566  Biso   1.000  Hf
  Hf15     1.0000 0.85754  0.27206  0.57940  Biso   1.000  Hf
  Hf16     1.0000 0.85873  0.48198  0.82747  Biso   1.000  Hf
  O17      1.0000 0.02905  0.16607  0.58521  Biso   1.000  O 
  O18      1.0000 0.03070  0.08400  0.83351  Biso   1.000  O 
  O19      1.0000 0.46386  0.41647  0.58484  Biso   1.000  O 
  O20      1.0000 0.46348  0.33595  0.83690  Biso   1.000  O 
  O21      1.0000 0.27267  0.12537  0.79622  Biso   1.000  O 
  O22      1.0000 0.27282  0.12645  0.54721  Biso   1.000  O 
  O23      1.0000 0.21969  0.37514  0.79664  Biso   1.000  O 
  O24      1.0000 0.22088  0.37644  0.54712  Biso   1.000  O 
  O25      1.0000 0.52945  0.16633  0.66673  Biso   1.000  O 
  O26      1.0000 0.52964  0.07700  0.90867  Biso   1.000  O 
  O27      1.0000 0.96394  0.41644  0.66647  Biso   1.000  O 
  O28      1.0000 0.96219  0.33589  0.91559  Biso   1.000  O 
  O29      1.0000 0.78281  0.12073  0.94848  Biso   1.000  O 
  O30      1.0000 0.77460  0.12518  0.70218  Biso   1.000  O 
  O31      1.0000 0.72355  0.38347  0.95269  Biso   1.000  O 
  O32      1.0000 0.72092  0.37697  0.70448  Biso   1.000  O 
  Hf17     1.0000 0.13534  0.52182  0.17173  Biso   1.000  Hf
  Hf18     1.0000 0.13553  0.72927  0.42155  Biso   1.000  Hf
  Hf19     1.0000 0.35977  0.77327  0.17248  Biso   1.000  Hf
  Hf20     1.0000 0.35786  0.97893  0.42391  Biso   1.000  Hf
  Hf21     1.0000 0.64128  0.53058  0.07938  Biso   1.000  Hf
  Hf22     1.0000 0.63688  0.73142  0.32932  Biso   1.000  Hf
  Hf23     1.0000 0.86172  0.77325  0.07884  Biso   1.000  Hf
  Hf24     1.0000 0.85792  0.97966  0.32863  Biso   1.000  Hf
  O33      1.0000 0.03289  0.66610  0.08407  Biso   1.000  O 
  O34      1.0000 0.03012  0.58467  0.33371  Biso   1.000  O 
  O35      1.0000 0.46730  0.91432  0.08254  Biso   1.000  O 
  O36      1.0000 0.46485  0.83645  0.33450  Biso   1.000  O 
  O37      1.0000 0.27357  0.62429  0.29520  Biso   1.000  O 
  O38      1.0000 0.27646  0.62595  0.04550  Biso   1.000  O 
  O39      1.0000 0.22153  0.87470  0.29629  Biso   1.000  O 
  O40      1.0000 0.22248  0.87585  0.04682  Biso   1.000  O 
  O41      1.0000 0.53253  0.66873  0.16736  Biso   1.000  O 
  O42      1.0000 0.53004  0.58603  0.41666  Biso   1.000  O 
  O43      1.0000 0.96527  0.91720  0.16676  Biso   1.000  O 
  O44      1.0000 0.96355  0.83414  0.41562  Biso   1.000  O 
  O45      1.0000 0.77328  0.62430  0.45468  Biso   1.000  O 
  O46      1.0000 0.77616  0.62868  0.20526  Biso   1.000  O 
  O47      1.0000 0.72060  0.87514  0.45563  Biso   1.000  O 
  O48      1.0000 0.72302  0.87703  0.20516  Biso   1.000  O 
  Hf25     1.0000 0.13540  0.52168  0.67158  Biso   1.000  Hf
  Hf26     1.0000 0.13342  0.73098  0.92233  Biso   1.000  Hf
  Hf27     1.0000 0.35721  0.77143  0.67225  Biso   1.000  Hf
  Hf28     1.0000 0.35522  0.97934  0.92238  Biso   1.000  Hf
  Hf29     1.0000 0.63536  0.52213  0.57848  Biso   1.000  Hf
  Hf30     1.0000 0.63328  0.73066  0.82782  Biso   1.000  Hf
  Hf31     1.0000 0.85843  0.77155  0.57815  Biso   1.000  Hf
  Hf32     1.0000 0.85778  0.97804  0.82728  Biso   1.000  Hf
  O49      1.0000 0.02977  0.66550  0.58322  Biso   1.000  O 
  O50      1.0000 0.02978  0.58644  0.83368  Biso   1.000  O 
  O51      1.0000 0.46337  0.91521  0.58467  Biso   1.000  O 
  O52      1.0000 0.46057  0.83318  0.83388  Biso   1.000  O 
  O53      1.0000 0.27210  0.62447  0.79550  Biso   1.000  O 
  O54      1.0000 0.27271  0.62642  0.54544  Biso   1.000  O 
  O55      1.0000 0.21880  0.87425  0.79566  Biso   1.000  O 
  O56      1.0000 0.22024  0.87623  0.54563  Biso   1.000  O 
  O57      1.0000 0.52869  0.66548  0.66666  Biso   1.000  O 
  O58      1.0000 0.52678  0.58644  0.91790  Biso   1.000  O 
  O59      1.0000 0.96441  0.91513  0.66500  Biso   1.000  O 
  O60      1.0000 0.96226  0.83589  0.91751  Biso   1.000  O 
  O61      1.0000 0.77084  0.62870  0.95469  Biso   1.000  O 
  O62      1.0000 0.77225  0.62721  0.70448  Biso   1.000  O 
  O63      1.0000 0.71783  0.87501  0.95485  Biso   1.000  O 
  O64      1.0000 0.71960  0.87584  0.70463  Biso   1.000  O 
  Cu1      1.0000 0.57670  0.27621  0.05439  Biso   1.000  Cu
