data_image0
_cell_length_a       10.016
_cell_length_b       5.20352
_cell_length_c       10.0577
_cell_angle_alpha    90
_cell_angle_beta     90
_cell_angle_gamma    90

_symmetry_space_group_name_H-M    "P 1"
_symmetry_int_tables_number       1

loop_
  _symmetry_equiv_pos_as_xyz
  'x, y, z'

loop_
  _atom_site_label
  _atom_site_occupancy
  _atom_site_fract_x
  _atom_site_fract_y
  _atom_site_fract_z
  _atom_site_thermal_displace_type
  _atom_site_B_iso_or_equiv
  _atom_site_type_symbol
  Hf1      1.0000 0.13591  0.07847  0.11820  Biso   1.000  Hf
  Hf2      1.0000 0.13818  0.46840  0.38748  Biso   1.000  Hf
  Hf3      1.0000 0.36740  0.53470  0.12472  Biso   1.000  Hf
  Hf4      1.0000 0.36720  0.97056  0.37626  Biso   1.000  Hf
  O1       1.0000 0.00924  0.34063  0.22668  Biso   1.000  O 
  O2       1.0000 0.03933  0.13429  0.45439  Biso   1.000  O 
  O3       1.0000 0.46250  0.87014  0.19540  Biso   1.000  O 
  O4       1.0000 0.46694  0.63798  0.44536  Biso   1.000  O 
  O5       1.0000 0.27031  0.24702  0.25242  Biso   1.000  O 
  O6       1.0000 0.27545  0.26630  0.50209  Biso   1.000  O 
  O7       1.0000 0.23428  0.76815  0.50343  Biso   1.000  O 
  O8       1.0000 0.23061  0.74039  0.25528  Biso   1.000  O 
  Hf5      1.0000 0.13774  0.03401  0.62966  Biso   1.000  Hf
  Hf6      1.0000 0.14091  0.46907  0.87067  Biso   1.000  Hf
  Hf7      1.0000 0.37248  0.53783  0.62634  Biso   1.000  Hf
  Hf8      1.0000 0.37483  0.97263  0.87329  Biso   1.000  Hf
  O9       1.0000 0.04039  0.37267  0.69261  Biso   1.000  O 
  O10      1.0000 0.04139  0.13731  0.93982  Biso   1.000  O 
  O11      1.0000 0.47170  0.87157  0.69280  Biso   1.000  O 
  O12      1.0000 0.47149  0.64090  0.94460  Biso   1.000  O 
  O13      1.0000 0.27524  0.23884  0.74793  Biso   1.000  O 
  O14      1.0000 0.29022  0.26707  0.99147  Biso   1.000  O 
  O15      1.0000 0.23246  0.77437  0.00142  Biso   1.000  O 
  O16      1.0000 0.23820  0.73997  0.75087  Biso   1.000  O 
  Hf9      1.0000 0.62969  0.03024  0.12424  Biso   1.000  Hf
  Hf10     1.0000 0.63406  0.46841  0.37656  Biso   1.000  Hf
  Hf11     1.0000 0.84879  0.52691  0.12593  Biso   1.000  Hf
  Hf12     1.0000 0.87501  0.97733  0.37074  Biso   1.000  Hf
  O17      1.0000 0.53507  0.36821  0.19413  Biso   1.000  O 
  O18      1.0000 0.53714  0.13625  0.44503  Biso   1.000  O 
  O19      1.0000 0.96528  0.86111  0.18726  Biso   1.000  O 
  O20      1.0000 0.97000  0.64583  0.44792  Biso   1.000  O 
  O21      1.0000 0.76122  0.22861  0.24886  Biso   1.000  O 
  O22      1.0000 0.77422  0.27458  0.49675  Biso   1.000  O 
  O23      1.0000 0.73639  0.77516  0.49676  Biso   1.000  O 
  O24      1.0000 0.72774  0.73570  0.24977  Biso   1.000  O 
  Hf13     1.0000 0.64049  0.03677  0.62301  Biso   1.000  Hf
  Hf14     1.0000 0.63813  0.47116  0.87239  Biso   1.000  Hf
  Hf15     1.0000 0.87049  0.53956  0.62434  Biso   1.000  Hf
  Hf16     1.0000 0.87024  0.96866  0.87535  Biso   1.000  Hf
  O25      1.0000 0.54142  0.37171  0.69330  Biso   1.000  O 
  O26      1.0000 0.54441  0.13721  0.94118  Biso   1.000  O 
  O27      1.0000 0.97032  0.86820  0.69919  Biso   1.000  O 
  O28      1.0000 0.96437  0.63396  0.94302  Biso   1.000  O 
  O29      1.0000 0.77595  0.23869  0.74759  Biso   1.000  O 
  O30      1.0000 0.77382  0.26790  0.99850  Biso   1.000  O 
  O31      1.0000 0.73046  0.76835  0.99936  Biso   1.000  O 
  O32      1.0000 0.73463  0.74022  0.74796  Biso   1.000  O 
  Cu1      1.0000 0.09983  0.58757  0.11391  Biso   1.000  Cu
