data_image0
_cell_length_a       9.93472
_cell_length_b       10.3558
_cell_length_c       9.99425
_cell_angle_alpha    90
_cell_angle_beta     90
_cell_angle_gamma    90

_symmetry_space_group_name_H-M    "P 1"
_symmetry_int_tables_number       1

loop_
  _symmetry_equiv_pos_as_xyz
  'x, y, z'

loop_
  _atom_site_label
  _atom_site_occupancy
  _atom_site_fract_x
  _atom_site_fract_y
  _atom_site_fract_z
  _atom_site_thermal_displace_type
  _atom_site_B_iso_or_equiv
  _atom_site_type_symbol
  Cu1      1.0000 0.11903  0.02738  0.10009  Biso   1.000  Cu
  Hf1      1.0000 0.14389  0.22736  0.37494  Biso   1.000  Hf
  Hf2      1.0000 0.36707  0.26469  0.12954  Biso   1.000  Hf
  Hf3      1.0000 0.37088  0.48202  0.37767  Biso   1.000  Hf
  O1       1.0000 0.04457  0.17584  0.18342  Biso   1.000  O 
  O2       1.0000 0.04480  0.06371  0.44676  Biso   1.000  O 
  O3       1.0000 0.46617  0.43243  0.19516  Biso   1.000  O 
  O4       1.0000 0.46962  0.31483  0.44562  Biso   1.000  O 
  O5       1.0000 0.28732  0.12547  0.25846  Biso   1.000  O 
  O6       1.0000 0.27652  0.12884  0.50626  Biso   1.000  O 
  O7       1.0000 0.23474  0.37860  0.50060  Biso   1.000  O 
  O8       1.0000 0.23055  0.36804  0.25066  Biso   1.000  O 
  Hf4      1.0000 0.14179  0.01604  0.63263  Biso   1.000  Hf
  Hf5      1.0000 0.14270  0.23496  0.87719  Biso   1.000  Hf
  Hf6      1.0000 0.37315  0.26541  0.62780  Biso   1.000  Hf
  Hf7      1.0000 0.37481  0.48243  0.87684  Biso   1.000  Hf
  O9       1.0000 0.04437  0.18605  0.69343  Biso   1.000  O 
  O10      1.0000 0.04593  0.06202  0.91698  Biso   1.000  O 
  O11      1.0000 0.47029  0.43355  0.69477  Biso   1.000  O 
  O12      1.0000 0.46841  0.30922  0.94098  Biso   1.000  O 
  O13      1.0000 0.28159  0.11965  0.75635  Biso   1.000  O 
  O14      1.0000 0.25738  0.12791  0.00968  Biso   1.000  O 
  O15      1.0000 0.22953  0.38240  0.00129  Biso   1.000  O 
  O16      1.0000 0.23574  0.36807  0.75066  Biso   1.000  O 
  Hf8      1.0000 0.13684  0.51570  0.12794  Biso   1.000  Hf
  Hf9      1.0000 0.14137  0.73233  0.37855  Biso   1.000  Hf
  Hf10     1.0000 0.36568  0.76647  0.13103  Biso   1.000  Hf
  Hf11     1.0000 0.36688  0.98118  0.37626  Biso   1.000  Hf
  O17      1.0000 0.03984  0.68351  0.19498  Biso   1.000  O 
  O18      1.0000 0.04211  0.56218  0.44506  Biso   1.000  O 
  O19      1.0000 0.47203  0.93171  0.19770  Biso   1.000  O 
  O20      1.0000 0.47336  0.81629  0.45224  Biso   1.000  O 
  O21      1.0000 0.27407  0.61285  0.25103  Biso   1.000  O 
  O22      1.0000 0.27839  0.63033  0.50219  Biso   1.000  O 
  O23      1.0000 0.23351  0.88001  0.50810  Biso   1.000  O 
  O24      1.0000 0.24562  0.85723  0.26339  Biso   1.000  O 
  Hf12     1.0000 0.14116  0.51527  0.62642  Biso   1.000  Hf
  Hf13     1.0000 0.14156  0.73118  0.87912  Biso   1.000  Hf
  Hf14     1.0000 0.37259  0.76663  0.62988  Biso   1.000  Hf
  Hf15     1.0000 0.37024  0.98178  0.88362  Biso   1.000  Hf
  O25      1.0000 0.04384  0.68355  0.69456  Biso   1.000  O 
  O26      1.0000 0.04449  0.56264  0.94579  Biso   1.000  O 
  O27      1.0000 0.46915  0.93395  0.69933  Biso   1.000  O 
  O28      1.0000 0.46591  0.81298  0.94444  Biso   1.000  O 
  O29      1.0000 0.27726  0.61682  0.75234  Biso   1.000  O 
  O30      1.0000 0.26884  0.63414  0.00198  Biso   1.000  O 
  O31      1.0000 0.21866  0.88789  0.01322  Biso   1.000  O 
  O32      1.0000 0.23552  0.86792  0.75766  Biso   1.000  O 
  Hf16     1.0000 0.63701  0.01651  0.12648  Biso   1.000  Hf
  Hf17     1.0000 0.63856  0.23196  0.37554  Biso   1.000  Hf
  Hf18     1.0000 0.86627  0.26459  0.12390  Biso   1.000  Hf
  Hf19     1.0000 0.87162  0.48160  0.37546  Biso   1.000  Hf
  O33      1.0000 0.54364  0.18644  0.19145  Biso   1.000  O 
  O34      1.0000 0.54191  0.06446  0.44205  Biso   1.000  O 
  O35      1.0000 0.96811  0.42744  0.19383  Biso   1.000  O 
  O36      1.0000 0.96900  0.31130  0.43938  Biso   1.000  O 
  O37      1.0000 0.77649  0.11741  0.24808  Biso   1.000  O 
  O38      1.0000 0.77758  0.13056  0.49699  Biso   1.000  O 
  O39      1.0000 0.73592  0.38088  0.49972  Biso   1.000  O 
  O40      1.0000 0.73285  0.36737  0.24971  Biso   1.000  O 
  Hf20     1.0000 0.63744  0.01315  0.62218  Biso   1.000  Hf
  Hf21     1.0000 0.64180  0.23005  0.87489  Biso   1.000  Hf
  Hf22     1.0000 0.87150  0.26426  0.62325  Biso   1.000  Hf
  Hf23     1.0000 0.87363  0.48164  0.87482  Biso   1.000  Hf
  O41      1.0000 0.54477  0.18324  0.69235  Biso   1.000  O 
  O42      1.0000 0.54258  0.06388  0.94768  Biso   1.000  O 
  O43      1.0000 0.96969  0.43269  0.69226  Biso   1.000  O 
  O44      1.0000 0.97144  0.31370  0.94257  Biso   1.000  O 
  O45      1.0000 0.77597  0.11476  0.74626  Biso   1.000  O 
  O46      1.0000 0.78205  0.12801  0.99641  Biso   1.000  O 
  O47      1.0000 0.72747  0.38055  0.00025  Biso   1.000  O 
  O48      1.0000 0.73620  0.36563  0.74957  Biso   1.000  O 
  Hf24     1.0000 0.63626  0.51648  0.12842  Biso   1.000  Hf
  Hf25     1.0000 0.64019  0.73445  0.37525  Biso   1.000  Hf
  Hf26     1.0000 0.87290  0.76601  0.12147  Biso   1.000  Hf
  Hf27     1.0000 0.87676  0.98511  0.37324  Biso   1.000  Hf
  O49      1.0000 0.53951  0.68469  0.19624  Biso   1.000  O 
  O50      1.0000 0.54294  0.56510  0.44337  Biso   1.000  O 
  O51      1.0000 0.97553  0.94019  0.18160  Biso   1.000  O 
  O52      1.0000 0.96905  0.81442  0.43977  Biso   1.000  O 
  O53      1.0000 0.77627  0.61604  0.24872  Biso   1.000  O 
  O54      1.0000 0.77584  0.63139  0.49887  Biso   1.000  O 
  O55      1.0000 0.73796  0.88257  0.49642  Biso   1.000  O 
  O56      1.0000 0.74332  0.86757  0.24689  Biso   1.000  O 
  Hf28     1.0000 0.64044  0.51548  0.62545  Biso   1.000  Hf
  Hf29     1.0000 0.64030  0.73091  0.87697  Biso   1.000  Hf
  Hf30     1.0000 0.87309  0.76443  0.62308  Biso   1.000  Hf
  Hf31     1.0000 0.86924  0.97931  0.87056  Biso   1.000  Hf
  O57      1.0000 0.54220  0.68150  0.69691  Biso   1.000  O 
  O58      1.0000 0.54580  0.56202  0.94662  Biso   1.000  O 
  O59      1.0000 0.96744  0.93323  0.68750  Biso   1.000  O 
  O60      1.0000 0.96844  0.81221  0.93734  Biso   1.000  O 
  O61      1.0000 0.77730  0.61592  0.74968  Biso   1.000  O 
  O62      1.0000 0.78044  0.62963  0.99967  Biso   1.000  O 
  O63      1.0000 0.73502  0.87792  0.99781  Biso   1.000  O 
  O64      1.0000 0.73447  0.86405  0.74693  Biso   1.000  O 
