data_image0
_cell_length_a       9.90787
_cell_length_b       5.17595
_cell_length_c       9.98783
_cell_angle_alpha    90
_cell_angle_beta     90
_cell_angle_gamma    90

_symmetry_space_group_name_H-M    "P 1"
_symmetry_int_tables_number       1

loop_
  _symmetry_equiv_pos_as_xyz
  'x, y, z'

loop_
  _atom_site_label
  _atom_site_occupancy
  _atom_site_fract_x
  _atom_site_fract_y
  _atom_site_fract_z
  _atom_site_thermal_displace_type
  _atom_site_B_iso_or_equiv
  _atom_site_type_symbol
  Cu1      1.0000 0.12351  0.05607  0.10313  Biso   1.000  Cu
  Hf1      1.0000 0.14826  0.44961  0.37741  Biso   1.000  Hf
  Hf2      1.0000 0.36613  0.52526  0.13375  Biso   1.000  Hf
  Hf3      1.0000 0.37035  0.95557  0.37725  Biso   1.000  Hf
  O1       1.0000 0.04683  0.35282  0.18320  Biso   1.000  O 
  O2       1.0000 0.04911  0.11831  0.44917  Biso   1.000  O 
  O3       1.0000 0.47372  0.85676  0.19811  Biso   1.000  O 
  O4       1.0000 0.47820  0.62894  0.45328  Biso   1.000  O 
  O5       1.0000 0.28182  0.22427  0.25431  Biso   1.000  O 
  O6       1.0000 0.28462  0.25229  0.50588  Biso   1.000  O 
  O7       1.0000 0.23750  0.75076  0.50867  Biso   1.000  O 
  O8       1.0000 0.24775  0.70785  0.26465  Biso   1.000  O 
  Hf4      1.0000 0.14840  0.02778  0.63241  Biso   1.000  Hf
  Hf5      1.0000 0.14904  0.46313  0.88031  Biso   1.000  Hf
  Hf6      1.0000 0.37852  0.52855  0.63129  Biso   1.000  Hf
  Hf7      1.0000 0.37709  0.95734  0.88410  Biso   1.000  Hf
  O9       1.0000 0.05150  0.36914  0.69349  Biso   1.000  O 
  O10      1.0000 0.05278  0.11714  0.92082  Biso   1.000  O 
  O11      1.0000 0.47495  0.86219  0.70051  Biso   1.000  O 
  O12      1.0000 0.46811  0.60801  0.94177  Biso   1.000  O 
  O13      1.0000 0.28759  0.23416  0.75766  Biso   1.000  O 
  O14      1.0000 0.25704  0.26113  0.00943  Biso   1.000  O 
  O15      1.0000 0.21851  0.77908  0.01565  Biso   1.000  O 
  O16      1.0000 0.24067  0.73373  0.75816  Biso   1.000  O 
  Hf8      1.0000 0.63920  0.03237  0.12881  Biso   1.000  Hf
  Hf9      1.0000 0.64418  0.46373  0.37547  Biso   1.000  Hf
  Hf10     1.0000 0.87248  0.53031  0.11991  Biso   1.000  Hf
  Hf11     1.0000 0.88070  0.96511  0.37204  Biso   1.000  Hf
  O17      1.0000 0.54357  0.36893  0.19602  Biso   1.000  O 
  O18      1.0000 0.54802  0.12549  0.44153  Biso   1.000  O 
  O19      1.0000 0.98055  0.86821  0.18337  Biso   1.000  O 
  O20      1.0000 0.97295  0.61731  0.43430  Biso   1.000  O 
  O21      1.0000 0.78154  0.23169  0.24698  Biso   1.000  O 
  O22      1.0000 0.78206  0.25747  0.49633  Biso   1.000  O 
  O23      1.0000 0.74368  0.76037  0.49633  Biso   1.000  O 
  O24      1.0000 0.74472  0.73328  0.24655  Biso   1.000  O 
  Hf12     1.0000 0.64392  0.02168  0.62152  Biso   1.000  Hf
  Hf13     1.0000 0.64700  0.45174  0.87543  Biso   1.000  Hf
  Hf14     1.0000 0.87822  0.52236  0.62071  Biso   1.000  Hf
  Hf15     1.0000 0.87534  0.95280  0.86955  Biso   1.000  Hf
  O25      1.0000 0.54956  0.35773  0.69474  Biso   1.000  O 
  O26      1.0000 0.55144  0.11708  0.95009  Biso   1.000  O 
  O27      1.0000 0.97248  0.86092  0.68653  Biso   1.000  O 
  O28      1.0000 0.97531  0.61948  0.93638  Biso   1.000  O 
  O29      1.0000 0.78201  0.22365  0.74643  Biso   1.000  O 
  O30      1.0000 0.79046  0.24907  0.99656  Biso   1.000  O 
  O31      1.0000 0.74240  0.74425  0.99793  Biso   1.000  O 
  O32      1.0000 0.74016  0.72095  0.74652  Biso   1.000  O 
