data_image0
_cell_length_a       10.0006
_cell_length_b       10.2342
_cell_length_c       10.4197
_cell_angle_alpha    90
_cell_angle_beta     90
_cell_angle_gamma    90

_symmetry_space_group_name_H-M    "P 1"
_symmetry_int_tables_number       1

loop_
  _symmetry_equiv_pos_as_xyz
  'x, y, z'

loop_
  _atom_site_label
  _atom_site_occupancy
  _atom_site_fract_x
  _atom_site_fract_y
  _atom_site_fract_z
  _atom_site_thermal_displace_type
  _atom_site_B_iso_or_equiv
  _atom_site_type_symbol
  Cu1      1.0000 0.11858  0.02013  0.19930  Biso   1.000  Cu
  Hf1      1.0000 0.13420  0.23574  0.41879  Biso   1.000  Hf
  Hf2      1.0000 0.35728  0.26959  0.16641  Biso   1.000  Hf
  Hf3      1.0000 0.35660  0.48195  0.42028  Biso   1.000  Hf
  Hf4      1.0000 0.63975  0.02238  0.07774  Biso   1.000  Hf
  Hf5      1.0000 0.63322  0.23112  0.32876  Biso   1.000  Hf
  Hf6      1.0000 0.86687  0.26677  0.08412  Biso   1.000  Hf
  Hf7      1.0000 0.85687  0.48156  0.32934  Biso   1.000  Hf
  O1       1.0000 0.04606  0.16113  0.09833  Biso   1.000  O 
  O2       1.0000 0.02570  0.08018  0.35736  Biso   1.000  O 
  O3       1.0000 0.46672  0.41716  0.08552  Biso   1.000  O 
  O4       1.0000 0.45859  0.33011  0.33727  Biso   1.000  O 
  O5       1.0000 0.25884  0.12083  0.28314  Biso   1.000  O 
  O6       1.0000 0.29827  0.13927  0.02861  Biso   1.000  O 
  O7       1.0000 0.22069  0.37669  0.29406  Biso   1.000  O 
  O8       1.0000 0.22140  0.37908  0.04475  Biso   1.000  O 
  O9       1.0000 0.53397  0.16898  0.16349  Biso   1.000  O 
  O10      1.0000 0.52674  0.08295  0.41197  Biso   1.000  O 
  O11      1.0000 0.96447  0.41949  0.16524  Biso   1.000  O 
  O12      1.0000 0.95939  0.33476  0.41536  Biso   1.000  O 
  O13      1.0000 0.76834  0.12568  0.45745  Biso   1.000  O 
  O14      1.0000 0.77539  0.12692  0.20844  Biso   1.000  O 
  O15      1.0000 0.71735  0.37622  0.45653  Biso   1.000  O 
  O16      1.0000 0.72270  0.37584  0.20660  Biso   1.000  O 
  Hf8      1.0000 0.13155  0.02264  0.66703  Biso   1.000  Hf
  Hf9      1.0000 0.13605  0.22615  0.92384  Biso   1.000  Hf
  Hf10     1.0000 0.35456  0.27368  0.67045  Biso   1.000  Hf
  Hf11     1.0000 0.35269  0.48130  0.92113  Biso   1.000  Hf
  Hf12     1.0000 0.62921  0.02307  0.57953  Biso   1.000  Hf
  Hf13     1.0000 0.63222  0.23268  0.82999  Biso   1.000  Hf
  Hf14     1.0000 0.85310  0.27380  0.58004  Biso   1.000  Hf
  Hf15     1.0000 0.85699  0.47966  0.83304  Biso   1.000  Hf
  O17      1.0000 0.02749  0.17156  0.58448  Biso   1.000  O 
  O18      1.0000 0.02755  0.08484  0.83357  Biso   1.000  O 
  O19      1.0000 0.45933  0.42167  0.58534  Biso   1.000  O 
  O20      1.0000 0.45960  0.33576  0.83433  Biso   1.000  O 
  O21      1.0000 0.26869  0.12409  0.78699  Biso   1.000  O 
  O22      1.0000 0.27102  0.13064  0.53783  Biso   1.000  O 
  O23      1.0000 0.21665  0.37412  0.79556  Biso   1.000  O 
  O24      1.0000 0.21661  0.37922  0.54441  Biso   1.000  O 
  O25      1.0000 0.52787  0.17175  0.66296  Biso   1.000  O 
  O26      1.0000 0.53074  0.08318  0.91087  Biso   1.000  O 
  O27      1.0000 0.96069  0.41697  0.66859  Biso   1.000  O 
  O28      1.0000 0.96108  0.33093  0.92198  Biso   1.000  O 
  O29      1.0000 0.77171  0.12742  0.95715  Biso   1.000  O 
  O30      1.0000 0.76948  0.12934  0.70602  Biso   1.000  O 
  O31      1.0000 0.71780  0.37639  0.95809  Biso   1.000  O 
  O32      1.0000 0.71760  0.37939  0.70693  Biso   1.000  O 
  Hf16     1.0000 0.13828  0.52238  0.17009  Biso   1.000  Hf
  Hf17     1.0000 0.13205  0.73053  0.41984  Biso   1.000  Hf
  Hf18     1.0000 0.35761  0.77537  0.16554  Biso   1.000  Hf
  Hf19     1.0000 0.35455  0.98190  0.41666  Biso   1.000  Hf
  Hf20     1.0000 0.63979  0.52099  0.07896  Biso   1.000  Hf
  Hf21     1.0000 0.63349  0.72997  0.32698  Biso   1.000  Hf
  Hf22     1.0000 0.86598  0.77255  0.07861  Biso   1.000  Hf
  Hf23     1.0000 0.85402  0.98027  0.33416  Biso   1.000  Hf
  O33      1.0000 0.03794  0.67238  0.08744  Biso   1.000  O 
  O34      1.0000 0.03115  0.58214  0.33613  Biso   1.000  O 
  O35      1.0000 0.47212  0.91745  0.08411  Biso   1.000  O 
  O36      1.0000 0.45833  0.83405  0.33337  Biso   1.000  O 
  O37      1.0000 0.27268  0.62958  0.29359  Biso   1.000  O 
  O38      1.0000 0.27858  0.62458  0.04359  Biso   1.000  O 
  O39      1.0000 0.21257  0.87968  0.28702  Biso   1.000  O 
  O40      1.0000 0.23320  0.87343  0.03589  Biso   1.000  O 
  O41      1.0000 0.53255  0.66914  0.16241  Biso   1.000  O 
  O42      1.0000 0.52996  0.58346  0.41260  Biso   1.000  O 
  O43      1.0000 0.96651  0.92833  0.16828  Biso   1.000  O 
  O44      1.0000 0.95754  0.83000  0.41392  Biso   1.000  O 
  O45      1.0000 0.77096  0.62562  0.45607  Biso   1.000  O 
  O46      1.0000 0.77510  0.62794  0.20582  Biso   1.000  O 
  O47      1.0000 0.71554  0.87519  0.45572  Biso   1.000  O 
  O48      1.0000 0.72792  0.87654  0.20494  Biso   1.000  O 
  Hf24     1.0000 0.13305  0.52307  0.67262  Biso   1.000  Hf
  Hf25     1.0000 0.13433  0.73541  0.92009  Biso   1.000  Hf
  Hf26     1.0000 0.35567  0.77351  0.66910  Biso   1.000  Hf
  Hf27     1.0000 0.35399  0.98324  0.92037  Biso   1.000  Hf
  Hf28     1.0000 0.63340  0.52322  0.58010  Biso   1.000  Hf
  Hf29     1.0000 0.63232  0.73249  0.82938  Biso   1.000  Hf
  Hf30     1.0000 0.85452  0.77191  0.58022  Biso   1.000  Hf
  Hf31     1.0000 0.85549  0.98317  0.82889  Biso   1.000  Hf
  O49      1.0000 0.02826  0.66891  0.58614  Biso   1.000  O 
  O50      1.0000 0.02888  0.58320  0.83826  Biso   1.000  O 
  O51      1.0000 0.45809  0.92096  0.58296  Biso   1.000  O 
  O52      1.0000 0.45994  0.83538  0.83293  Biso   1.000  O 
  O53      1.0000 0.27106  0.62611  0.79337  Biso   1.000  O 
  O54      1.0000 0.27058  0.62822  0.54357  Biso   1.000  O 
  O55      1.0000 0.21637  0.87565  0.78909  Biso   1.000  O 
  O56      1.0000 0.21753  0.87881  0.53959  Biso   1.000  O 
  O57      1.0000 0.52977  0.67142  0.66272  Biso   1.000  O 
  O58      1.0000 0.52754  0.58459  0.91331  Biso   1.000  O 
  O59      1.0000 0.95933  0.92057  0.66272  Biso   1.000  O 
  O60      1.0000 0.95928  0.83602  0.91437  Biso   1.000  O 
  O61      1.0000 0.77102  0.62806  0.95803  Biso   1.000  O 
  O62      1.0000 0.77190  0.62752  0.70792  Biso   1.000  O 
  O63      1.0000 0.71747  0.87762  0.95531  Biso   1.000  O 
  O64      1.0000 0.71729  0.87893  0.70542  Biso   1.000  O 
