data_image0
_cell_length_a       9.99726
_cell_length_b       10.2117
_cell_length_c       5.20804
_cell_angle_alpha    90
_cell_angle_beta     90
_cell_angle_gamma    90

_symmetry_space_group_name_H-M    "P 1"
_symmetry_int_tables_number       1

loop_
  _symmetry_equiv_pos_as_xyz
  'x, y, z'

loop_
  _atom_site_label
  _atom_site_occupancy
  _atom_site_fract_x
  _atom_site_fract_y
  _atom_site_fract_z
  _atom_site_thermal_displace_type
  _atom_site_B_iso_or_equiv
  _atom_site_type_symbol
  Cu1      1.0000 0.11494  0.01872  0.39277  Biso   1.000  Cu
  Hf1      1.0000 0.13720  0.23152  0.84119  Biso   1.000  Hf
  Hf2      1.0000 0.35728  0.27102  0.33181  Biso   1.000  Hf
  Hf3      1.0000 0.35443  0.48252  0.84077  Biso   1.000  Hf
  Hf4      1.0000 0.63555  0.02241  0.15627  Biso   1.000  Hf
  Hf5      1.0000 0.63234  0.23219  0.65932  Biso   1.000  Hf
  Hf6      1.0000 0.86463  0.26725  0.16981  Biso   1.000  Hf
  Hf7      1.0000 0.85893  0.47952  0.66687  Biso   1.000  Hf
  O1       1.0000 0.04419  0.15534  0.18471  Biso   1.000  O 
  O2       1.0000 0.02261  0.08303  0.70775  Biso   1.000  O 
  O3       1.0000 0.46692  0.41844  0.16884  Biso   1.000  O 
  O4       1.0000 0.46014  0.33391  0.66822  Biso   1.000  O 
  O5       1.0000 0.25478  0.11914  0.55019  Biso   1.000  O 
  O6       1.0000 0.30156  0.14491  0.03858  Biso   1.000  O 
  O7       1.0000 0.22082  0.37498  0.59041  Biso   1.000  O 
  O8       1.0000 0.22103  0.38051  0.09015  Biso   1.000  O 
  O9       1.0000 0.53266  0.17016  0.32519  Biso   1.000  O 
  O10      1.0000 0.52918  0.08153  0.81674  Biso   1.000  O 
  O11      1.0000 0.96733  0.41359  0.34312  Biso   1.000  O 
  O12      1.0000 0.96124  0.33296  0.84986  Biso   1.000  O 
  O13      1.0000 0.76841  0.12672  0.91815  Biso   1.000  O 
  O14      1.0000 0.77344  0.12768  0.41722  Biso   1.000  O 
  O15      1.0000 0.71818  0.37595  0.91832  Biso   1.000  O 
  O16      1.0000 0.72378  0.37668  0.41536  Biso   1.000  O 
  Hf8      1.0000 0.13863  0.52256  0.34396  Biso   1.000  Hf
  Hf9      1.0000 0.13326  0.73466  0.83909  Biso   1.000  Hf
  Hf10     1.0000 0.35855  0.77645  0.32795  Biso   1.000  Hf
  Hf11     1.0000 0.35433  0.98409  0.83277  Biso   1.000  Hf
  Hf12     1.0000 0.64091  0.52129  0.16009  Biso   1.000  Hf
  Hf13     1.0000 0.63327  0.73110  0.65474  Biso   1.000  Hf
  Hf14     1.0000 0.86545  0.77119  0.16056  Biso   1.000  Hf
  Hf15     1.0000 0.85471  0.98161  0.66890  Biso   1.000  Hf
  O17      1.0000 0.03774  0.67029  0.17443  Biso   1.000  O 
  O18      1.0000 0.03152  0.58201  0.67590  Biso   1.000  O 
  O19      1.0000 0.47143  0.91849  0.16197  Biso   1.000  O 
  O20      1.0000 0.45973  0.83598  0.66006  Biso   1.000  O 
  O21      1.0000 0.27304  0.63012  0.58570  Biso   1.000  O 
  O22      1.0000 0.27881  0.62535  0.08633  Biso   1.000  O 
  O23      1.0000 0.21213  0.87975  0.56622  Biso   1.000  O 
  O24      1.0000 0.23411  0.87519  0.06405  Biso   1.000  O 
  O25      1.0000 0.53396  0.67008  0.32257  Biso   1.000  O 
  O26      1.0000 0.52910  0.58438  0.82456  Biso   1.000  O 
  O27      1.0000 0.96640  0.92644  0.33677  Biso   1.000  O 
  O28      1.0000 0.95770  0.83229  0.83059  Biso   1.000  O 
  O29      1.0000 0.77125  0.62693  0.91686  Biso   1.000  O 
  O30      1.0000 0.77652  0.62679  0.41614  Biso   1.000  O 
  O31      1.0000 0.71633  0.87604  0.91184  Biso   1.000  O 
  O32      1.0000 0.72780  0.87709  0.41056  Biso   1.000  O 
