data_image0
_cell_length_a       5.04817
_cell_length_b       10.224
_cell_length_c       10.4433
_cell_angle_alpha    90
_cell_angle_beta     80
_cell_angle_gamma    90

_symmetry_space_group_name_H-M    "P 1"
_symmetry_int_tables_number       1

loop_
  _symmetry_equiv_pos_as_xyz
  'x, y, z'

loop_
  _atom_site_label
  _atom_site_occupancy
  _atom_site_fract_x
  _atom_site_fract_y
  _atom_site_fract_z
  _atom_site_thermal_displace_type
  _atom_site_B_iso_or_equiv
  _atom_site_type_symbol
  Cu1      1.0000 0.24120  0.00927  0.16829  Biso   1.000  Cu
  Hf1      1.0000 0.27464  0.22579  0.39017  Biso   1.000  Hf
  Hf2      1.0000 0.72921  0.26305  0.10175  Biso   1.000  Hf
  Hf3      1.0000 0.72214  0.47478  0.35309  Biso   1.000  Hf
  O1       1.0000 0.08597  0.16349  0.07998  Biso   1.000  O 
  O2       1.0000 0.05602  0.07903  0.32357  Biso   1.000  O 
  O3       1.0000 0.93425  0.41601  0.17125  Biso   1.000  O 
  O4       1.0000 0.92482  0.32702  0.42009  Biso   1.000  O 
  O5       1.0000 0.52436  0.11465  0.23089  Biso   1.000  O 
  O6       1.0000 0.54466  0.11780  0.48366  Biso   1.000  O 
  O7       1.0000 0.46074  0.38387  0.00960  Biso   1.000  O 
  O8       1.0000 0.45395  0.36463  0.25820  Biso   1.000  O 
  Hf4      1.0000 0.26012  0.01577  0.64518  Biso   1.000  Hf
  Hf5      1.0000 0.26848  0.21948  0.89903  Biso   1.000  Hf
  Hf6      1.0000 0.71274  0.26646  0.60365  Biso   1.000  Hf
  Hf7      1.0000 0.71435  0.47220  0.85823  Biso   1.000  Hf
  O9       1.0000 0.05590  0.15725  0.57009  Biso   1.000  O 
  O10      1.0000 0.05745  0.07792  0.82593  Biso   1.000  O 
  O11      1.0000 0.92659  0.40866  0.67470  Biso   1.000  O 
  O12      1.0000 0.92962  0.33080  0.92823  Biso   1.000  O 
  O13      1.0000 0.53848  0.12187  0.73337  Biso   1.000  O 
  O14      1.0000 0.57068  0.13063  0.97388  Biso   1.000  O 
  O15      1.0000 0.43879  0.37290  0.50929  Biso   1.000  O 
  O16      1.0000 0.44213  0.36513  0.76150  Biso   1.000  O 
  Hf8      1.0000 0.27925  0.52037  0.14528  Biso   1.000  Hf
  Hf9      1.0000 0.27689  0.72196  0.39877  Biso   1.000  Hf
  Hf10     1.0000 0.72454  0.77375  0.10446  Biso   1.000  Hf
  Hf11     1.0000 0.71813  0.97171  0.35477  Biso   1.000  Hf
  O17      1.0000 0.07680  0.67039  0.08102  Biso   1.000  O 
  O18      1.0000 0.07341  0.57594  0.33155  Biso   1.000  O 
  O19      1.0000 0.94033  0.91887  0.17292  Biso   1.000  O 
  O20      1.0000 0.93093  0.82805  0.42286  Biso   1.000  O 
  O21      1.0000 0.55660  0.62576  0.24116  Biso   1.000  O 
  O22      1.0000 0.55207  0.61514  0.49306  Biso   1.000  O 
  O23      1.0000 0.45165  0.89574  0.01937  Biso   1.000  O 
  O24      1.0000 0.45561  0.86370  0.26304  Biso   1.000  O 
  Hf12     1.0000 0.27376  0.51525  0.64908  Biso   1.000  Hf
  Hf13     1.0000 0.26324  0.72633  0.90007  Biso   1.000  Hf
  Hf14     1.0000 0.71893  0.76579  0.60858  Biso   1.000  Hf
  Hf15     1.0000 0.71588  0.97816  0.85747  Biso   1.000  Hf
  O25      1.0000 0.06632  0.66136  0.58171  Biso   1.000  O 
  O26      1.0000 0.06202  0.57888  0.83168  Biso   1.000  O 
  O27      1.0000 0.92723  0.91136  0.67345  Biso   1.000  O 
  O28      1.0000 0.90930  0.82640  0.92461  Biso   1.000  O 
  O29      1.0000 0.54641  0.62340  0.74391  Biso   1.000  O 
  O30      1.0000 0.53921  0.61986  0.99308  Biso   1.000  O 
  O31      1.0000 0.44647  0.87280  0.51241  Biso   1.000  O 
  O32      1.0000 0.44074  0.86611  0.76465  Biso   1.000  O 
