data_image0
_cell_length_a       10.0613
_cell_length_b       5.13327
_cell_length_c       10.5056
_cell_angle_alpha    90
_cell_angle_beta     90
_cell_angle_gamma    90

_symmetry_space_group_name_H-M    "P 1"
_symmetry_int_tables_number       1

loop_
  _symmetry_equiv_pos_as_xyz
  'x, y, z'

loop_
  _atom_site_label
  _atom_site_occupancy
  _atom_site_fract_x
  _atom_site_fract_y
  _atom_site_fract_z
  _atom_site_thermal_displace_type
  _atom_site_B_iso_or_equiv
  _atom_site_type_symbol
  Hf1      1.0000 0.13246  0.04286  0.17238  Biso   1.000  Hf
  Hf2      1.0000 0.13023  0.45746  0.42511  Biso   1.000  Hf
  Hf3      1.0000 0.34719  0.54313  0.18147  Biso   1.000  Hf
  Hf4      1.0000 0.35528  0.95918  0.42573  Biso   1.000  Hf
  Hf5      1.0000 0.64309  0.06457  0.07353  Biso   1.000  Hf
  Hf6      1.0000 0.63414  0.45998  0.33323  Biso   1.000  Hf
  Hf7      1.0000 0.85872  0.54178  0.07678  Biso   1.000  Hf
  Hf8      1.0000 0.85543  0.95867  0.32886  Biso   1.000  Hf
  O1       1.0000 0.03278  0.33290  0.08470  Biso   1.000  O 
  O2       1.0000 0.02671  0.16946  0.33449  Biso   1.000  O 
  O3       1.0000 0.46099  0.84666  0.09174  Biso   1.000  O 
  O4       1.0000 0.46067  0.67156  0.33658  Biso   1.000  O 
  O5       1.0000 0.26736  0.25020  0.29911  Biso   1.000  O 
  O6       1.0000 0.27593  0.25040  0.04750  Biso   1.000  O 
  O7       1.0000 0.21559  0.75089  0.29995  Biso   1.000  O 
  O8       1.0000 0.22158  0.75164  0.04881  Biso   1.000  O 
  O9       1.0000 0.51880  0.31299  0.17957  Biso   1.000  O 
  O10      1.0000 0.52578  0.17445  0.42100  Biso   1.000  O 
  O11      1.0000 0.96165  0.83299  0.16714  Biso   1.000  O 
  O12      1.0000 0.95965  0.66883  0.41702  Biso   1.000  O 
  O13      1.0000 0.76937  0.24894  0.45519  Biso   1.000  O 
  O14      1.0000 0.77309  0.25894  0.20738  Biso   1.000  O 
  O15      1.0000 0.71688  0.75010  0.45622  Biso   1.000  O 
  O16      1.0000 0.71881  0.75733  0.20662  Biso   1.000  O 
  Hf9      1.0000 0.13220  0.04331  0.67260  Biso   1.000  Hf
  Hf10     1.0000 0.12591  0.46305  0.92304  Biso   1.000  Hf
  Hf11     1.0000 0.35426  0.54299  0.67484  Biso   1.000  Hf
  Hf12     1.0000 0.34643  0.96449  0.92279  Biso   1.000  Hf
  Hf13     1.0000 0.63187  0.04402  0.57968  Biso   1.000  Hf
  Hf14     1.0000 0.63280  0.45915  0.82590  Biso   1.000  Hf
  Hf15     1.0000 0.85458  0.54414  0.57891  Biso   1.000  Hf
  Hf16     1.0000 0.85507  0.96235  0.82572  Biso   1.000  Hf
  O17      1.0000 0.02549  0.33065  0.58456  Biso   1.000  O 
  O18      1.0000 0.02718  0.17049  0.83342  Biso   1.000  O 
  O19      1.0000 0.46017  0.83165  0.58619  Biso   1.000  O 
  O20      1.0000 0.45684  0.66804  0.83797  Biso   1.000  O 
  O21      1.0000 0.26779  0.25149  0.79678  Biso   1.000  O 
  O22      1.0000 0.26895  0.25241  0.54770  Biso   1.000  O 
  O23      1.0000 0.21493  0.75052  0.79740  Biso   1.000  O 
  O24      1.0000 0.21771  0.75177  0.54786  Biso   1.000  O 
  O25      1.0000 0.52499  0.33196  0.66748  Biso   1.000  O 
  O26      1.0000 0.52204  0.15814  0.91075  Biso   1.000  O 
  O27      1.0000 0.96168  0.83055  0.66484  Biso   1.000  O 
  O28      1.0000 0.95702  0.67289  0.91625  Biso   1.000  O 
  O29      1.0000 0.77594  0.24887  0.94817  Biso   1.000  O 
  O30      1.0000 0.76982  0.25190  0.70175  Biso   1.000  O 
  O31      1.0000 0.71982  0.76946  0.95071  Biso   1.000  O 
  O32      1.0000 0.71718  0.75211  0.70387  Biso   1.000  O 
  Cu1      1.0000 0.57425  0.56077  0.05321  Biso   1.000  Cu
