data_image0
_cell_length_a       9.93564
_cell_length_b       5.1877
_cell_length_c       9.95495
_cell_angle_alpha    90
_cell_angle_beta     90
_cell_angle_gamma    90

_symmetry_space_group_name_H-M    "P 1"
_symmetry_int_tables_number       1

loop_
  _symmetry_equiv_pos_as_xyz
  'x, y, z'

loop_
  _atom_site_label
  _atom_site_occupancy
  _atom_site_fract_x
  _atom_site_fract_y
  _atom_site_fract_z
  _atom_site_thermal_displace_type
  _atom_site_B_iso_or_equiv
  _atom_site_type_symbol
  Fe1      1.0000 0.11955  0.06421  0.10966  Biso   1.000  Fe
  Hf1      1.0000 0.14102  0.41177  0.37266  Biso   1.000  Hf
  Hf2      1.0000 0.38951  0.52280  0.10747  Biso   1.000  Hf
  Hf3      1.0000 0.36710  0.91352  0.37173  Biso   1.000  Hf
  O1       1.0000 0.04019  0.35608  0.18417  Biso   1.000  O 
  O2       1.0000 0.03658  0.10337  0.45927  Biso   1.000  O 
  O3       1.0000 0.46895  0.86520  0.18801  Biso   1.000  O 
  O4       1.0000 0.48078  0.61548  0.46118  Biso   1.000  O 
  O5       1.0000 0.22239  0.08503  0.25654  Biso   1.000  O 
  O6       1.0000 0.28223  0.22052  0.50001  Biso   1.000  O 
  O7       1.0000 0.23096  0.71949  0.50421  Biso   1.000  O 
  O8       1.0000 0.28196  0.59258  0.26850  Biso   1.000  O 
  Hf4      1.0000 0.14540  0.99655  0.63069  Biso   1.000  Hf
  Hf5      1.0000 0.14168  0.42563  0.88620  Biso   1.000  Hf
  Hf6      1.0000 0.37079  0.49987  0.63061  Biso   1.000  Hf
  Hf7      1.0000 0.36415  0.92603  0.88635  Biso   1.000  Hf
  O9       1.0000 0.04388  0.32637  0.70206  Biso   1.000  O 
  O10      1.0000 0.04490  0.07269  0.94431  Biso   1.000  O 
  O11      1.0000 0.46527  0.83728  0.70045  Biso   1.000  O 
  O12      1.0000 0.47241  0.59765  0.92918  Biso   1.000  O 
  O13      1.0000 0.27952  0.20284  0.75946  Biso   1.000  O 
  O14      1.0000 0.25486  0.27115  0.01749  Biso   1.000  O 
  O15      1.0000 0.22039  0.78470  0.01885  Biso   1.000  O 
  O16      1.0000 0.23260  0.69845  0.75956  Biso   1.000  O 
  Hf8      1.0000 0.64010  0.03669  0.12673  Biso   1.000  Hf
  Hf9      1.0000 0.64299  0.44528  0.37893  Biso   1.000  Hf
  Hf10     1.0000 0.87107  0.53363  0.11994  Biso   1.000  Hf
  Hf11     1.0000 0.87502  0.94619  0.37202  Biso   1.000  Hf
  O17      1.0000 0.54284  0.36384  0.20281  Biso   1.000  O 
  O18      1.0000 0.54250  0.10277  0.43549  Biso   1.000  O 
  O19      1.0000 0.98237  0.86741  0.18350  Biso   1.000  O 
  O20      1.0000 0.97079  0.59799  0.43240  Biso   1.000  O 
  O21      1.0000 0.78197  0.22401  0.24643  Biso   1.000  O 
  O22      1.0000 0.77506  0.23241  0.49652  Biso   1.000  O 
  O23      1.0000 0.74376  0.73717  0.49514  Biso   1.000  O 
  O24      1.0000 0.73778  0.72528  0.24482  Biso   1.000  O 
  Hf12     1.0000 0.63292  0.98625  0.61584  Biso   1.000  Hf
  Hf13     1.0000 0.64600  0.41515  0.86678  Biso   1.000  Hf
  Hf14     1.0000 0.87997  0.48902  0.61827  Biso   1.000  Hf
  Hf15     1.0000 0.87194  0.91600  0.86802  Biso   1.000  Hf
  O25      1.0000 0.54211  0.32511  0.69103  Biso   1.000  O 
  O26      1.0000 0.53070  0.11433  0.96030  Biso   1.000  O 
  O27      1.0000 0.97268  0.82368  0.69043  Biso   1.000  O 
  O28      1.0000 0.96548  0.57570  0.93642  Biso   1.000  O 
  O29      1.0000 0.77377  0.17889  0.74391  Biso   1.000  O 
  O30      1.0000 0.77877  0.20880  0.99477  Biso   1.000  O 
  O31      1.0000 0.73507  0.71103  0.99280  Biso   1.000  O 
  O32      1.0000 0.73829  0.68130  0.74142  Biso   1.000  O 
