data_image0
_cell_length_a       5.00046
_cell_length_b       10.436
_cell_length_c       10.0305
_cell_angle_alpha    90
_cell_angle_beta     90
_cell_angle_gamma    90

_symmetry_space_group_name_H-M    "P 1"
_symmetry_int_tables_number       1

loop_
  _symmetry_equiv_pos_as_xyz
  'x, y, z'

loop_
  _atom_site_label
  _atom_site_occupancy
  _atom_site_fract_x
  _atom_site_fract_y
  _atom_site_fract_z
  _atom_site_thermal_displace_type
  _atom_site_B_iso_or_equiv
  _atom_site_type_symbol
  Hf1      1.0000 0.26215  0.02206  0.11961  Biso   1.000  Hf
  Hf2      1.0000 0.25887  0.23139  0.38277  Biso   1.000  Hf
  Hf3      1.0000 0.69462  0.25930  0.12388  Biso   1.000  Hf
  Hf4      1.0000 0.73255  0.48543  0.37440  Biso   1.000  Hf
  O1       1.0000 0.02849  0.17727  0.21205  Biso   1.000  O 
  O2       1.0000 0.06483  0.06656  0.45023  Biso   1.000  O 
  O3       1.0000 0.91517  0.43475  0.19417  Biso   1.000  O 
  O4       1.0000 0.92700  0.32101  0.44911  Biso   1.000  O 
  O5       1.0000 0.51752  0.11587  0.25228  Biso   1.000  O 
  O6       1.0000 0.53939  0.13475  0.49975  Biso   1.000  O 
  O7       1.0000 0.45786  0.38551  0.49909  Biso   1.000  O 
  O8       1.0000 0.42917  0.36539  0.24767  Biso   1.000  O 
  Hf5      1.0000 0.26622  0.01734  0.62622  Biso   1.000  Hf
  Hf6      1.0000 0.27326  0.22956  0.87317  Biso   1.000  Hf
  Hf7      1.0000 0.73099  0.26858  0.62623  Biso   1.000  Hf
  Hf8      1.0000 0.72476  0.48742  0.87695  Biso   1.000  Hf
  O9       1.0000 0.06810  0.18462  0.69296  Biso   1.000  O 
  O10      1.0000 0.07884  0.06410  0.93563  Biso   1.000  O 
  O11      1.0000 0.93071  0.43444  0.70232  Biso   1.000  O 
  O12      1.0000 0.93479  0.31777  0.95563  Biso   1.000  O 
  O13      1.0000 0.54123  0.11737  0.74651  Biso   1.000  O 
  O14      1.0000 0.56713  0.12540  0.99186  Biso   1.000  O 
  O15      1.0000 0.44477  0.39144  0.99898  Biso   1.000  O 
  O16      1.0000 0.46256  0.36857  0.75015  Biso   1.000  O 
  Hf9      1.0000 0.26030  0.53446  0.12374  Biso   1.000  Hf
  Hf10     1.0000 0.26448  0.73762  0.37765  Biso   1.000  Hf
  Hf11     1.0000 0.72409  0.77096  0.12716  Biso   1.000  Hf
  Hf12     1.0000 0.72612  0.98590  0.37383  Biso   1.000  Hf
  O17      1.0000 0.06022  0.68889  0.20073  Biso   1.000  O 
  O18      1.0000 0.06125  0.56907  0.44729  Biso   1.000  O 
  O19      1.0000 0.92235  0.93650  0.19312  Biso   1.000  O 
  O20      1.0000 0.92230  0.81865  0.44379  Biso   1.000  O 
  O21      1.0000 0.53900  0.62229  0.25170  Biso   1.000  O 
  O22      1.0000 0.53216  0.63459  0.50027  Biso   1.000  O 
  O23      1.0000 0.45621  0.88558  0.49904  Biso   1.000  O 
  O24      1.0000 0.45255  0.86965  0.24957  Biso   1.000  O 
  Hf13     1.0000 0.26484  0.51712  0.62634  Biso   1.000  Hf
  Hf14     1.0000 0.25937  0.74011  0.87305  Biso   1.000  Hf
  Hf15     1.0000 0.73056  0.76696  0.62332  Biso   1.000  Hf
  Hf16     1.0000 0.72887  0.98164  0.87327  Biso   1.000  Hf
  O25      1.0000 0.06862  0.68520  0.69285  Biso   1.000  O 
  O26      1.0000 0.05805  0.57508  0.94408  Biso   1.000  O 
  O27      1.0000 0.92933  0.93173  0.69421  Biso   1.000  O 
  O28      1.0000 0.92134  0.81900  0.94708  Biso   1.000  O 
  O29      1.0000 0.53601  0.61776  0.75026  Biso   1.000  O 
  O30      1.0000 0.53044  0.64123  0.99820  Biso   1.000  O 
  O31      1.0000 0.44623  0.88624  0.99900  Biso   1.000  O 
  O32      1.0000 0.45985  0.86763  0.74763  Biso   1.000  O 
  Fe1      1.0000 0.18856  0.30880  0.10708  Biso   1.000  Fe
