data_image0
_cell_length_a       10.0608
_cell_length_b       5.14086
_cell_length_c       10.5149
_cell_angle_alpha    90
_cell_angle_beta     90
_cell_angle_gamma    90

_symmetry_space_group_name_H-M    "P 1"
_symmetry_int_tables_number       1

loop_
  _symmetry_equiv_pos_as_xyz
  'x, y, z'

loop_
  _atom_site_label
  _atom_site_occupancy
  _atom_site_fract_x
  _atom_site_fract_y
  _atom_site_fract_z
  _atom_site_thermal_displace_type
  _atom_site_B_iso_or_equiv
  _atom_site_type_symbol
  Hf1      1.0000 0.13617  0.03892  0.17163  Biso   1.000  Hf
  Hf2      1.0000 0.12759  0.46591  0.42109  Biso   1.000  Hf
  Hf3      1.0000 0.35301  0.54083  0.17486  Biso   1.000  Hf
  Hf4      1.0000 0.35303  0.96880  0.42470  Biso   1.000  Hf
  Hf5      1.0000 0.63953  0.07252  0.07169  Biso   1.000  Hf
  Hf6      1.0000 0.62715  0.47960  0.33853  Biso   1.000  Hf
  Hf7      1.0000 0.87831  0.54354  0.06848  Biso   1.000  Hf
  Hf8      1.0000 0.85344  0.96649  0.33456  Biso   1.000  Hf
  O1       1.0000 0.04069  0.32137  0.07542  Biso   1.000  O 
  O2       1.0000 0.02243  0.18919  0.32492  Biso   1.000  O 
  O3       1.0000 0.47713  0.79710  0.07712  Biso   1.000  O 
  O4       1.0000 0.45368  0.67890  0.33584  Biso   1.000  O 
  O5       1.0000 0.26621  0.25083  0.29563  Biso   1.000  O 
  O6       1.0000 0.28154  0.24119  0.04397  Biso   1.000  O 
  O7       1.0000 0.21393  0.75009  0.29455  Biso   1.000  O 
  O8       1.0000 0.22491  0.74612  0.04527  Biso   1.000  O 
  O9       1.0000 0.51597  0.30242  0.18047  Biso   1.000  O 
  O10      1.0000 0.52195  0.18522  0.42631  Biso   1.000  O 
  O11      1.0000 0.95844  0.83803  0.16805  Biso   1.000  O 
  O12      1.0000 0.95671  0.68298  0.41824  Biso   1.000  O 
  O13      1.0000 0.76861  0.25479  0.45445  Biso   1.000  O 
  O14      1.0000 0.75851  0.33230  0.19459  Biso   1.000  O 
  O15      1.0000 0.71553  0.75479  0.46706  Biso   1.000  O 
  O16      1.0000 0.70281  0.82805  0.22569  Biso   1.000  O 
  Hf9      1.0000 0.12906  0.04990  0.66844  Biso   1.000  Hf
  Hf10     1.0000 0.13310  0.46392  0.91591  Biso   1.000  Hf
  Hf11     1.0000 0.35371  0.54830  0.67037  Biso   1.000  Hf
  Hf12     1.0000 0.34794  0.96243  0.91823  Biso   1.000  Hf
  Hf13     1.0000 0.62963  0.05464  0.58303  Biso   1.000  Hf
  Hf14     1.0000 0.62558  0.46876  0.83682  Biso   1.000  Hf
  Hf15     1.0000 0.85060  0.54987  0.58341  Biso   1.000  Hf
  Hf16     1.0000 0.85180  0.97125  0.82697  Biso   1.000  Hf
  O17      1.0000 0.02238  0.33591  0.57951  Biso   1.000  O 
  O18      1.0000 0.02482  0.18384  0.82782  Biso   1.000  O 
  O19      1.0000 0.45707  0.84107  0.58653  Biso   1.000  O 
  O20      1.0000 0.45092  0.66756  0.83558  Biso   1.000  O 
  O21      1.0000 0.26732  0.25228  0.79246  Biso   1.000  O 
  O22      1.0000 0.26499  0.26180  0.54413  Biso   1.000  O 
  O23      1.0000 0.21316  0.75542  0.79223  Biso   1.000  O 
  O24      1.0000 0.21447  0.76080  0.54353  Biso   1.000  O 
  O25      1.0000 0.52429  0.34355  0.66894  Biso   1.000  O 
  O26      1.0000 0.52174  0.15314  0.90426  Biso   1.000  O 
  O27      1.0000 0.95692  0.84126  0.66365  Biso   1.000  O 
  O28      1.0000 0.96329  0.68589  0.90911  Biso   1.000  O 
  O29      1.0000 0.77706  0.25230  0.94888  Biso   1.000  O 
  O30      1.0000 0.76708  0.26184  0.70467  Biso   1.000  O 
  O31      1.0000 0.71229  0.76068  0.96628  Biso   1.000  O 
  O32      1.0000 0.71392  0.76164  0.71368  Biso   1.000  O 
  Fe1      1.0000 0.62655  0.55875  0.10402  Biso   1.000  Fe
