data_image0
_cell_length_a       10.0517
_cell_length_b       4.99789
_cell_length_c       10.0521
_cell_angle_alpha    90
_cell_angle_beta     90
_cell_angle_gamma    90

_symmetry_space_group_name_H-M    "P 1"
_symmetry_int_tables_number       1

loop_
  _symmetry_equiv_pos_as_xyz
  'x, y, z'

loop_
  _atom_site_label
  _atom_site_occupancy
  _atom_site_fract_x
  _atom_site_fract_y
  _atom_site_fract_z
  _atom_site_thermal_displace_type
  _atom_site_B_iso_or_equiv
  _atom_site_type_symbol
  Fe1      1.0000 0.12491  0.00011  0.12491  Biso   1.000  Fe
  Hf1      1.0000 0.12491  0.50009  0.37544  Biso   1.000  Hf
  Hf2      1.0000 0.37543  0.50011  0.12491  Biso   1.000  Hf
  Hf3      1.0000 0.37310  0.01133  0.37310  Biso   1.000  Hf
  O1       1.0000 0.97483  0.30966  0.97482  Biso   1.000  O 
  O2       1.0000 0.02390  0.20249  0.22589  Biso   1.000  O 
  O3       1.0000 0.97484  0.69055  0.27500  Biso   1.000  O 
  O4       1.0000 0.02390  0.79773  0.02393  Biso   1.000  O 
  O5       1.0000 0.27498  0.30966  0.27500  Biso   1.000  O 
  O6       1.0000 0.22591  0.20249  0.02393  Biso   1.000  O 
  O7       1.0000 0.27498  0.69054  0.97482  Biso   1.000  O 
  O8       1.0000 0.22591  0.79772  0.22589  Biso   1.000  O 
  Hf4      1.0000 0.12491  0.00010  0.62491  Biso   1.000  Hf
  Hf5      1.0000 0.12491  0.50010  0.87438  Biso   1.000  Hf
  Hf6      1.0000 0.37597  0.50010  0.62491  Biso   1.000  Hf
  Hf7      1.0000 0.37310  0.98887  0.87672  Biso   1.000  Hf
  O9       1.0000 0.98746  0.26095  0.47858  Biso   1.000  O 
  O10      1.0000 0.01068  0.24751  0.73177  Biso   1.000  O 
  O11      1.0000 0.98746  0.73925  0.77124  Biso   1.000  O 
  O12      1.0000 0.01068  0.75269  0.51805  Biso   1.000  O 
  O13      1.0000 0.26236  0.26095  0.77124  Biso   1.000  O 
  O14      1.0000 0.23914  0.24750  0.51805  Biso   1.000  O 
  O15      1.0000 0.26235  0.73924  0.47858  Biso   1.000  O 
  O16      1.0000 0.23914  0.75269  0.73177  Biso   1.000  O 
  Hf8      1.0000 0.62491  0.00011  0.12491  Biso   1.000  Hf
  Hf9      1.0000 0.62491  0.50009  0.37596  Biso   1.000  Hf
  Hf10     1.0000 0.87439  0.50011  0.12491  Biso   1.000  Hf
  Hf11     1.0000 0.87672  0.98887  0.37310  Biso   1.000  Hf
  O17      1.0000 0.47860  0.26099  0.98742  Biso   1.000  O 
  O18      1.0000 0.51802  0.24750  0.23910  Biso   1.000  O 
  O19      1.0000 0.47860  0.73921  0.26240  Biso   1.000  O 
  O20      1.0000 0.51802  0.75272  0.01072  Biso   1.000  O 
  O21      1.0000 0.77122  0.26101  0.26239  Biso   1.000  O 
  O22      1.0000 0.73180  0.24750  0.01072  Biso   1.000  O 
  O23      1.0000 0.77122  0.73920  0.98742  Biso   1.000  O 
  O24      1.0000 0.73180  0.75272  0.23910  Biso   1.000  O 
  Hf12     1.0000 0.62491  0.00010  0.62491  Biso   1.000  Hf
  Hf13     1.0000 0.62491  0.50009  0.87386  Biso   1.000  Hf
  Hf14     1.0000 0.87384  0.50010  0.62491  Biso   1.000  Hf
  Hf15     1.0000 0.87672  0.01133  0.87672  Biso   1.000  Hf
  O25      1.0000 0.48749  0.25915  0.48745  Biso   1.000  O 
  O26      1.0000 0.51184  0.24896  0.73794  Biso   1.000  O 
  O27      1.0000 0.48750  0.74105  0.76236  Biso   1.000  O 
  O28      1.0000 0.51184  0.75124  0.51188  Biso   1.000  O 
  O29      1.0000 0.76232  0.25915  0.76236  Biso   1.000  O 
  O30      1.0000 0.73798  0.24896  0.51188  Biso   1.000  O 
  O31      1.0000 0.76232  0.74104  0.48746  Biso   1.000  O 
  O32      1.0000 0.73797  0.75124  0.73794  Biso   1.000  O 
