data_image0
_cell_length_a       9.98358
_cell_length_b       5.21664
_cell_length_c       10.0435
_cell_angle_alpha    90
_cell_angle_beta     90
_cell_angle_gamma    90

_symmetry_space_group_name_H-M    "P 1"
_symmetry_int_tables_number       1

loop_
  _symmetry_equiv_pos_as_xyz
  'x, y, z'

loop_
  _atom_site_label
  _atom_site_occupancy
  _atom_site_fract_x
  _atom_site_fract_y
  _atom_site_fract_z
  _atom_site_thermal_displace_type
  _atom_site_B_iso_or_equiv
  _atom_site_type_symbol
  Hf1      1.0000 0.13278  0.91196  0.13509  Biso   1.000  Hf
  Hf2      1.0000 0.13371  0.53387  0.40263  Biso   1.000  Hf
  Hf3      1.0000 0.36174  0.46988  0.13996  Biso   1.000  Hf
  Hf4      1.0000 0.36352  0.03392  0.39150  Biso   1.000  Hf
  O1       1.0000 0.96776  0.36510  0.97652  Biso   1.000  O 
  O2       1.0000 0.96120  0.12287  0.21108  Biso   1.000  O 
  O3       1.0000 0.01646  0.63305  0.23399  Biso   1.000  O 
  O4       1.0000 0.03266  0.86192  0.95468  Biso   1.000  O 
  O5       1.0000 0.22029  0.27170  0.26520  Biso   1.000  O 
  O6       1.0000 0.23080  0.22725  0.01683  Biso   1.000  O 
  O7       1.0000 0.28905  0.74917  0.00789  Biso   1.000  O 
  O8       1.0000 0.26946  0.75963  0.27110  Biso   1.000  O 
  Hf5      1.0000 0.13196  0.96914  0.64537  Biso   1.000  Hf
  Hf6      1.0000 0.13781  0.53532  0.89026  Biso   1.000  Hf
  Hf7      1.0000 0.36645  0.46813  0.64218  Biso   1.000  Hf
  Hf8      1.0000 0.36579  0.03629  0.89047  Biso   1.000  Hf
  O9       1.0000 0.96410  0.35955  0.46667  Biso   1.000  O 
  O10      1.0000 0.96435  0.13936  0.72006  Biso   1.000  O 
  O11      1.0000 0.03416  0.63368  0.71031  Biso   1.000  O 
  O12      1.0000 0.03286  0.86600  0.46869  Biso   1.000  O 
  O13      1.0000 0.23135  0.26612  0.76548  Biso   1.000  O 
  O14      1.0000 0.22865  0.23320  0.51733  Biso   1.000  O 
  O15      1.0000 0.26976  0.73732  0.51899  Biso   1.000  O 
  O16      1.0000 0.27000  0.76793  0.76456  Biso   1.000  O 
  Hf9      1.0000 0.62919  0.96935  0.14287  Biso   1.000  Hf
  Hf10     1.0000 0.62938  0.53667  0.39343  Biso   1.000  Hf
  Hf11     1.0000 0.85036  0.46760  0.14591  Biso   1.000  Hf
  Hf12     1.0000 0.86518  0.03084  0.39255  Biso   1.000  Hf
  O17      1.0000 0.46263  0.36599  0.96156  Biso   1.000  O 
  O18      1.0000 0.45900  0.13485  0.21210  Biso   1.000  O 
  O19      1.0000 0.53248  0.63864  0.21225  Biso   1.000  O 
  O20      1.0000 0.53732  0.87012  0.95762  Biso   1.000  O 
  O21      1.0000 0.72251  0.26300  0.26935  Biso   1.000  O 
  O22      1.0000 0.72882  0.23926  0.01694  Biso   1.000  O 
  O23      1.0000 0.77213  0.73976  0.01722  Biso   1.000  O 
  O24      1.0000 0.76263  0.76960  0.26835  Biso   1.000  O 
  Hf13     1.0000 0.63480  0.96883  0.64242  Biso   1.000  Hf
  Hf14     1.0000 0.62975  0.53396  0.89134  Biso   1.000  Hf
  Hf15     1.0000 0.86520  0.46745  0.64281  Biso   1.000  Hf
  Hf16     1.0000 0.86112  0.03296  0.89443  Biso   1.000  Hf
  O25      1.0000 0.46106  0.36934  0.46110  Biso   1.000  O 
  O26      1.0000 0.46535  0.13482  0.71035  Biso   1.000  O 
  O27      1.0000 0.53593  0.63284  0.71042  Biso   1.000  O 
  O28      1.0000 0.53185  0.87004  0.46342  Biso   1.000  O 
  O29      1.0000 0.72999  0.26795  0.76812  Biso   1.000  O 
  O30      1.0000 0.72851  0.23337  0.51723  Biso   1.000  O 
  O31      1.0000 0.76771  0.73268  0.51662  Biso   1.000  O 
  O32      1.0000 0.77020  0.76811  0.76732  Biso   1.000  O 
  Fe1      1.0000 0.09716  0.37551  0.12624  Biso   1.000  Fe
