data_image0
_cell_length_a       10.136
_cell_length_b       10.3663
_cell_length_c       5.20086
_cell_angle_alpha    90
_cell_angle_beta     80
_cell_angle_gamma    90

_symmetry_space_group_name_H-M    "P 1"
_symmetry_int_tables_number       1

loop_
  _symmetry_equiv_pos_as_xyz
  'x, y, z'

loop_
  _atom_site_label
  _atom_site_occupancy
  _atom_site_fract_x
  _atom_site_fract_y
  _atom_site_fract_z
  _atom_site_thermal_displace_type
  _atom_site_B_iso_or_equiv
  _atom_site_type_symbol
  Hf1      1.0000 0.13322  0.01927  0.29674  Biso   1.000  Hf
  Hf2      1.0000 0.14507  0.22834  0.77701  Biso   1.000  Hf
  Hf3      1.0000 0.35413  0.27975  0.20800  Biso   1.000  Hf
  Hf4      1.0000 0.35843  0.46921  0.69267  Biso   1.000  Hf
  O1       1.0000 0.04255  0.17091  0.15607  Biso   1.000  O 
  O2       1.0000 0.03704  0.07486  0.66471  Biso   1.000  O 
  O3       1.0000 0.45776  0.43322  0.31619  Biso   1.000  O 
  O4       1.0000 0.47499  0.32716  0.83687  Biso   1.000  O 
  O5       1.0000 0.27760  0.12203  0.46264  Biso   1.000  O 
  O6       1.0000 0.29742  0.12816  0.94137  Biso   1.000  O 
  O7       1.0000 0.21811  0.38450  0.00396  Biso   1.000  O 
  O8       1.0000 0.20709  0.37558  0.49730  Biso   1.000  O 
  Hf5      1.0000 0.13505  0.52384  0.28346  Biso   1.000  Hf
  Hf6      1.0000 0.13608  0.72308  0.79125  Biso   1.000  Hf
  Hf7      1.0000 0.35691  0.76661  0.20819  Biso   1.000  Hf
  Hf8      1.0000 0.35985  0.96120  0.70785  Biso   1.000  Hf
  O9       1.0000 0.03074  0.67421  0.16425  Biso   1.000  O 
  O10      1.0000 0.03283  0.57844  0.66112  Biso   1.000  O 
  O11      1.0000 0.46162  0.91706  0.33869  Biso   1.000  O 
  O12      1.0000 0.46092  0.81460  0.83689  Biso   1.000  O 
  O13      1.0000 0.27381  0.62566  0.48040  Biso   1.000  O 
  O14      1.0000 0.27492  0.61582  0.97688  Biso   1.000  O 
  O15      1.0000 0.21846  0.88337  0.02159  Biso   1.000  O 
  O16      1.0000 0.21831  0.86364  0.51618  Biso   1.000  O 
  Hf9      1.0000 0.63831  0.01900  0.30822  Biso   1.000  Hf
  Hf10     1.0000 0.64863  0.22598  0.80376  Biso   1.000  Hf
  Hf11     1.0000 0.86366  0.27011  0.21155  Biso   1.000  Hf
  Hf12     1.0000 0.86232  0.47363  0.71012  Biso   1.000  Hf
  O17      1.0000 0.52987  0.18113  0.23584  Biso   1.000  O 
  O18      1.0000 0.54812  0.05881  0.70875  Biso   1.000  O 
  O19      1.0000 0.95982  0.42281  0.33167  Biso   1.000  O 
  O20      1.0000 0.96377  0.32352  0.83385  Biso   1.000  O 
  O21      1.0000 0.78013  0.12727  0.49102  Biso   1.000  O 
  O22      1.0000 0.77638  0.11352  0.99774  Biso   1.000  O 
  O23      1.0000 0.72360  0.37891  0.02823  Biso   1.000  O 
  O24      1.0000 0.72465  0.36578  0.52475  Biso   1.000  O 
  Hf13     1.0000 0.63666  0.52126  0.29655  Biso   1.000  Hf
  Hf14     1.0000 0.63794  0.72083  0.79626  Biso   1.000  Hf
  Hf15     1.0000 0.85498  0.77047  0.21170  Biso   1.000  Hf
  Hf16     1.0000 0.85748  0.97369  0.71687  Biso   1.000  Hf
  O25      1.0000 0.53565  0.67366  0.17250  Biso   1.000  O 
  O26      1.0000 0.53551  0.57143  0.66891  Biso   1.000  O 
  O27      1.0000 0.95806  0.91962  0.34129  Biso   1.000  O 
  O28      1.0000 0.96124  0.82556  0.83930  Biso   1.000  O 
  O29      1.0000 0.77483  0.62683  0.48575  Biso   1.000  O 
  O30      1.0000 0.77638  0.61387  0.98467  Biso   1.000  O 
  O31      1.0000 0.71774  0.88047  0.02700  Biso   1.000  O 
  O32      1.0000 0.72050  0.86719  0.52517  Biso   1.000  O 
  Fe1      1.0000 0.41864  0.18999  0.62322  Biso   1.000  Fe
