data_image0
_cell_length_a       4.95474
_cell_length_b       10.3648
_cell_length_c       9.96396
_cell_angle_alpha    90
_cell_angle_beta     90
_cell_angle_gamma    90

_symmetry_space_group_name_H-M    "P 1"
_symmetry_int_tables_number       1

loop_
  _symmetry_equiv_pos_as_xyz
  'x, y, z'

loop_
  _atom_site_label
  _atom_site_occupancy
  _atom_site_fract_x
  _atom_site_fract_y
  _atom_site_fract_z
  _atom_site_thermal_displace_type
  _atom_site_B_iso_or_equiv
  _atom_site_type_symbol
  Fe1      1.0000 0.24620  0.03613  0.10788  Biso   1.000  Fe
  Hf1      1.0000 0.27813  0.22230  0.37236  Biso   1.000  Hf
  Hf2      1.0000 0.72751  0.25990  0.12185  Biso   1.000  Hf
  Hf3      1.0000 0.74183  0.47610  0.37590  Biso   1.000  Hf
  O1       1.0000 0.07054  0.17723  0.19047  Biso   1.000  O 
  O2       1.0000 0.08822  0.05945  0.44782  Biso   1.000  O 
  O3       1.0000 0.93114  0.42529  0.19414  Biso   1.000  O 
  O4       1.0000 0.94147  0.30760  0.44207  Biso   1.000  O 
  O5       1.0000 0.52468  0.09731  0.23678  Biso   1.000  O 
  O6       1.0000 0.56240  0.12573  0.49327  Biso   1.000  O 
  O7       1.0000 0.47047  0.37443  0.49886  Biso   1.000  O 
  O8       1.0000 0.46487  0.35619  0.24793  Biso   1.000  O 
  Hf4      1.0000 0.28440  0.00809  0.62489  Biso   1.000  Hf
  Hf5      1.0000 0.28496  0.22730  0.87296  Biso   1.000  Hf
  Hf6      1.0000 0.74738  0.25862  0.62349  Biso   1.000  Hf
  Hf7      1.0000 0.74883  0.47684  0.87421  Biso   1.000  Hf
  O9       1.0000 0.08870  0.17674  0.69503  Biso   1.000  O 
  O10      1.0000 0.08339  0.05911  0.95441  Biso   1.000  O 
  O11      1.0000 0.94207  0.42666  0.69305  Biso   1.000  O 
  O12      1.0000 0.94083  0.30524  0.94029  Biso   1.000  O 
  O13      1.0000 0.55946  0.10978  0.74874  Biso   1.000  O 
  O14      1.0000 0.54213  0.12274  0.99893  Biso   1.000  O 
  O15      1.0000 0.48029  0.37268  0.99791  Biso   1.000  O 
  O16      1.0000 0.47379  0.36068  0.74830  Biso   1.000  O 
  Hf8      1.0000 0.26440  0.51311  0.12829  Biso   1.000  Hf
  Hf9      1.0000 0.28355  0.72894  0.37761  Biso   1.000  Hf
  Hf10     1.0000 0.74004  0.76074  0.12275  Biso   1.000  Hf
  Hf11     1.0000 0.73460  0.97832  0.37103  Biso   1.000  Hf
  O17      1.0000 0.07545  0.68296  0.19859  Biso   1.000  O 
  O18      1.0000 0.08429  0.55875  0.44420  Biso   1.000  O 
  O19      1.0000 0.98164  0.93832  0.18765  Biso   1.000  O 
  O20      1.0000 0.94810  0.81432  0.45019  Biso   1.000  O 
  O21      1.0000 0.54429  0.60301  0.24889  Biso   1.000  O 
  O22      1.0000 0.55610  0.62677  0.50087  Biso   1.000  O 
  O23      1.0000 0.47233  0.87781  0.50398  Biso   1.000  O 
  O24      1.0000 0.52137  0.84444  0.26211  Biso   1.000  O 
  Hf12     1.0000 0.28263  0.51056  0.62493  Biso   1.000  Hf
  Hf13     1.0000 0.27993  0.72722  0.88072  Biso   1.000  Hf
  Hf14     1.0000 0.74634  0.76189  0.62803  Biso   1.000  Hf
  Hf15     1.0000 0.72374  0.97486  0.88129  Biso   1.000  Hf
  O25      1.0000 0.08414  0.67648  0.69789  Biso   1.000  O 
  O26      1.0000 0.08471  0.55837  0.95029  Biso   1.000  O 
  O27      1.0000 0.93353  0.92841  0.70058  Biso   1.000  O 
  O28      1.0000 0.92776  0.80792  0.93895  Biso   1.000  O 
  O29      1.0000 0.55285  0.61135  0.75183  Biso   1.000  O 
  O30      1.0000 0.52283  0.63640  0.00104  Biso   1.000  O 
  O31      1.0000 0.42197  0.89382  0.01449  Biso   1.000  O 
  O32      1.0000 0.46421  0.86037  0.75513  Biso   1.000  O 
