data_image0
_cell_length_a       9.9826
_cell_length_b       5.0799
_cell_length_c       10.4134
_cell_angle_alpha    90
_cell_angle_beta     90
_cell_angle_gamma    90

_symmetry_space_group_name_H-M    "P 1"
_symmetry_int_tables_number       1

loop_
  _symmetry_equiv_pos_as_xyz
  'x, y, z'

loop_
  _atom_site_label
  _atom_site_occupancy
  _atom_site_fract_x
  _atom_site_fract_y
  _atom_site_fract_z
  _atom_site_thermal_displace_type
  _atom_site_B_iso_or_equiv
  _atom_site_type_symbol
  Fe1      1.0000 0.11672  0.02570  0.19154  Biso   1.000  Fe
  Hf1      1.0000 0.13483  0.45913  0.41577  Biso   1.000  Hf
  Hf2      1.0000 0.35391  0.55402  0.16669  Biso   1.000  Hf
  Hf3      1.0000 0.35637  0.96324  0.41644  Biso   1.000  Hf
  Hf4      1.0000 0.63823  0.04242  0.07785  Biso   1.000  Hf
  Hf5      1.0000 0.63194  0.45493  0.32735  Biso   1.000  Hf
  Hf6      1.0000 0.87100  0.52920  0.08330  Biso   1.000  Hf
  Hf7      1.0000 0.85689  0.95294  0.33257  Biso   1.000  Hf
  O1       1.0000 0.05048  0.29985  0.09528  Biso   1.000  O 
  O2       1.0000 0.02915  0.15522  0.33235  Biso   1.000  O 
  O3       1.0000 0.47166  0.83753  0.08537  Biso   1.000  O 
  O4       1.0000 0.45715  0.65756  0.33711  Biso   1.000  O 
  O5       1.0000 0.26275  0.24170  0.28086  Biso   1.000  O 
  O6       1.0000 0.30396  0.30569  0.02370  Biso   1.000  O 
  O7       1.0000 0.21244  0.75863  0.29135  Biso   1.000  O 
  O8       1.0000 0.21974  0.79536  0.05083  Biso   1.000  O 
  O9       1.0000 0.53452  0.34181  0.16237  Biso   1.000  O 
  O10      1.0000 0.52747  0.15840  0.41062  Biso   1.000  O 
  O11      1.0000 0.97861  0.82343  0.17208  Biso   1.000  O 
  O12      1.0000 0.96059  0.66061  0.41650  Biso   1.000  O 
  O13      1.0000 0.76929  0.24217  0.45627  Biso   1.000  O 
  O14      1.0000 0.77707  0.24519  0.20632  Biso   1.000  O 
  O15      1.0000 0.71785  0.74243  0.45681  Biso   1.000  O 
  O16      1.0000 0.73103  0.74532  0.20607  Biso   1.000  O 
  Hf8      1.0000 0.12956  0.03962  0.66914  Biso   1.000  Hf
  Hf9      1.0000 0.13633  0.45668  0.92184  Biso   1.000  Hf
  Hf10     1.0000 0.35560  0.54415  0.67007  Biso   1.000  Hf
  Hf11     1.0000 0.35303  0.96329  0.92406  Biso   1.000  Hf
  Hf12     1.0000 0.62828  0.03865  0.58018  Biso   1.000  Hf
  Hf13     1.0000 0.63139  0.45802  0.83050  Biso   1.000  Hf
  Hf14     1.0000 0.85446  0.53571  0.58095  Biso   1.000  Hf
  Hf15     1.0000 0.85975  0.95201  0.83246  Biso   1.000  Hf
  O17      1.0000 0.02513  0.31935  0.57715  Biso   1.000  O 
  O18      1.0000 0.02523  0.17040  0.83443  Biso   1.000  O 
  O19      1.0000 0.45917  0.84112  0.58424  Biso   1.000  O 
  O20      1.0000 0.46042  0.66826  0.83353  Biso   1.000  O 
  O21      1.0000 0.26759  0.24177  0.78602  Biso   1.000  O 
  O22      1.0000 0.27028  0.25658  0.53810  Biso   1.000  O 
  O23      1.0000 0.21768  0.74356  0.79655  Biso   1.000  O 
  O24      1.0000 0.21762  0.75237  0.54177  Biso   1.000  O 
  O25      1.0000 0.52882  0.34065  0.66188  Biso   1.000  O 
  O26      1.0000 0.52888  0.15638  0.91071  Biso   1.000  O 
  O27      1.0000 0.96474  0.81806  0.67078  Biso   1.000  O 
  O28      1.0000 0.96190  0.66096  0.92607  Biso   1.000  O 
  O29      1.0000 0.77150  0.24247  0.95880  Biso   1.000  O 
  O30      1.0000 0.77009  0.24800  0.70727  Biso   1.000  O 
  O31      1.0000 0.71974  0.73987  0.95856  Biso   1.000  O 
  O32      1.0000 0.71930  0.75175  0.70744  Biso   1.000  O 
