data_image0
_cell_length_a       9.99502
_cell_length_b       10.2073
_cell_length_c       10.4241
_cell_angle_alpha    90
_cell_angle_beta     90
_cell_angle_gamma    90

_symmetry_space_group_name_H-M    "P 1"
_symmetry_int_tables_number       1

loop_
  _symmetry_equiv_pos_as_xyz
  'x, y, z'

loop_
  _atom_site_label
  _atom_site_occupancy
  _atom_site_fract_x
  _atom_site_fract_y
  _atom_site_fract_z
  _atom_site_thermal_displace_type
  _atom_site_B_iso_or_equiv
  _atom_site_type_symbol
  Fe1      1.0000 0.13691  0.02281  0.17972  Biso   1.000  Fe
  Hf1      1.0000 0.14014  0.23058  0.41921  Biso   1.000  Hf
  Hf2      1.0000 0.35900  0.26878  0.17227  Biso   1.000  Hf
  Hf3      1.0000 0.36129  0.48094  0.42173  Biso   1.000  Hf
  Hf4      1.0000 0.63875  0.02216  0.07753  Biso   1.000  Hf
  Hf5      1.0000 0.63825  0.22982  0.32853  Biso   1.000  Hf
  Hf6      1.0000 0.86494  0.26797  0.08127  Biso   1.000  Hf
  Hf7      1.0000 0.86077  0.48025  0.32842  Biso   1.000  Hf
  O1       1.0000 0.03401  0.15741  0.08698  Biso   1.000  O 
  O2       1.0000 0.03897  0.08840  0.31907  Biso   1.000  O 
  O3       1.0000 0.46583  0.41589  0.08612  Biso   1.000  O 
  O4       1.0000 0.46357  0.33140  0.33645  Biso   1.000  O 
  O5       1.0000 0.27211  0.12018  0.29211  Biso   1.000  O 
  O6       1.0000 0.26616  0.11642  0.05649  Biso   1.000  O 
  O7       1.0000 0.22377  0.37554  0.29495  Biso   1.000  O 
  O8       1.0000 0.22421  0.37320  0.04543  Biso   1.000  O 
  O9       1.0000 0.53252  0.16650  0.16591  Biso   1.000  O 
  O10      1.0000 0.53316  0.08413  0.41484  Biso   1.000  O 
  O11      1.0000 0.96735  0.41614  0.16634  Biso   1.000  O 
  O12      1.0000 0.96705  0.33476  0.41505  Biso   1.000  O 
  O13      1.0000 0.77846  0.12434  0.45268  Biso   1.000  O 
  O14      1.0000 0.77507  0.12650  0.20455  Biso   1.000  O 
  O15      1.0000 0.72331  0.37424  0.45607  Biso   1.000  O 
  O16      1.0000 0.72385  0.37630  0.20596  Biso   1.000  O 
  Hf8      1.0000 0.13977  0.02236  0.67103  Biso   1.000  Hf
  Hf9      1.0000 0.13806  0.22511  0.92647  Biso   1.000  Hf
  Hf10     1.0000 0.36150  0.27283  0.67260  Biso   1.000  Hf
  Hf11     1.0000 0.36189  0.47977  0.92194  Biso   1.000  Hf
  Hf12     1.0000 0.63871  0.02191  0.57737  Biso   1.000  Hf
  Hf13     1.0000 0.63989  0.23101  0.82905  Biso   1.000  Hf
  Hf14     1.0000 0.86173  0.27193  0.57797  Biso   1.000  Hf
  Hf15     1.0000 0.86267  0.47977  0.83055  Biso   1.000  Hf
  O17      1.0000 0.03137  0.16084  0.57570  Biso   1.000  O 
  O18      1.0000 0.03198  0.08804  0.82906  Biso   1.000  O 
  O19      1.0000 0.46616  0.41870  0.58548  Biso   1.000  O 
  O20      1.0000 0.46787  0.33559  0.83492  Biso   1.000  O 
  O21      1.0000 0.27783  0.12492  0.79890  Biso   1.000  O 
  O22      1.0000 0.27757  0.12836  0.54468  Biso   1.000  O 
  O23      1.0000 0.22406  0.37467  0.79578  Biso   1.000  O 
  O24      1.0000 0.22323  0.37717  0.54460  Biso   1.000  O 
  O25      1.0000 0.53407  0.16769  0.66586  Biso   1.000  O 
  O26      1.0000 0.53121  0.08830  0.91826  Biso   1.000  O 
  O27      1.0000 0.96850  0.41410  0.66789  Biso   1.000  O 
  O28      1.0000 0.96944  0.33392  0.91909  Biso   1.000  O 
  O29      1.0000 0.77708  0.12584  0.95404  Biso   1.000  O 
  O30      1.0000 0.77705  0.12745  0.70376  Biso   1.000  O 
  O31      1.0000 0.72580  0.37557  0.95637  Biso   1.000  O 
  O32      1.0000 0.72429  0.37793  0.70585  Biso   1.000  O 
  Hf16     1.0000 0.13925  0.52128  0.17140  Biso   1.000  Hf
  Hf17     1.0000 0.13803  0.73144  0.41998  Biso   1.000  Hf
  Hf18     1.0000 0.35693  0.77533  0.17060  Biso   1.000  Hf
  Hf19     1.0000 0.35884  0.98004  0.41938  Biso   1.000  Hf
  Hf20     1.0000 0.63843  0.52171  0.07963  Biso   1.000  Hf
  Hf21     1.0000 0.63804  0.73010  0.32748  Biso   1.000  Hf
  Hf22     1.0000 0.86575  0.77373  0.07841  Biso   1.000  Hf
  Hf23     1.0000 0.86437  0.98202  0.32549  Biso   1.000  Hf
  O33      1.0000 0.03347  0.66542  0.08402  Biso   1.000  O 
  O34      1.0000 0.03310  0.58543  0.33328  Biso   1.000  O 
  O35      1.0000 0.46822  0.91520  0.08428  Biso   1.000  O 
  O36      1.0000 0.46396  0.83455  0.33437  Biso   1.000  O 
  O37      1.0000 0.27595  0.62701  0.29516  Biso   1.000  O 
  O38      1.0000 0.27649  0.62616  0.04493  Biso   1.000  O 
  O39      1.0000 0.21825  0.88161  0.28927  Biso   1.000  O 
  O40      1.0000 0.22075  0.87692  0.04587  Biso   1.000  O 
  O41      1.0000 0.53285  0.66855  0.16492  Biso   1.000  O 
  O42      1.0000 0.53440  0.58398  0.41487  Biso   1.000  O 
  O43      1.0000 0.98108  0.92319  0.16429  Biso   1.000  O 
  O44      1.0000 0.96704  0.83754  0.41490  Biso   1.000  O 
  O45      1.0000 0.77649  0.62492  0.45520  Biso   1.000  O 
  O46      1.0000 0.77690  0.62743  0.20538  Biso   1.000  O 
  O47      1.0000 0.72312  0.87503  0.45374  Biso   1.000  O 
  O48      1.0000 0.73164  0.87777  0.20427  Biso   1.000  O 
  Hf24     1.0000 0.13963  0.52218  0.67216  Biso   1.000  Hf
  Hf25     1.0000 0.14074  0.73204  0.92187  Biso   1.000  Hf
  Hf26     1.0000 0.36193  0.77247  0.67108  Biso   1.000  Hf
  Hf27     1.0000 0.35941  0.97895  0.92438  Biso   1.000  Hf
  Hf28     1.0000 0.63945  0.52239  0.57977  Biso   1.000  Hf
  Hf29     1.0000 0.63959  0.73073  0.83000  Biso   1.000  Hf
  Hf30     1.0000 0.86060  0.77233  0.57790  Biso   1.000  Hf
  Hf31     1.0000 0.86087  0.98079  0.82736  Biso   1.000  Hf
  O49      1.0000 0.03283  0.66610  0.58221  Biso   1.000  O 
  O50      1.0000 0.03419  0.58589  0.83459  Biso   1.000  O 
  O51      1.0000 0.46580  0.91791  0.58434  Biso   1.000  O 
  O52      1.0000 0.46614  0.83496  0.83586  Biso   1.000  O 
  O53      1.0000 0.27778  0.62516  0.79513  Biso   1.000  O 
  O54      1.0000 0.27687  0.62796  0.54478  Biso   1.000  O 
  O55      1.0000 0.22358  0.87533  0.79400  Biso   1.000  O 
  O56      1.0000 0.22300  0.87733  0.54327  Biso   1.000  O 
  O57      1.0000 0.53479  0.66869  0.66550  Biso   1.000  O 
  O58      1.0000 0.53555  0.58402  0.91521  Biso   1.000  O 
  O59      1.0000 0.96769  0.91551  0.66581  Biso   1.000  O 
  O60      1.0000 0.96819  0.83713  0.91584  Biso   1.000  O 
  O61      1.0000 0.77935  0.62762  0.95701  Biso   1.000  O 
  O62      1.0000 0.77790  0.62722  0.70634  Biso   1.000  O 
  O63      1.0000 0.72450  0.87633  0.95497  Biso   1.000  O 
  O64      1.0000 0.72326  0.87758  0.70460  Biso   1.000  O 
