data_image0
_cell_length_a       5.02787
_cell_length_b       10.224
_cell_length_c       10.3793
_cell_angle_alpha    90
_cell_angle_beta     80
_cell_angle_gamma    90

_symmetry_space_group_name_H-M    "P 1"
_symmetry_int_tables_number       1

loop_
  _symmetry_equiv_pos_as_xyz
  'x, y, z'

loop_
  _atom_site_label
  _atom_site_occupancy
  _atom_site_fract_x
  _atom_site_fract_y
  _atom_site_fract_z
  _atom_site_thermal_displace_type
  _atom_site_B_iso_or_equiv
  _atom_site_type_symbol
  Fe1      1.0000 0.27280  0.02370  0.15198  Biso   1.000  Fe
  Hf1      1.0000 0.27493  0.23000  0.39299  Biso   1.000  Hf
  Hf2      1.0000 0.72586  0.26674  0.10716  Biso   1.000  Hf
  Hf3      1.0000 0.72083  0.48149  0.35431  Biso   1.000  Hf
  O1       1.0000 0.07340  0.16026  0.08364  Biso   1.000  O 
  O2       1.0000 0.07543  0.08541  0.31297  Biso   1.000  O 
  O3       1.0000 0.92917  0.42011  0.16907  Biso   1.000  O 
  O4       1.0000 0.92368  0.33134  0.41889  Biso   1.000  O 
  O5       1.0000 0.53872  0.12422  0.23762  Biso   1.000  O 
  O6       1.0000 0.55366  0.12318  0.48821  Biso   1.000  O 
  O7       1.0000 0.44724  0.37819  0.01122  Biso   1.000  O 
  O8       1.0000 0.44936  0.37119  0.25979  Biso   1.000  O 
  Hf4      1.0000 0.27007  0.02266  0.64609  Biso   1.000  Hf
  Hf5      1.0000 0.26689  0.22747  0.90141  Biso   1.000  Hf
  Hf6      1.0000 0.71486  0.27364  0.60506  Biso   1.000  Hf
  Hf7      1.0000 0.71287  0.48063  0.85716  Biso   1.000  Hf
  O9       1.0000 0.06357  0.16723  0.57494  Biso   1.000  O 
  O10      1.0000 0.05915  0.08356  0.82958  Biso   1.000  O 
  O11      1.0000 0.92287  0.42044  0.67123  Biso   1.000  O 
  O12      1.0000 0.91545  0.32759  0.92247  Biso   1.000  O 
  O13      1.0000 0.54590  0.13121  0.74387  Biso   1.000  O 
  O14      1.0000 0.53767  0.11454  0.00220  Biso   1.000  O 
  O15      1.0000 0.44092  0.38067  0.51006  Biso   1.000  O 
  O16      1.0000 0.43812  0.37236  0.76169  Biso   1.000  O 
  Hf8      1.0000 0.27942  0.52307  0.14617  Biso   1.000  Hf
  Hf9      1.0000 0.27638  0.73311  0.39453  Biso   1.000  Hf
  Hf10     1.0000 0.72434  0.77939  0.10431  Biso   1.000  Hf
  Hf11     1.0000 0.72151  0.98219  0.34827  Biso   1.000  Hf
  O17      1.0000 0.07023  0.67060  0.08233  Biso   1.000  O 
  O18      1.0000 0.07410  0.58062  0.33243  Biso   1.000  O 
  O19      1.0000 0.95533  0.92530  0.16486  Biso   1.000  O 
  O20      1.0000 0.92480  0.83338  0.41650  Biso   1.000  O 
  O21      1.0000 0.55479  0.63480  0.24152  Biso   1.000  O 
  O22      1.0000 0.55076  0.62318  0.49145  Biso   1.000  O 
  O23      1.0000 0.43791  0.88525  0.01290  Biso   1.000  O 
  O24      1.0000 0.44612  0.87980  0.25381  Biso   1.000  O 
  Hf12     1.0000 0.27300  0.52364  0.64749  Biso   1.000  Hf
  Hf13     1.0000 0.26885  0.73278  0.89920  Biso   1.000  Hf
  Hf14     1.0000 0.71656  0.77356  0.60416  Biso   1.000  Hf
  Hf15     1.0000 0.70743  0.98184  0.85720  Biso   1.000  Hf
  O25      1.0000 0.06853  0.67270  0.58074  Biso   1.000  O 
  O26      1.0000 0.06619  0.58144  0.83397  Biso   1.000  O 
  O27      1.0000 0.92032  0.92174  0.66965  Biso   1.000  O 
  O28      1.0000 0.91416  0.83232  0.91855  Biso   1.000  O 
  O29      1.0000 0.54888  0.63146  0.74277  Biso   1.000  O 
  O30      1.0000 0.54781  0.62665  0.99313  Biso   1.000  O 
  O31      1.0000 0.44193  0.88155  0.50756  Biso   1.000  O 
  O32      1.0000 0.43723  0.87317  0.75997  Biso   1.000  O 
