data_image0
_cell_length_a       10.1162
_cell_length_b       10.3255
_cell_length_c       10.4121
_cell_angle_alpha    90
_cell_angle_beta     80
_cell_angle_gamma    90

_symmetry_space_group_name_H-M    "P 1"
_symmetry_int_tables_number       1

loop_
  _symmetry_equiv_pos_as_xyz
  'x, y, z'

loop_
  _atom_site_label
  _atom_site_occupancy
  _atom_site_fract_x
  _atom_site_fract_y
  _atom_site_fract_z
  _atom_site_thermal_displace_type
  _atom_site_B_iso_or_equiv
  _atom_site_type_symbol
  Hf1      1.0000 0.13601  0.02172  0.14552  Biso   1.000  Hf
  Hf2      1.0000 0.14381  0.22983  0.39067  Biso   1.000  Hf
  Hf3      1.0000 0.35184  0.27780  0.10369  Biso   1.000  Hf
  Hf4      1.0000 0.35760  0.47022  0.34718  Biso   1.000  Hf
  O1       1.0000 0.03374  0.17137  0.08037  Biso   1.000  O 
  O2       1.0000 0.03679  0.07792  0.33094  Biso   1.000  O 
  O3       1.0000 0.45544  0.43415  0.15786  Biso   1.000  O 
  O4       1.0000 0.47430  0.33154  0.41886  Biso   1.000  O 
  O5       1.0000 0.27658  0.12348  0.23652  Biso   1.000  O 
  O6       1.0000 0.29616  0.12782  0.47423  Biso   1.000  O 
  O7       1.0000 0.21721  0.38425  0.00313  Biso   1.000  O 
  O8       1.0000 0.20548  0.37669  0.25132  Biso   1.000  O 
  Hf5      1.0000 0.13524  0.01578  0.64757  Biso   1.000  Hf
  Hf6      1.0000 0.13646  0.22396  0.89437  Biso   1.000  Hf
  Hf7      1.0000 0.36216  0.26934  0.60540  Biso   1.000  Hf
  Hf8      1.0000 0.35936  0.47417  0.85397  Biso   1.000  Hf
  O9       1.0000 0.04418  0.16719  0.57875  Biso   1.000  O 
  O10      1.0000 0.03413  0.07328  0.83231  Biso   1.000  O 
  O11      1.0000 0.46358  0.41769  0.66914  Biso   1.000  O 
  O12      1.0000 0.46160  0.32205  0.91925  Biso   1.000  O 
  O13      1.0000 0.27512  0.12409  0.73693  Biso   1.000  O 
  O14      1.0000 0.27391  0.11733  0.98848  Biso   1.000  O 
  O15      1.0000 0.22478  0.37583  0.50825  Biso   1.000  O 
  O16      1.0000 0.22313  0.36571  0.75693  Biso   1.000  O 
  Hf9      1.0000 0.13446  0.52416  0.14273  Biso   1.000  Hf
  Hf10     1.0000 0.13672  0.72378  0.39591  Biso   1.000  Hf
  Hf11     1.0000 0.35711  0.76941  0.10305  Biso   1.000  Hf
  Hf12     1.0000 0.35939  0.96313  0.35340  Biso   1.000  Hf
  O17      1.0000 0.03317  0.67506  0.08055  Biso   1.000  O 
  O18      1.0000 0.03148  0.58098  0.32973  Biso   1.000  O 
  O19      1.0000 0.46141  0.91882  0.16822  Biso   1.000  O 
  O20      1.0000 0.45971  0.81651  0.41947  Biso   1.000  O 
  O21      1.0000 0.27351  0.62783  0.24022  Biso   1.000  O 
  O22      1.0000 0.27347  0.61625  0.49015  Biso   1.000  O 
  O23      1.0000 0.22106  0.88125  0.00829  Biso   1.000  O 
  O24      1.0000 0.21813  0.86525  0.25748  Biso   1.000  O 
  Hf13     1.0000 0.13872  0.51779  0.64461  Biso   1.000  Hf
  Hf14     1.0000 0.13525  0.72504  0.89551  Biso   1.000  Hf
  Hf15     1.0000 0.35998  0.76560  0.60509  Biso   1.000  Hf
  Hf16     1.0000 0.35879  0.97394  0.85474  Biso   1.000  Hf
  O25      1.0000 0.03381  0.66683  0.58278  Biso   1.000  O 
  O26      1.0000 0.03558  0.57361  0.83240  Biso   1.000  O 
  O27      1.0000 0.46143  0.91772  0.66873  Biso   1.000  O 
  O28      1.0000 0.46034  0.82303  0.91722  Biso   1.000  O 
  O29      1.0000 0.27540  0.62391  0.74091  Biso   1.000  O 
  O30      1.0000 0.27440  0.61718  0.98950  Biso   1.000  O 
  O31      1.0000 0.22071  0.87836  0.51062  Biso   1.000  O 
  O32      1.0000 0.22092  0.86595  0.75911  Biso   1.000  O 
  Hf17     1.0000 0.63748  0.01938  0.15217  Biso   1.000  Hf
  Hf18     1.0000 0.64707  0.22484  0.40056  Biso   1.000  Hf
  Hf19     1.0000 0.85826  0.27174  0.10545  Biso   1.000  Hf
  Hf20     1.0000 0.86032  0.47572  0.35397  Biso   1.000  Hf
  O33      1.0000 0.52750  0.18168  0.11812  Biso   1.000  O 
  O34      1.0000 0.54697  0.05811  0.34911  Biso   1.000  O 
  O35      1.0000 0.95866  0.42353  0.16517  Biso   1.000  O 
  O36      1.0000 0.96417  0.32826  0.41869  Biso   1.000  O 
  O37      1.0000 0.77873  0.12777  0.24255  Biso   1.000  O 
  O38      1.0000 0.78199  0.11536  0.49544  Biso   1.000  O 
  O39      1.0000 0.72049  0.38041  0.01055  Biso   1.000  O 
  O40      1.0000 0.72254  0.36908  0.26045  Biso   1.000  O 
  Hf21     1.0000 0.63863  0.01785  0.64812  Biso   1.000  Hf
  Hf22     1.0000 0.63824  0.22796  0.89794  Biso   1.000  Hf
  Hf23     1.0000 0.86516  0.26676  0.60453  Biso   1.000  Hf
  Hf24     1.0000 0.86038  0.47411  0.85539  Biso   1.000  Hf
  O41      1.0000 0.53891  0.17008  0.58681  Biso   1.000  O 
  O42      1.0000 0.53654  0.07393  0.83926  Biso   1.000  O 
  O43      1.0000 0.96338  0.41688  0.66915  Biso   1.000  O 
  O44      1.0000 0.95930  0.32156  0.91710  Biso   1.000  O 
  O45      1.0000 0.77651  0.12608  0.74390  Biso   1.000  O 
  O46      1.0000 0.76639  0.11595  0.99520  Biso   1.000  O 
  O47      1.0000 0.72615  0.37487  0.51246  Biso   1.000  O 
  O48      1.0000 0.72266  0.36483  0.76116  Biso   1.000  O 
  Hf25     1.0000 0.63503  0.52240  0.14704  Biso   1.000  Hf
  Hf26     1.0000 0.63761  0.72310  0.39701  Biso   1.000  Hf
  Hf27     1.0000 0.85694  0.77125  0.10479  Biso   1.000  Hf
  Hf28     1.0000 0.86042  0.97546  0.35563  Biso   1.000  Hf
  O49      1.0000 0.53615  0.67565  0.08321  Biso   1.000  O 
  O50      1.0000 0.53424  0.57456  0.33260  Biso   1.000  O 
  O51      1.0000 0.96021  0.92059  0.16808  Biso   1.000  O 
  O52      1.0000 0.96213  0.82752  0.42071  Biso   1.000  O 
  O53      1.0000 0.77446  0.62846  0.24176  Biso   1.000  O 
  O54      1.0000 0.77513  0.61671  0.49199  Biso   1.000  O 
  O55      1.0000 0.72005  0.88126  0.01140  Biso   1.000  O 
  O56      1.0000 0.72127  0.86817  0.26075  Biso   1.000  O 
  Hf29     1.0000 0.63904  0.51733  0.64729  Biso   1.000  Hf
  Hf30     1.0000 0.63604  0.72372  0.89732  Biso   1.000  Hf
  Hf31     1.0000 0.85850  0.76751  0.60495  Biso   1.000  Hf
  Hf32     1.0000 0.85536  0.97430  0.85697  Biso   1.000  Hf
  O57      1.0000 0.53580  0.66668  0.58517  Biso   1.000  O 
  O58      1.0000 0.53575  0.57271  0.83423  Biso   1.000  O 
  O59      1.0000 0.96003  0.91709  0.67068  Biso   1.000  O 
  O60      1.0000 0.95925  0.82437  0.91751  Biso   1.000  O 
  O61      1.0000 0.77540  0.62463  0.74203  Biso   1.000  O 
  O62      1.0000 0.77422  0.61518  0.99165  Biso   1.000  O 
  O63      1.0000 0.72072  0.87535  0.51112  Biso   1.000  O 
  O64      1.0000 0.72069  0.86664  0.76094  Biso   1.000  O 
  Fe1      1.0000 0.41786  0.19265  0.31423  Biso   1.000  Fe
