data_image0
_cell_length_a       10.1057
_cell_length_b       10.229
_cell_length_c       5.28198
_cell_angle_alpha    90
_cell_angle_beta     90
_cell_angle_gamma    90

_symmetry_space_group_name_H-M    "P 1"
_symmetry_int_tables_number       1

loop_
  _symmetry_equiv_pos_as_xyz
  'x, y, z'

loop_
  _atom_site_label
  _atom_site_occupancy
  _atom_site_fract_x
  _atom_site_fract_y
  _atom_site_fract_z
  _atom_site_thermal_displace_type
  _atom_site_B_iso_or_equiv
  _atom_site_type_symbol
  Hf1      1.0000 0.13396  0.02053  0.34358  Biso   1.000  Hf
  Hf2      1.0000 0.13730  0.22601  0.84282  Biso   1.000  Hf
  Hf3      1.0000 0.35894  0.26463  0.35211  Biso   1.000  Hf
  Hf4      1.0000 0.36236  0.47599  0.84548  Biso   1.000  Hf
  Hf5      1.0000 0.63477  0.01757  0.16118  Biso   1.000  Hf
  Hf6      1.0000 0.62743  0.21838  0.71321  Biso   1.000  Hf
  Hf7      1.0000 0.86992  0.27553  0.13660  Biso   1.000  Hf
  Hf8      1.0000 0.86975  0.47940  0.63950  Biso   1.000  Hf
  O1       1.0000 0.03454  0.16099  0.15291  Biso   1.000  O 
  O2       1.0000 0.02423  0.09048  0.65297  Biso   1.000  O 
  O3       1.0000 0.48777  0.40062  0.17256  Biso   1.000  O 
  O4       1.0000 0.46160  0.32887  0.67985  Biso   1.000  O 
  O5       1.0000 0.26793  0.12044  0.59430  Biso   1.000  O 
  O6       1.0000 0.27492  0.12281  0.09233  Biso   1.000  O 
  O7       1.0000 0.22559  0.37262  0.59338  Biso   1.000  O 
  O8       1.0000 0.23591  0.37551  0.09155  Biso   1.000  O 
  O9       1.0000 0.50845  0.13286  0.36717  Biso   1.000  O 
  O10      1.0000 0.51981  0.07359  0.85123  Biso   1.000  O 
  O11      1.0000 0.98351  0.40842  0.33893  Biso   1.000  O 
  O12      1.0000 0.97349  0.34185  0.83688  Biso   1.000  O 
  O13      1.0000 0.77987  0.11185  0.91561  Biso   1.000  O 
  O14      1.0000 0.75338  0.14585  0.41116  Biso   1.000  O 
  O15      1.0000 0.72929  0.37613  0.87429  Biso   1.000  O 
  O16      1.0000 0.74473  0.39326  0.36800  Biso   1.000  O 
  Hf9      1.0000 0.14633  0.52045  0.34249  Biso   1.000  Hf
  Hf10     1.0000 0.14312  0.72567  0.84381  Biso   1.000  Hf
  Hf11     1.0000 0.37022  0.76837  0.34589  Biso   1.000  Hf
  Hf12     1.0000 0.36488  0.96967  0.85029  Biso   1.000  Hf
  Hf13     1.0000 0.65115  0.52931  0.14044  Biso   1.000  Hf
  Hf14     1.0000 0.64539  0.72782  0.65149  Biso   1.000  Hf
  Hf15     1.0000 0.87283  0.77362  0.15357  Biso   1.000  Hf
  Hf16     1.0000 0.87198  0.97711  0.65806  Biso   1.000  Hf
  O17      1.0000 0.04139  0.66226  0.15501  Biso   1.000  O 
  O18      1.0000 0.03733  0.59006  0.65292  Biso   1.000  O 
  O19      1.0000 0.47921  0.90045  0.15582  Biso   1.000  O 
  O20      1.0000 0.47518  0.83469  0.65711  Biso   1.000  O 
  O21      1.0000 0.28261  0.61958  0.59451  Biso   1.000  O 
  O22      1.0000 0.28583  0.62374  0.09321  Biso   1.000  O 
  O23      1.0000 0.23014  0.86959  0.59326  Biso   1.000  O 
  O24      1.0000 0.23359  0.87397  0.09486  Biso   1.000  O 
  O25      1.0000 0.53950  0.65838  0.33825  Biso   1.000  O 
  O26      1.0000 0.53282  0.58489  0.83121  Biso   1.000  O 
  O27      1.0000 0.97708  0.91512  0.33432  Biso   1.000  O 
  O28      1.0000 0.97495  0.83821  0.83644  Biso   1.000  O 
  O29      1.0000 0.78103  0.62330  0.89805  Biso   1.000  O 
  O30      1.0000 0.78569  0.63423  0.40134  Biso   1.000  O 
  O31      1.0000 0.72949  0.86914  0.91033  Biso   1.000  O 
  O32      1.0000 0.73548  0.87913  0.41491  Biso   1.000  O 
  Fe1      1.0000 0.61956  0.27133  0.27235  Biso   1.000  Fe
