data_image0
_cell_length_a       10.0754
_cell_length_b       5.0852
_cell_length_c       10.4632
_cell_angle_alpha    90
_cell_angle_beta     80
_cell_angle_gamma    90

_symmetry_space_group_name_H-M    "P 1"
_symmetry_int_tables_number       1

loop_
  _symmetry_equiv_pos_as_xyz
  'x, y, z'

loop_
  _atom_site_label
  _atom_site_occupancy
  _atom_site_fract_x
  _atom_site_fract_y
  _atom_site_fract_z
  _atom_site_thermal_displace_type
  _atom_site_B_iso_or_equiv
  _atom_site_type_symbol
  Fe1      1.0000 0.11767  0.02300  0.16838  Biso   1.000  Fe
  Hf1      1.0000 0.13523  0.45241  0.39140  Biso   1.000  Hf
  Hf2      1.0000 0.35442  0.55078  0.10130  Biso   1.000  Hf
  Hf3      1.0000 0.35952  0.95670  0.34983  Biso   1.000  Hf
  O1       1.0000 0.04838  0.29318  0.08504  Biso   1.000  O 
  O2       1.0000 0.02934  0.15372  0.32449  Biso   1.000  O 
  O3       1.0000 0.46826  0.82693  0.17414  Biso   1.000  O 
  O4       1.0000 0.46232  0.66600  0.42185  Biso   1.000  O 
  O5       1.0000 0.26236  0.24600  0.22992  Biso   1.000  O 
  O6       1.0000 0.27109  0.24171  0.48497  Biso   1.000  O 
  O7       1.0000 0.22425  0.80484  0.01750  Biso   1.000  O 
  O8       1.0000 0.21563  0.74711  0.25801  Biso   1.000  O 
  Hf4      1.0000 0.12884  0.03489  0.64491  Biso   1.000  Hf
  Hf5      1.0000 0.13324  0.44966  0.89589  Biso   1.000  Hf
  Hf6      1.0000 0.35583  0.54140  0.60458  Biso   1.000  Hf
  Hf7      1.0000 0.35385  0.96472  0.85892  Biso   1.000  Hf
  O9       1.0000 0.02562  0.31526  0.57204  Biso   1.000  O 
  O10      1.0000 0.02422  0.16312  0.82927  Biso   1.000  O 
  O11      1.0000 0.46076  0.82955  0.67449  Biso   1.000  O 
  O12      1.0000 0.45953  0.68195  0.92870  Biso   1.000  O 
  O13      1.0000 0.26485  0.25027  0.73329  Biso   1.000  O 
  O14      1.0000 0.28303  0.28461  0.97112  Biso   1.000  O 
  O15      1.0000 0.21884  0.75236  0.50791  Biso   1.000  O 
  O16      1.0000 0.21901  0.73617  0.76327  Biso   1.000  O 
  Hf8      1.0000 0.63348  0.04039  0.14493  Biso   1.000  Hf
  Hf9      1.0000 0.63420  0.45196  0.39619  Biso   1.000  Hf
  Hf10     1.0000 0.86969  0.52762  0.10692  Biso   1.000  Hf
  Hf11     1.0000 0.85826  0.94890  0.35784  Biso   1.000  Hf
  O17      1.0000 0.53425  0.33527  0.07778  Biso   1.000  O 
  O18      1.0000 0.52922  0.16360  0.32748  Biso   1.000  O 
  O19      1.0000 0.97979  0.81730  0.17601  Biso   1.000  O 
  O20      1.0000 0.96113  0.65836  0.42460  Biso   1.000  O 
  O21      1.0000 0.77493  0.24498  0.24072  Biso   1.000  O 
  O22      1.0000 0.77043  0.23454  0.49213  Biso   1.000  O 
  O23      1.0000 0.73321  0.75526  0.01299  Biso   1.000  O 
  O24      1.0000 0.73098  0.73166  0.25953  Biso   1.000  O 
  Hf12     1.0000 0.62808  0.03748  0.64970  Biso   1.000  Hf
  Hf13     1.0000 0.62711  0.45514  0.90101  Biso   1.000  Hf
  Hf14     1.0000 0.85449  0.53353  0.60799  Biso   1.000  Hf
  Hf15     1.0000 0.85803  0.94705  0.85927  Biso   1.000  Hf
  O25      1.0000 0.52833  0.32946  0.57734  Biso   1.000  O 
  O26      1.0000 0.52480  0.16949  0.82779  Biso   1.000  O 
  O27      1.0000 0.96366  0.81419  0.67854  Biso   1.000  O 
  O28      1.0000 0.95870  0.65427  0.93379  Biso   1.000  O 
  O29      1.0000 0.76907  0.24980  0.74352  Biso   1.000  O 
  O30      1.0000 0.76573  0.23406  0.99476  Biso   1.000  O 
  O31      1.0000 0.71906  0.74987  0.51249  Biso   1.000  O 
  O32      1.0000 0.71855  0.73786  0.76440  Biso   1.000  O 
