data_image0
_cell_length_a       10.034
_cell_length_b       10.2566
_cell_length_c       10.034
_cell_angle_alpha    90
_cell_angle_beta     90
_cell_angle_gamma    90

_symmetry_space_group_name_H-M    "P 1"
_symmetry_int_tables_number       1

loop_
  _symmetry_equiv_pos_as_xyz
  'x, y, z'

loop_
  _atom_site_label
  _atom_site_occupancy
  _atom_site_fract_x
  _atom_site_fract_y
  _atom_site_fract_z
  _atom_site_thermal_displace_type
  _atom_site_B_iso_or_equiv
  _atom_site_type_symbol
  Hf1      1.0000 0.12519  0.95572  0.12492  Biso   1.000  Hf
  Hf2      1.0000 0.12408  0.25462  0.37718  Biso   1.000  Hf
  Hf3      1.0000 0.37746  0.25463  0.12318  Biso   1.000  Hf
  Hf4      1.0000 0.37897  0.00464  0.37806  Biso   1.000  Hf
  O1       1.0000 0.99303  0.15478  0.99066  Biso   1.000  O 
  O2       1.0000 0.00283  0.10431  0.24750  Biso   1.000  O 
  O3       1.0000 0.99071  0.35591  0.25967  Biso   1.000  O 
  O4       1.0000 0.00251  0.40186  0.00251  Biso   1.000  O 
  O5       1.0000 0.25968  0.15474  0.25906  Biso   1.000  O 
  O6       1.0000 0.24750  0.10434  0.00224  Biso   1.000  O 
  O7       1.0000 0.26205  0.35590  0.99009  Biso   1.000  O 
  O8       1.0000 0.24785  0.40181  0.24726  Biso   1.000  O 
  Hf5      1.0000 0.12637  0.99938  0.62490  Biso   1.000  Hf
  Hf6      1.0000 0.12869  0.25460  0.87257  Biso   1.000  Hf
  Hf7      1.0000 0.37513  0.25134  0.62514  Biso   1.000  Hf
  Hf8      1.0000 0.37493  0.00426  0.87698  Biso   1.000  Hf
  O9       1.0000 0.00178  0.14866  0.50050  Biso   1.000  O 
  O10      1.0000 0.99893  0.10253  0.74644  Biso   1.000  O 
  O11      1.0000 0.99904  0.35475  0.75193  Biso   1.000  O 
  O12      1.0000 0.00106  0.39933  0.50373  Biso   1.000  O 
  O13      1.0000 0.25099  0.14866  0.74925  Biso   1.000  O 
  O14      1.0000 0.25383  0.10253  0.50331  Biso   1.000  O 
  O15      1.0000 0.25373  0.35475  0.49782  Biso   1.000  O 
  O16      1.0000 0.25172  0.39932  0.74603  Biso   1.000  O 
  Hf9      1.0000 0.12518  0.50605  0.12489  Biso   1.000  Hf
  Hf10     1.0000 0.12787  0.74749  0.38133  Biso   1.000  Hf
  Hf11     1.0000 0.38161  0.74750  0.12698  Biso   1.000  Hf
  Hf12     1.0000 0.37480  0.49960  0.37391  Biso   1.000  Hf
  O17      1.0000 0.00190  0.64997  0.00192  Biso   1.000  O 
  O18      1.0000 0.99891  0.60140  0.25155  Biso   1.000  O 
  O19      1.0000 0.00189  0.84526  0.24850  Biso   1.000  O 
  O20      1.0000 0.99350  0.89293  0.99115  Biso   1.000  O 
  O21      1.0000 0.24852  0.64991  0.24794  Biso   1.000  O 
  O22      1.0000 0.25393  0.60138  0.99832  Biso   1.000  O 
  O23      1.0000 0.24848  0.84528  0.00132  Biso   1.000  O 
  O24      1.0000 0.25925  0.89290  0.25867  Biso   1.000  O 
  Hf13     1.0000 0.12636  0.50143  0.62490  Biso   1.000  Hf
  Hf14     1.0000 0.12486  0.74751  0.86846  Biso   1.000  Hf
  Hf15     1.0000 0.37893  0.75184  0.62603  Biso   1.000  Hf
  Hf16     1.0000 0.37757  0.49987  0.87430  Biso   1.000  Hf
  O25      1.0000 0.99840  0.64805  0.50207  Biso   1.000  O 
  O26      1.0000 0.00566  0.60286  0.75326  Biso   1.000  O 
  O27      1.0000 0.00288  0.85199  0.74297  Biso   1.000  O 
  O28      1.0000 0.00347  0.89961  0.49425  Biso   1.000  O 
  O29      1.0000 0.25437  0.64805  0.74778  Biso   1.000  O 
  O30      1.0000 0.24712  0.60286  0.49658  Biso   1.000  O 
  O31      1.0000 0.24983  0.85199  0.50686  Biso   1.000  O 
  O32      1.0000 0.24924  0.89961  0.75557  Biso   1.000  O 
  Hf17     1.0000 0.62517  0.99940  0.12491  Biso   1.000  Hf
  Hf18     1.0000 0.62602  0.25135  0.37364  Biso   1.000  Hf
  Hf19     1.0000 0.87286  0.25463  0.12660  Biso   1.000  Hf
  Hf20     1.0000 0.87786  0.00428  0.37283  Biso   1.000  Hf
  O33      1.0000 0.50050  0.14869  0.00058  Biso   1.000  O 
  O34      1.0000 0.50391  0.10254  0.25264  Biso   1.000  O 
  O35      1.0000 0.49842  0.35476  0.25254  Biso   1.000  O 
  O36      1.0000 0.50613  0.39931  0.99986  Biso   1.000  O 
  O37      1.0000 0.74983  0.14868  0.24920  Biso   1.000  O 
  O38      1.0000 0.74883  0.10252  0.99715  Biso   1.000  O 
  O39      1.0000 0.75432  0.35474  0.99725  Biso   1.000  O 
  O40      1.0000 0.74663  0.39934  0.24993  Biso   1.000  O 
  Hf21     1.0000 0.62639  0.00437  0.62489  Biso   1.000  Hf
  Hf22     1.0000 0.62671  0.25131  0.87614  Biso   1.000  Hf
  Hf23     1.0000 0.87763  0.25132  0.62463  Biso   1.000  Hf
  Hf24     1.0000 0.87382  0.00464  0.87173  Biso   1.000  Hf
  O41      1.0000 0.50304  0.15050  0.50184  Biso   1.000  O 
  O42      1.0000 0.50055  0.10291  0.75104  Biso   1.000  O 
  O43      1.0000 0.50079  0.35233  0.75079  Biso   1.000  O 
  O44      1.0000 0.50155  0.40046  0.50035  Biso   1.000  O 
  O45      1.0000 0.74974  0.15050  0.74795  Biso   1.000  O 
  O46      1.0000 0.75222  0.10292  0.49875  Biso   1.000  O 
  O47      1.0000 0.75199  0.35234  0.49899  Biso   1.000  O 
  O48      1.0000 0.75122  0.40045  0.74943  Biso   1.000  O 
  Hf25     1.0000 0.62519  0.50145  0.12488  Biso   1.000  Hf
  Hf26     1.0000 0.62691  0.75184  0.37744  Biso   1.000  Hf
  Hf27     1.0000 0.86873  0.74754  0.12280  Biso   1.000  Hf
  Hf28     1.0000 0.87520  0.49988  0.37549  Biso   1.000  Hf
  O49      1.0000 0.50443  0.64803  0.99721  Biso   1.000  O 
  O50      1.0000 0.49715  0.60287  0.24594  Biso   1.000  O 
  O51      1.0000 0.50743  0.85200  0.24865  Biso   1.000  O 
  O52      1.0000 0.49423  0.89964  0.00231  Biso   1.000  O 
  O53      1.0000 0.74837  0.64807  0.25260  Biso   1.000  O 
  O54      1.0000 0.75325  0.60289  0.00386  Biso   1.000  O 
  O55      1.0000 0.74295  0.85202  0.00112  Biso   1.000  O 
  O56      1.0000 0.75613  0.89963  0.24745  Biso   1.000  O 
  Hf29     1.0000 0.62638  0.49913  0.62490  Biso   1.000  Hf
  Hf30     1.0000 0.62582  0.75185  0.87233  Biso   1.000  Hf
  Hf31     1.0000 0.87380  0.75186  0.62375  Biso   1.000  Hf
  Hf32     1.0000 0.87796  0.49958  0.87587  Biso   1.000  Hf
  O57      1.0000 0.49709  0.65025  0.49592  Biso   1.000  O 
  O58      1.0000 0.50414  0.60410  0.74744  Biso   1.000  O 
  O59      1.0000 0.50054  0.85478  0.75101  Biso   1.000  O 
  O60      1.0000 0.50212  0.89990  0.50096  Biso   1.000  O 
  O61      1.0000 0.75567  0.65025  0.75388  Biso   1.000  O 
  O62      1.0000 0.74863  0.60411  0.50235  Biso   1.000  O 
  O63      1.0000 0.75218  0.85479  0.49877  Biso   1.000  O 
  O64      1.0000 0.75058  0.89990  0.74882  Biso   1.000  O 
  Fe1      1.0000 0.12515  0.17342  0.12486  Biso   1.000  Fe
