data_image0
_cell_length_a       9.95502
_cell_length_b       5.17159
_cell_length_c       10.0078
_cell_angle_alpha    90
_cell_angle_beta     90
_cell_angle_gamma    90

_symmetry_space_group_name_H-M    "P 1"
_symmetry_int_tables_number       1

loop_
  _symmetry_equiv_pos_as_xyz
  'x, y, z'

loop_
  _atom_site_label
  _atom_site_occupancy
  _atom_site_fract_x
  _atom_site_fract_y
  _atom_site_fract_z
  _atom_site_thermal_displace_type
  _atom_site_B_iso_or_equiv
  _atom_site_type_symbol
  Ga1      1.0000 0.12607  0.04611  0.11075  Biso   1.000  Ga
  Hf1      1.0000 0.13674  0.44501  0.37435  Biso   1.000  Hf
  Hf2      1.0000 0.36552  0.51820  0.12408  Biso   1.000  Hf
  Hf3      1.0000 0.36262  0.95087  0.37197  Biso   1.000  Hf
  O1       1.0000 0.03176  0.36044  0.19524  Biso   1.000  O 
  O2       1.0000 0.03781  0.11805  0.45178  Biso   1.000  O 
  O3       1.0000 0.46990  0.85622  0.19545  Biso   1.000  O 
  O4       1.0000 0.47221  0.62674  0.45200  Biso   1.000  O 
  O5       1.0000 0.25779  0.18399  0.24190  Biso   1.000  O 
  O6       1.0000 0.27669  0.25272  0.49713  Biso   1.000  O 
  O7       1.0000 0.23107  0.75170  0.50429  Biso   1.000  O 
  O8       1.0000 0.25074  0.67846  0.26288  Biso   1.000  O 
  Hf4      1.0000 0.14049  0.02173  0.62823  Biso   1.000  Hf
  Hf5      1.0000 0.13852  0.45737  0.87903  Biso   1.000  Hf
  Hf6      1.0000 0.36862  0.52320  0.62760  Biso   1.000  Hf
  Hf7      1.0000 0.36548  0.95402  0.88150  Biso   1.000  Hf
  O9       1.0000 0.04037  0.35771  0.69639  Biso   1.000  O 
  O10      1.0000 0.03954  0.11892  0.94364  Biso   1.000  O 
  O11      1.0000 0.46702  0.85539  0.69899  Biso   1.000  O 
  O12      1.0000 0.46695  0.61848  0.94346  Biso   1.000  O 
  O13      1.0000 0.27635  0.22477  0.74982  Biso   1.000  O 
  O14      1.0000 0.27420  0.25216  0.99613  Biso   1.000  O 
  O15      1.0000 0.22306  0.77806  0.01193  Biso   1.000  O 
  O16      1.0000 0.23264  0.72552  0.75498  Biso   1.000  O 
  Hf8      1.0000 0.63563  0.03169  0.12540  Biso   1.000  Hf
  Hf9      1.0000 0.63810  0.45882  0.37602  Biso   1.000  Hf
  Hf10     1.0000 0.86783  0.53369  0.12159  Biso   1.000  Hf
  Hf11     1.0000 0.87101  0.95987  0.37299  Biso   1.000  Hf
  O17      1.0000 0.53389  0.35976  0.20027  Biso   1.000  O 
  O18      1.0000 0.53845  0.12201  0.44357  Biso   1.000  O 
  O19      1.0000 0.97905  0.86263  0.19429  Biso   1.000  O 
  O20      1.0000 0.96719  0.61961  0.44233  Biso   1.000  O 
  O21      1.0000 0.77311  0.22631  0.24736  Biso   1.000  O 
  O22      1.0000 0.77378  0.25526  0.49753  Biso   1.000  O 
  O23      1.0000 0.73523  0.75735  0.49697  Biso   1.000  O 
  O24      1.0000 0.73536  0.72751  0.24680  Biso   1.000  O 
  Hf12     1.0000 0.63670  0.01752  0.62301  Biso   1.000  Hf
  Hf13     1.0000 0.63767  0.45258  0.87376  Biso   1.000  Hf
  Hf14     1.0000 0.87092  0.51944  0.62373  Biso   1.000  Hf
  Hf15     1.0000 0.86908  0.95440  0.87297  Biso   1.000  Hf
  O25      1.0000 0.53943  0.35349  0.69417  Biso   1.000  O 
  O26      1.0000 0.53913  0.12116  0.94861  Biso   1.000  O 
  O27      1.0000 0.96786  0.85461  0.69412  Biso   1.000  O 
  O28      1.0000 0.96644  0.61818  0.94170  Biso   1.000  O 
  O29      1.0000 0.77369  0.21936  0.74716  Biso   1.000  O 
  O30      1.0000 0.77524  0.24991  0.99734  Biso   1.000  O 
  O31      1.0000 0.73355  0.74886  0.99671  Biso   1.000  O 
  O32      1.0000 0.73268  0.71890  0.74638  Biso   1.000  O 
