data_image0
_cell_length_a       10.0815
_cell_length_b       5.15363
_cell_length_c       10.5144
_cell_angle_alpha    90
_cell_angle_beta     90
_cell_angle_gamma    90

_symmetry_space_group_name_H-M    "P 1"
_symmetry_int_tables_number       1

loop_
  _symmetry_equiv_pos_as_xyz
  'x, y, z'

loop_
  _atom_site_label
  _atom_site_occupancy
  _atom_site_fract_x
  _atom_site_fract_y
  _atom_site_fract_z
  _atom_site_thermal_displace_type
  _atom_site_B_iso_or_equiv
  _atom_site_type_symbol
  Hf1      1.0000 0.12792  0.03983  0.17418  Biso   1.000  Hf
  Hf2      1.0000 0.12250  0.45876  0.42662  Biso   1.000  Hf
  Hf3      1.0000 0.33882  0.53544  0.18729  Biso   1.000  Hf
  Hf4      1.0000 0.34986  0.96029  0.42823  Biso   1.000  Hf
  Hf5      1.0000 0.64938  0.06186  0.06949  Biso   1.000  Hf
  Hf6      1.0000 0.62812  0.46340  0.33312  Biso   1.000  Hf
  Hf7      1.0000 0.85879  0.54459  0.07630  Biso   1.000  Hf
  Hf8      1.0000 0.85029  0.96206  0.32839  Biso   1.000  Hf
  O1       1.0000 0.03281  0.34001  0.08800  Biso   1.000  O 
  O2       1.0000 0.01941  0.17099  0.33638  Biso   1.000  O 
  O3       1.0000 0.47276  0.85274  0.09105  Biso   1.000  O 
  O4       1.0000 0.45510  0.67627  0.33741  Biso   1.000  O 
  O5       1.0000 0.25940  0.24925  0.30174  Biso   1.000  O 
  O6       1.0000 0.27000  0.23454  0.05053  Biso   1.000  O 
  O7       1.0000 0.20842  0.75352  0.30391  Biso   1.000  O 
  O8       1.0000 0.22244  0.74975  0.05325  Biso   1.000  O 
  O9       1.0000 0.51437  0.31354  0.18529  Biso   1.000  O 
  O10      1.0000 0.51775  0.17847  0.42276  Biso   1.000  O 
  O11      1.0000 0.95710  0.83895  0.16642  Biso   1.000  O 
  O12      1.0000 0.95295  0.67099  0.41667  Biso   1.000  O 
  O13      1.0000 0.76215  0.25318  0.45348  Biso   1.000  O 
  O14      1.0000 0.76946  0.26260  0.20445  Biso   1.000  O 
  O15      1.0000 0.71128  0.75574  0.45553  Biso   1.000  O 
  O16      1.0000 0.71523  0.75614  0.20425  Biso   1.000  O 
  Hf9      1.0000 0.12381  0.04615  0.67390  Biso   1.000  Hf
  Hf10     1.0000 0.11604  0.46701  0.92564  Biso   1.000  Hf
  Hf11     1.0000 0.34630  0.54468  0.67544  Biso   1.000  Hf
  Hf12     1.0000 0.33609  0.96982  0.92364  Biso   1.000  Hf
  Hf13     1.0000 0.62373  0.04692  0.57886  Biso   1.000  Hf
  Hf14     1.0000 0.62787  0.46022  0.82136  Biso   1.000  Hf
  Hf15     1.0000 0.84790  0.54805  0.57821  Biso   1.000  Hf
  Hf16     1.0000 0.84929  0.96674  0.82568  Biso   1.000  Hf
  O17      1.0000 0.01817  0.33514  0.58617  Biso   1.000  O 
  O18      1.0000 0.01958  0.17232  0.83517  Biso   1.000  O 
  O19      1.0000 0.45393  0.83439  0.58761  Biso   1.000  O 
  O20      1.0000 0.44958  0.66907  0.83647  Biso   1.000  O 
  O21      1.0000 0.25929  0.25678  0.79824  Biso   1.000  O 
  O22      1.0000 0.26091  0.25359  0.54935  Biso   1.000  O 
  O23      1.0000 0.20759  0.75456  0.79976  Biso   1.000  O 
  O24      1.0000 0.21137  0.75323  0.55020  Biso   1.000  O 
  O25      1.0000 0.51847  0.33882  0.66502  Biso   1.000  O 
  O26      1.0000 0.51454  0.14044  0.89950  Biso   1.000  O 
  O27      1.0000 0.95522  0.83485  0.66450  Biso   1.000  O 
  O28      1.0000 0.94764  0.67462  0.91607  Biso   1.000  O 
  O29      1.0000 0.76717  0.25970  0.94489  Biso   1.000  O 
  O30      1.0000 0.76325  0.25261  0.69906  Biso   1.000  O 
  O31      1.0000 0.71395  0.78695  0.95005  Biso   1.000  O 
  O32      1.0000 0.71175  0.75288  0.70335  Biso   1.000  O 
  Ga1      1.0000 0.54282  0.53064  0.03236  Biso   1.000  Ga
