data_image0
_cell_length_a       9.95381
_cell_length_b       10.3543
_cell_length_c       9.99891
_cell_angle_alpha    90
_cell_angle_beta     90
_cell_angle_gamma    90

_symmetry_space_group_name_H-M    "P 1"
_symmetry_int_tables_number       1

loop_
  _symmetry_equiv_pos_as_xyz
  'x, y, z'

loop_
  _atom_site_label
  _atom_site_occupancy
  _atom_site_fract_x
  _atom_site_fract_y
  _atom_site_fract_z
  _atom_site_thermal_displace_type
  _atom_site_B_iso_or_equiv
  _atom_site_type_symbol
  Ga1      1.0000 0.12375  0.02451  0.11115  Biso   1.000  Ga
  Hf1      1.0000 0.13515  0.22718  0.37219  Biso   1.000  Hf
  Hf2      1.0000 0.36430  0.26186  0.12513  Biso   1.000  Hf
  Hf3      1.0000 0.36705  0.48040  0.37583  Biso   1.000  Hf
  O1       1.0000 0.03369  0.18095  0.19246  Biso   1.000  O 
  O2       1.0000 0.03770  0.06357  0.44849  Biso   1.000  O 
  O3       1.0000 0.46462  0.43134  0.19428  Biso   1.000  O 
  O4       1.0000 0.46617  0.31367  0.44493  Biso   1.000  O 
  O5       1.0000 0.26470  0.10801  0.24408  Biso   1.000  O 
  O6       1.0000 0.27306  0.12991  0.49756  Biso   1.000  O 
  O7       1.0000 0.23050  0.37924  0.49899  Biso   1.000  O 
  O8       1.0000 0.23051  0.36213  0.24876  Biso   1.000  O 
  Hf4      1.0000 0.13722  0.01448  0.62782  Biso   1.000  Hf
  Hf5      1.0000 0.13651  0.23117  0.87558  Biso   1.000  Hf
  Hf6      1.0000 0.36741  0.26353  0.62515  Biso   1.000  Hf
  Hf7      1.0000 0.36845  0.48068  0.87601  Biso   1.000  Hf
  O9       1.0000 0.03828  0.18260  0.69434  Biso   1.000  O 
  O10      1.0000 0.03804  0.06303  0.93993  Biso   1.000  O 
  O11      1.0000 0.46576  0.43130  0.69450  Biso   1.000  O 
  O12      1.0000 0.46647  0.31199  0.94353  Biso   1.000  O 
  O13      1.0000 0.27440  0.11550  0.74889  Biso   1.000  O 
  O14      1.0000 0.27199  0.13061  0.99675  Biso   1.000  O 
  O15      1.0000 0.23305  0.37879  0.99908  Biso   1.000  O 
  O16      1.0000 0.23153  0.36551  0.74927  Biso   1.000  O 
  Hf8      1.0000 0.13412  0.51414  0.12586  Biso   1.000  Hf
  Hf9      1.0000 0.13645  0.73088  0.37768  Biso   1.000  Hf
  Hf10     1.0000 0.36429  0.76502  0.12778  Biso   1.000  Hf
  Hf11     1.0000 0.36153  0.98055  0.37270  Biso   1.000  Hf
  O17      1.0000 0.03628  0.68199  0.19573  Biso   1.000  O 
  O18      1.0000 0.03676  0.56196  0.44628  Biso   1.000  O 
  O19      1.0000 0.46798  0.93108  0.19614  Biso   1.000  O 
  O20      1.0000 0.46807  0.81541  0.45033  Biso   1.000  O 
  O21      1.0000 0.26970  0.60925  0.24958  Biso   1.000  O 
  O22      1.0000 0.27336  0.62996  0.50079  Biso   1.000  O 
  O23      1.0000 0.22973  0.88003  0.50496  Biso   1.000  O 
  O24      1.0000 0.24286  0.85203  0.26112  Biso   1.000  O 
  Hf12     1.0000 0.13661  0.51400  0.62643  Biso   1.000  Hf
  Hf13     1.0000 0.13630  0.73208  0.87959  Biso   1.000  Hf
  Hf14     1.0000 0.36731  0.76552  0.62867  Biso   1.000  Hf
  Hf15     1.0000 0.36324  0.98133  0.88143  Biso   1.000  Hf
  O25      1.0000 0.03818  0.68197  0.69573  Biso   1.000  O 
  O26      1.0000 0.03780  0.56293  0.94582  Biso   1.000  O 
  O27      1.0000 0.46461  0.93200  0.69822  Biso   1.000  O 
  O28      1.0000 0.46297  0.81312  0.94443  Biso   1.000  O 
  O29      1.0000 0.27222  0.61574  0.75135  Biso   1.000  O 
  O30      1.0000 0.26842  0.63358  0.00051  Biso   1.000  O 
  O31      1.0000 0.22261  0.88817  0.01145  Biso   1.000  O 
  O32      1.0000 0.23016  0.86608  0.75528  Biso   1.000  O 
  Hf16     1.0000 0.63487  0.01581  0.12522  Biso   1.000  Hf
  Hf17     1.0000 0.63547  0.23050  0.37581  Biso   1.000  Hf
  Hf18     1.0000 0.86545  0.26530  0.12470  Biso   1.000  Hf
  Hf19     1.0000 0.86678  0.48162  0.37600  Biso   1.000  Hf
  O33      1.0000 0.53486  0.18235  0.19583  Biso   1.000  O 
  O34      1.0000 0.53699  0.06319  0.44352  Biso   1.000  O 
  O35      1.0000 0.96474  0.43198  0.19529  Biso   1.000  O 
  O36      1.0000 0.96495  0.31224  0.44212  Biso   1.000  O 
  O37      1.0000 0.77110  0.11541  0.24815  Biso   1.000  O 
  O38      1.0000 0.77279  0.13007  0.49773  Biso   1.000  O 
  O39      1.0000 0.73098  0.38026  0.49941  Biso   1.000  O 
  O40      1.0000 0.72962  0.36565  0.24928  Biso   1.000  O 
  Hf20     1.0000 0.63472  0.01237  0.62350  Biso   1.000  Hf
  Hf21     1.0000 0.63637  0.22999  0.87444  Biso   1.000  Hf
  Hf22     1.0000 0.86793  0.26317  0.62421  Biso   1.000  Hf
  Hf23     1.0000 0.86785  0.48103  0.87558  Biso   1.000  Hf
  O41      1.0000 0.53880  0.18182  0.69274  Biso   1.000  O 
  O42      1.0000 0.53810  0.06321  0.94595  Biso   1.000  O 
  O43      1.0000 0.96587  0.43145  0.69400  Biso   1.000  O 
  O44      1.0000 0.96676  0.31378  0.94456  Biso   1.000  O 
  O45      1.0000 0.77218  0.11380  0.74751  Biso   1.000  O 
  O46      1.0000 0.77354  0.12895  0.99773  Biso   1.000  O 
  O47      1.0000 0.73184  0.37879  0.99880  Biso   1.000  O 
  O48      1.0000 0.73178  0.36456  0.74891  Biso   1.000  O 
  Hf24     1.0000 0.63389  0.51607  0.12696  Biso   1.000  Hf
  Hf25     1.0000 0.63565  0.73321  0.37575  Biso   1.000  Hf
  Hf26     1.0000 0.86956  0.76734  0.12424  Biso   1.000  Hf
  Hf27     1.0000 0.87023  0.98234  0.37264  Biso   1.000  Hf
  O49      1.0000 0.53568  0.68276  0.19703  Biso   1.000  O 
  O50      1.0000 0.53753  0.56403  0.44429  Biso   1.000  O 
  O51      1.0000 0.97475  0.93354  0.19247  Biso   1.000  O 
  O52      1.0000 0.96544  0.81353  0.44410  Biso   1.000  O 
  O53      1.0000 0.77200  0.61571  0.24947  Biso   1.000  O 
  O54      1.0000 0.77115  0.63073  0.49969  Biso   1.000  O 
  O55      1.0000 0.73290  0.88139  0.49763  Biso   1.000  O 
  O56      1.0000 0.73460  0.86591  0.24778  Biso   1.000  O 
  Hf28     1.0000 0.63564  0.51403  0.62574  Biso   1.000  Hf
  Hf29     1.0000 0.63520  0.73097  0.87651  Biso   1.000  Hf
  Hf30     1.0000 0.86803  0.76386  0.62533  Biso   1.000  Hf
  Hf31     1.0000 0.86650  0.98069  0.87397  Biso   1.000  Hf
  O57      1.0000 0.53694  0.68048  0.69609  Biso   1.000  O 
  O58      1.0000 0.53795  0.56302  0.94617  Biso   1.000  O 
  O59      1.0000 0.96490  0.93145  0.69368  Biso   1.000  O 
  O60      1.0000 0.96354  0.81194  0.94150  Biso   1.000  O 
  O61      1.0000 0.77195  0.61477  0.74979  Biso   1.000  O 
  O62      1.0000 0.77279  0.62920  0.99988  Biso   1.000  O 
  O63      1.0000 0.73089  0.87867  0.99845  Biso   1.000  O 
  O64      1.0000 0.72982  0.86371  0.74791  Biso   1.000  O 
