data_image0
_cell_length_a       9.96039
_cell_length_b       10.339
_cell_length_c       5.00231
_cell_angle_alpha    90
_cell_angle_beta     90
_cell_angle_gamma    90

_symmetry_space_group_name_H-M    "P 1"
_symmetry_int_tables_number       1

loop_
  _symmetry_equiv_pos_as_xyz
  'x, y, z'

loop_
  _atom_site_label
  _atom_site_occupancy
  _atom_site_fract_x
  _atom_site_fract_y
  _atom_site_fract_z
  _atom_site_thermal_displace_type
  _atom_site_B_iso_or_equiv
  _atom_site_type_symbol
  Ga1      1.0000 0.12392  0.02124  0.23079  Biso   1.000  Ga
  Hf1      1.0000 0.13350  0.22683  0.74101  Biso   1.000  Hf
  Hf2      1.0000 0.36319  0.26069  0.24440  Biso   1.000  Hf
  Hf3      1.0000 0.36647  0.47948  0.75056  Biso   1.000  Hf
  O1       1.0000 0.02965  0.17969  0.39161  Biso   1.000  O 
  O2       1.0000 0.03674  0.06349  0.89739  Biso   1.000  O 
  O3       1.0000 0.46432  0.43025  0.38889  Biso   1.000  O 
  O4       1.0000 0.46770  0.31379  0.89043  Biso   1.000  O 
  O5       1.0000 0.26092  0.10360  0.47228  Biso   1.000  O 
  O6       1.0000 0.27652  0.13428  0.97129  Biso   1.000  O 
  O7       1.0000 0.23071  0.37864  0.99472  Biso   1.000  O 
  O8       1.0000 0.23082  0.36035  0.49444  Biso   1.000  O 
  Hf4      1.0000 0.13420  0.51342  0.25179  Biso   1.000  Hf
  Hf5      1.0000 0.13454  0.73111  0.76219  Biso   1.000  Hf
  Hf6      1.0000 0.36305  0.76641  0.25934  Biso   1.000  Hf
  Hf7      1.0000 0.35703  0.98069  0.75298  Biso   1.000  Hf
  O9       1.0000 0.03500  0.68127  0.39591  Biso   1.000  O 
  O10      1.0000 0.03423  0.56165  0.89719  Biso   1.000  O 
  O11      1.0000 0.46739  0.93044  0.40123  Biso   1.000  O 
  O12      1.0000 0.46527  0.81589  0.90189  Biso   1.000  O 
  O13      1.0000 0.26835  0.60872  0.50081  Biso   1.000  O 
  O14      1.0000 0.26879  0.63441  0.00190  Biso   1.000  O 
  O15      1.0000 0.22250  0.89027  0.03129  Biso   1.000  O 
  O16      1.0000 0.24142  0.85111  0.53213  Biso   1.000  O 
  Hf8      1.0000 0.63342  0.01397  0.24577  Biso   1.000  Hf
  Hf9      1.0000 0.63483  0.22902  0.74842  Biso   1.000  Hf
  Hf10     1.0000 0.86472  0.26460  0.24667  Biso   1.000  Hf
  Hf11     1.0000 0.86541  0.48108  0.75147  Biso   1.000  Hf
  O17      1.0000 0.53260  0.18104  0.39171  Biso   1.000  O 
  O18      1.0000 0.53615  0.06296  0.89137  Biso   1.000  O 
  O19      1.0000 0.96519  0.43099  0.39268  Biso   1.000  O 
  O20      1.0000 0.96548  0.31281  0.88826  Biso   1.000  O 
  O21      1.0000 0.76909  0.11348  0.49241  Biso   1.000  O 
  O22      1.0000 0.77222  0.12899  0.99200  Biso   1.000  O 
  O23      1.0000 0.73039  0.37916  0.99653  Biso   1.000  O 
  O24      1.0000 0.72919  0.36452  0.49630  Biso   1.000  O 
  Hf12     1.0000 0.63260  0.51597  0.25244  Biso   1.000  Hf
  Hf13     1.0000 0.63388  0.73287  0.75246  Biso   1.000  Hf
  Hf14     1.0000 0.86875  0.76674  0.24881  Biso   1.000  Hf
  Hf15     1.0000 0.86845  0.98201  0.74366  Biso   1.000  Hf
  O25      1.0000 0.53330  0.68129  0.39753  Biso   1.000  O 
  O26      1.0000 0.53523  0.56423  0.89244  Biso   1.000  O 
  O27      1.0000 0.97376  0.93171  0.38996  Biso   1.000  O 
  O28      1.0000 0.96283  0.81270  0.88695  Biso   1.000  O 
  O29      1.0000 0.77011  0.61467  0.49885  Biso   1.000  O 
  O30      1.0000 0.76963  0.62982  0.99950  Biso   1.000  O 
  O31      1.0000 0.73184  0.88009  0.99360  Biso   1.000  O 
  O32      1.0000 0.73268  0.86411  0.49333  Biso   1.000  O 
