data_image0
_cell_length_a       10.1187
_cell_length_b       10.2077
_cell_length_c       5.22645
_cell_angle_alpha    90
_cell_angle_beta     80
_cell_angle_gamma    90

_symmetry_space_group_name_H-M    "P 1"
_symmetry_int_tables_number       1

loop_
  _symmetry_equiv_pos_as_xyz
  'x, y, z'

loop_
  _atom_site_label
  _atom_site_occupancy
  _atom_site_fract_x
  _atom_site_fract_y
  _atom_site_fract_z
  _atom_site_thermal_displace_type
  _atom_site_B_iso_or_equiv
  _atom_site_type_symbol
  Ga1      1.0000 0.12338  0.01021  0.31264  Biso   1.000  Ga
  Hf1      1.0000 0.13766  0.22199  0.78140  Biso   1.000  Hf
  Hf2      1.0000 0.35730  0.26703  0.20275  Biso   1.000  Hf
  Hf3      1.0000 0.35921  0.47791  0.70925  Biso   1.000  Hf
  O1       1.0000 0.04431  0.15670  0.15094  Biso   1.000  O 
  O2       1.0000 0.02802  0.07952  0.65747  Biso   1.000  O 
  O3       1.0000 0.46649  0.41373  0.34483  Biso   1.000  O 
  O4       1.0000 0.46834  0.33797  0.84801  Biso   1.000  O 
  O5       1.0000 0.26596  0.11847  0.44925  Biso   1.000  O 
  O6       1.0000 0.29040  0.13766  0.93253  Biso   1.000  O 
  O7       1.0000 0.22611  0.38319  0.01608  Biso   1.000  O 
  O8       1.0000 0.22531  0.36768  0.51805  Biso   1.000  O 
  Hf4      1.0000 0.14286  0.52161  0.29299  Biso   1.000  Hf
  Hf5      1.0000 0.13977  0.73052  0.79609  Biso   1.000  Hf
  Hf6      1.0000 0.36111  0.77614  0.21075  Biso   1.000  Hf
  Hf7      1.0000 0.36094  0.98119  0.70451  Biso   1.000  Hf
  O9       1.0000 0.03765  0.66649  0.16146  Biso   1.000  O 
  O10      1.0000 0.03597  0.58257  0.66264  Biso   1.000  O 
  O11      1.0000 0.47138  0.91604  0.34389  Biso   1.000  O 
  O12      1.0000 0.46283  0.83265  0.84478  Biso   1.000  O 
  O13      1.0000 0.27813  0.62799  0.48159  Biso   1.000  O 
  O14      1.0000 0.27513  0.62402  0.98308  Biso   1.000  O 
  O15      1.0000 0.22709  0.89379  0.02946  Biso   1.000  O 
  O16      1.0000 0.22450  0.86836  0.52423  Biso   1.000  O 
  Hf8      1.0000 0.63764  0.02158  0.29337  Biso   1.000  Hf
  Hf9      1.0000 0.63782  0.22833  0.79492  Biso   1.000  Hf
  Hf10     1.0000 0.86916  0.26638  0.21119  Biso   1.000  Hf
  Hf11     1.0000 0.86169  0.47669  0.71394  Biso   1.000  Hf
  O17      1.0000 0.53497  0.16679  0.15583  Biso   1.000  O 
  O18      1.0000 0.53341  0.08323  0.65568  Biso   1.000  O 
  O19      1.0000 0.97037  0.41317  0.34979  Biso   1.000  O 
  O20      1.0000 0.96551  0.33081  0.85145  Biso   1.000  O 
  O21      1.0000 0.77600  0.12716  0.48304  Biso   1.000  O 
  O22      1.0000 0.77288  0.11883  0.98574  Biso   1.000  O 
  O23      1.0000 0.73007  0.37694  0.02410  Biso   1.000  O 
  O24      1.0000 0.72674  0.36960  0.52241  Biso   1.000  O 
  Hf12     1.0000 0.63989  0.51889  0.29313  Biso   1.000  Hf
  Hf13     1.0000 0.63691  0.72740  0.79598  Biso   1.000  Hf
  Hf14     1.0000 0.86323  0.76980  0.21298  Biso   1.000  Hf
  Hf15     1.0000 0.86165  0.97612  0.71301  Biso   1.000  Hf
  O25      1.0000 0.53600  0.66657  0.15855  Biso   1.000  O 
  O26      1.0000 0.53380  0.58242  0.65752  Biso   1.000  O 
  O27      1.0000 0.96717  0.91371  0.34812  Biso   1.000  O 
  O28      1.0000 0.96393  0.82987  0.84900  Biso   1.000  O 
  O29      1.0000 0.77729  0.62643  0.48445  Biso   1.000  O 
  O30      1.0000 0.77346  0.61820  0.98472  Biso   1.000  O 
  O31      1.0000 0.72732  0.87808  0.02177  Biso   1.000  O 
  O32      1.0000 0.72513  0.86932  0.52308  Biso   1.000  O 
