data_image0
_cell_length_a       10.0606
_cell_length_b       5.00138
_cell_length_c       10.0607
_cell_angle_alpha    90
_cell_angle_beta     90
_cell_angle_gamma    90

_symmetry_space_group_name_H-M    "P 1"
_symmetry_int_tables_number       1

loop_
  _symmetry_equiv_pos_as_xyz
  'x, y, z'

loop_
  _atom_site_label
  _atom_site_occupancy
  _atom_site_fract_x
  _atom_site_fract_y
  _atom_site_fract_z
  _atom_site_thermal_displace_type
  _atom_site_B_iso_or_equiv
  _atom_site_type_symbol
  Ga1      1.0000 0.12491  0.00011  0.12491  Biso   1.000  Ga
  Hf1      1.0000 0.12491  0.50011  0.37395  Biso   1.000  Hf
  Hf2      1.0000 0.37394  0.50011  0.12491  Biso   1.000  Hf
  Hf3      1.0000 0.37381  0.00314  0.37381  Biso   1.000  Hf
  O1       1.0000 0.97681  0.29890  0.97681  Biso   1.000  O 
  O2       1.0000 0.01822  0.21355  0.23159  Biso   1.000  O 
  O3       1.0000 0.97681  0.70131  0.27301  Biso   1.000  O 
  O4       1.0000 0.01822  0.78667  0.01823  Biso   1.000  O 
  O5       1.0000 0.27301  0.29891  0.27301  Biso   1.000  O 
  O6       1.0000 0.23160  0.21355  0.01823  Biso   1.000  O 
  O7       1.0000 0.27300  0.70129  0.97681  Biso   1.000  O 
  O8       1.0000 0.23159  0.78667  0.23159  Biso   1.000  O 
  Hf4      1.0000 0.12491  0.00011  0.62491  Biso   1.000  Hf
  Hf5      1.0000 0.12491  0.50010  0.87587  Biso   1.000  Hf
  Hf6      1.0000 0.37534  0.50011  0.62491  Biso   1.000  Hf
  Hf7      1.0000 0.37381  0.99706  0.87601  Biso   1.000  Hf
  O9       1.0000 0.98635  0.26818  0.48217  Biso   1.000  O 
  O10      1.0000 0.01079  0.24093  0.73446  Biso   1.000  O 
  O11      1.0000 0.98635  0.73202  0.76765  Biso   1.000  O 
  O12      1.0000 0.01079  0.75927  0.51536  Biso   1.000  O 
  O13      1.0000 0.26347  0.26817  0.76765  Biso   1.000  O 
  O14      1.0000 0.23903  0.24094  0.51536  Biso   1.000  O 
  O15      1.0000 0.26347  0.73204  0.48217  Biso   1.000  O 
  O16      1.0000 0.23902  0.75926  0.73445  Biso   1.000  O 
  Hf8      1.0000 0.62491  0.00011  0.12491  Biso   1.000  Hf
  Hf9      1.0000 0.62491  0.50011  0.37534  Biso   1.000  Hf
  Hf10     1.0000 0.87587  0.50011  0.12491  Biso   1.000  Hf
  Hf11     1.0000 0.87601  0.99708  0.37381  Biso   1.000  Hf
  O17      1.0000 0.48217  0.26818  0.98634  Biso   1.000  O 
  O18      1.0000 0.51535  0.24094  0.23901  Biso   1.000  O 
  O19      1.0000 0.48217  0.73203  0.26348  Biso   1.000  O 
  O20      1.0000 0.51535  0.75927  0.01081  Biso   1.000  O 
  O21      1.0000 0.76764  0.26820  0.26348  Biso   1.000  O 
  O22      1.0000 0.73447  0.24094  0.01081  Biso   1.000  O 
  O23      1.0000 0.76764  0.73201  0.98634  Biso   1.000  O 
  O24      1.0000 0.73447  0.75927  0.23901  Biso   1.000  O 
  Hf12     1.0000 0.62491  0.00011  0.62491  Biso   1.000  Hf
  Hf13     1.0000 0.62491  0.50010  0.87448  Biso   1.000  Hf
  Hf14     1.0000 0.87447  0.50011  0.62491  Biso   1.000  Hf
  Hf15     1.0000 0.87601  0.00312  0.87601  Biso   1.000  Hf
  O25      1.0000 0.48692  0.26517  0.48691  Biso   1.000  O 
  O26      1.0000 0.51133  0.24239  0.73847  Biso   1.000  O 
  O27      1.0000 0.48693  0.73503  0.76290  Biso   1.000  O 
  O28      1.0000 0.51133  0.75781  0.51134  Biso   1.000  O 
  O29      1.0000 0.76289  0.26516  0.76290  Biso   1.000  O 
  O30      1.0000 0.73849  0.24240  0.51134  Biso   1.000  O 
  O31      1.0000 0.76289  0.73505  0.48691  Biso   1.000  O 
  O32      1.0000 0.73848  0.75780  0.73847  Biso   1.000  O 
