data_image0
_cell_length_a       10.0438
_cell_length_b       5.20404
_cell_length_c       10.0991
_cell_angle_alpha    90
_cell_angle_beta     90
_cell_angle_gamma    90

_symmetry_space_group_name_H-M    "P 1"
_symmetry_int_tables_number       1

loop_
  _symmetry_equiv_pos_as_xyz
  'x, y, z'

loop_
  _atom_site_label
  _atom_site_occupancy
  _atom_site_fract_x
  _atom_site_fract_y
  _atom_site_fract_z
  _atom_site_thermal_displace_type
  _atom_site_B_iso_or_equiv
  _atom_site_type_symbol
  Hf1      1.0000 0.13851  0.08710  0.11601  Biso   1.000  Hf
  Hf2      1.0000 0.13917  0.45317  0.39736  Biso   1.000  Hf
  Hf3      1.0000 0.37182  0.52927  0.12056  Biso   1.000  Hf
  Hf4      1.0000 0.36831  0.96355  0.37719  Biso   1.000  Hf
  O1       1.0000 0.00703  0.33419  0.23935  Biso   1.000  O 
  O2       1.0000 0.04324  0.12442  0.46042  Biso   1.000  O 
  O3       1.0000 0.45902  0.86558  0.19689  Biso   1.000  O 
  O4       1.0000 0.46872  0.63021  0.44556  Biso   1.000  O 
  O5       1.0000 0.27310  0.23955  0.25605  Biso   1.000  O 
  O6       1.0000 0.28080  0.25380  0.50585  Biso   1.000  O 
  O7       1.0000 0.23664  0.75844  0.50412  Biso   1.000  O 
  O8       1.0000 0.22019  0.72634  0.25281  Biso   1.000  O 
  Hf5      1.0000 0.14424  0.02472  0.63271  Biso   1.000  Hf
  Hf6      1.0000 0.14226  0.46517  0.87215  Biso   1.000  Hf
  Hf7      1.0000 0.37624  0.52992  0.62781  Biso   1.000  Hf
  Hf8      1.0000 0.38112  0.96871  0.87104  Biso   1.000  Hf
  O9       1.0000 0.04625  0.36891  0.69137  Biso   1.000  O 
  O10      1.0000 0.04791  0.12517  0.93884  Biso   1.000  O 
  O11      1.0000 0.47342  0.86478  0.69002  Biso   1.000  O 
  O12      1.0000 0.47957  0.63200  0.94210  Biso   1.000  O 
  O13      1.0000 0.27837  0.23364  0.75045  Biso   1.000  O 
  O14      1.0000 0.29805  0.26092  0.98991  Biso   1.000  O 
  O15      1.0000 0.24088  0.78687  0.00054  Biso   1.000  O 
  O16      1.0000 0.24091  0.73181  0.75202  Biso   1.000  O 
  Hf9      1.0000 0.63055  0.02744  0.12529  Biso   1.000  Hf
  Hf10     1.0000 0.63700  0.46621  0.37619  Biso   1.000  Hf
  Hf11     1.0000 0.84458  0.52382  0.12144  Biso   1.000  Hf
  Hf12     1.0000 0.87648  0.97726  0.37019  Biso   1.000  Hf
  O17      1.0000 0.53625  0.36559  0.19361  Biso   1.000  O 
  O18      1.0000 0.53965  0.13054  0.44371  Biso   1.000  O 
  O19      1.0000 0.96059  0.86257  0.18808  Biso   1.000  O 
  O20      1.0000 0.97267  0.64324  0.45044  Biso   1.000  O 
  O21      1.0000 0.76168  0.22688  0.24833  Biso   1.000  O 
  O22      1.0000 0.77673  0.27230  0.49577  Biso   1.000  O 
  O23      1.0000 0.73814  0.77106  0.49479  Biso   1.000  O 
  O24      1.0000 0.72659  0.73420  0.24832  Biso   1.000  O 
  Hf13     1.0000 0.64550  0.03054  0.62053  Biso   1.000  Hf
  Hf14     1.0000 0.64501  0.46083  0.87118  Biso   1.000  Hf
  Hf15     1.0000 0.87461  0.53590  0.62480  Biso   1.000  Hf
  Hf16     1.0000 0.87150  0.95997  0.87192  Biso   1.000  Hf
  O25      1.0000 0.54404  0.36148  0.69464  Biso   1.000  O 
  O26      1.0000 0.55130  0.12910  0.94368  Biso   1.000  O 
  O27      1.0000 0.97073  0.86693  0.69635  Biso   1.000  O 
  O28      1.0000 0.95658  0.61875  0.92399  Biso   1.000  O 
  O29      1.0000 0.77974  0.23231  0.74535  Biso   1.000  O 
  O30      1.0000 0.77955  0.25199  0.99724  Biso   1.000  O 
  O31      1.0000 0.73378  0.75624  0.99909  Biso   1.000  O 
  O32      1.0000 0.73435  0.73601  0.74526  Biso   1.000  O 
  Ga1      1.0000 0.09912  0.58714  0.12390  Biso   1.000  Ga
