data_image0
_cell_length_a       10.1088
_cell_length_b       10.334
_cell_length_c       10.0904
_cell_angle_alpha    90
_cell_angle_beta     90
_cell_angle_gamma    90

_symmetry_space_group_name_H-M    "P 1"
_symmetry_int_tables_number       1

loop_
  _symmetry_equiv_pos_as_xyz
  'x, y, z'

loop_
  _atom_site_label
  _atom_site_occupancy
  _atom_site_fract_x
  _atom_site_fract_y
  _atom_site_fract_z
  _atom_site_thermal_displace_type
  _atom_site_B_iso_or_equiv
  _atom_site_type_symbol
  Hf1      1.0000 0.14795  0.90060  0.12871  Biso   1.000  Hf
  Hf2      1.0000 0.15126  0.25216  0.36006  Biso   1.000  Hf
  Hf3      1.0000 0.37119  0.25481  0.12316  Biso   1.000  Hf
  Hf4      1.0000 0.41048  0.00713  0.38100  Biso   1.000  Hf
  O1       1.0000 0.95843  0.21053  0.89953  Biso   1.000  O 
  O2       1.0000 0.07653  0.06781  0.25707  Biso   1.000  O 
  O3       1.0000 0.00879  0.34071  0.23438  Biso   1.000  O 
  O4       1.0000 0.05129  0.42369  0.98378  Biso   1.000  O 
  O5       1.0000 0.32260  0.16462  0.29570  Biso   1.000  O 
  O6       1.0000 0.26266  0.06131  0.05687  Biso   1.000  O 
  O7       1.0000 0.29962  0.33468  0.98626  Biso   1.000  O 
  O8       1.0000 0.26579  0.40660  0.24308  Biso   1.000  O 
  Hf5      1.0000 0.18469  0.97546  0.64782  Biso   1.000  Hf
  Hf6      1.0000 0.14776  0.27250  0.85997  Biso   1.000  Hf
  Hf7      1.0000 0.39225  0.21603  0.63980  Biso   1.000  Hf
  Hf8      1.0000 0.44141  0.97892  0.90017  Biso   1.000  Hf
  O9       1.0000 0.01050  0.16303  0.47244  Biso   1.000  O 
  O10      1.0000 0.01198  0.08150  0.70843  Biso   1.000  O 
  O11      1.0000 0.03130  0.36067  0.71153  Biso   1.000  O 
  O12      1.0000 0.05682  0.41059  0.46107  Biso   1.000  O 
  O13      1.0000 0.26080  0.12764  0.77782  Biso   1.000  O 
  O14      1.0000 0.28232  0.08160  0.52470  Biso   1.000  O 
  O15      1.0000 0.29243  0.33878  0.49942  Biso   1.000  O 
  O16      1.0000 0.27959  0.37938  0.73944  Biso   1.000  O 
  Hf9      1.0000 0.13982  0.50601  0.12274  Biso   1.000  Hf
  Hf10     1.0000 0.17018  0.74797  0.39649  Biso   1.000  Hf
  Hf11     1.0000 0.41309  0.75093  0.14458  Biso   1.000  Hf
  Hf12     1.0000 0.40965  0.46732  0.38021  Biso   1.000  Hf
  O17      1.0000 0.04015  0.74834  0.02825  Biso   1.000  O 
  O18      1.0000 0.98591  0.58655  0.22724  Biso   1.000  O 
  O19      1.0000 0.02056  0.83344  0.27235  Biso   1.000  O 
  O20      1.0000 0.00616  0.00199  0.01192  Biso   1.000  O 
  O21      1.0000 0.22772  0.67643  0.20798  Biso   1.000  O 
  O22      1.0000 0.28943  0.57321  0.96500  Biso   1.000  O 
  O23      1.0000 0.33995  0.81388  0.99630  Biso   1.000  O 
  O24      1.0000 0.29355  0.89015  0.27470  Biso   1.000  O 
  Hf13     1.0000 0.16316  0.49481  0.60649  Biso   1.000  Hf
  Hf14     1.0000 0.20005  0.72427  0.85834  Biso   1.000  Hf
  Hf15     1.0000 0.44161  0.74402  0.63830  Biso   1.000  Hf
  Hf16     1.0000 0.41862  0.47084  0.85424  Biso   1.000  Hf
  O25      1.0000 0.04173  0.64892  0.51776  Biso   1.000  O 
  O26      1.0000 0.05679  0.59959  0.76687  Biso   1.000  O 
  O27      1.0000 0.05882  0.84738  0.77075  Biso   1.000  O 
  O28      1.0000 0.04742  0.89839  0.51258  Biso   1.000  O 
  O29      1.0000 0.30251  0.62223  0.71517  Biso   1.000  O 
  O30      1.0000 0.27230  0.58637  0.45656  Biso   1.000  O 
  O31      1.0000 0.29110  0.83083  0.52775  Biso   1.000  O 
  O32      1.0000 0.31293  0.87346  0.76721  Biso   1.000  O 
  Hf17     1.0000 0.67218  0.98780  0.14437  Biso   1.000  Hf
  Hf18     1.0000 0.65526  0.23762  0.37263  Biso   1.000  Hf
  Hf19     1.0000 0.86535  0.26837  0.10063  Biso   1.000  Hf
  Hf20     1.0000 0.92330  0.00571  0.37495  Biso   1.000  Hf
  O33      1.0000 0.52558  0.14473  0.97693  Biso   1.000  O 
  O34      1.0000 0.55177  0.09523  0.26314  Biso   1.000  O 
  O35      1.0000 0.52162  0.34362  0.24115  Biso   1.000  O 
  O36      1.0000 0.54254  0.39439  0.99554  Biso   1.000  O 
  O37      1.0000 0.80440  0.13727  0.24501  Biso   1.000  O 
  O38      1.0000 0.72416  0.11916  0.00641  Biso   1.000  O 
  O39      1.0000 0.78562  0.36593  0.99101  Biso   1.000  O 
  O40      1.0000 0.76153  0.39065  0.23908  Biso   1.000  O 
  Hf21     1.0000 0.67280  0.98818  0.63299  Biso   1.000  Hf
  Hf22     1.0000 0.66275  0.24935  0.88093  Biso   1.000  Hf
  Hf23     1.0000 0.89592  0.22798  0.62776  Biso   1.000  Hf
  Hf24     1.0000 0.91633  0.01360  0.87544  Biso   1.000  Hf
  O41      1.0000 0.52900  0.14322  0.50355  Biso   1.000  O 
  O42      1.0000 0.50267  0.06623  0.73479  Biso   1.000  O 
  O43      1.0000 0.52672  0.32345  0.74849  Biso   1.000  O 
  O44      1.0000 0.55637  0.38576  0.48681  Biso   1.000  O 
  O45      1.0000 0.75643  0.13537  0.74343  Biso   1.000  O 
  O46      1.0000 0.77444  0.08794  0.49606  Biso   1.000  O 
  O47      1.0000 0.79750  0.33883  0.48900  Biso   1.000  O 
  O48      1.0000 0.77928  0.38311  0.74008  Biso   1.000  O 
  Hf25     1.0000 0.62421  0.50378  0.12366  Biso   1.000  Hf
  Hf26     1.0000 0.66583  0.75140  0.39890  Biso   1.000  Hf
  Hf27     1.0000 0.87776  0.73893  0.14738  Biso   1.000  Hf
  Hf28     1.0000 0.89823  0.47403  0.36487  Biso   1.000  Hf
  O49      1.0000 0.53033  0.65701  0.00876  Biso   1.000  O 
  O50      1.0000 0.47507  0.58879  0.23807  Biso   1.000  O 
  O51      1.0000 0.54063  0.84804  0.26346  Biso   1.000  O 
  O52      1.0000 0.53265  0.90631  0.01663  Biso   1.000  O 
  O53      1.0000 0.72797  0.64212  0.24244  Biso   1.000  O 
  O54      1.0000 0.83391  0.60490  0.99831  Biso   1.000  O 
  O55      1.0000 0.78525  0.86554  0.01218  Biso   1.000  O 
  O56      1.0000 0.78849  0.88510  0.27165  Biso   1.000  O 
  Hf29     1.0000 0.66704  0.49142  0.61001  Biso   1.000  Hf
  Hf30     1.0000 0.70661  0.75056  0.89201  Biso   1.000  Hf
  Hf31     1.0000 0.93200  0.75693  0.64268  Biso   1.000  Hf
  Hf32     1.0000 0.91013  0.48788  0.85228  Biso   1.000  Hf
  O57      1.0000 0.53328  0.63283  0.49601  Biso   1.000  O 
  O58      1.0000 0.54642  0.57973  0.74286  Biso   1.000  O 
  O59      1.0000 0.56550  0.83028  0.76748  Biso   1.000  O 
  O60      1.0000 0.54137  0.88654  0.51184  Biso   1.000  O 
  O61      1.0000 0.80268  0.63791  0.74709  Biso   1.000  O 
  O62      1.0000 0.78426  0.59218  0.48610  Biso   1.000  O 
  O63      1.0000 0.78968  0.83882  0.52577  Biso   1.000  O 
  O64      1.0000 0.80598  0.89378  0.76413  Biso   1.000  O 
  Ga1      1.0000 0.10911  0.16389  0.09563  Biso   1.000  Ga
