data_image0
_cell_length_a       10.2212
_cell_length_b       10.3348
_cell_length_c       5.26846
_cell_angle_alpha    90
_cell_angle_beta     80
_cell_angle_gamma    90

_symmetry_space_group_name_H-M    "P 1"
_symmetry_int_tables_number       1

loop_
  _symmetry_equiv_pos_as_xyz
  'x, y, z'

loop_
  _atom_site_label
  _atom_site_occupancy
  _atom_site_fract_x
  _atom_site_fract_y
  _atom_site_fract_z
  _atom_site_thermal_displace_type
  _atom_site_B_iso_or_equiv
  _atom_site_type_symbol
  Hf1      1.0000 0.13415  0.02009  0.28407  Biso   1.000  Hf
  Hf2      1.0000 0.14672  0.22815  0.77678  Biso   1.000  Hf
  Hf3      1.0000 0.35661  0.27395  0.20992  Biso   1.000  Hf
  Hf4      1.0000 0.36301  0.48090  0.69662  Biso   1.000  Hf
  O1       1.0000 0.03973  0.16979  0.15224  Biso   1.000  O 
  O2       1.0000 0.03596  0.08189  0.65431  Biso   1.000  O 
  O3       1.0000 0.46440  0.43267  0.32963  Biso   1.000  O 
  O4       1.0000 0.48904  0.34444  0.87220  Biso   1.000  O 
  O5       1.0000 0.26886  0.11573  0.46151  Biso   1.000  O 
  O6       1.0000 0.28947  0.12137  0.96161  Biso   1.000  O 
  O7       1.0000 0.22325  0.38100  0.00486  Biso   1.000  O 
  O8       1.0000 0.21384  0.37449  0.50077  Biso   1.000  O 
  Hf5      1.0000 0.14115  0.52250  0.28436  Biso   1.000  Hf
  Hf6      1.0000 0.14279  0.72569  0.79102  Biso   1.000  Hf
  Hf7      1.0000 0.36324  0.77023  0.20872  Biso   1.000  Hf
  Hf8      1.0000 0.36166  0.96594  0.70628  Biso   1.000  Hf
  O9       1.0000 0.03239  0.66720  0.15608  Biso   1.000  O 
  O10      1.0000 0.03956  0.58415  0.65189  Biso   1.000  O 
  O11      1.0000 0.46904  0.91492  0.34597  Biso   1.000  O 
  O12      1.0000 0.47105  0.82801  0.84246  Biso   1.000  O 
  O13      1.0000 0.27934  0.62675  0.47900  Biso   1.000  O 
  O14      1.0000 0.28297  0.62170  0.97609  Biso   1.000  O 
  O15      1.0000 0.22240  0.87751  0.01975  Biso   1.000  O 
  O16      1.0000 0.22607  0.86545  0.51627  Biso   1.000  O 
  Hf9      1.0000 0.64209  0.01756  0.29848  Biso   1.000  Hf
  Hf10     1.0000 0.66642  0.23036  0.81841  Biso   1.000  Hf
  Hf11     1.0000 0.86677  0.27223  0.22061  Biso   1.000  Hf
  Hf12     1.0000 0.87029  0.47900  0.71086  Biso   1.000  Hf
  O17      1.0000 0.53662  0.16377  0.16287  Biso   1.000  O 
  O18      1.0000 0.53669  0.07404  0.67397  Biso   1.000  O 
  O19      1.0000 0.96828  0.42041  0.34042  Biso   1.000  O 
  O20      1.0000 0.97110  0.33047  0.84100  Biso   1.000  O 
  O21      1.0000 0.77988  0.12814  0.49441  Biso   1.000  O 
  O22      1.0000 0.78399  0.11754  0.00159  Biso   1.000  O 
  O23      1.0000 0.72887  0.37927  0.03859  Biso   1.000  O 
  O24      1.0000 0.73285  0.37234  0.53290  Biso   1.000  O 
  Hf13     1.0000 0.64030  0.52422  0.29915  Biso   1.000  Hf
  Hf14     1.0000 0.64525  0.72623  0.79460  Biso   1.000  Hf
  Hf15     1.0000 0.86099  0.77091  0.21130  Biso   1.000  Hf
  Hf16     1.0000 0.86845  0.97557  0.71101  Biso   1.000  Hf
  O25      1.0000 0.53779  0.67149  0.16365  Biso   1.000  O 
  O26      1.0000 0.53833  0.58264  0.66174  Biso   1.000  O 
  O27      1.0000 0.96571  0.91482  0.34662  Biso   1.000  O 
  O28      1.0000 0.97242  0.83162  0.84471  Biso   1.000  O 
  O29      1.0000 0.77949  0.62970  0.48500  Biso   1.000  O 
  O30      1.0000 0.78365  0.61945  0.98163  Biso   1.000  O 
  O31      1.0000 0.72298  0.87785  0.02449  Biso   1.000  O 
  O32      1.0000 0.72638  0.87139  0.52498  Biso   1.000  O 
  Ga1      1.0000 0.44966  0.23106  0.60926  Biso   1.000  Ga
