data_image0
_cell_length_a       10.0038
_cell_length_b       10.4328
_cell_length_c       5.08192
_cell_angle_alpha    90
_cell_angle_beta     90
_cell_angle_gamma    90

_symmetry_space_group_name_H-M    "P 1"
_symmetry_int_tables_number       1

loop_
  _symmetry_equiv_pos_as_xyz
  'x, y, z'

loop_
  _atom_site_label
  _atom_site_occupancy
  _atom_site_fract_x
  _atom_site_fract_y
  _atom_site_fract_z
  _atom_site_thermal_displace_type
  _atom_site_B_iso_or_equiv
  _atom_site_type_symbol
  Hf1      1.0000 0.15225  0.01164  0.27538  Biso   1.000  Hf
  Hf2      1.0000 0.14733  0.22067  0.82736  Biso   1.000  Hf
  Hf3      1.0000 0.36547  0.26489  0.25312  Biso   1.000  Hf
  Hf4      1.0000 0.37455  0.48609  0.74736  Biso   1.000  Hf
  O1       1.0000 0.02810  0.13645  0.53415  Biso   1.000  O 
  O2       1.0000 0.04460  0.06181  0.97306  Biso   1.000  O 
  O3       1.0000 0.45902  0.43316  0.38736  Biso   1.000  O 
  O4       1.0000 0.47057  0.31505  0.87654  Biso   1.000  O 
  O5       1.0000 0.28313  0.12029  0.52744  Biso   1.000  O 
  O6       1.0000 0.29072  0.11569  0.01412  Biso   1.000  O 
  O7       1.0000 0.23262  0.38998  0.00690  Biso   1.000  O 
  O8       1.0000 0.21507  0.36378  0.51272  Biso   1.000  O 
  Hf5      1.0000 0.13190  0.53160  0.24397  Biso   1.000  Hf
  Hf6      1.0000 0.13461  0.73543  0.75118  Biso   1.000  Hf
  Hf7      1.0000 0.36461  0.76542  0.24520  Biso   1.000  Hf
  Hf8      1.0000 0.36817  0.97843  0.75135  Biso   1.000  Hf
  O9       1.0000 0.02957  0.68190  0.39407  Biso   1.000  O 
  O10      1.0000 0.03909  0.57086  0.89307  Biso   1.000  O 
  O11      1.0000 0.45963  0.93258  0.37993  Biso   1.000  O 
  O12      1.0000 0.47382  0.81670  0.89102  Biso   1.000  O 
  O13      1.0000 0.27029  0.61669  0.49478  Biso   1.000  O 
  O14      1.0000 0.27615  0.63631  0.99192  Biso   1.000  O 
  O15      1.0000 0.21908  0.87741  0.00394  Biso   1.000  O 
  O16      1.0000 0.23317  0.86342  0.50338  Biso   1.000  O 
  Hf9      1.0000 0.63950  0.01436  0.22704  Biso   1.000  Hf
  Hf10     1.0000 0.63434  0.23155  0.72235  Biso   1.000  Hf
  Hf11     1.0000 0.83494  0.27161  0.20551  Biso   1.000  Hf
  Hf12     1.0000 0.87255  0.48591  0.73497  Biso   1.000  Hf
  O17      1.0000 0.53959  0.18400  0.36684  Biso   1.000  O 
  O18      1.0000 0.55341  0.06331  0.86863  Biso   1.000  O 
  O19      1.0000 0.96172  0.43289  0.37260  Biso   1.000  O 
  O20      1.0000 0.96658  0.32377  0.86025  Biso   1.000  O 
  O21      1.0000 0.77297  0.11768  0.46053  Biso   1.000  O 
  O22      1.0000 0.77912  0.13706  0.95553  Biso   1.000  O 
  O23      1.0000 0.73000  0.38750  0.97486  Biso   1.000  O 
  O24      1.0000 0.72376  0.37470  0.48021  Biso   1.000  O 
  Hf13     1.0000 0.62757  0.52189  0.24510  Biso   1.000  Hf
  Hf14     1.0000 0.64253  0.73735  0.74376  Biso   1.000  Hf
  Hf15     1.0000 0.85949  0.76945  0.23798  Biso   1.000  Hf
  Hf16     1.0000 0.87937  0.99364  0.72241  Biso   1.000  Hf
  O25      1.0000 0.53195  0.68359  0.39451  Biso   1.000  O 
  O26      1.0000 0.53742  0.57000  0.89353  Biso   1.000  O 
  O27      1.0000 0.96807  0.91742  0.39428  Biso   1.000  O 
  O28      1.0000 0.96883  0.82082  0.88119  Biso   1.000  O 
  O29      1.0000 0.76866  0.61976  0.48668  Biso   1.000  O 
  O30      1.0000 0.77462  0.63432  0.98794  Biso   1.000  O 
  O31      1.0000 0.73965  0.88562  0.98563  Biso   1.000  O 
  O32      1.0000 0.72755  0.87022  0.48624  Biso   1.000  O 
  Ga1      1.0000 0.08345  0.26942  0.31306  Biso   1.000  Ga
