data_image0
_cell_length_a       10.2089
_cell_length_b       5.16467
_cell_length_c       10.535
_cell_angle_alpha    90
_cell_angle_beta     80
_cell_angle_gamma    90

_symmetry_space_group_name_H-M    "P 1"
_symmetry_int_tables_number       1

loop_
  _symmetry_equiv_pos_as_xyz
  'x, y, z'

loop_
  _atom_site_label
  _atom_site_occupancy
  _atom_site_fract_x
  _atom_site_fract_y
  _atom_site_fract_z
  _atom_site_thermal_displace_type
  _atom_site_B_iso_or_equiv
  _atom_site_type_symbol
  Hf1      1.0000 0.13297  0.04297  0.14060  Biso   1.000  Hf
  Hf2      1.0000 0.14636  0.45184  0.39161  Biso   1.000  Hf
  Hf3      1.0000 0.35389  0.54776  0.09925  Biso   1.000  Hf
  Hf4      1.0000 0.35509  0.93221  0.34651  Biso   1.000  Hf
  O1       1.0000 0.03061  0.34046  0.07687  Biso   1.000  O 
  O2       1.0000 0.03517  0.16805  0.32686  Biso   1.000  O 
  O3       1.0000 0.46028  0.86743  0.15719  Biso   1.000  O 
  O4       1.0000 0.48650  0.68413  0.43874  Biso   1.000  O 
  O5       1.0000 0.26849  0.23187  0.23366  Biso   1.000  O 
  O6       1.0000 0.28810  0.23442  0.48518  Biso   1.000  O 
  O7       1.0000 0.21904  0.76457  0.00409  Biso   1.000  O 
  O8       1.0000 0.20822  0.74068  0.25062  Biso   1.000  O 
  Hf5      1.0000 0.15067  0.03952  0.64293  Biso   1.000  Hf
  Hf6      1.0000 0.14921  0.45390  0.89226  Biso   1.000  Hf
  Hf7      1.0000 0.37299  0.54068  0.60894  Biso   1.000  Hf
  Hf8      1.0000 0.37465  0.95376  0.85302  Biso   1.000  Hf
  O9       1.0000 0.04765  0.33044  0.57687  Biso   1.000  O 
  O10      1.0000 0.04694  0.16186  0.82536  Biso   1.000  O 
  O11      1.0000 0.47986  0.82516  0.67663  Biso   1.000  O 
  O12      1.0000 0.47834  0.65953  0.91868  Biso   1.000  O 
  O13      1.0000 0.28768  0.25052  0.73736  Biso   1.000  O 
  O14      1.0000 0.28724  0.24441  0.98481  Biso   1.000  O 
  O15      1.0000 0.23336  0.74602  0.50835  Biso   1.000  O 
  O16      1.0000 0.23712  0.73847  0.75668  Biso   1.000  O 
  Hf9      1.0000 0.63916  0.03986  0.14652  Biso   1.000  Hf
  Hf10     1.0000 0.66381  0.46135  0.40768  Biso   1.000  Hf
  Hf11     1.0000 0.85816  0.54402  0.10727  Biso   1.000  Hf
  Hf12     1.0000 0.86945  0.95497  0.35527  Biso   1.000  Hf
  O17      1.0000 0.53401  0.34238  0.08223  Biso   1.000  O 
  O18      1.0000 0.53332  0.14644  0.33534  Biso   1.000  O 
  O19      1.0000 0.96122  0.83900  0.16983  Biso   1.000  O 
  O20      1.0000 0.97201  0.66101  0.42204  Biso   1.000  O 
  O21      1.0000 0.77694  0.25953  0.24548  Biso   1.000  O 
  O22      1.0000 0.79141  0.23290  0.49723  Biso   1.000  O 
  O23      1.0000 0.72131  0.75745  0.01362  Biso   1.000  O 
  O24      1.0000 0.72677  0.74767  0.26453  Biso   1.000  O 
  Hf13     1.0000 0.65002  0.03990  0.65055  Biso   1.000  Hf
  Hf14     1.0000 0.65158  0.45399  0.89709  Biso   1.000  Hf
  Hf15     1.0000 0.87645  0.53995  0.60715  Biso   1.000  Hf
  Hf16     1.0000 0.87535  0.95362  0.85417  Biso   1.000  Hf
  O25      1.0000 0.54631  0.32589  0.58053  Biso   1.000  O 
  O26      1.0000 0.54659  0.16297  0.83053  Biso   1.000  O 
  O27      1.0000 0.97932  0.83106  0.67175  Biso   1.000  O 
  O28      1.0000 0.97669  0.66098  0.91974  Biso   1.000  O 
  O29      1.0000 0.78773  0.25549  0.74299  Biso   1.000  O 
  O30      1.0000 0.78876  0.23583  0.99136  Biso   1.000  O 
  O31      1.0000 0.73731  0.75356  0.51571  Biso   1.000  O 
  O32      1.0000 0.73853  0.73994  0.76259  Biso   1.000  O 
  Ga1      1.0000 0.44807  0.45686  0.30186  Biso   1.000  Ga
