data_image0
_cell_length_a       5.08505
_cell_length_b       10.344
_cell_length_c       10.1004
_cell_angle_alpha    90
_cell_angle_beta     90
_cell_angle_gamma    90

_symmetry_space_group_name_H-M    "P 1"
_symmetry_int_tables_number       1

loop_
  _symmetry_equiv_pos_as_xyz
  'x, y, z'

loop_
  _atom_site_label
  _atom_site_occupancy
  _atom_site_fract_x
  _atom_site_fract_y
  _atom_site_fract_z
  _atom_site_thermal_displace_type
  _atom_site_B_iso_or_equiv
  _atom_site_type_symbol
  Hf1      1.0000 0.22984  0.98679  0.12455  Biso   1.000  Hf
  Hf2      1.0000 0.13454  0.24789  0.37414  Biso   1.000  Hf
  Hf3      1.0000 0.72982  0.20679  0.12454  Biso   1.000  Hf
  Hf4      1.0000 0.65574  0.00916  0.38747  Biso   1.000  Hf
  O1       1.0000 0.85892  0.13815  0.98238  Biso   1.000  O 
  O2       1.0000 0.94930  0.08221  0.25640  Biso   1.000  O 
  O3       1.0000 0.80220  0.33665  0.27418  Biso   1.000  O 
  O4       1.0000 0.97860  0.42692  0.98644  Biso   1.000  O 
  O5       1.0000 0.44009  0.13818  0.26345  Biso   1.000  O 
  O6       1.0000 0.34973  0.08214  0.98942  Biso   1.000  O 
  O7       1.0000 0.49681  0.33659  0.97165  Biso   1.000  O 
  O8       1.0000 0.32039  0.42698  0.25938  Biso   1.000  O 
  Hf5      1.0000 0.14954  0.99887  0.62290  Biso   1.000  Hf
  Hf6      1.0000 0.16444  0.24784  0.87163  Biso   1.000  Hf
  Hf7      1.0000 0.64947  0.25592  0.62288  Biso   1.000  Hf
  Hf8      1.0000 0.64336  0.00914  0.85835  Biso   1.000  Hf
  O9       1.0000 0.88584  0.14612  0.49800  Biso   1.000  O 
  O10      1.0000 0.91438  0.10414  0.74145  Biso   1.000  O 
  O11      1.0000 0.89470  0.35104  0.75196  Biso   1.000  O 
  O12      1.0000 0.90206  0.39390  0.50284  Biso   1.000  O 
  O13      1.0000 0.41328  0.14610  0.74782  Biso   1.000  O 
  O14      1.0000 0.38480  0.10416  0.50440  Biso   1.000  O 
  O15      1.0000 0.40424  0.35107  0.49387  Biso   1.000  O 
  O16      1.0000 0.39687  0.39387  0.74299  Biso   1.000  O 
  Hf9      1.0000 0.22984  0.57059  0.12454  Biso   1.000  Hf
  Hf10     1.0000 0.16030  0.74066  0.39245  Biso   1.000  Hf
  Hf11     1.0000 0.72984  0.76215  0.12454  Biso   1.000  Hf
  Hf12     1.0000 0.65096  0.49622  0.36936  Biso   1.000  Hf
  O17      1.0000 0.84600  0.66452  0.98325  Biso   1.000  O 
  O18      1.0000 0.91563  0.60283  0.24558  Biso   1.000  O 
  O19      1.0000 0.05050  0.83459  0.23244  Biso   1.000  O 
  O20      1.0000 0.91556  0.90694  0.01614  Biso   1.000  O 
  O21      1.0000 0.45300  0.66458  0.26257  Biso   1.000  O 
  O22      1.0000 0.54407  0.60282  0.00352  Biso   1.000  O 
  O23      1.0000 0.40918  0.83458  0.01667  Biso   1.000  O 
  O24      1.0000 0.54415  0.90695  0.23293  Biso   1.000  O 
  Hf13     1.0000 0.14949  0.49003  0.62291  Biso   1.000  Hf
  Hf14     1.0000 0.13864  0.74064  0.85335  Biso   1.000  Hf
  Hf15     1.0000 0.64946  0.74251  0.62292  Biso   1.000  Hf
  Hf16     1.0000 0.64805  0.49617  0.87646  Biso   1.000  Hf
  O25      1.0000 0.87999  0.64053  0.49434  Biso   1.000  O 
  O26      1.0000 0.91150  0.60034  0.74233  Biso   1.000  O 
  O27      1.0000 0.87133  0.85425  0.75094  Biso   1.000  O 
  O28      1.0000 0.92788  0.88948  0.49499  Biso   1.000  O 
  O29      1.0000 0.41892  0.64048  0.75145  Biso   1.000  O 
  O30      1.0000 0.38741  0.60036  0.50347  Biso   1.000  O 
  O31      1.0000 0.42768  0.85428  0.49486  Biso   1.000  O 
  O32      1.0000 0.37115  0.88944  0.75081  Biso   1.000  O 
  Ga1      1.0000 0.22983  0.29913  0.12453  Biso   1.000  Ga
