data_image0
_cell_length_a       5.10804
_cell_length_b       10.3236
_cell_length_c       10.5366
_cell_angle_alpha    90
_cell_angle_beta     80
_cell_angle_gamma    90

_symmetry_space_group_name_H-M    "P 1"
_symmetry_int_tables_number       1

loop_
  _symmetry_equiv_pos_as_xyz
  'x, y, z'

loop_
  _atom_site_label
  _atom_site_occupancy
  _atom_site_fract_x
  _atom_site_fract_y
  _atom_site_fract_z
  _atom_site_thermal_displace_type
  _atom_site_B_iso_or_equiv
  _atom_site_type_symbol
  Hf1      1.0000 0.27079  0.01738  0.14387  Biso   1.000  Hf
  Hf2      1.0000 0.34455  0.23358  0.40071  Biso   1.000  Hf
  Hf3      1.0000 0.70618  0.27387  0.10238  Biso   1.000  Hf
  Hf4      1.0000 0.72796  0.48232  0.34774  Biso   1.000  Hf
  O1       1.0000 0.05510  0.16294  0.07828  Biso   1.000  O 
  O2       1.0000 0.06522  0.07435  0.33486  Biso   1.000  O 
  O3       1.0000 0.91706  0.43539  0.15653  Biso   1.000  O 
  O4       1.0000 0.98719  0.34918  0.43918  Biso   1.000  O 
  O5       1.0000 0.53704  0.11584  0.23757  Biso   1.000  O 
  O6       1.0000 0.59607  0.11351  0.49438  Biso   1.000  O 
  O7       1.0000 0.43406  0.38066  0.00814  Biso   1.000  O 
  O8       1.0000 0.42957  0.37873  0.25510  Biso   1.000  O 
  Hf5      1.0000 0.29902  0.01978  0.64608  Biso   1.000  Hf
  Hf6      1.0000 0.29995  0.22709  0.89416  Biso   1.000  Hf
  Hf7      1.0000 0.75893  0.27147  0.61009  Biso   1.000  Hf
  Hf8      1.0000 0.74921  0.47716  0.85489  Biso   1.000  Hf
  O9       1.0000 0.10853  0.16745  0.57670  Biso   1.000  O 
  O10      1.0000 0.09095  0.08241  0.82561  Biso   1.000  O 
  O11      1.0000 0.96515  0.41230  0.67969  Biso   1.000  O 
  O12      1.0000 0.95286  0.33000  0.92065  Biso   1.000  O 
  O13      1.0000 0.57491  0.12762  0.74068  Biso   1.000  O 
  O14      1.0000 0.57195  0.12114  0.98754  Biso   1.000  O 
  O15      1.0000 0.48921  0.37821  0.51221  Biso   1.000  O 
  O16      1.0000 0.47783  0.37010  0.75940  Biso   1.000  O 
  Hf9      1.0000 0.27372  0.52422  0.14325  Biso   1.000  Hf
  Hf10     1.0000 0.28296  0.72377  0.39663  Biso   1.000  Hf
  Hf11     1.0000 0.72015  0.77123  0.10368  Biso   1.000  Hf
  Hf12     1.0000 0.71877  0.96529  0.35573  Biso   1.000  Hf
  O17      1.0000 0.07128  0.67494  0.07850  Biso   1.000  O 
  O18      1.0000 0.07020  0.58496  0.32516  Biso   1.000  O 
  O19      1.0000 0.92773  0.91360  0.17472  Biso   1.000  O 
  O20      1.0000 0.93817  0.82756  0.42334  Biso   1.000  O 
  O21      1.0000 0.55438  0.62923  0.24140  Biso   1.000  O 
  O22      1.0000 0.56151  0.61960  0.48907  Biso   1.000  O 
  O23      1.0000 0.44746  0.87990  0.00945  Biso   1.000  O 
  O24      1.0000 0.44223  0.86644  0.25981  Biso   1.000  O 
  Hf13     1.0000 0.30236  0.52095  0.64705  Biso   1.000  Hf
  Hf14     1.0000 0.30291  0.72817  0.89448  Biso   1.000  Hf
  Hf15     1.0000 0.74233  0.76977  0.60478  Biso   1.000  Hf
  Hf16     1.0000 0.75009  0.97778  0.85196  Biso   1.000  Hf
  O25      1.0000 0.08092  0.66117  0.57885  Biso   1.000  O 
  O26      1.0000 0.09474  0.58320  0.82849  Biso   1.000  O 
  O27      1.0000 0.95472  0.91511  0.67038  Biso   1.000  O 
  O28      1.0000 0.96007  0.83374  0.91945  Biso   1.000  O 
  O29      1.0000 0.57593  0.62648  0.73913  Biso   1.000  O 
  O30      1.0000 0.58106  0.62121  0.98823  Biso   1.000  O 
  O31      1.0000 0.45625  0.87328  0.51090  Biso   1.000  O 
  O32      1.0000 0.47469  0.87032  0.75907  Biso   1.000  O 
  Ga1      1.0000 0.90605  0.23527  0.30506  Biso   1.000  Ga
