data_image0
_cell_length_a       10.0477
_cell_length_b       10.2718
_cell_length_c       10.4831
_cell_angle_alpha    90
_cell_angle_beta     90
_cell_angle_gamma    90

_symmetry_space_group_name_H-M    "P 1"
_symmetry_int_tables_number       1

loop_
  _symmetry_equiv_pos_as_xyz
  'x, y, z'

loop_
  _atom_site_label
  _atom_site_occupancy
  _atom_site_fract_x
  _atom_site_fract_y
  _atom_site_fract_z
  _atom_site_thermal_displace_type
  _atom_site_B_iso_or_equiv
  _atom_site_type_symbol
  Hf1      1.0000 0.13332  0.01979  0.17266  Biso   1.000  Hf
  Hf2      1.0000 0.12969  0.22868  0.42654  Biso   1.000  Hf
  Hf3      1.0000 0.33966  0.26829  0.18505  Biso   1.000  Hf
  Hf4      1.0000 0.35570  0.48079  0.42396  Biso   1.000  Hf
  Hf5      1.0000 0.64246  0.01912  0.07176  Biso   1.000  Hf
  Hf6      1.0000 0.63222  0.22908  0.33330  Biso   1.000  Hf
  Hf7      1.0000 0.85751  0.27085  0.07530  Biso   1.000  Hf
  Hf8      1.0000 0.85703  0.47912  0.32820  Biso   1.000  Hf
  O1       1.0000 0.03259  0.16894  0.08694  Biso   1.000  O 
  O2       1.0000 0.02572  0.08503  0.33549  Biso   1.000  O 
  O3       1.0000 0.47010  0.42416  0.09365  Biso   1.000  O 
  O4       1.0000 0.45809  0.33473  0.33645  Biso   1.000  O 
  O5       1.0000 0.26494  0.12370  0.30096  Biso   1.000  O 
  O6       1.0000 0.27140  0.12023  0.04868  Biso   1.000  O 
  O7       1.0000 0.21121  0.37704  0.30209  Biso   1.000  O 
  O8       1.0000 0.22174  0.37795  0.04977  Biso   1.000  O 
  O9       1.0000 0.51432  0.15328  0.18390  Biso   1.000  O 
  O10      1.0000 0.52499  0.08675  0.42227  Biso   1.000  O 
  O11      1.0000 0.96091  0.41737  0.16602  Biso   1.000  O 
  O12      1.0000 0.95969  0.33509  0.41748  Biso   1.000  O 
  O13      1.0000 0.76902  0.12547  0.45459  Biso   1.000  O 
  O14      1.0000 0.76884  0.12825  0.20472  Biso   1.000  O 
  O15      1.0000 0.71697  0.37542  0.45465  Biso   1.000  O 
  O16      1.0000 0.71593  0.37753  0.20455  Biso   1.000  O 
  Hf9      1.0000 0.13197  0.02239  0.67333  Biso   1.000  Hf
  Hf10     1.0000 0.12708  0.23056  0.92366  Biso   1.000  Hf
  Hf11     1.0000 0.35477  0.27294  0.67420  Biso   1.000  Hf
  Hf12     1.0000 0.34846  0.48328  0.92343  Biso   1.000  Hf
  Hf13     1.0000 0.63156  0.02171  0.57993  Biso   1.000  Hf
  Hf14     1.0000 0.63737  0.22849  0.82253  Biso   1.000  Hf
  Hf15     1.0000 0.85434  0.27295  0.57871  Biso   1.000  Hf
  Hf16     1.0000 0.85599  0.48393  0.82638  Biso   1.000  Hf
  O17      1.0000 0.02554  0.16701  0.58635  Biso   1.000  O 
  O18      1.0000 0.02733  0.08375  0.83468  Biso   1.000  O 
  O19      1.0000 0.46085  0.41746  0.58437  Biso   1.000  O 
  O20      1.0000 0.46279  0.34103  0.83321  Biso   1.000  O 
  O21      1.0000 0.26917  0.12678  0.79714  Biso   1.000  O 
  O22      1.0000 0.26936  0.12661  0.54822  Biso   1.000  O 
  O23      1.0000 0.21674  0.37561  0.79828  Biso   1.000  O 
  O24      1.0000 0.21799  0.37655  0.54869  Biso   1.000  O 
  O25      1.0000 0.52699  0.16869  0.66546  Biso   1.000  O 
  O26      1.0000 0.52738  0.06748  0.89967  Biso   1.000  O 
  O27      1.0000 0.96108  0.41749  0.66546  Biso   1.000  O 
  O28      1.0000 0.95725  0.33494  0.91426  Biso   1.000  O 
  O29      1.0000 0.77778  0.12150  0.94796  Biso   1.000  O 
  O30      1.0000 0.77239  0.12505  0.70083  Biso   1.000  O 
  O31      1.0000 0.72377  0.39197  0.94987  Biso   1.000  O 
  O32      1.0000 0.71852  0.37667  0.70287  Biso   1.000  O 
  Hf17     1.0000 0.13469  0.52225  0.17267  Biso   1.000  Hf
  Hf18     1.0000 0.13286  0.72993  0.42166  Biso   1.000  Hf
  Hf19     1.0000 0.36043  0.77309  0.17324  Biso   1.000  Hf
  Hf20     1.0000 0.35618  0.97880  0.42541  Biso   1.000  Hf
  Hf21     1.0000 0.64611  0.53190  0.07826  Biso   1.000  Hf
  Hf22     1.0000 0.63536  0.73156  0.32924  Biso   1.000  Hf
  Hf23     1.0000 0.86367  0.77280  0.07875  Biso   1.000  Hf
  Hf24     1.0000 0.85575  0.98101  0.32874  Biso   1.000  Hf
  O33      1.0000 0.03464  0.66737  0.08470  Biso   1.000  O 
  O34      1.0000 0.02788  0.58510  0.33471  Biso   1.000  O 
  O35      1.0000 0.46909  0.91613  0.08379  Biso   1.000  O 
  O36      1.0000 0.46382  0.83678  0.33556  Biso   1.000  O 
  O37      1.0000 0.27194  0.62537  0.29564  Biso   1.000  O 
  O38      1.0000 0.27821  0.62501  0.04642  Biso   1.000  O 
  O39      1.0000 0.22056  0.87476  0.29691  Biso   1.000  O 
  O40      1.0000 0.22461  0.87393  0.04779  Biso   1.000  O 
  O41      1.0000 0.53364  0.67012  0.16677  Biso   1.000  O 
  O42      1.0000 0.52742  0.58663  0.41624  Biso   1.000  O 
  O43      1.0000 0.96319  0.91902  0.16591  Biso   1.000  O 
  O44      1.0000 0.96076  0.83451  0.41493  Biso   1.000  O 
  O45      1.0000 0.77080  0.62498  0.45427  Biso   1.000  O 
  O46      1.0000 0.77714  0.62956  0.20526  Biso   1.000  O 
  O47      1.0000 0.71853  0.87628  0.45561  Biso   1.000  O 
  O48      1.0000 0.72238  0.87692  0.20452  Biso   1.000  O 
  Hf25     1.0000 0.13224  0.52204  0.67205  Biso   1.000  Hf
  Hf26     1.0000 0.12964  0.73180  0.92281  Biso   1.000  Hf
  Hf27     1.0000 0.35371  0.77117  0.67279  Biso   1.000  Hf
  Hf28     1.0000 0.35107  0.97947  0.92174  Biso   1.000  Hf
  Hf29     1.0000 0.63222  0.52279  0.57776  Biso   1.000  Hf
  Hf30     1.0000 0.62879  0.73121  0.82724  Biso   1.000  Hf
  Hf31     1.0000 0.85588  0.77223  0.57811  Biso   1.000  Hf
  Hf32     1.0000 0.85565  0.97877  0.82720  Biso   1.000  Hf
  O49      1.0000 0.02725  0.66686  0.58410  Biso   1.000  O 
  O50      1.0000 0.02737  0.58642  0.83483  Biso   1.000  O 
  O51      1.0000 0.46089  0.91570  0.58655  Biso   1.000  O 
  O52      1.0000 0.45423  0.82958  0.83608  Biso   1.000  O 
  O53      1.0000 0.26859  0.62485  0.79594  Biso   1.000  O 
  O54      1.0000 0.26929  0.62665  0.54591  Biso   1.000  O 
  O55      1.0000 0.21499  0.87507  0.79615  Biso   1.000  O 
  O56      1.0000 0.21780  0.87663  0.54628  Biso   1.000  O 
  O57      1.0000 0.52549  0.66632  0.66598  Biso   1.000  O 
  O58      1.0000 0.52222  0.58747  0.91811  Biso   1.000  O 
  O59      1.0000 0.96185  0.91633  0.66462  Biso   1.000  O 
  O60      1.0000 0.95830  0.83608  0.91718  Biso   1.000  O 
  O61      1.0000 0.76678  0.63309  0.95302  Biso   1.000  O 
  O62      1.0000 0.76859  0.62753  0.70346  Biso   1.000  O 
  O63      1.0000 0.71455  0.87682  0.95501  Biso   1.000  O 
  O64      1.0000 0.71734  0.87602  0.70512  Biso   1.000  O 
  Ga1      1.0000 0.54838  0.26412  0.03707  Biso   1.000  Ga
