data_image0
_cell_length_a       10.1004
_cell_length_b       10.344
_cell_length_c       5.08505
_cell_angle_alpha    90
_cell_angle_beta     90
_cell_angle_gamma    90

_symmetry_space_group_name_H-M    "P 1"
_symmetry_int_tables_number       1

loop_
  _symmetry_equiv_pos_as_xyz
  'x, y, z'

loop_
  _atom_site_label
  _atom_site_occupancy
  _atom_site_fract_x
  _atom_site_fract_y
  _atom_site_fract_z
  _atom_site_thermal_displace_type
  _atom_site_B_iso_or_equiv
  _atom_site_type_symbol
  Hf1      1.0000 0.13507  0.92937  0.24894  Biso   1.000  Hf
  Hf2      1.0000 0.15540  0.29316  0.74727  Biso   1.000  Hf
  Hf3      1.0000 0.38771  0.25205  0.30382  Biso   1.000  Hf
  Hf4      1.0000 0.40263  0.00372  0.78659  Biso   1.000  Hf
  O1       1.0000 0.00920  0.16332  0.84346  Biso   1.000  O 
  O2       1.0000 0.00434  0.07299  0.36087  Biso   1.000  O 
  O3       1.0000 0.00515  0.36176  0.48080  Biso   1.000  O 
  O4       1.0000 0.03292  0.41775  0.98720  Biso   1.000  O 
  O5       1.0000 0.30159  0.16330  0.65116  Biso   1.000  O 
  O6       1.0000 0.26575  0.07298  0.13704  Biso   1.000  O 
  O7       1.0000 0.26493  0.36178  0.01707  Biso   1.000  O 
  O8       1.0000 0.27789  0.41774  0.50739  Biso   1.000  O 
  Hf5      1.0000 0.13506  0.51317  0.24891  Biso   1.000  Hf
  Hf6      1.0000 0.15542  0.73780  0.74729  Biso   1.000  Hf
  Hf7      1.0000 0.40492  0.75929  0.27520  Biso   1.000  Hf
  Hf8      1.0000 0.42049  0.49077  0.77894  Biso   1.000  Hf
  O9       1.0000 0.02022  0.66538  0.08751  Biso   1.000  O 
  O10      1.0000 0.03981  0.59300  0.57960  Biso   1.000  O 
  O11      1.0000 0.00659  0.83538  0.49355  Biso   1.000  O 
  O12      1.0000 0.04235  0.89713  0.95191  Biso   1.000  O 
  O13      1.0000 0.24990  0.66536  0.41036  Biso   1.000  O 
  O14      1.0000 0.27103  0.59301  0.91497  Biso   1.000  O 
  O15      1.0000 0.26354  0.83538  0.00434  Biso   1.000  O 
  O16      1.0000 0.26850  0.89712  0.54269  Biso   1.000  O 
  Hf9      1.0000 0.63505  0.00992  0.24892  Biso   1.000  Hf
  Hf10     1.0000 0.65540  0.24401  0.74730  Biso   1.000  Hf
  Hf11     1.0000 0.88237  0.25209  0.19407  Biso   1.000  Hf
  Hf12     1.0000 0.90818  0.00374  0.70801  Biso   1.000  Hf
  O17      1.0000 0.49605  0.14888  0.01572  Biso   1.000  O 
  O18      1.0000 0.52541  0.10604  0.51481  Biso   1.000  O 
  O19      1.0000 0.52129  0.35381  0.53181  Biso   1.000  O 
  O20      1.0000 0.50735  0.39578  0.03347  Biso   1.000  O 
  O21      1.0000 0.77402  0.14888  0.48210  Biso   1.000  O 
  O22      1.0000 0.78536  0.10604  0.97974  Biso   1.000  O 
  O23      1.0000 0.78953  0.35381  0.96270  Biso   1.000  O 
  O24      1.0000 0.76276  0.39580  0.46428  Biso   1.000  O 
  Hf13     1.0000 0.63504  0.50107  0.24890  Biso   1.000  Hf
  Hf14     1.0000 0.65542  0.75741  0.74733  Biso   1.000  Hf
  Hf15     1.0000 0.86520  0.75929  0.22273  Biso   1.000  Hf
  Hf16     1.0000 0.89033  0.49079  0.71562  Biso   1.000  Hf
  O25      1.0000 0.53683  0.64565  0.98899  Biso   1.000  O 
  O26      1.0000 0.51660  0.61046  0.49041  Biso   1.000  O 
  O27      1.0000 0.51789  0.85941  0.53824  Biso   1.000  O 
  O28      1.0000 0.50633  0.89959  0.03100  Biso   1.000  O 
  O29      1.0000 0.77402  0.64568  0.50565  Biso   1.000  O 
  O30      1.0000 0.75351  0.61048  0.00749  Biso   1.000  O 
  O31      1.0000 0.79294  0.85942  0.95645  Biso   1.000  O 
  O32      1.0000 0.76379  0.89959  0.46695  Biso   1.000  O 
  Ga1      1.0000 0.13504  0.20083  0.24887  Biso   1.000  Ga
