data_image0
_cell_length_a       10.1573
_cell_length_b       10.3022
_cell_length_c       10.4949
_cell_angle_alpha    90
_cell_angle_beta     80
_cell_angle_gamma    90

_symmetry_space_group_name_H-M    "P 1"
_symmetry_int_tables_number       1

loop_
  _symmetry_equiv_pos_as_xyz
  'x, y, z'

loop_
  _atom_site_label
  _atom_site_occupancy
  _atom_site_fract_x
  _atom_site_fract_y
  _atom_site_fract_z
  _atom_site_thermal_displace_type
  _atom_site_B_iso_or_equiv
  _atom_site_type_symbol
  Hf1      1.0000 0.13321  0.02032  0.14282  Biso   1.000  Hf
  Hf2      1.0000 0.14325  0.22804  0.39133  Biso   1.000  Hf
  Hf3      1.0000 0.35414  0.27337  0.09973  Biso   1.000  Hf
  Hf4      1.0000 0.35851  0.47945  0.34738  Biso   1.000  Hf
  O1       1.0000 0.03249  0.16886  0.07831  Biso   1.000  O 
  O2       1.0000 0.03350  0.08099  0.32937  Biso   1.000  O 
  O3       1.0000 0.45750  0.43609  0.15563  Biso   1.000  O 
  O4       1.0000 0.48540  0.34591  0.43795  Biso   1.000  O 
  O5       1.0000 0.26800  0.11623  0.23383  Biso   1.000  O 
  O6       1.0000 0.28684  0.11964  0.48616  Biso   1.000  O 
  O7       1.0000 0.21866  0.38194  0.00475  Biso   1.000  O 
  O8       1.0000 0.20859  0.37449  0.25264  Biso   1.000  O 
  Hf5      1.0000 0.14199  0.02016  0.64498  Biso   1.000  Hf
  Hf6      1.0000 0.14081  0.22731  0.89370  Biso   1.000  Hf
  Hf7      1.0000 0.36620  0.27173  0.60885  Biso   1.000  Hf
  Hf8      1.0000 0.36536  0.47726  0.85500  Biso   1.000  Hf
  O9       1.0000 0.04458  0.16889  0.57808  Biso   1.000  O 
  O10      1.0000 0.03848  0.08014  0.82760  Biso   1.000  O 
  O11      1.0000 0.47127  0.41459  0.67718  Biso   1.000  O 
  O12      1.0000 0.46811  0.32878  0.91977  Biso   1.000  O 
  O13      1.0000 0.27978  0.12690  0.73850  Biso   1.000  O 
  O14      1.0000 0.27739  0.12070  0.98626  Biso   1.000  O 
  O15      1.0000 0.23107  0.37620  0.50752  Biso   1.000  O 
  O16      1.0000 0.22830  0.36960  0.75795  Biso   1.000  O 
  Hf9      1.0000 0.13756  0.52257  0.14309  Biso   1.000  Hf
  Hf10     1.0000 0.13873  0.72525  0.39642  Biso   1.000  Hf
  Hf11     1.0000 0.36092  0.77148  0.10339  Biso   1.000  Hf
  Hf12     1.0000 0.35612  0.96622  0.35471  Biso   1.000  Hf
  O17      1.0000 0.03337  0.67059  0.07841  Biso   1.000  O 
  O18      1.0000 0.03527  0.58295  0.32759  Biso   1.000  O 
  O19      1.0000 0.46498  0.91682  0.17322  Biso   1.000  O 
  O20      1.0000 0.46480  0.82676  0.42165  Biso   1.000  O 
  O21      1.0000 0.27591  0.62825  0.24039  Biso   1.000  O 
  O22      1.0000 0.27714  0.61888  0.48903  Biso   1.000  O 
  O23      1.0000 0.22344  0.87970  0.00891  Biso   1.000  O 
  O24      1.0000 0.22119  0.86564  0.25869  Biso   1.000  O 
  Hf13     1.0000 0.14374  0.51995  0.64486  Biso   1.000  Hf
  Hf14     1.0000 0.14197  0.72710  0.89525  Biso   1.000  Hf
  Hf15     1.0000 0.36460  0.76886  0.60504  Biso   1.000  Hf
  Hf16     1.0000 0.36510  0.97683  0.85333  Biso   1.000  Hf
  O25      1.0000 0.03646  0.66491  0.57967  Biso   1.000  O 
  O26      1.0000 0.03968  0.58012  0.82872  Biso   1.000  O 
  O27      1.0000 0.46885  0.91535  0.67075  Biso   1.000  O 
  O28      1.0000 0.46937  0.83122  0.92038  Biso   1.000  O 
  O29      1.0000 0.28054  0.62633  0.73970  Biso   1.000  O 
  O30      1.0000 0.28077  0.62124  0.98963  Biso   1.000  O 
  O31      1.0000 0.22416  0.87566  0.51045  Biso   1.000  O 
  O32      1.0000 0.22759  0.86929  0.75906  Biso   1.000  O 
  Hf17     1.0000 0.63985  0.01897  0.14662  Biso   1.000  Hf
  Hf18     1.0000 0.66232  0.23087  0.40740  Biso   1.000  Hf
  Hf19     1.0000 0.85914  0.27256  0.10654  Biso   1.000  Hf
  Hf20     1.0000 0.86487  0.47946  0.35401  Biso   1.000  Hf
  O33      1.0000 0.53121  0.16438  0.08017  Biso   1.000  O 
  O34      1.0000 0.53285  0.07687  0.33694  Biso   1.000  O 
  O35      1.0000 0.96202  0.42214  0.16768  Biso   1.000  O 
  O36      1.0000 0.96696  0.33032  0.42027  Biso   1.000  O 
  O37      1.0000 0.77621  0.12797  0.24415  Biso   1.000  O 
  O38      1.0000 0.78857  0.11522  0.49735  Biso   1.000  O 
  O39      1.0000 0.72100  0.37835  0.01294  Biso   1.000  O 
  O40      1.0000 0.72621  0.37200  0.26329  Biso   1.000  O 
  Hf21     1.0000 0.64242  0.01897  0.64822  Biso   1.000  Hf
  Hf22     1.0000 0.64237  0.22637  0.89744  Biso   1.000  Hf
  Hf23     1.0000 0.86965  0.26992  0.60751  Biso   1.000  Hf
  Hf24     1.0000 0.86546  0.47672  0.85527  Biso   1.000  Hf
  O41      1.0000 0.54227  0.16635  0.58063  Biso   1.000  O 
  O42      1.0000 0.53833  0.07994  0.82960  Biso   1.000  O 
  O43      1.0000 0.97126  0.41608  0.67228  Biso   1.000  O 
  O44      1.0000 0.96649  0.32914  0.92050  Biso   1.000  O 
  O45      1.0000 0.78012  0.12791  0.74331  Biso   1.000  O 
  O46      1.0000 0.77936  0.11893  0.99247  Biso   1.000  O 
  O47      1.0000 0.73300  0.37919  0.51508  Biso   1.000  O 
  O48      1.0000 0.72908  0.36968  0.76236  Biso   1.000  O 
  Hf25     1.0000 0.63674  0.52320  0.14571  Biso   1.000  Hf
  Hf26     1.0000 0.63998  0.72547  0.39666  Biso   1.000  Hf
  Hf27     1.0000 0.85907  0.77073  0.10467  Biso   1.000  Hf
  Hf28     1.0000 0.86306  0.97502  0.35534  Biso   1.000  Hf
  O49      1.0000 0.53825  0.67507  0.08090  Biso   1.000  O 
  O50      1.0000 0.53418  0.58068  0.32852  Biso   1.000  O 
  O51      1.0000 0.96160  0.91617  0.17197  Biso   1.000  O 
  O52      1.0000 0.96633  0.82974  0.42197  Biso   1.000  O 
  O53      1.0000 0.77608  0.62974  0.24164  Biso   1.000  O 
  O54      1.0000 0.77800  0.61988  0.49101  Biso   1.000  O 
  O55      1.0000 0.72325  0.87996  0.01030  Biso   1.000  O 
  O56      1.0000 0.72091  0.87109  0.26140  Biso   1.000  O 
  Hf29     1.0000 0.64291  0.52092  0.64880  Biso   1.000  Hf
  Hf30     1.0000 0.64287  0.72769  0.89636  Biso   1.000  Hf
  Hf31     1.0000 0.86406  0.77026  0.60460  Biso   1.000  Hf
  Hf32     1.0000 0.86558  0.97721  0.85419  Biso   1.000  Hf
  O57      1.0000 0.53699  0.66438  0.58024  Biso   1.000  O 
  O58      1.0000 0.53900  0.58149  0.83134  Biso   1.000  O 
  O59      1.0000 0.96856  0.91712  0.67035  Biso   1.000  O 
  O60      1.0000 0.96866  0.83067  0.92009  Biso   1.000  O 
  O61      1.0000 0.78024  0.62752  0.74086  Biso   1.000  O 
  O62      1.0000 0.78039  0.61876  0.99012  Biso   1.000  O 
  O63      1.0000 0.72462  0.87595  0.51089  Biso   1.000  O 
  O64      1.0000 0.72834  0.86983  0.76057  Biso   1.000  O 
  Ga1      1.0000 0.44263  0.23212  0.30531  Biso   1.000  Ga
