data_image0
_cell_length_a       10.1226
_cell_length_b       10.3308
_cell_length_c       5.24189
_cell_angle_alpha    90
_cell_angle_beta     90
_cell_angle_gamma    90

_symmetry_space_group_name_H-M    "P 1"
_symmetry_int_tables_number       1

loop_
  _symmetry_equiv_pos_as_xyz
  'x, y, z'

loop_
  _atom_site_label
  _atom_site_occupancy
  _atom_site_fract_x
  _atom_site_fract_y
  _atom_site_fract_z
  _atom_site_thermal_displace_type
  _atom_site_B_iso_or_equiv
  _atom_site_type_symbol
  Hf1      1.0000 0.13051  0.01753  0.35604  Biso   1.000  Hf
  Hf2      1.0000 0.12819  0.22705  0.86052  Biso   1.000  Hf
  Hf3      1.0000 0.34514  0.26584  0.36918  Biso   1.000  Hf
  Hf4      1.0000 0.34943  0.48368  0.85536  Biso   1.000  Hf
  Hf5      1.0000 0.64273  0.01575  0.15426  Biso   1.000  Hf
  Hf6      1.0000 0.64703  0.23358  0.64044  Biso   1.000  Hf
  Hf7      1.0000 0.86398  0.27237  0.14910  Biso   1.000  Hf
  Hf8      1.0000 0.86165  0.48189  0.65359  Biso   1.000  Hf
  O1       1.0000 0.03238  0.16841  0.18043  Biso   1.000  O 
  O2       1.0000 0.02596  0.08124  0.67854  Biso   1.000  O 
  O3       1.0000 0.47211  0.43189  0.18636  Biso   1.000  O 
  O4       1.0000 0.46765  0.34454  0.65111  Biso   1.000  O 
  O5       1.0000 0.26626  0.12395  0.60909  Biso   1.000  O 
  O6       1.0000 0.26393  0.11118  0.11277  Biso   1.000  O 
  O7       1.0000 0.21630  0.37542  0.61294  Biso   1.000  O 
  O8       1.0000 0.22222  0.37696  0.11274  Biso   1.000  O 
  O9       1.0000 0.52451  0.15489  0.35852  Biso   1.000  O 
  O10      1.0000 0.52006  0.06752  0.82327  Biso   1.000  O 
  O11      1.0000 0.96621  0.41818  0.33109  Biso   1.000  O 
  O12      1.0000 0.95979  0.33101  0.82920  Biso   1.000  O 
  O13      1.0000 0.76994  0.12248  0.89689  Biso   1.000  O 
  O14      1.0000 0.77587  0.12400  0.39669  Biso   1.000  O 
  O15      1.0000 0.72824  0.38825  0.89685  Biso   1.000  O 
  O16      1.0000 0.72591  0.37548  0.40053  Biso   1.000  O 
  Hf9      1.0000 0.13787  0.52084  0.34950  Biso   1.000  Hf
  Hf10     1.0000 0.13086  0.72941  0.84977  Biso   1.000  Hf
  Hf11     1.0000 0.36390  0.76978  0.35319  Biso   1.000  Hf
  Hf12     1.0000 0.35176  0.97298  0.85848  Biso   1.000  Hf
  Hf13     1.0000 0.64651  0.52643  0.15114  Biso   1.000  Hf
  Hf14     1.0000 0.63437  0.72963  0.65642  Biso   1.000  Hf
  Hf15     1.0000 0.86740  0.77001  0.15986  Biso   1.000  Hf
  Hf16     1.0000 0.86038  0.97857  0.66013  Biso   1.000  Hf
  O17      1.0000 0.03823  0.66691  0.17397  Biso   1.000  O 
  O18      1.0000 0.03138  0.58314  0.67597  Biso   1.000  O 
  O19      1.0000 0.47364  0.91420  0.17921  Biso   1.000  O 
  O20      1.0000 0.46100  0.82895  0.67967  Biso   1.000  O 
  O21      1.0000 0.27213  0.62489  0.59564  Biso   1.000  O 
  O22      1.0000 0.27930  0.62386  0.09635  Biso   1.000  O 
  O23      1.0000 0.22064  0.87251  0.60234  Biso   1.000  O 
  O24      1.0000 0.22985  0.86978  0.10493  Biso   1.000  O 
  O25      1.0000 0.53726  0.67045  0.32996  Biso   1.000  O 
  O26      1.0000 0.52463  0.58521  0.83043  Biso   1.000  O 
  O27      1.0000 0.96689  0.91626  0.33366  Biso   1.000  O 
  O28      1.0000 0.96004  0.83251  0.83567  Biso   1.000  O 
  O29      1.0000 0.76840  0.62963  0.90470  Biso   1.000  O 
  O30      1.0000 0.77763  0.62689  0.40729  Biso   1.000  O 
  O31      1.0000 0.71897  0.87555  0.91328  Biso   1.000  O 
  O32      1.0000 0.72614  0.87452  0.41399  Biso   1.000  O 
  Ge1      1.0000 0.50447  0.25007  0.00508  Biso   1.000  Ge
