data_image0
_cell_length_a       10.1179
_cell_length_b       5.15743
_cell_length_c       10.4943
_cell_angle_alpha    90
_cell_angle_beta     90
_cell_angle_gamma    90

_symmetry_space_group_name_H-M    "P 1"
_symmetry_int_tables_number       1

loop_
  _symmetry_equiv_pos_as_xyz
  'x, y, z'

loop_
  _atom_site_label
  _atom_site_occupancy
  _atom_site_fract_x
  _atom_site_fract_y
  _atom_site_fract_z
  _atom_site_thermal_displace_type
  _atom_site_B_iso_or_equiv
  _atom_site_type_symbol
  Hf1      1.0000 0.12573  0.03794  0.17713  Biso   1.000  Hf
  Hf2      1.0000 0.12511  0.45775  0.42688  Biso   1.000  Hf
  Hf3      1.0000 0.34313  0.53459  0.18511  Biso   1.000  Hf
  Hf4      1.0000 0.35199  0.95798  0.42721  Biso   1.000  Hf
  Hf5      1.0000 0.64658  0.04238  0.07463  Biso   1.000  Hf
  Hf6      1.0000 0.62858  0.46200  0.33040  Biso   1.000  Hf
  Hf7      1.0000 0.86068  0.54200  0.07695  Biso   1.000  Hf
  Hf8      1.0000 0.85218  0.96068  0.32944  Biso   1.000  Hf
  O1       1.0000 0.03024  0.33782  0.08919  Biso   1.000  O 
  O2       1.0000 0.01946  0.16969  0.33915  Biso   1.000  O 
  O3       1.0000 0.47103  0.86040  0.09653  Biso   1.000  O 
  O4       1.0000 0.45642  0.67151  0.33736  Biso   1.000  O 
  O5       1.0000 0.26093  0.24973  0.30189  Biso   1.000  O 
  O6       1.0000 0.26162  0.22273  0.05424  Biso   1.000  O 
  O7       1.0000 0.21100  0.75231  0.30532  Biso   1.000  O 
  O8       1.0000 0.21762  0.74643  0.05747  Biso   1.000  O 
  O9       1.0000 0.52031  0.31705  0.17953  Biso   1.000  O 
  O10      1.0000 0.51866  0.17585  0.42059  Biso   1.000  O 
  O11      1.0000 0.95709  0.83785  0.16716  Biso   1.000  O 
  O12      1.0000 0.95536  0.66930  0.41693  Biso   1.000  O 
  O13      1.0000 0.76229  0.25287  0.45313  Biso   1.000  O 
  O14      1.0000 0.76818  0.25669  0.20285  Biso   1.000  O 
  O15      1.0000 0.71396  0.75454  0.45481  Biso   1.000  O 
  O16      1.0000 0.71761  0.75081  0.20483  Biso   1.000  O 
  Hf9      1.0000 0.12329  0.04364  0.67516  Biso   1.000  Hf
  Hf10     1.0000 0.11480  0.46231  0.92765  Biso   1.000  Hf
  Hf11     1.0000 0.34689  0.54232  0.67420  Biso   1.000  Hf
  Hf12     1.0000 0.32888  0.96194  0.92997  Biso   1.000  Hf
  Hf13     1.0000 0.62348  0.04634  0.57741  Biso   1.000  Hf
  Hf14     1.0000 0.63235  0.46973  0.81950  Biso   1.000  Hf
  Hf15     1.0000 0.85037  0.54657  0.57774  Biso   1.000  Hf
  Hf16     1.0000 0.84974  0.96638  0.82747  Biso   1.000  Hf
  O17      1.0000 0.02011  0.33503  0.58767  Biso   1.000  O 
  O18      1.0000 0.01838  0.16645  0.83746  Biso   1.000  O 
  O19      1.0000 0.45681  0.82846  0.58401  Biso   1.000  O 
  O20      1.0000 0.45516  0.68730  0.82507  Biso   1.000  O 
  O21      1.0000 0.25787  0.25351  0.79979  Biso   1.000  O 
  O22      1.0000 0.26151  0.24979  0.54979  Biso   1.000  O 
  O23      1.0000 0.20729  0.74763  0.80176  Biso   1.000  O 
  O24      1.0000 0.21319  0.75146  0.55148  Biso   1.000  O 
  O25      1.0000 0.51906  0.33280  0.66725  Biso   1.000  O 
  O26      1.0000 0.50445  0.14391  0.90809  Biso   1.000  O 
  O27      1.0000 0.95602  0.83463  0.66546  Biso   1.000  O 
  O28      1.0000 0.94524  0.66649  0.91541  Biso   1.000  O 
  O29      1.0000 0.75784  0.25791  0.94713  Biso   1.000  O 
  O30      1.0000 0.76447  0.25202  0.69930  Biso   1.000  O 
  O31      1.0000 0.71386  0.78160  0.95037  Biso   1.000  O 
  O32      1.0000 0.71454  0.75458  0.70272  Biso   1.000  O 
  Ge1      1.0000 0.50413  0.50004  0.00255  Biso   1.000  Ge
