data_image0
_cell_length_a       10.002
_cell_length_b       5.08263
_cell_length_c       10.435
_cell_angle_alpha    90
_cell_angle_beta     90
_cell_angle_gamma    90

_symmetry_space_group_name_H-M    "P 1"
_symmetry_int_tables_number       1

loop_
  _symmetry_equiv_pos_as_xyz
  'x, y, z'

loop_
  _atom_site_label
  _atom_site_occupancy
  _atom_site_fract_x
  _atom_site_fract_y
  _atom_site_fract_z
  _atom_site_thermal_displace_type
  _atom_site_B_iso_or_equiv
  _atom_site_type_symbol
  Ge1      1.0000 0.11928  0.02109  0.18573  Biso   1.000  Ge
  Hf1      1.0000 0.13272  0.45387  0.41649  Biso   1.000  Hf
  Hf2      1.0000 0.35690  0.55206  0.16802  Biso   1.000  Hf
  Hf3      1.0000 0.35725  0.95810  0.41838  Biso   1.000  Hf
  Hf4      1.0000 0.63926  0.04141  0.07822  Biso   1.000  Hf
  Hf5      1.0000 0.63326  0.45317  0.32801  Biso   1.000  Hf
  Hf6      1.0000 0.87072  0.52944  0.08346  Biso   1.000  Hf
  Hf7      1.0000 0.85661  0.95165  0.33276  Biso   1.000  Hf
  O1       1.0000 0.05223  0.30596  0.08981  Biso   1.000  O 
  O2       1.0000 0.02846  0.15463  0.33251  Biso   1.000  O 
  O3       1.0000 0.47199  0.83531  0.08359  Biso   1.000  O 
  O4       1.0000 0.45953  0.65846  0.33634  Biso   1.000  O 
  O5       1.0000 0.26340  0.23300  0.27672  Biso   1.000  O 
  O6       1.0000 0.30488  0.31856  0.02061  Biso   1.000  O 
  O7       1.0000 0.21427  0.74981  0.29357  Biso   1.000  O 
  O8       1.0000 0.21901  0.81826  0.05597  Biso   1.000  O 
  O9       1.0000 0.53373  0.33683  0.16405  Biso   1.000  O 
  O10      1.0000 0.52643  0.15988  0.41245  Biso   1.000  O 
  O11      1.0000 0.97176  0.82504  0.17150  Biso   1.000  O 
  O12      1.0000 0.96054  0.66049  0.41826  Biso   1.000  O 
  O13      1.0000 0.76888  0.24086  0.45675  Biso   1.000  O 
  O14      1.0000 0.77640  0.24651  0.20666  Biso   1.000  O 
  O15      1.0000 0.71767  0.74101  0.45745  Biso   1.000  O 
  O16      1.0000 0.72854  0.74519  0.20681  Biso   1.000  O 
  Hf8      1.0000 0.12865  0.03621  0.66863  Biso   1.000  Hf
  Hf9      1.0000 0.13146  0.45144  0.91978  Biso   1.000  Hf
  Hf10     1.0000 0.35447  0.54245  0.67126  Biso   1.000  Hf
  Hf11     1.0000 0.35373  0.96546  0.92373  Biso   1.000  Hf
  Hf12     1.0000 0.62788  0.03779  0.58015  Biso   1.000  Hf
  Hf13     1.0000 0.63044  0.45676  0.83031  Biso   1.000  Hf
  Hf14     1.0000 0.85421  0.53463  0.58127  Biso   1.000  Hf
  Hf15     1.0000 0.85780  0.95072  0.83219  Biso   1.000  Hf
  O17      1.0000 0.02506  0.31951  0.57922  Biso   1.000  O 
  O18      1.0000 0.02367  0.16856  0.83249  Biso   1.000  O 
  O19      1.0000 0.45979  0.83563  0.58372  Biso   1.000  O 
  O20      1.0000 0.46042  0.67097  0.83240  Biso   1.000  O 
  O21      1.0000 0.26597  0.23968  0.78504  Biso   1.000  O 
  O22      1.0000 0.26964  0.25388  0.53679  Biso   1.000  O 
  O23      1.0000 0.21729  0.74318  0.79892  Biso   1.000  O 
  O24      1.0000 0.21763  0.74929  0.54338  Biso   1.000  O 
  O25      1.0000 0.52669  0.33566  0.66369  Biso   1.000  O 
  O26      1.0000 0.52748  0.15774  0.91187  Biso   1.000  O 
  O27      1.0000 0.96372  0.81660  0.67127  Biso   1.000  O 
  O28      1.0000 0.96076  0.66243  0.92551  Biso   1.000  O 
  O29      1.0000 0.76955  0.23980  0.95824  Biso   1.000  O 
  O30      1.0000 0.76866  0.24716  0.70714  Biso   1.000  O 
  O31      1.0000 0.71881  0.73733  0.95885  Biso   1.000  O 
  O32      1.0000 0.71859  0.75036  0.70768  Biso   1.000  O 
