data_image0
_cell_length_a       4.99894
_cell_length_b       10.0065
_cell_length_c       10.1361
_cell_angle_alpha    90
_cell_angle_beta     90
_cell_angle_gamma    90

_symmetry_space_group_name_H-M    "P 1"
_symmetry_int_tables_number       1

loop_
  _symmetry_equiv_pos_as_xyz
  'x, y, z'

loop_
  _atom_site_label
  _atom_site_occupancy
  _atom_site_fract_x
  _atom_site_fract_y
  _atom_site_fract_z
  _atom_site_thermal_displace_type
  _atom_site_B_iso_or_equiv
  _atom_site_type_symbol
  Ge1      1.0000 0.24882  0.99998  0.12520  Biso   1.000  Ge
  Hf1      1.0000 0.25900  0.24868  0.37442  Biso   1.000  Hf
  Hf2      1.0000 0.74882  0.24896  0.12521  Biso   1.000  Hf
  Hf3      1.0000 0.74882  0.99998  0.37756  Biso   1.000  Hf
  O1       1.0000 0.94214  0.14746  0.97217  Biso   1.000  O 
  O2       1.0000 0.04244  0.10607  0.22269  Biso   1.000  O 
  O3       1.0000 0.98337  0.35722  0.26865  Biso   1.000  O 
  O4       1.0000 0.00299  0.38796  0.01744  Biso   1.000  O 
  O5       1.0000 0.55554  0.14748  0.27824  Biso   1.000  O 
  O6       1.0000 0.45518  0.10609  0.02772  Biso   1.000  O 
  O7       1.0000 0.51433  0.35720  0.98176  Biso   1.000  O 
  O8       1.0000 0.49465  0.38796  0.23296  Biso   1.000  O 
  Hf4      1.0000 0.24884  0.99996  0.62520  Biso   1.000  Hf
  Hf5      1.0000 0.23866  0.24866  0.87598  Biso   1.000  Hf
  Hf6      1.0000 0.74885  0.25254  0.62520  Biso   1.000  Hf
  Hf7      1.0000 0.74884  0.99996  0.87284  Biso   1.000  Hf
  O9       1.0000 0.99746  0.12983  0.47651  Biso   1.000  O 
  O10      1.0000 0.99818  0.12051  0.72748  Biso   1.000  O 
  O11      1.0000 0.99184  0.36984  0.76846  Biso   1.000  O 
  O12      1.0000 0.00095  0.37999  0.51795  Biso   1.000  O 
  O13      1.0000 0.50017  0.12981  0.77389  Biso   1.000  O 
  O14      1.0000 0.49946  0.12052  0.52293  Biso   1.000  O 
  O15      1.0000 0.50582  0.36985  0.48195  Biso   1.000  O 
  O16      1.0000 0.49672  0.37997  0.73246  Biso   1.000  O 
  Hf8      1.0000 0.24883  0.49997  0.12520  Biso   1.000  Hf
  Hf9      1.0000 0.23864  0.75128  0.37441  Biso   1.000  Hf
  Hf10     1.0000 0.74881  0.75100  0.12520  Biso   1.000  Hf
  Hf11     1.0000 0.74882  0.49999  0.37368  Biso   1.000  Hf
  O17      1.0000 0.98337  0.64271  0.98175  Biso   1.000  O 
  O18      1.0000 0.00298  0.61199  0.23295  Biso   1.000  O 
  O19      1.0000 0.94209  0.85246  0.27824  Biso   1.000  O 
  O20      1.0000 0.04244  0.89388  0.02772  Biso   1.000  O 
  O21      1.0000 0.51427  0.64273  0.26865  Biso   1.000  O 
  O22      1.0000 0.49460  0.61201  0.01744  Biso   1.000  O 
  O23      1.0000 0.55559  0.85245  0.97216  Biso   1.000  O 
  O24      1.0000 0.45519  0.89388  0.22268  Biso   1.000  O 
  Hf12     1.0000 0.24886  0.49996  0.62519  Biso   1.000  Hf
  Hf13     1.0000 0.25902  0.75125  0.87598  Biso   1.000  Hf
  Hf14     1.0000 0.74886  0.74738  0.62520  Biso   1.000  Hf
  Hf15     1.0000 0.74884  0.49995  0.87672  Biso   1.000  Hf
  O25      1.0000 0.99186  0.63008  0.48194  Biso   1.000  O 
  O26      1.0000 0.00099  0.61994  0.73245  Biso   1.000  O 
  O27      1.0000 0.99752  0.87010  0.77389  Biso   1.000  O 
  O28      1.0000 0.99816  0.87942  0.52292  Biso   1.000  O 
  O29      1.0000 0.50586  0.63007  0.76845  Biso   1.000  O 
  O30      1.0000 0.49674  0.61995  0.51794  Biso   1.000  O 
  O31      1.0000 0.50015  0.87011  0.47651  Biso   1.000  O 
  O32      1.0000 0.49950  0.87940  0.72747  Biso   1.000  O 
