data_image0
_cell_length_a       9.94494
_cell_length_b       5.20273
_cell_length_c       9.96617
_cell_angle_alpha    90
_cell_angle_beta     90
_cell_angle_gamma    90

_symmetry_space_group_name_H-M    "P 1"
_symmetry_int_tables_number       1

loop_
  _symmetry_equiv_pos_as_xyz
  'x, y, z'

loop_
  _atom_site_label
  _atom_site_occupancy
  _atom_site_fract_x
  _atom_site_fract_y
  _atom_site_fract_z
  _atom_site_thermal_displace_type
  _atom_site_B_iso_or_equiv
  _atom_site_type_symbol
  Ge1      1.0000 0.11724  0.05084  0.11123  Biso   1.000  Ge
  Hf1      1.0000 0.13971  0.41778  0.37240  Biso   1.000  Hf
  Hf2      1.0000 0.38673  0.52598  0.11092  Biso   1.000  Hf
  Hf3      1.0000 0.36652  0.92083  0.37194  Biso   1.000  Hf
  O1       1.0000 0.03890  0.35720  0.18518  Biso   1.000  O 
  O2       1.0000 0.03430  0.10780  0.45885  Biso   1.000  O 
  O3       1.0000 0.47075  0.86439  0.18934  Biso   1.000  O 
  O4       1.0000 0.47854  0.61590  0.45930  Biso   1.000  O 
  O5       1.0000 0.22859  0.10260  0.25493  Biso   1.000  O 
  O6       1.0000 0.27963  0.22735  0.49899  Biso   1.000  O 
  O7       1.0000 0.23078  0.72634  0.50428  Biso   1.000  O 
  O8       1.0000 0.27651  0.60904  0.26762  Biso   1.000  O 
  Hf4      1.0000 0.14238  0.99998  0.62918  Biso   1.000  Hf
  Hf5      1.0000 0.14018  0.43240  0.88239  Biso   1.000  Hf
  Hf6      1.0000 0.37003  0.50353  0.62898  Biso   1.000  Hf
  Hf7      1.0000 0.36680  0.93507  0.88308  Biso   1.000  Hf
  O9       1.0000 0.04091  0.32929  0.70329  Biso   1.000  O 
  O10      1.0000 0.04186  0.07912  0.94736  Biso   1.000  O 
  O11      1.0000 0.46571  0.84021  0.69947  Biso   1.000  O 
  O12      1.0000 0.46971  0.60129  0.93178  Biso   1.000  O 
  O13      1.0000 0.27695  0.20483  0.75558  Biso   1.000  O 
  O14      1.0000 0.25896  0.28035  0.01012  Biso   1.000  O 
  O15      1.0000 0.22110  0.79369  0.01835  Biso   1.000  O 
  O16      1.0000 0.23325  0.70210  0.75912  Biso   1.000  O 
  Hf8      1.0000 0.63936  0.03532  0.12680  Biso   1.000  Hf
  Hf9      1.0000 0.64111  0.44714  0.37867  Biso   1.000  Hf
  Hf10     1.0000 0.87008  0.53201  0.12126  Biso   1.000  Hf
  Hf11     1.0000 0.87382  0.94701  0.37348  Biso   1.000  Hf
  O17      1.0000 0.54024  0.36137  0.20222  Biso   1.000  O 
  O18      1.0000 0.54077  0.10603  0.43749  Biso   1.000  O 
  O19      1.0000 0.97980  0.86194  0.18809  Biso   1.000  O 
  O20      1.0000 0.96998  0.60191  0.43614  Biso   1.000  O 
  O21      1.0000 0.77929  0.22360  0.24752  Biso   1.000  O 
  O22      1.0000 0.77326  0.23655  0.49753  Biso   1.000  O 
  O23      1.0000 0.74163  0.74023  0.49622  Biso   1.000  O 
  O24      1.0000 0.73693  0.72430  0.24598  Biso   1.000  O 
  Hf12     1.0000 0.63228  0.99242  0.61706  Biso   1.000  Hf
  Hf13     1.0000 0.64336  0.42101  0.86833  Biso   1.000  Hf
  Hf14     1.0000 0.87763  0.49371  0.61917  Biso   1.000  Hf
  Hf15     1.0000 0.86998  0.92068  0.86908  Biso   1.000  Hf
  O25      1.0000 0.54012  0.32971  0.69250  Biso   1.000  O 
  O26      1.0000 0.53297  0.11221  0.95664  Biso   1.000  O 
  O27      1.0000 0.97226  0.82702  0.69277  Biso   1.000  O 
  O28      1.0000 0.96620  0.58352  0.93948  Biso   1.000  O 
  O29      1.0000 0.77204  0.18440  0.74511  Biso   1.000  O 
  O30      1.0000 0.77696  0.21474  0.99559  Biso   1.000  O 
  O31      1.0000 0.73421  0.71627  0.99377  Biso   1.000  O 
  O32      1.0000 0.73730  0.68615  0.74290  Biso   1.000  O 
