data_image0
_cell_length_a       10.2915
_cell_length_b       5.15971
_cell_length_c       10.5123
_cell_angle_alpha    90
_cell_angle_beta     80
_cell_angle_gamma    90

_symmetry_space_group_name_H-M    "P 1"
_symmetry_int_tables_number       1

loop_
  _symmetry_equiv_pos_as_xyz
  'x, y, z'

loop_
  _atom_site_label
  _atom_site_occupancy
  _atom_site_fract_x
  _atom_site_fract_y
  _atom_site_fract_z
  _atom_site_thermal_displace_type
  _atom_site_B_iso_or_equiv
  _atom_site_type_symbol
  Hf1      1.0000 0.13226  0.04008  0.14263  Biso   1.000  Hf
  Hf2      1.0000 0.14680  0.45460  0.39231  Biso   1.000  Hf
  Hf3      1.0000 0.34568  0.53459  0.09724  Biso   1.000  Hf
  Hf4      1.0000 0.36160  0.95762  0.34997  Biso   1.000  Hf
  O1       1.0000 0.03085  0.33558  0.07700  Biso   1.000  O 
  O2       1.0000 0.03752  0.17017  0.32851  Biso   1.000  O 
  O3       1.0000 0.46954  0.86164  0.16293  Biso   1.000  O 
  O4       1.0000 0.48146  0.68135  0.43160  Biso   1.000  O 
  O5       1.0000 0.26625  0.23540  0.23426  Biso   1.000  O 
  O6       1.0000 0.28494  0.24317  0.48552  Biso   1.000  O 
  O7       1.0000 0.21716  0.76267  0.00377  Biso   1.000  O 
  O8       1.0000 0.21986  0.73872  0.25348  Biso   1.000  O 
  Hf5      1.0000 0.14953  0.04061  0.64345  Biso   1.000  Hf
  Hf6      1.0000 0.15071  0.45554  0.89039  Biso   1.000  Hf
  Hf7      1.0000 0.37459  0.54151  0.60333  Biso   1.000  Hf
  Hf8      1.0000 0.37846  0.95405  0.84967  Biso   1.000  Hf
  O9       1.0000 0.04687  0.33071  0.57775  Biso   1.000  O 
  O10      1.0000 0.04651  0.16549  0.82541  Biso   1.000  O 
  O11      1.0000 0.48170  0.82762  0.67267  Biso   1.000  O 
  O12      1.0000 0.48120  0.66614  0.91935  Biso   1.000  O 
  O13      1.0000 0.28658  0.25225  0.73518  Biso   1.000  O 
  O14      1.0000 0.28844  0.24404  0.98232  Biso   1.000  O 
  O15      1.0000 0.23656  0.75426  0.50490  Biso   1.000  O 
  O16      1.0000 0.24019  0.73995  0.75452  Biso   1.000  O 
  Hf9      1.0000 0.64521  0.04150  0.15252  Biso   1.000  Hf
  Hf10     1.0000 0.66112  0.46454  0.40526  Biso   1.000  Hf
  Hf11     1.0000 0.86001  0.54452  0.11018  Biso   1.000  Hf
  Hf12     1.0000 0.87455  0.95905  0.35986  Biso   1.000  Hf
  O17      1.0000 0.52535  0.31779  0.07089  Biso   1.000  O 
  O18      1.0000 0.53727  0.13752  0.33957  Biso   1.000  O 
  O19      1.0000 0.96928  0.82895  0.17398  Biso   1.000  O 
  O20      1.0000 0.97596  0.66355  0.42549  Biso   1.000  O 
  O21      1.0000 0.78695  0.26042  0.24902  Biso   1.000  O 
  O22      1.0000 0.78964  0.23645  0.49872  Biso   1.000  O 
  O23      1.0000 0.72186  0.75596  0.01697  Biso   1.000  O 
  O24      1.0000 0.74055  0.76374  0.26822  Biso   1.000  O 
  Hf13     1.0000 0.64913  0.04285  0.64909  Biso   1.000  Hf
  Hf14     1.0000 0.65299  0.45539  0.89541  Biso   1.000  Hf
  Hf15     1.0000 0.87687  0.54135  0.60836  Biso   1.000  Hf
  Hf16     1.0000 0.87805  0.95629  0.85529  Biso   1.000  Hf
  O25      1.0000 0.54638  0.33076  0.57940  Biso   1.000  O 
  O26      1.0000 0.54588  0.16928  0.82607  Biso   1.000  O 
  O27      1.0000 0.98107  0.83141  0.67335  Biso   1.000  O 
  O28      1.0000 0.98071  0.66619  0.92100  Biso   1.000  O 
  O29      1.0000 0.78740  0.25694  0.74423  Biso   1.000  O 
  O30      1.0000 0.79103  0.24264  0.99386  Biso   1.000  O 
  O31      1.0000 0.73914  0.75286  0.51643  Biso   1.000  O 
  O32      1.0000 0.74100  0.74464  0.76358  Biso   1.000  O 
  Ge1      1.0000 0.50340  0.49955  0.25125  Biso   1.000  Ge
