data_image0
_cell_length_a       10.0024
_cell_length_b       10.1595
_cell_length_c       5.22015
_cell_angle_alpha    90
_cell_angle_beta     90
_cell_angle_gamma    90

_symmetry_space_group_name_H-M    "P 1"
_symmetry_int_tables_number       1

loop_
  _symmetry_equiv_pos_as_xyz
  'x, y, z'

loop_
  _atom_site_label
  _atom_site_occupancy
  _atom_site_fract_x
  _atom_site_fract_y
  _atom_site_fract_z
  _atom_site_thermal_displace_type
  _atom_site_B_iso_or_equiv
  _atom_site_type_symbol
  Ge1      1.0000 0.11721  0.00989  0.36923  Biso   1.000  Ge
  Hf1      1.0000 0.13762  0.22459  0.83016  Biso   1.000  Hf
  Hf2      1.0000 0.35830  0.27009  0.33127  Biso   1.000  Hf
  Hf3      1.0000 0.35790  0.47797  0.84228  Biso   1.000  Hf
  Hf4      1.0000 0.63623  0.02105  0.15536  Biso   1.000  Hf
  Hf5      1.0000 0.63509  0.22862  0.65740  Biso   1.000  Hf
  Hf6      1.0000 0.87069  0.26446  0.16806  Biso   1.000  Hf
  Hf7      1.0000 0.86196  0.47514  0.66654  Biso   1.000  Hf
  O1       1.0000 0.05134  0.14948  0.16956  Biso   1.000  O 
  O2       1.0000 0.02754  0.07984  0.65990  Biso   1.000  O 
  O3       1.0000 0.46899  0.41702  0.16739  Biso   1.000  O 
  O4       1.0000 0.46487  0.33377  0.66438  Biso   1.000  O 
  O5       1.0000 0.26134  0.11163  0.53443  Biso   1.000  O 
  O6       1.0000 0.30515  0.15187  0.02556  Biso   1.000  O 
  O7       1.0000 0.22341  0.37071  0.58927  Biso   1.000  O 
  O8       1.0000 0.22241  0.38440  0.08740  Biso   1.000  O 
  O9       1.0000 0.53365  0.16752  0.32645  Biso   1.000  O 
  O10      1.0000 0.53134  0.07794  0.81823  Biso   1.000  O 
  O11      1.0000 0.97238  0.40946  0.34729  Biso   1.000  O 
  O12      1.0000 0.96547  0.32937  0.84871  Biso   1.000  O 
  O13      1.0000 0.77247  0.12039  0.91570  Biso   1.000  O 
  O14      1.0000 0.77578  0.12418  0.41196  Biso   1.000  O 
  O15      1.0000 0.72313  0.36948  0.91893  Biso   1.000  O 
  O16      1.0000 0.72778  0.37339  0.41484  Biso   1.000  O 
  Hf8      1.0000 0.14191  0.52205  0.34504  Biso   1.000  Hf
  Hf9      1.0000 0.13521  0.73033  0.84631  Biso   1.000  Hf
  Hf10     1.0000 0.36240  0.77720  0.34428  Biso   1.000  Hf
  Hf11     1.0000 0.36041  0.98242  0.84053  Biso   1.000  Hf
  Hf12     1.0000 0.64268  0.51933  0.16024  Biso   1.000  Hf
  Hf13     1.0000 0.63758  0.72623  0.65788  Biso   1.000  Hf
  Hf14     1.0000 0.86523  0.76905  0.16251  Biso   1.000  Hf
  Hf15     1.0000 0.86001  0.97686  0.66486  Biso   1.000  Hf
  O17      1.0000 0.03760  0.66523  0.17172  Biso   1.000  O 
  O18      1.0000 0.03364  0.58377  0.67480  Biso   1.000  O 
  O19      1.0000 0.47284  0.91601  0.16107  Biso   1.000  O 
  O20      1.0000 0.46586  0.83408  0.66640  Biso   1.000  O 
  O21      1.0000 0.27649  0.62488  0.58915  Biso   1.000  O 
  O22      1.0000 0.28252  0.63564  0.08778  Biso   1.000  O 
  O23      1.0000 0.21737  0.87460  0.59339  Biso   1.000  O 
  O24      1.0000 0.22180  0.89937  0.10895  Biso   1.000  O 
  O25      1.0000 0.53514  0.66686  0.33033  Biso   1.000  O 
  O26      1.0000 0.53199  0.58183  0.83134  Biso   1.000  O 
  O27      1.0000 0.97269  0.91357  0.34092  Biso   1.000  O 
  O28      1.0000 0.96341  0.83288  0.84074  Biso   1.000  O 
  O29      1.0000 0.77498  0.62026  0.91523  Biso   1.000  O 
  O30      1.0000 0.77908  0.62362  0.41585  Biso   1.000  O 
  O31      1.0000 0.72103  0.86992  0.91349  Biso   1.000  O 
  O32      1.0000 0.72868  0.87500  0.41341  Biso   1.000  O 
