data_image0
_cell_length_a       5.13861
_cell_length_b       10.339
_cell_length_c       10.5002
_cell_angle_alpha    90
_cell_angle_beta     80
_cell_angle_gamma    90

_symmetry_space_group_name_H-M    "P 1"
_symmetry_int_tables_number       1

loop_
  _symmetry_equiv_pos_as_xyz
  'x, y, z'

loop_
  _atom_site_label
  _atom_site_occupancy
  _atom_site_fract_x
  _atom_site_fract_y
  _atom_site_fract_z
  _atom_site_thermal_displace_type
  _atom_site_B_iso_or_equiv
  _atom_site_type_symbol
  Hf1      1.0000 0.27376  0.01352  0.14869  Biso   1.000  Hf
  Hf2      1.0000 0.33831  0.23433  0.39938  Biso   1.000  Hf
  Hf3      1.0000 0.67989  0.26655  0.10360  Biso   1.000  Hf
  Hf4      1.0000 0.74444  0.48737  0.35430  Biso   1.000  Hf
  O1       1.0000 0.03556  0.15323  0.07176  Biso   1.000  O 
  O2       1.0000 0.07286  0.06926  0.33889  Biso   1.000  O 
  O3       1.0000 0.94538  0.43161  0.16412  Biso   1.000  O 
  O4       1.0000 0.98265  0.34764  0.43122  Biso   1.000  O 
  O5       1.0000 0.54594  0.11227  0.24079  Biso   1.000  O 
  O6       1.0000 0.59283  0.11945  0.49300  Biso   1.000  O 
  O7       1.0000 0.42538  0.38143  0.00999  Biso   1.000  O 
  O8       1.0000 0.47227  0.38862  0.26219  Biso   1.000  O 
  Hf5      1.0000 0.30409  0.02322  0.64482  Biso   1.000  Hf
  Hf6      1.0000 0.30106  0.23010  0.89231  Biso   1.000  Hf
  Hf7      1.0000 0.76340  0.27255  0.60649  Biso   1.000  Hf
  Hf8      1.0000 0.76037  0.47944  0.85398  Biso   1.000  Hf
  O9       1.0000 0.10938  0.17007  0.57557  Biso   1.000  O 
  O10      1.0000 0.09301  0.08756  0.82245  Biso   1.000  O 
  O11      1.0000 0.97144  0.41510  0.67635  Biso   1.000  O 
  O12      1.0000 0.95509  0.33258  0.92323  Biso   1.000  O 
  O13      1.0000 0.57802  0.13015  0.73999  Biso   1.000  O 
  O14      1.0000 0.56894  0.12368  0.98795  Biso   1.000  O 
  O15      1.0000 0.49552  0.37896  0.51086  Biso   1.000  O 
  O16      1.0000 0.48644  0.37250  0.75881  Biso   1.000  O 
  Hf9      1.0000 0.29206  0.52787  0.14681  Biso   1.000  Hf
  Hf10     1.0000 0.29784  0.72890  0.39824  Biso   1.000  Hf
  Hf11     1.0000 0.73269  0.77197  0.10476  Biso   1.000  Hf
  Hf12     1.0000 0.73848  0.97299  0.35617  Biso   1.000  Hf
  O17      1.0000 0.08102  0.67318  0.07937  Biso   1.000  O 
  O18      1.0000 0.08890  0.58891  0.32747  Biso   1.000  O 
  O19      1.0000 0.94164  0.91195  0.17552  Biso   1.000  O 
  O20      1.0000 0.94950  0.82769  0.42362  Biso   1.000  O 
  O21      1.0000 0.57279  0.63315  0.24358  Biso   1.000  O 
  O22      1.0000 0.57269  0.62288  0.49259  Biso   1.000  O 
  O23      1.0000 0.45784  0.87798  0.01040  Biso   1.000  O 
  O24      1.0000 0.45775  0.86771  0.25941  Biso   1.000  O 
  Hf13     1.0000 0.31042  0.52262  0.64806  Biso   1.000  Hf
  Hf14     1.0000 0.32028  0.73009  0.89410  Biso   1.000  Hf
  Hf15     1.0000 0.75651  0.77255  0.60472  Biso   1.000  Hf
  Hf16     1.0000 0.76636  0.98001  0.85075  Biso   1.000  Hf
  O25      1.0000 0.09450  0.66508  0.58111  Biso   1.000  O 
  O26      1.0000 0.10750  0.58427  0.82917  Biso   1.000  O 
  O27      1.0000 0.96929  0.91836  0.66964  Biso   1.000  O 
  O28      1.0000 0.98228  0.83756  0.91771  Biso   1.000  O 
  O29      1.0000 0.58609  0.62893  0.73991  Biso   1.000  O 
  O30      1.0000 0.60431  0.62463  0.98818  Biso   1.000  O 
  O31      1.0000 0.47249  0.87801  0.51063  Biso   1.000  O 
  O32      1.0000 0.49070  0.87370  0.75889  Biso   1.000  O 
  Ge1      1.0000 0.00910  0.25046  0.25149  Biso   1.000  Ge
