data_image0
_cell_length_a       10.1244
_cell_length_b       10.2354
_cell_length_c       10.1574
_cell_angle_alpha    90
_cell_angle_beta     90
_cell_angle_gamma    90

_symmetry_space_group_name_H-M    "P 1"
_symmetry_int_tables_number       1

loop_
  _symmetry_equiv_pos_as_xyz
  'x, y, z'

loop_
  _atom_site_label
  _atom_site_occupancy
  _atom_site_fract_x
  _atom_site_fract_y
  _atom_site_fract_z
  _atom_site_thermal_displace_type
  _atom_site_B_iso_or_equiv
  _atom_site_type_symbol
  Hf1      1.0000 0.12186  0.99389  0.13035  Biso   1.000  Hf
  Hf2      1.0000 0.15589  0.26812  0.37598  Biso   1.000  Hf
  Hf3      1.0000 0.41755  0.22478  0.12516  Biso   1.000  Hf
  Hf4      1.0000 0.41301  0.00941  0.37739  Biso   1.000  Hf
  O1       1.0000 0.05128  0.16935  0.03732  Biso   1.000  O 
  O2       1.0000 0.06351  0.09739  0.28955  Biso   1.000  O 
  O3       1.0000 0.99711  0.35281  0.25891  Biso   1.000  O 
  O4       1.0000 0.04998  0.42328  0.99421  Biso   1.000  O 
  O5       1.0000 0.33242  0.17937  0.31519  Biso   1.000  O 
  O6       1.0000 0.30614  0.06698  0.04981  Biso   1.000  O 
  O7       1.0000 0.36364  0.31853  0.96739  Biso   1.000  O 
  O8       1.0000 0.23270  0.44338  0.28161  Biso   1.000  O 
  Hf5      1.0000 0.15669  0.00807  0.62880  Biso   1.000  Hf
  Hf6      1.0000 0.18255  0.27310  0.85285  Biso   1.000  Hf
  Hf7      1.0000 0.43377  0.24627  0.61561  Biso   1.000  Hf
  Hf8      1.0000 0.42938  0.01370  0.87022  Biso   1.000  Hf
  O9       1.0000 0.07823  0.16849  0.53785  Biso   1.000  O 
  O10      1.0000 0.08430  0.10843  0.78498  Biso   1.000  O 
  O11      1.0000 0.04124  0.36395  0.74578  Biso   1.000  O 
  O12      1.0000 0.03258  0.40859  0.49994  Biso   1.000  O 
  O13      1.0000 0.33001  0.16710  0.77545  Biso   1.000  O 
  O14      1.0000 0.33020  0.09018  0.54294  Biso   1.000  O 
  O15      1.0000 0.28687  0.35658  0.51916  Biso   1.000  O 
  O16      1.0000 0.28218  0.42779  0.76140  Biso   1.000  O 
  Hf9      1.0000 0.09725  0.53014  0.12611  Biso   1.000  Hf
  Hf10     1.0000 0.14275  0.76770  0.38415  Biso   1.000  Hf
  Hf11     1.0000 0.37023  0.76273  0.13388  Biso   1.000  Hf
  Hf12     1.0000 0.38946  0.49589  0.38905  Biso   1.000  Hf
  O17      1.0000 0.03443  0.67124  0.98075  Biso   1.000  O 
  O18      1.0000 0.94564  0.60803  0.22855  Biso   1.000  O 
  O19      1.0000 0.00364  0.85786  0.25210  Biso   1.000  O 
  O20      1.0000 0.98818  0.90507  0.00405  Biso   1.000  O 
  O21      1.0000 0.20684  0.68041  0.21614  Biso   1.000  O 
  O22      1.0000 0.28162  0.60324  0.96789  Biso   1.000  O 
  O23      1.0000 0.23343  0.84194  0.00311  Biso   1.000  O 
  O24      1.0000 0.25933  0.91377  0.26251  Biso   1.000  O 
  Hf13     1.0000 0.15911  0.51163  0.62815  Biso   1.000  Hf
  Hf14     1.0000 0.17759  0.77036  0.87718  Biso   1.000  Hf
  Hf15     1.0000 0.40472  0.76721  0.62885  Biso   1.000  Hf
  Hf16     1.0000 0.43194  0.49982  0.88536  Biso   1.000  Hf
  O25      1.0000 0.99487  0.66006  0.47340  Biso   1.000  O 
  O26      1.0000 0.00885  0.61127  0.72270  Biso   1.000  O 
  O27      1.0000 0.03777  0.86408  0.75131  Biso   1.000  O 
  O28      1.0000 0.02757  0.91009  0.50403  Biso   1.000  O 
  O29      1.0000 0.25559  0.67479  0.72014  Biso   1.000  O 
  O30      1.0000 0.25143  0.61286  0.47801  Biso   1.000  O 
  O31      1.0000 0.27473  0.86076  0.50392  Biso   1.000  O 
  O32      1.0000 0.29149  0.91543  0.75933  Biso   1.000  O 
  Hf17     1.0000 0.62340  0.98265  0.10993  Biso   1.000  Hf
  Hf18     1.0000 0.64808  0.26945  0.35818  Biso   1.000  Hf
  Hf19     1.0000 0.86967  0.26134  0.11782  Biso   1.000  Hf
  Hf20     1.0000 0.88923  0.00324  0.36992  Biso   1.000  Hf
  O33      1.0000 0.61436  0.14722  0.99122  Biso   1.000  O 
  O34      1.0000 0.55203  0.11103  0.24326  Biso   1.000  O 
  O35      1.0000 0.50459  0.36802  0.24769  Biso   1.000  O 
  O36      1.0000 0.57796  0.40547  0.99525  Biso   1.000  O 
  O37      1.0000 0.80382  0.16356  0.28475  Biso   1.000  O 
  O38      1.0000 0.79977  0.08514  0.03767  Biso   1.000  O 
  O39      1.0000 0.82010  0.35179  0.97817  Biso   1.000  O 
  O40      1.0000 0.75102  0.40753  0.22970  Biso   1.000  O 
  Hf21     1.0000 0.65795  0.99716  0.61354  Biso   1.000  Hf
  Hf22     1.0000 0.68213  0.27605  0.85338  Biso   1.000  Hf
  Hf23     1.0000 0.91631  0.26182  0.61648  Biso   1.000  Hf
  Hf24     1.0000 0.91861  0.00610  0.86784  Biso   1.000  Hf
  O41      1.0000 0.56830  0.14596  0.49648  Biso   1.000  O 
  O42      1.0000 0.57226  0.11892  0.74366  Biso   1.000  O 
  O43      1.0000 0.54047  0.37168  0.74377  Biso   1.000  O 
  O44      1.0000 0.53420  0.39395  0.49432  Biso   1.000  O 
  O45      1.0000 0.83222  0.16606  0.77733  Biso   1.000  O 
  O46      1.0000 0.82906  0.09325  0.53418  Biso   1.000  O 
  O47      1.0000 0.78676  0.34651  0.48718  Biso   1.000  O 
  O48      1.0000 0.78952  0.41504  0.72981  Biso   1.000  O 
  Hf25     1.0000 0.60405  0.51538  0.12653  Biso   1.000  Hf
  Hf26     1.0000 0.63597  0.75366  0.37246  Biso   1.000  Hf
  Hf27     1.0000 0.87097  0.76633  0.12754  Biso   1.000  Hf
  Hf28     1.0000 0.89508  0.49173  0.37914  Biso   1.000  Hf
  O49      1.0000 0.46311  0.63765  0.00105  Biso   1.000  O 
  O50      1.0000 0.46973  0.61446  0.24857  Biso   1.000  O 
  O51      1.0000 0.50472  0.86399  0.24665  Biso   1.000  O 
  O52      1.0000 0.56145  0.90126  0.99129  Biso   1.000  O 
  O53      1.0000 0.70414  0.67521  0.19861  Biso   1.000  O 
  O54      1.0000 0.77227  0.60262  0.95245  Biso   1.000  O 
  O55      1.0000 0.80669  0.86096  0.98550  Biso   1.000  O 
  O56      1.0000 0.75783  0.90751  0.24739  Biso   1.000  O 
  Hf29     1.0000 0.64677  0.51840  0.61960  Biso   1.000  Hf
  Hf30     1.0000 0.66727  0.75693  0.86688  Biso   1.000  Hf
  Hf31     1.0000 0.91271  0.76794  0.62302  Biso   1.000  Hf
  Hf32     1.0000 0.92228  0.50489  0.86874  Biso   1.000  Hf
  O57      1.0000 0.50566  0.64858  0.50045  Biso   1.000  O 
  O58      1.0000 0.51950  0.61820  0.74796  Biso   1.000  O 
  O59      1.0000 0.53662  0.86830  0.74498  Biso   1.000  O 
  O60      1.0000 0.52901  0.89696  0.49574  Biso   1.000  O 
  O61      1.0000 0.75447  0.67239  0.70083  Biso   1.000  O 
  O62      1.0000 0.73580  0.59121  0.44939  Biso   1.000  O 
  O63      1.0000 0.77412  0.85076  0.48838  Biso   1.000  O 
  O64      1.0000 0.78885  0.90989  0.74531  Biso   1.000  O 
  Ge1      1.0000 0.17259  0.29728  0.11614  Biso   1.000  Ge
