data_image0
_cell_length_a       10.0032
_cell_length_b       10.1832
_cell_length_c       10.0032
_cell_angle_alpha    90
_cell_angle_beta     90
_cell_angle_gamma    90

_symmetry_space_group_name_H-M    "P 1"
_symmetry_int_tables_number       1

loop_
  _symmetry_equiv_pos_as_xyz
  'x, y, z'

loop_
  _atom_site_label
  _atom_site_occupancy
  _atom_site_fract_x
  _atom_site_fract_y
  _atom_site_fract_z
  _atom_site_thermal_displace_type
  _atom_site_B_iso_or_equiv
  _atom_site_type_symbol
  Ge1      1.0000 0.12505  0.00014  0.12506  Biso   1.000  Ge
  Hf1      1.0000 0.12840  0.25220  0.37514  Biso   1.000  Hf
  Hf2      1.0000 0.37512  0.25221  0.12841  Biso   1.000  Hf
  Hf3      1.0000 0.37349  0.00335  0.37351  Biso   1.000  Hf
  O1       1.0000 0.97893  0.15607  0.97894  Biso   1.000  O 
  O2       1.0000 0.01779  0.09382  0.23232  Biso   1.000  O 
  O3       1.0000 0.00026  0.34828  0.24986  Biso   1.000  O 
  O4       1.0000 0.00022  0.40134  0.00025  Biso   1.000  O 
  O5       1.0000 0.27117  0.15610  0.27118  Biso   1.000  O 
  O6       1.0000 0.23230  0.09383  0.01781  Biso   1.000  O 
  O7       1.0000 0.24983  0.34829  0.00029  Biso   1.000  O 
  O8       1.0000 0.24988  0.40133  0.24990  Biso   1.000  O 
  Hf4      1.0000 0.12504  0.00012  0.62505  Biso   1.000  Hf
  Hf5      1.0000 0.12170  0.25218  0.87500  Biso   1.000  Hf
  Hf6      1.0000 0.37438  0.24810  0.62745  Biso   1.000  Hf
  Hf7      1.0000 0.37353  0.99689  0.87662  Biso   1.000  Hf
  O9       1.0000 0.99211  0.14582  0.48347  Biso   1.000  O 
  O10      1.0000 0.00199  0.10526  0.73887  Biso   1.000  O 
  O11      1.0000 0.99734  0.35465  0.74987  Biso   1.000  O 
  O12      1.0000 0.00225  0.39582  0.50016  Biso   1.000  O 
  O13      1.0000 0.25799  0.14582  0.76666  Biso   1.000  O 
  O14      1.0000 0.24810  0.10528  0.51125  Biso   1.000  O 
  O15      1.0000 0.25279  0.35466  0.50027  Biso   1.000  O 
  O16      1.0000 0.24788  0.39582  0.74998  Biso   1.000  O 
  Hf8      1.0000 0.12506  0.50015  0.12506  Biso   1.000  Hf
  Hf9      1.0000 0.12171  0.74806  0.37515  Biso   1.000  Hf
  Hf10     1.0000 0.37514  0.74807  0.12172  Biso   1.000  Hf
  Hf11     1.0000 0.37706  0.50112  0.37706  Biso   1.000  Hf
  O17      1.0000 0.00027  0.65200  0.00028  Biso   1.000  O 
  O18      1.0000 0.00022  0.59893  0.24989  Biso   1.000  O 
  O19      1.0000 0.97897  0.84417  0.27116  Biso   1.000  O 
  O20      1.0000 0.01782  0.90646  0.01779  Biso   1.000  O 
  O21      1.0000 0.24984  0.65199  0.24984  Biso   1.000  O 
  O22      1.0000 0.24988  0.59895  0.00023  Biso   1.000  O 
  O23      1.0000 0.27120  0.84414  0.97895  Biso   1.000  O 
  O24      1.0000 0.23236  0.90645  0.23232  Biso   1.000  O 
  Hf12     1.0000 0.12507  0.50012  0.62507  Biso   1.000  Hf
  Hf13     1.0000 0.12841  0.74804  0.87500  Biso   1.000  Hf
  Hf14     1.0000 0.37440  0.75214  0.62269  Biso   1.000  Hf
  Hf15     1.0000 0.37706  0.49913  0.87307  Biso   1.000  Hf
  O25      1.0000 0.99734  0.64558  0.50026  Biso   1.000  O 
  O26      1.0000 0.00226  0.60440  0.74998  Biso   1.000  O 
  O27      1.0000 0.99214  0.85440  0.76665  Biso   1.000  O 
  O28      1.0000 0.00203  0.89496  0.51124  Biso   1.000  O 
  O29      1.0000 0.25280  0.64557  0.74986  Biso   1.000  O 
  O30      1.0000 0.24788  0.60442  0.50015  Biso   1.000  O 
  O31      1.0000 0.25801  0.85442  0.48347  Biso   1.000  O 
  O32      1.0000 0.24813  0.89496  0.73888  Biso   1.000  O 
  Hf16     1.0000 0.62505  0.00014  0.12506  Biso   1.000  Hf
  Hf17     1.0000 0.62743  0.24811  0.37440  Biso   1.000  Hf
  Hf18     1.0000 0.87498  0.25222  0.12172  Biso   1.000  Hf
  Hf19     1.0000 0.87664  0.99691  0.37351  Biso   1.000  Hf
  O33      1.0000 0.48346  0.14580  0.99212  Biso   1.000  O 
  O34      1.0000 0.51124  0.10528  0.24812  Biso   1.000  O 
  O35      1.0000 0.50025  0.35466  0.25278  Biso   1.000  O 
  O36      1.0000 0.50013  0.39584  0.00225  Biso   1.000  O 
  O37      1.0000 0.76665  0.14583  0.25800  Biso   1.000  O 
  O38      1.0000 0.73885  0.10530  0.00201  Biso   1.000  O 
  O39      1.0000 0.74986  0.35464  0.99733  Biso   1.000  O 
  O40      1.0000 0.74997  0.39583  0.24787  Biso   1.000  O 
  Hf20     1.0000 0.62505  0.00012  0.62506  Biso   1.000  Hf
  Hf21     1.0000 0.62266  0.24809  0.87574  Biso   1.000  Hf
  Hf22     1.0000 0.87572  0.24811  0.62269  Biso   1.000  Hf
  Hf23     1.0000 0.87660  0.00333  0.87661  Biso   1.000  Hf
  O41      1.0000 0.49374  0.14701  0.49376  Biso   1.000  O 
  O42      1.0000 0.50341  0.10337  0.74670  Biso   1.000  O 
  O43      1.0000 0.49723  0.35362  0.75290  Biso   1.000  O 
  O44      1.0000 0.50198  0.39591  0.50197  Biso   1.000  O 
  O45      1.0000 0.75635  0.14700  0.75637  Biso   1.000  O 
  O46      1.0000 0.74668  0.10338  0.50343  Biso   1.000  O 
  O47      1.0000 0.75291  0.35362  0.49722  Biso   1.000  O 
  O48      1.0000 0.74815  0.39590  0.74814  Biso   1.000  O 
  Hf24     1.0000 0.62506  0.50014  0.12506  Biso   1.000  Hf
  Hf25     1.0000 0.62269  0.75214  0.37441  Biso   1.000  Hf
  Hf26     1.0000 0.87499  0.74806  0.12842  Biso   1.000  Hf
  Hf27     1.0000 0.87307  0.49913  0.37705  Biso   1.000  Hf
  O49      1.0000 0.50026  0.64556  0.99733  Biso   1.000  O 
  O50      1.0000 0.50014  0.60442  0.24788  Biso   1.000  O 
  O51      1.0000 0.48348  0.85442  0.25802  Biso   1.000  O 
  O52      1.0000 0.51126  0.89499  0.00202  Biso   1.000  O 
  O53      1.0000 0.74986  0.64559  0.25279  Biso   1.000  O 
  O54      1.0000 0.74997  0.60444  0.00225  Biso   1.000  O 
  O55      1.0000 0.76668  0.85440  0.99212  Biso   1.000  O 
  O56      1.0000 0.73889  0.89497  0.24812  Biso   1.000  O 
  Hf28     1.0000 0.62506  0.50012  0.62506  Biso   1.000  Hf
  Hf29     1.0000 0.62745  0.75212  0.87574  Biso   1.000  Hf
  Hf30     1.0000 0.87573  0.75213  0.62745  Biso   1.000  Hf
  Hf31     1.0000 0.87307  0.50110  0.87307  Biso   1.000  Hf
  O57      1.0000 0.49723  0.64661  0.49722  Biso   1.000  O 
  O58      1.0000 0.50199  0.60432  0.74814  Biso   1.000  O 
  O59      1.0000 0.49377  0.85322  0.75638  Biso   1.000  O 
  O60      1.0000 0.50345  0.89686  0.50344  Biso   1.000  O 
  O61      1.0000 0.75291  0.64660  0.75291  Biso   1.000  O 
  O62      1.0000 0.74815  0.60432  0.50198  Biso   1.000  O 
  O63      1.0000 0.75638  0.85323  0.49376  Biso   1.000  O 
  O64      1.0000 0.74671  0.89684  0.74670  Biso   1.000  O 
