data_image0
_cell_length_a       10.2886
_cell_length_b       5.2502
_cell_length_c       10.3304
_cell_angle_alpha    90
_cell_angle_beta     90
_cell_angle_gamma    90

_symmetry_space_group_name_H-M    "P 1"
_symmetry_int_tables_number       1

loop_
  _symmetry_equiv_pos_as_xyz
  'x, y, z'

loop_
  _atom_site_label
  _atom_site_occupancy
  _atom_site_fract_x
  _atom_site_fract_y
  _atom_site_fract_z
  _atom_site_thermal_displace_type
  _atom_site_B_iso_or_equiv
  _atom_site_type_symbol
  Hf1      1.0000 0.08783  0.05322  0.14111  Biso   1.000  Hf
  Hf2      1.0000 0.05373  0.53356  0.35854  Biso   1.000  Hf
  Hf3      1.0000 0.35997  0.42789  0.10874  Biso   1.000  Hf
  Hf4      1.0000 0.29840  0.92701  0.40063  Biso   1.000  Hf
  O1       1.0000 0.99940  0.27696  0.99708  Biso   1.000  O 
  O2       1.0000 0.94464  0.24162  0.25657  Biso   1.000  O 
  O3       1.0000 0.89435  0.72803  0.24702  Biso   1.000  O 
  O4       1.0000 0.93846  0.76627  0.99396  Biso   1.000  O 
  O5       1.0000 0.18267  0.37563  0.21914  Biso   1.000  O 
  O6       1.0000 0.26513  0.10548  0.03071  Biso   1.000  O 
  O7       1.0000 0.23237  0.56035  0.94217  Biso   1.000  O 
  O8       1.0000 0.12485  0.89913  0.30765  Biso   1.000  O 
  Hf5      1.0000 0.11036  0.03788  0.64691  Biso   1.000  Hf
  Hf6      1.0000 0.05881  0.53246  0.84919  Biso   1.000  Hf
  Hf7      1.0000 0.34466  0.44012  0.60290  Biso   1.000  Hf
  Hf8      1.0000 0.30347  0.92593  0.89128  Biso   1.000  Hf
  O9       1.0000 0.00042  0.26086  0.49807  Biso   1.000  O 
  O10      1.0000 0.95376  0.22446  0.75331  Biso   1.000  O 
  O11      1.0000 0.90425  0.71648  0.74296  Biso   1.000  O 
  O12      1.0000 0.95229  0.75208  0.50310  Biso   1.000  O 
  O13      1.0000 0.17457  0.39856  0.70276  Biso   1.000  O 
  O14      1.0000 0.28044  0.07942  0.54707  Biso   1.000  O 
  O15      1.0000 0.22725  0.57024  0.45796  Biso   1.000  O 
  O16      1.0000 0.12997  0.88921  0.79186  Biso   1.000  O 
  Hf9      1.0000 0.61010  0.02080  0.14786  Biso   1.000  Hf
  Hf10     1.0000 0.56573  0.51863  0.35699  Biso   1.000  Hf
  Hf11     1.0000 0.83769  0.46032  0.10199  Biso   1.000  Hf
  Hf12     1.0000 0.79611  0.94051  0.39750  Biso   1.000  Hf
  O17      1.0000 0.51037  0.23641  0.99325  Biso   1.000  O 
  O18      1.0000 0.45560  0.20106  0.25274  Biso   1.000  O 
  O19      1.0000 0.41876  0.69322  0.25586  Biso   1.000  O 
  O20      1.0000 0.45565  0.73456  0.00282  Biso   1.000  O 
  O21      1.0000 0.67299  0.39144  0.20642  Biso   1.000  O 
  O22      1.0000 0.77479  0.08969  0.04342  Biso   1.000  O 
  O23      1.0000 0.72592  0.57351  0.95594  Biso   1.000  O 
  O24      1.0000 0.63129  0.88600  0.29388  Biso   1.000  O 
  Hf13     1.0000 0.60958  0.03335  0.64550  Biso   1.000  Hf
  Hf14     1.0000 0.56110  0.51897  0.85233  Biso   1.000  Hf
  Hf15     1.0000 0.84542  0.44466  0.60432  Biso   1.000  Hf
  Hf16     1.0000 0.79147  0.94087  0.89284  Biso   1.000  Hf
  O25      1.0000 0.50124  0.25355  0.49652  Biso   1.000  O 
  O26      1.0000 0.45458  0.21716  0.75175  Biso   1.000  O 
  O27      1.0000 0.40492  0.70740  0.74672  Biso   1.000  O 
  O28      1.0000 0.45297  0.74300  0.50687  Biso   1.000  O 
  O29      1.0000 0.67919  0.39113  0.70770  Biso   1.000  O 
  O30      1.0000 0.77581  0.08688  0.54213  Biso   1.000  O 
  O31      1.0000 0.73028  0.58013  0.46057  Biso   1.000  O 
  O32      1.0000 0.62694  0.87935  0.78925  Biso   1.000  O 
  Ge1      1.0000 0.17500  0.73128  0.12493  Biso   1.000  Ge
