data_image0
_cell_length_a       9.9778
_cell_length_b       10.4111
_cell_length_c       10.0649
_cell_angle_alpha    90
_cell_angle_beta     90
_cell_angle_gamma    90

_symmetry_space_group_name_H-M    "P 1"
_symmetry_int_tables_number       1

loop_
  _symmetry_equiv_pos_as_xyz
  'x, y, z'

loop_
  _atom_site_label
  _atom_site_occupancy
  _atom_site_fract_x
  _atom_site_fract_y
  _atom_site_fract_z
  _atom_site_thermal_displace_type
  _atom_site_B_iso_or_equiv
  _atom_site_type_symbol
  Hf1      1.0000 0.13739  0.01629  0.11765  Biso   1.000  Hf
  Hf2      1.0000 0.12235  0.22960  0.39323  Biso   1.000  Hf
  Hf3      1.0000 0.36352  0.26185  0.11762  Biso   1.000  Hf
  Hf4      1.0000 0.35939  0.48673  0.37349  Biso   1.000  Hf
  O1       1.0000 0.00235  0.17573  0.22723  Biso   1.000  O 
  O2       1.0000 0.03431  0.05868  0.44657  Biso   1.000  O 
  O3       1.0000 0.44773  0.43414  0.19360  Biso   1.000  O 
  O4       1.0000 0.45133  0.31702  0.44330  Biso   1.000  O 
  O5       1.0000 0.26043  0.11762  0.25097  Biso   1.000  O 
  O6       1.0000 0.26816  0.13045  0.50044  Biso   1.000  O 
  O7       1.0000 0.21988  0.38559  0.49274  Biso   1.000  O 
  O8       1.0000 0.19707  0.35695  0.23528  Biso   1.000  O 
  Hf5      1.0000 0.12941  0.01017  0.62476  Biso   1.000  Hf
  Hf6      1.0000 0.12592  0.22839  0.85530  Biso   1.000  Hf
  Hf7      1.0000 0.35906  0.26844  0.62442  Biso   1.000  Hf
  Hf8      1.0000 0.35165  0.48915  0.87192  Biso   1.000  Hf
  O9       1.0000 0.04050  0.18366  0.66779  Biso   1.000  O 
  O10      1.0000 0.02957  0.06364  0.93479  Biso   1.000  O 
  O11      1.0000 0.44848  0.43768  0.69213  Biso   1.000  O 
  O12      1.0000 0.45479  0.31954  0.94276  Biso   1.000  O 
  O13      1.0000 0.26427  0.11596  0.74559  Biso   1.000  O 
  O14      1.0000 0.28050  0.12270  0.98980  Biso   1.000  O 
  O15      1.0000 0.22075  0.39309  0.99238  Biso   1.000  O 
  O16      1.0000 0.21599  0.37053  0.74155  Biso   1.000  O 
  Hf9      1.0000 0.11514  0.52547  0.12407  Biso   1.000  Hf
  Hf10     1.0000 0.12094  0.73686  0.37536  Biso   1.000  Hf
  Hf11     1.0000 0.35433  0.76515  0.12675  Biso   1.000  Hf
  Hf12     1.0000 0.35061  0.98470  0.37461  Biso   1.000  Hf
  O17      1.0000 0.02495  0.68844  0.19357  Biso   1.000  O 
  O18      1.0000 0.02586  0.57213  0.44126  Biso   1.000  O 
  O19      1.0000 0.45181  0.93423  0.19552  Biso   1.000  O 
  O20      1.0000 0.45018  0.81712  0.44461  Biso   1.000  O 
  O21      1.0000 0.25662  0.61547  0.24997  Biso   1.000  O 
  O22      1.0000 0.25804  0.63496  0.49867  Biso   1.000  O 
  O23      1.0000 0.21658  0.88222  0.49818  Biso   1.000  O 
  O24      1.0000 0.21892  0.86695  0.24811  Biso   1.000  O 
  Hf13     1.0000 0.12096  0.52099  0.62016  Biso   1.000  Hf
  Hf14     1.0000 0.11302  0.73824  0.87398  Biso   1.000  Hf
  Hf15     1.0000 0.35301  0.76704  0.62544  Biso   1.000  Hf
  Hf16     1.0000 0.35128  0.98124  0.87440  Biso   1.000  Hf
  O25      1.0000 0.02343  0.69031  0.69194  Biso   1.000  O 
  O26      1.0000 0.01428  0.56688  0.94202  Biso   1.000  O 
  O27      1.0000 0.45008  0.93364  0.69373  Biso   1.000  O 
  O28      1.0000 0.44576  0.81748  0.95006  Biso   1.000  O 
  O29      1.0000 0.25355  0.62009  0.74947  Biso   1.000  O 
  O30      1.0000 0.24570  0.63881  0.99942  Biso   1.000  O 
  O31      1.0000 0.20742  0.88407  0.99878  Biso   1.000  O 
  O32      1.0000 0.21617  0.86670  0.74969  Biso   1.000  O 
  Hf17     1.0000 0.63042  0.01630  0.12726  Biso   1.000  Hf
  Hf18     1.0000 0.62356  0.23199  0.38866  Biso   1.000  Hf
  Hf19     1.0000 0.83316  0.27380  0.14991  Biso   1.000  Hf
  Hf20     1.0000 0.85306  0.48734  0.39006  Biso   1.000  Hf
  O33      1.0000 0.52995  0.18339  0.19532  Biso   1.000  O 
  O34      1.0000 0.52924  0.06610  0.44936  Biso   1.000  O 
  O35      1.0000 0.93734  0.44745  0.21105  Biso   1.000  O 
  O36      1.0000 0.95291  0.31834  0.45088  Biso   1.000  O 
  O37      1.0000 0.75416  0.11921  0.26106  Biso   1.000  O 
  O38      1.0000 0.76744  0.13455  0.50825  Biso   1.000  O 
  O39      1.0000 0.71516  0.38030  0.50885  Biso   1.000  O 
  O40      1.0000 0.70338  0.37583  0.26301  Biso   1.000  O 
  Hf21     1.0000 0.63060  0.01902  0.62918  Biso   1.000  Hf
  Hf22     1.0000 0.62488  0.23583  0.87837  Biso   1.000  Hf
  Hf23     1.0000 0.86150  0.27391  0.64024  Biso   1.000  Hf
  Hf24     1.0000 0.84836  0.48453  0.86968  Biso   1.000  Hf
  O41      1.0000 0.52826  0.18677  0.69399  Biso   1.000  O 
  O42      1.0000 0.53433  0.06546  0.94016  Biso   1.000  O 
  O43      1.0000 0.93738  0.45767  0.66875  Biso   1.000  O 
  O44      1.0000 0.93827  0.30793  0.85357  Biso   1.000  O 
  O45      1.0000 0.76188  0.12056  0.75656  Biso   1.000  O 
  O46      1.0000 0.77689  0.13586  0.01028  Biso   1.000  O 
  O47      1.0000 0.73580  0.38292  0.00680  Biso   1.000  O 
  O48      1.0000 0.70593  0.37616  0.75407  Biso   1.000  O 
  Hf25     1.0000 0.62393  0.52094  0.13043  Biso   1.000  Hf
  Hf26     1.0000 0.62205  0.73752  0.37849  Biso   1.000  Hf
  Hf27     1.0000 0.85354  0.76869  0.12930  Biso   1.000  Hf
  Hf28     1.0000 0.85271  0.98667  0.37681  Biso   1.000  Hf
  O49      1.0000 0.52287  0.68262  0.19924  Biso   1.000  O 
  O50      1.0000 0.52196  0.56804  0.44723  Biso   1.000  O 
  O51      1.0000 0.95312  0.93667  0.19237  Biso   1.000  O 
  O52      1.0000 0.94918  0.81730  0.44568  Biso   1.000  O 
  O53      1.0000 0.75695  0.62288  0.25719  Biso   1.000  O 
  O54      1.0000 0.75331  0.63666  0.50564  Biso   1.000  O 
  O55      1.0000 0.71623  0.88609  0.50188  Biso   1.000  O 
  O56      1.0000 0.71693  0.87052  0.25197  Biso   1.000  O 
  Hf29     1.0000 0.62084  0.51901  0.62933  Biso   1.000  Hf
  Hf30     1.0000 0.61638  0.73723  0.87893  Biso   1.000  Hf
  Hf31     1.0000 0.85132  0.77072  0.62875  Biso   1.000  Hf
  Hf32     1.0000 0.84415  0.98601  0.88034  Biso   1.000  Hf
  O57      1.0000 0.51950  0.68458  0.69940  Biso   1.000  O 
  O58      1.0000 0.51647  0.57031  0.94860  Biso   1.000  O 
  O59      1.0000 0.94711  0.93681  0.69947  Biso   1.000  O 
  O60      1.0000 0.94142  0.81623  0.94596  Biso   1.000  O 
  O61      1.0000 0.75474  0.62357  0.75462  Biso   1.000  O 
  O62      1.0000 0.76191  0.63257  0.00553  Biso   1.000  O 
  O63      1.0000 0.72255  0.88279  0.00322  Biso   1.000  O 
  O64      1.0000 0.71290  0.87056  0.75259  Biso   1.000  O 
  Ge1      1.0000 0.08612  0.27535  0.09764  Biso   1.000  Ge
