data_image0
_cell_length_a       4.96264
_cell_length_b       10.3881
_cell_length_c       9.97632
_cell_angle_alpha    90
_cell_angle_beta     90
_cell_angle_gamma    90

_symmetry_space_group_name_H-M    "P 1"
_symmetry_int_tables_number       1

loop_
  _symmetry_equiv_pos_as_xyz
  'x, y, z'

loop_
  _atom_site_label
  _atom_site_occupancy
  _atom_site_fract_x
  _atom_site_fract_y
  _atom_site_fract_z
  _atom_site_thermal_displace_type
  _atom_site_B_iso_or_equiv
  _atom_site_type_symbol
  Ge1      1.0000 0.24302  0.02903  0.11100  Biso   1.000  Ge
  Hf1      1.0000 0.27708  0.22124  0.37271  Biso   1.000  Hf
  Hf2      1.0000 0.73246  0.26207  0.11916  Biso   1.000  Hf
  Hf3      1.0000 0.74247  0.47476  0.37527  Biso   1.000  Hf
  O1       1.0000 0.06251  0.17492  0.19339  Biso   1.000  O 
  O2       1.0000 0.08439  0.05850  0.44855  Biso   1.000  O 
  O3       1.0000 0.93491  0.42523  0.19447  Biso   1.000  O 
  O4       1.0000 0.94189  0.30675  0.44246  Biso   1.000  O 
  O5       1.0000 0.51156  0.09102  0.23759  Biso   1.000  O 
  O6       1.0000 0.56050  0.12462  0.49188  Biso   1.000  O 
  O7       1.0000 0.47042  0.37333  0.49766  Biso   1.000  O 
  O8       1.0000 0.46733  0.35288  0.24647  Biso   1.000  O 
  Hf4      1.0000 0.28111  0.00602  0.62393  Biso   1.000  Hf
  Hf5      1.0000 0.28541  0.22593  0.87077  Biso   1.000  Hf
  Hf6      1.0000 0.74719  0.25646  0.62189  Biso   1.000  Hf
  Hf7      1.0000 0.74819  0.47543  0.87324  Biso   1.000  Hf
  O9       1.0000 0.08635  0.17473  0.69473  Biso   1.000  O 
  O10      1.0000 0.08115  0.05748  0.95350  Biso   1.000  O 
  O11      1.0000 0.94289  0.42413  0.69342  Biso   1.000  O 
  O12      1.0000 0.94533  0.30505  0.94104  Biso   1.000  O 
  O13      1.0000 0.55736  0.10694  0.74652  Biso   1.000  O 
  O14      1.0000 0.54421  0.12286  0.99611  Biso   1.000  O 
  O15      1.0000 0.48153  0.37159  0.99588  Biso   1.000  O 
  O16      1.0000 0.47507  0.35811  0.74671  Biso   1.000  O 
  Hf8      1.0000 0.26678  0.51310  0.12724  Biso   1.000  Hf
  Hf9      1.0000 0.28195  0.72690  0.37825  Biso   1.000  Hf
  Hf10     1.0000 0.74606  0.76070  0.12478  Biso   1.000  Hf
  Hf11     1.0000 0.73827  0.97529  0.37011  Biso   1.000  Hf
  O17      1.0000 0.07556  0.67905  0.20043  Biso   1.000  O 
  O18      1.0000 0.08251  0.55716  0.44545  Biso   1.000  O 
  O19      1.0000 0.97381  0.93049  0.19267  Biso   1.000  O 
  O20      1.0000 0.94903  0.81206  0.45288  Biso   1.000  O 
  O21      1.0000 0.54508  0.60075  0.24879  Biso   1.000  O 
  O22      1.0000 0.55478  0.62530  0.50092  Biso   1.000  O 
  O23      1.0000 0.47441  0.87626  0.50444  Biso   1.000  O 
  O24      1.0000 0.51792  0.84133  0.26280  Biso   1.000  O 
  Hf12     1.0000 0.28166  0.50812  0.62425  Biso   1.000  Hf
  Hf13     1.0000 0.27682  0.72422  0.87971  Biso   1.000  Hf
  Hf14     1.0000 0.74535  0.75979  0.62839  Biso   1.000  Hf
  Hf15     1.0000 0.72905  0.97421  0.87959  Biso   1.000  Hf
  O25      1.0000 0.08150  0.67340  0.69933  Biso   1.000  O 
  O26      1.0000 0.08124  0.55686  0.95097  Biso   1.000  O 
  O27      1.0000 0.93694  0.92575  0.70122  Biso   1.000  O 
  O28      1.0000 0.92783  0.80642  0.94087  Biso   1.000  O 
  O29      1.0000 0.55032  0.60852  0.75133  Biso   1.000  O 
  O30      1.0000 0.52414  0.63927  0.00057  Biso   1.000  O 
  O31      1.0000 0.42735  0.89759  0.01681  Biso   1.000  O 
  O32      1.0000 0.46634  0.85760  0.75657  Biso   1.000  O 
