data_image0
_cell_length_a       5.10145
_cell_length_b       10.3079
_cell_length_c       10.1182
_cell_angle_alpha    90
_cell_angle_beta     90
_cell_angle_gamma    90

_symmetry_space_group_name_H-M    "P 1"
_symmetry_int_tables_number       1

loop_
  _symmetry_equiv_pos_as_xyz
  'x, y, z'

loop_
  _atom_site_label
  _atom_site_occupancy
  _atom_site_fract_x
  _atom_site_fract_y
  _atom_site_fract_z
  _atom_site_thermal_displace_type
  _atom_site_B_iso_or_equiv
  _atom_site_type_symbol
  Hf1      1.0000 0.22631  0.98399  0.12447  Biso   1.000  Hf
  Hf2      1.0000 0.10856  0.25058  0.37307  Biso   1.000  Hf
  Hf3      1.0000 0.72632  0.20648  0.12447  Biso   1.000  Hf
  Hf4      1.0000 0.63833  0.01085  0.38781  Biso   1.000  Hf
  O1       1.0000 0.84825  0.13746  0.98834  Biso   1.000  O 
  O2       1.0000 0.93221  0.08245  0.25853  Biso   1.000  O 
  O3       1.0000 0.77025  0.33433  0.28086  Biso   1.000  O 
  O4       1.0000 0.96084  0.42398  0.98614  Biso   1.000  O 
  O5       1.0000 0.41625  0.13745  0.25607  Biso   1.000  O 
  O6       1.0000 0.33228  0.08247  0.98590  Biso   1.000  O 
  O7       1.0000 0.49425  0.33435  0.96357  Biso   1.000  O 
  O8       1.0000 0.30367  0.42397  0.25828  Biso   1.000  O 
  Hf5      1.0000 0.13221  0.00139  0.62221  Biso   1.000  Hf
  Hf6      1.0000 0.15594  0.25061  0.87138  Biso   1.000  Hf
  Hf7      1.0000 0.63225  0.25898  0.62223  Biso   1.000  Hf
  Hf8      1.0000 0.62612  0.01085  0.85661  Biso   1.000  Hf
  O9       1.0000 0.86485  0.14619  0.50031  Biso   1.000  O 
  O10      1.0000 0.90343  0.10624  0.74475  Biso   1.000  O 
  O11      1.0000 0.87824  0.35356  0.75089  Biso   1.000  O 
  O12      1.0000 0.88653  0.39467  0.50299  Biso   1.000  O 
  O13      1.0000 0.39955  0.14619  0.74410  Biso   1.000  O 
  O14      1.0000 0.36094  0.10622  0.49965  Biso   1.000  O 
  O15      1.0000 0.38626  0.35354  0.49355  Biso   1.000  O 
  O16      1.0000 0.37797  0.39468  0.74144  Biso   1.000  O 
  Hf9      1.0000 0.22630  0.56994  0.12446  Biso   1.000  Hf
  Hf10     1.0000 0.14556  0.74052  0.39271  Biso   1.000  Hf
  Hf11     1.0000 0.72630  0.76127  0.12446  Biso   1.000  Hf
  Hf12     1.0000 0.63458  0.49655  0.36991  Biso   1.000  Hf
  O17      1.0000 0.81959  0.66296  0.98097  Biso   1.000  O 
  O18      1.0000 0.90899  0.60236  0.24510  Biso   1.000  O 
  O19      1.0000 0.04713  0.83439  0.23131  Biso   1.000  O 
  O20      1.0000 0.91161  0.90526  0.01535  Biso   1.000  O 
  O21      1.0000 0.44492  0.66294  0.26344  Biso   1.000  O 
  O22      1.0000 0.54359  0.60237  0.00380  Biso   1.000  O 
  O23      1.0000 0.40550  0.83441  0.01760  Biso   1.000  O 
  O24      1.0000 0.54099  0.90526  0.23357  Biso   1.000  O 
  Hf13     1.0000 0.13226  0.49128  0.62220  Biso   1.000  Hf
  Hf14     1.0000 0.11899  0.74052  0.85170  Biso   1.000  Hf
  Hf15     1.0000 0.63229  0.74390  0.62220  Biso   1.000  Hf
  Hf16     1.0000 0.62995  0.49656  0.87450  Biso   1.000  Hf
  O25      1.0000 0.86335  0.64139  0.49383  Biso   1.000  O 
  O26      1.0000 0.89351  0.60213  0.74095  Biso   1.000  O 
  O27      1.0000 0.85427  0.85611  0.74927  Biso   1.000  O 
  O28      1.0000 0.91079  0.89056  0.49332  Biso   1.000  O 
  O29      1.0000 0.40120  0.64139  0.75058  Biso   1.000  O 
  O30      1.0000 0.37103  0.60213  0.50346  Biso   1.000  O 
  O31      1.0000 0.41027  0.85610  0.49515  Biso   1.000  O 
  O32      1.0000 0.35373  0.89056  0.75109  Biso   1.000  O 
  Ge1      1.0000 0.22633  0.29024  0.12449  Biso   1.000  Ge
