data_image0
_cell_length_a       10.0326
_cell_length_b       5.03388
_cell_length_c       10.0326
_cell_angle_alpha    90
_cell_angle_beta     90
_cell_angle_gamma    90

_symmetry_space_group_name_H-M    "P 1"
_symmetry_int_tables_number       1

loop_
  _symmetry_equiv_pos_as_xyz
  'x, y, z'

loop_
  _atom_site_label
  _atom_site_occupancy
  _atom_site_fract_x
  _atom_site_fract_y
  _atom_site_fract_z
  _atom_site_thermal_displace_type
  _atom_site_B_iso_or_equiv
  _atom_site_type_symbol
  H1       1.0000 0.06332  0.92099  0.06624  Biso   1.000  H 
  Hf1      1.0000 0.12308  0.48777  0.36893  Biso   1.000  Hf
  Hf2      1.0000 0.36710  0.49064  0.12569  Biso   1.000  Hf
  Hf3      1.0000 0.36822  0.98848  0.37231  Biso   1.000  Hf
  O1       1.0000 0.97985  0.30490  0.98388  Biso   1.000  O 
  O2       1.0000 0.99473  0.23247  0.25279  Biso   1.000  O 
  O3       1.0000 0.98841  0.71388  0.26320  Biso   1.000  O 
  O4       1.0000 0.00731  0.80697  0.00972  Biso   1.000  O 
  O5       1.0000 0.25622  0.26577  0.25781  Biso   1.000  O 
  O6       1.0000 0.24895  0.22370  0.99620  Biso   1.000  O 
  O7       1.0000 0.25794  0.70531  0.99133  Biso   1.000  O 
  O8       1.0000 0.25225  0.74493  0.25525  Biso   1.000  O 
  Hf4      1.0000 0.12469  0.99309  0.62664  Biso   1.000  Hf
  Hf5      1.0000 0.12299  0.49176  0.87861  Biso   1.000  Hf
  Hf6      1.0000 0.37239  0.49223  0.62531  Biso   1.000  Hf
  Hf7      1.0000 0.37270  0.99218  0.87901  Biso   1.000  Hf
  O9       1.0000 0.99729  0.27705  0.50022  Biso   1.000  O 
  O10      1.0000 0.99950  0.20978  0.74515  Biso   1.000  O 
  O11      1.0000 0.99260  0.71138  0.75927  Biso   1.000  O 
  O12      1.0000 0.99556  0.77782  0.50760  Biso   1.000  O 
  O13      1.0000 0.24909  0.27544  0.75136  Biso   1.000  O 
  O14      1.0000 0.24802  0.21065  0.50240  Biso   1.000  O 
  O15      1.0000 0.24677  0.71146  0.50065  Biso   1.000  O 
  O16      1.0000 0.24590  0.77574  0.74725  Biso   1.000  O 
  Hf8      1.0000 0.62626  0.99899  0.12666  Biso   1.000  Hf
  Hf9      1.0000 0.62266  0.49517  0.37583  Biso   1.000  Hf
  Hf10     1.0000 0.87677  0.50062  0.12725  Biso   1.000  Hf
  Hf11     1.0000 0.87785  0.99811  0.37547  Biso   1.000  Hf
  O17      1.0000 0.49624  0.27115  0.99967  Biso   1.000  O 
  O18      1.0000 0.50098  0.21363  0.25022  Biso   1.000  O 
  O19      1.0000 0.49776  0.71440  0.25047  Biso   1.000  O 
  O20      1.0000 0.50212  0.77202  0.99946  Biso   1.000  O 
  O21      1.0000 0.74976  0.28132  0.25229  Biso   1.000  O 
  O22      1.0000 0.74453  0.21854  0.00251  Biso   1.000  O 
  O23      1.0000 0.75400  0.70857  0.99710  Biso   1.000  O 
  O24      1.0000 0.74417  0.78158  0.25056  Biso   1.000  O 
  Hf12     1.0000 0.62329  0.99409  0.62525  Biso   1.000  Hf
  Hf13     1.0000 0.62246  0.49441  0.87721  Biso   1.000  Hf
  Hf14     1.0000 0.87376  0.49736  0.62671  Biso   1.000  Hf
  Hf15     1.0000 0.87362  0.00301  0.87641  Biso   1.000  Hf
  O25      1.0000 0.49701  0.27725  0.49940  Biso   1.000  O 
  O26      1.0000 0.49966  0.20807  0.74962  Biso   1.000  O 
  O27      1.0000 0.49548  0.70662  0.75140  Biso   1.000  O 
  O28      1.0000 0.49708  0.77614  0.50098  Biso   1.000  O 
  O29      1.0000 0.75126  0.28261  0.75449  Biso   1.000  O 
  O30      1.0000 0.74743  0.21098  0.50267  Biso   1.000  O 
  O31      1.0000 0.74772  0.70958  0.49996  Biso   1.000  O 
  O32      1.0000 0.74431  0.78361  0.74899  Biso   1.000  O 
