data_image0
_cell_length_a       10.0364
_cell_length_b       10.2307
_cell_length_c       5.23757
_cell_angle_alpha    90
_cell_angle_beta     90
_cell_angle_gamma    90

_symmetry_space_group_name_H-M    "P 1"
_symmetry_int_tables_number       1

loop_
  _symmetry_equiv_pos_as_xyz
  'x, y, z'

loop_
  _atom_site_label
  _atom_site_occupancy
  _atom_site_fract_x
  _atom_site_fract_y
  _atom_site_fract_z
  _atom_site_thermal_displace_type
  _atom_site_B_iso_or_equiv
  _atom_site_type_symbol
  Hf1      1.0000 0.14060  0.02009  0.34548  Biso   1.000  Hf
  Hf2      1.0000 0.13814  0.22663  0.84991  Biso   1.000  Hf
  Hf3      1.0000 0.34585  0.27728  0.35485  Biso   1.000  Hf
  Hf4      1.0000 0.35952  0.47846  0.84690  Biso   1.000  Hf
  Hf5      1.0000 0.64535  0.01375  0.14734  Biso   1.000  Hf
  Hf6      1.0000 0.64209  0.23182  0.66140  Biso   1.000  Hf
  Hf7      1.0000 0.86407  0.27094  0.15908  Biso   1.000  Hf
  Hf8      1.0000 0.86169  0.47817  0.65775  Biso   1.000  Hf
  O1       1.0000 0.03509  0.16636  0.17447  Biso   1.000  O 
  O2       1.0000 0.03189  0.08500  0.66562  Biso   1.000  O 
  O3       1.0000 0.47108  0.40805  0.16258  Biso   1.000  O 
  O4       1.0000 0.46474  0.33291  0.66485  Biso   1.000  O 
  O5       1.0000 0.27918  0.12353  0.59306  Biso   1.000  O 
  O6       1.0000 0.27985  0.12675  0.09860  Biso   1.000  O 
  O7       1.0000 0.21568  0.37526  0.60590  Biso   1.000  O 
  O8       1.0000 0.21864  0.37849  0.09630  Biso   1.000  O 
  O9       1.0000 0.53810  0.18254  0.29706  Biso   1.000  O 
  O10      1.0000 0.53511  0.08300  0.81839  Biso   1.000  O 
  O11      1.0000 0.96697  0.41643  0.33641  Biso   1.000  O 
  O12      1.0000 0.96402  0.33268  0.83562  Biso   1.000  O 
  O13      1.0000 0.77778  0.12373  0.90847  Biso   1.000  O 
  O14      1.0000 0.77092  0.12402  0.40622  Biso   1.000  O 
  O15      1.0000 0.71977  0.37261  0.91062  Biso   1.000  O 
  O16      1.0000 0.72183  0.37540  0.40780  Biso   1.000  O 
  Hf9      1.0000 0.13897  0.52318  0.34842  Biso   1.000  Hf
  Hf10     1.0000 0.13745  0.72982  0.84673  Biso   1.000  Hf
  Hf11     1.0000 0.36049  0.77150  0.34870  Biso   1.000  Hf
  Hf12     1.0000 0.35792  0.98063  0.84715  Biso   1.000  Hf
  Hf13     1.0000 0.64008  0.52234  0.15592  Biso   1.000  Hf
  Hf14     1.0000 0.63675  0.72752  0.65558  Biso   1.000  Hf
  Hf15     1.0000 0.86221  0.76932  0.15690  Biso   1.000  Hf
  Hf16     1.0000 0.86009  0.97916  0.65359  Biso   1.000  Hf
  O17      1.0000 0.03408  0.66709  0.17188  Biso   1.000  O 
  O18      1.0000 0.03145  0.58549  0.67294  Biso   1.000  O 
  O19      1.0000 0.46648  0.92150  0.17841  Biso   1.000  O 
  O20      1.0000 0.46471  0.83305  0.67532  Biso   1.000  O 
  O21      1.0000 0.27502  0.62560  0.59633  Biso   1.000  O 
  O22      1.0000 0.27827  0.62631  0.09371  Biso   1.000  O 
  O23      1.0000 0.22166  0.87453  0.59484  Biso   1.000  O 
  O24      1.0000 0.22447  0.87531  0.09641  Biso   1.000  O 
  O25      1.0000 0.53135  0.66496  0.33235  Biso   1.000  O 
  O26      1.0000 0.53197  0.58298  0.83159  Biso   1.000  O 
  O27      1.0000 0.96435  0.91710  0.32912  Biso   1.000  O 
  O28      1.0000 0.96445  0.83451  0.83215  Biso   1.000  O 
  O29      1.0000 0.77496  0.62400  0.90841  Biso   1.000  O 
  O30      1.0000 0.77606  0.62529  0.40923  Biso   1.000  O 
  O31      1.0000 0.72102  0.87381  0.90737  Biso   1.000  O 
  O32      1.0000 0.72207  0.87368  0.40677  Biso   1.000  O 
  H1       1.0000 0.55754  0.26435  0.19581  Biso   1.000  H 
