data_image0
_cell_length_a       10.1815
_cell_length_b       5.12194
_cell_length_c       10.4498
_cell_angle_alpha    90
_cell_angle_beta     80
_cell_angle_gamma    90

_symmetry_space_group_name_H-M    "P 1"
_symmetry_int_tables_number       1

loop_
  _symmetry_equiv_pos_as_xyz
  'x, y, z'

loop_
  _atom_site_label
  _atom_site_occupancy
  _atom_site_fract_x
  _atom_site_fract_y
  _atom_site_fract_z
  _atom_site_thermal_displace_type
  _atom_site_B_iso_or_equiv
  _atom_site_type_symbol
  H1       1.0000 0.06144  0.88401  0.13143  Biso   1.000  H 
  Hf1      1.0000 0.14660  0.46094  0.39236  Biso   1.000  Hf
  Hf2      1.0000 0.35344  0.54446  0.10577  Biso   1.000  Hf
  Hf3      1.0000 0.35835  0.96238  0.34995  Biso   1.000  Hf
  O1       1.0000 0.03555  0.35901  0.08059  Biso   1.000  O 
  O2       1.0000 0.03027  0.18542  0.34033  Biso   1.000  O 
  O3       1.0000 0.47126  0.82945  0.17159  Biso   1.000  O 
  O4       1.0000 0.47060  0.67587  0.42252  Biso   1.000  O 
  O5       1.0000 0.28945  0.26904  0.24936  Biso   1.000  O 
  O6       1.0000 0.27945  0.24832  0.49364  Biso   1.000  O 
  O7       1.0000 0.22778  0.75348  0.00403  Biso   1.000  O 
  O8       1.0000 0.23283  0.73411  0.26223  Biso   1.000  O 
  Hf4      1.0000 0.14557  0.04766  0.64649  Biso   1.000  Hf
  Hf5      1.0000 0.14675  0.46425  0.90156  Biso   1.000  Hf
  Hf6      1.0000 0.36406  0.55016  0.60420  Biso   1.000  Hf
  Hf7      1.0000 0.36159  0.96555  0.85810  Biso   1.000  Hf
  O9       1.0000 0.03641  0.33643  0.57883  Biso   1.000  O 
  O10      1.0000 0.03818  0.17626  0.82770  Biso   1.000  O 
  O11      1.0000 0.47035  0.83784  0.67285  Biso   1.000  O 
  O12      1.0000 0.47668  0.68557  0.92219  Biso   1.000  O 
  O13      1.0000 0.28081  0.26258  0.74022  Biso   1.000  O 
  O14      1.0000 0.29650  0.26942  0.98077  Biso   1.000  O 
  O15      1.0000 0.22732  0.76302  0.51016  Biso   1.000  O 
  O16      1.0000 0.22795  0.74980  0.75783  Biso   1.000  O 
  Hf8      1.0000 0.63968  0.04472  0.14621  Biso   1.000  Hf
  Hf9      1.0000 0.64145  0.46497  0.39532  Biso   1.000  Hf
  Hf10     1.0000 0.86129  0.53908  0.10186  Biso   1.000  Hf
  Hf11     1.0000 0.86662  0.96947  0.35243  Biso   1.000  Hf
  O17      1.0000 0.53604  0.33658  0.07959  Biso   1.000  O 
  O18      1.0000 0.53716  0.17018  0.32944  Biso   1.000  O 
  O19      1.0000 0.96617  0.84816  0.16574  Biso   1.000  O 
  O20      1.0000 0.97062  0.67731  0.42006  Biso   1.000  O 
  O21      1.0000 0.77675  0.26153  0.24053  Biso   1.000  O 
  O22      1.0000 0.77839  0.25076  0.49003  Biso   1.000  O 
  O23      1.0000 0.72465  0.76148  0.00803  Biso   1.000  O 
  O24      1.0000 0.73147  0.74755  0.25777  Biso   1.000  O 
  Hf12     1.0000 0.64268  0.04851  0.64601  Biso   1.000  Hf
  Hf13     1.0000 0.64356  0.46644  0.89630  Biso   1.000  Hf
  Hf14     1.0000 0.86425  0.54973  0.60207  Biso   1.000  Hf
  Hf15     1.0000 0.86528  0.96631  0.85271  Biso   1.000  Hf
  O25      1.0000 0.53788  0.33966  0.57897  Biso   1.000  O 
  O26      1.0000 0.54054  0.17452  0.82855  Biso   1.000  O 
  O27      1.0000 0.97069  0.83862  0.66982  Biso   1.000  O 
  O28      1.0000 0.97122  0.67562  0.91695  Biso   1.000  O 
  O29      1.0000 0.78094  0.26429  0.73914  Biso   1.000  O 
  O30      1.0000 0.78321  0.25306  0.98933  Biso   1.000  O 
  O31      1.0000 0.72800  0.76483  0.50841  Biso   1.000  O 
  O32      1.0000 0.72939  0.74969  0.75751  Biso   1.000  O 
