data_image0
_cell_length_a       4.97716
_cell_length_b       10.3545
_cell_length_c       10.0555
_cell_angle_alpha    90
_cell_angle_beta     90
_cell_angle_gamma    90

_symmetry_space_group_name_H-M    "P 1"
_symmetry_int_tables_number       1

loop_
  _symmetry_equiv_pos_as_xyz
  'x, y, z'

loop_
  _atom_site_label
  _atom_site_occupancy
  _atom_site_fract_x
  _atom_site_fract_y
  _atom_site_fract_z
  _atom_site_thermal_displace_type
  _atom_site_B_iso_or_equiv
  _atom_site_type_symbol
  H1       1.0000 0.13910  0.95153  0.17924  Biso   1.000  H 
  Hf1      1.0000 0.27476  0.23073  0.37261  Biso   1.000  Hf
  Hf2      1.0000 0.72644  0.26349  0.12787  Biso   1.000  Hf
  Hf3      1.0000 0.73921  0.48511  0.37690  Biso   1.000  Hf
  O1       1.0000 0.07246  0.19641  0.19981  Biso   1.000  O 
  O2       1.0000 0.06993  0.06839  0.44844  Biso   1.000  O 
  O3       1.0000 0.93481  0.43516  0.19575  Biso   1.000  O 
  O4       1.0000 0.93859  0.31959  0.44682  Biso   1.000  O 
  O5       1.0000 0.56893  0.13012  0.25720  Biso   1.000  O 
  O6       1.0000 0.54136  0.13232  0.50210  Biso   1.000  O 
  O7       1.0000 0.46780  0.38455  0.50075  Biso   1.000  O 
  O8       1.0000 0.46023  0.37251  0.25118  Biso   1.000  O 
  Hf4      1.0000 0.27073  0.01807  0.63218  Biso   1.000  Hf
  Hf5      1.0000 0.29919  0.23529  0.87767  Biso   1.000  Hf
  Hf6      1.0000 0.73464  0.27000  0.62285  Biso   1.000  Hf
  Hf7      1.0000 0.75399  0.48407  0.87734  Biso   1.000  Hf
  O9       1.0000 0.08763  0.19275  0.69149  Biso   1.000  O 
  O10      1.0000 0.11368  0.06005  0.87417  Biso   1.000  O 
  O11      1.0000 0.94096  0.43583  0.69468  Biso   1.000  O 
  O12      1.0000 0.95541  0.31676  0.94522  Biso   1.000  O 
  O13      1.0000 0.56490  0.12369  0.74457  Biso   1.000  O 
  O14      1.0000 0.58708  0.13657  0.98972  Biso   1.000  O 
  O15      1.0000 0.46810  0.38309  0.00142  Biso   1.000  O 
  O16      1.0000 0.47165  0.37098  0.75124  Biso   1.000  O 
  Hf8      1.0000 0.27950  0.51761  0.12733  Biso   1.000  Hf
  Hf9      1.0000 0.28160  0.73730  0.37531  Biso   1.000  Hf
  Hf10     1.0000 0.73506  0.77024  0.12584  Biso   1.000  Hf
  Hf11     1.0000 0.73207  0.98688  0.37527  Biso   1.000  Hf
  O17      1.0000 0.08171  0.68536  0.19449  Biso   1.000  O 
  O18      1.0000 0.07870  0.56847  0.44686  Biso   1.000  O 
  O19      1.0000 0.94668  0.93729  0.19652  Biso   1.000  O 
  O20      1.0000 0.93859  0.81703  0.44369  Biso   1.000  O 
  O21      1.0000 0.55143  0.61662  0.24924  Biso   1.000  O 
  O22      1.0000 0.54962  0.63408  0.49893  Biso   1.000  O 
  O23      1.0000 0.46266  0.88458  0.50259  Biso   1.000  O 
  O24      1.0000 0.49471  0.86138  0.25720  Biso   1.000  O 
  Hf12     1.0000 0.27958  0.52018  0.62658  Biso   1.000  Hf
  Hf13     1.0000 0.29497  0.73464  0.87883  Biso   1.000  Hf
  Hf14     1.0000 0.74626  0.76698  0.62329  Biso   1.000  Hf
  Hf15     1.0000 0.73761  0.98421  0.87330  Biso   1.000  Hf
  O25      1.0000 0.08716  0.68700  0.69620  Biso   1.000  O 
  O26      1.0000 0.09291  0.56839  0.94590  Biso   1.000  O 
  O27      1.0000 0.92693  0.93568  0.68131  Biso   1.000  O 
  O28      1.0000 0.96067  0.82516  0.94629  Biso   1.000  O 
  O29      1.0000 0.55890  0.61885  0.75042  Biso   1.000  O 
  O30      1.0000 0.55504  0.62890  0.00102  Biso   1.000  O 
  O31      1.0000 0.49405  0.87183  0.99531  Biso   1.000  O 
  O32      1.0000 0.47381  0.86980  0.74932  Biso   1.000  O 
