data_image0
_cell_length_a       9.96603
_cell_length_b       10.3702
_cell_length_c       10.0095
_cell_angle_alpha    90
_cell_angle_beta     90
_cell_angle_gamma    90

_symmetry_space_group_name_H-M    "P 1"
_symmetry_int_tables_number       1

loop_
  _symmetry_equiv_pos_as_xyz
  'x, y, z'

loop_
  _atom_site_label
  _atom_site_occupancy
  _atom_site_fract_x
  _atom_site_fract_y
  _atom_site_fract_z
  _atom_site_thermal_displace_type
  _atom_site_B_iso_or_equiv
  _atom_site_type_symbol
  Hf1      1.0000 0.13825  0.01216  0.11970  Biso   1.000  Hf
  Hf2      1.0000 0.13562  0.23613  0.38465  Biso   1.000  Hf
  Hf3      1.0000 0.36119  0.26576  0.12448  Biso   1.000  Hf
  Hf4      1.0000 0.36470  0.48474  0.37543  Biso   1.000  Hf
  O1       1.0000 0.02942  0.19051  0.19690  Biso   1.000  O 
  O2       1.0000 0.03591  0.06865  0.44455  Biso   1.000  O 
  O3       1.0000 0.45912  0.43537  0.19352  Biso   1.000  O 
  O4       1.0000 0.46104  0.31690  0.44452  Biso   1.000  O 
  O5       1.0000 0.26378  0.11824  0.25018  Biso   1.000  O 
  O6       1.0000 0.27222  0.13325  0.50090  Biso   1.000  O 
  O7       1.0000 0.22845  0.38381  0.50168  Biso   1.000  O 
  O8       1.0000 0.22346  0.36713  0.25097  Biso   1.000  O 
  Hf5      1.0000 0.13392  0.01815  0.62676  Biso   1.000  Hf
  Hf6      1.0000 0.13510  0.23434  0.87907  Biso   1.000  Hf
  Hf7      1.0000 0.36493  0.26860  0.62834  Biso   1.000  Hf
  Hf8      1.0000 0.36469  0.48633  0.87576  Biso   1.000  Hf
  O9       1.0000 0.03526  0.18542  0.69494  Biso   1.000  O 
  O10      1.0000 0.03739  0.06652  0.94426  Biso   1.000  O 
  O11      1.0000 0.46319  0.43580  0.69468  Biso   1.000  O 
  O12      1.0000 0.46202  0.31756  0.94294  Biso   1.000  O 
  O13      1.0000 0.27046  0.11962  0.74868  Biso   1.000  O 
  O14      1.0000 0.28222  0.12792  0.99467  Biso   1.000  O 
  O15      1.0000 0.22956  0.38698  0.99977  Biso   1.000  O 
  O16      1.0000 0.22816  0.37055  0.75084  Biso   1.000  O 
  Hf9      1.0000 0.13090  0.51735  0.12581  Biso   1.000  Hf
  Hf10     1.0000 0.13149  0.73471  0.37598  Biso   1.000  Hf
  Hf11     1.0000 0.36418  0.76541  0.12552  Biso   1.000  Hf
  Hf12     1.0000 0.36219  0.98461  0.37438  Biso   1.000  Hf
  O17      1.0000 0.03402  0.68510  0.19435  Biso   1.000  O 
  O18      1.0000 0.03399  0.56728  0.44502  Biso   1.000  O 
  O19      1.0000 0.45989  0.93558  0.19247  Biso   1.000  O 
  O20      1.0000 0.46059  0.81686  0.44255  Biso   1.000  O 
  O21      1.0000 0.26762  0.61747  0.24963  Biso   1.000  O 
  O22      1.0000 0.26831  0.63345  0.49940  Biso   1.000  O 
  O23      1.0000 0.22623  0.88424  0.49867  Biso   1.000  O 
  O24      1.0000 0.22822  0.86649  0.24861  Biso   1.000  O 
  Hf13     1.0000 0.13211  0.51821  0.62721  Biso   1.000  Hf
  Hf14     1.0000 0.13105  0.73532  0.87517  Biso   1.000  Hf
  Hf15     1.0000 0.36412  0.76777  0.62468  Biso   1.000  Hf
  Hf16     1.0000 0.36464  0.98360  0.87351  Biso   1.000  Hf
  O25      1.0000 0.03400  0.68583  0.69382  Biso   1.000  O 
  O26      1.0000 0.03392  0.56850  0.94398  Biso   1.000  O 
  O27      1.0000 0.46156  0.93529  0.69168  Biso   1.000  O 
  O28      1.0000 0.46215  0.81696  0.94483  Biso   1.000  O 
  O29      1.0000 0.26869  0.61995  0.74957  Biso   1.000  O 
  O30      1.0000 0.26742  0.63449  0.99965  Biso   1.000  O 
  O31      1.0000 0.22715  0.88141  0.99828  Biso   1.000  O 
  O32      1.0000 0.22694  0.86914  0.74847  Biso   1.000  O 
  Hf17     1.0000 0.63292  0.01771  0.12432  Biso   1.000  Hf
  Hf18     1.0000 0.63034  0.23386  0.37681  Biso   1.000  Hf
  Hf19     1.0000 0.85012  0.27189  0.12474  Biso   1.000  Hf
  Hf20     1.0000 0.86418  0.48534  0.37629  Biso   1.000  Hf
  O33      1.0000 0.53394  0.18470  0.19410  Biso   1.000  O 
  O34      1.0000 0.53576  0.06596  0.44346  Biso   1.000  O 
  O35      1.0000 0.95906  0.43494  0.19373  Biso   1.000  O 
  O36      1.0000 0.96312  0.31854  0.44593  Biso   1.000  O 
  O37      1.0000 0.76971  0.12077  0.24953  Biso   1.000  O 
  O38      1.0000 0.76986  0.13394  0.49908  Biso   1.000  O 
  O39      1.0000 0.72799  0.38361  0.49998  Biso   1.000  O 
  O40      1.0000 0.72215  0.37213  0.25135  Biso   1.000  O 
  Hf21     1.0000 0.63489  0.01768  0.62520  Biso   1.000  Hf
  Hf22     1.0000 0.63064  0.23493  0.87344  Biso   1.000  Hf
  Hf23     1.0000 0.86549  0.26799  0.62641  Biso   1.000  Hf
  Hf24     1.0000 0.86451  0.48472  0.87664  Biso   1.000  Hf
  O41      1.0000 0.53621  0.18567  0.69206  Biso   1.000  O 
  O42      1.0000 0.53976  0.06528  0.94031  Biso   1.000  O 
  O43      1.0000 0.96244  0.43573  0.69641  Biso   1.000  O 
  O44      1.0000 0.96250  0.31851  0.94965  Biso   1.000  O 
  O45      1.0000 0.77055  0.11930  0.74886  Biso   1.000  O 
  O46      1.0000 0.76982  0.13544  0.99843  Biso   1.000  O 
  O47      1.0000 0.72382  0.38580  0.99997  Biso   1.000  O 
  O48      1.0000 0.72856  0.36952  0.75003  Biso   1.000  O 
  Hf25     1.0000 0.62985  0.51925  0.12708  Biso   1.000  Hf
  Hf26     1.0000 0.63229  0.73540  0.37656  Biso   1.000  Hf
  Hf27     1.0000 0.86395  0.76830  0.12626  Biso   1.000  Hf
  Hf28     1.0000 0.86329  0.98558  0.37541  Biso   1.000  Hf
  O49      1.0000 0.53413  0.68547  0.19563  Biso   1.000  O 
  O50      1.0000 0.53425  0.56709  0.44424  Biso   1.000  O 
  O51      1.0000 0.96299  0.93829  0.19473  Biso   1.000  O 
  O52      1.0000 0.96106  0.81772  0.44392  Biso   1.000  O 
  O53      1.0000 0.76838  0.62016  0.25058  Biso   1.000  O 
  O54      1.0000 0.76851  0.63390  0.50024  Biso   1.000  O 
  O55      1.0000 0.72699  0.88366  0.49972  Biso   1.000  O 
  O56      1.0000 0.72715  0.87014  0.24974  Biso   1.000  O 
  Hf29     1.0000 0.63312  0.51805  0.62615  Biso   1.000  Hf
  Hf30     1.0000 0.63255  0.73586  0.87604  Biso   1.000  Hf
  Hf31     1.0000 0.86382  0.76821  0.62607  Biso   1.000  Hf
  Hf32     1.0000 0.86274  0.98632  0.87571  Biso   1.000  Hf
  O57      1.0000 0.53442  0.68587  0.69395  Biso   1.000  O 
  O58      1.0000 0.53398  0.56900  0.94512  Biso   1.000  O 
  O59      1.0000 0.96121  0.93533  0.69478  Biso   1.000  O 
  O60      1.0000 0.96162  0.81854  0.94525  Biso   1.000  O 
  O61      1.0000 0.76895  0.61957  0.75049  Biso   1.000  O 
  O62      1.0000 0.76975  0.63246  0.00087  Biso   1.000  O 
  O63      1.0000 0.72863  0.88211  0.00022  Biso   1.000  O 
  O64      1.0000 0.72720  0.86966  0.74976  Biso   1.000  O 
  H1       1.0000 0.09485  0.23525  0.13081  Biso   1.000  H 
