data_image0
_cell_length_a       10.0385
_cell_length_b       10.1569
_cell_length_c       4.97532
_cell_angle_alpha    90
_cell_angle_beta     90
_cell_angle_gamma    90

_symmetry_space_group_name_H-M    "P 1"
_symmetry_int_tables_number       1

loop_
  _symmetry_equiv_pos_as_xyz
  'x, y, z'

loop_
  _atom_site_label
  _atom_site_occupancy
  _atom_site_fract_x
  _atom_site_fract_y
  _atom_site_fract_z
  _atom_site_thermal_displace_type
  _atom_site_B_iso_or_equiv
  _atom_site_type_symbol
  H1       1.0000 0.06042  0.95374  0.15179  Biso   1.000  H 
  Hf1      1.0000 0.12271  0.24473  0.74394  Biso   1.000  Hf
  Hf2      1.0000 0.37183  0.24955  0.24548  Biso   1.000  Hf
  Hf3      1.0000 0.36642  0.99681  0.74655  Biso   1.000  Hf
  O1       1.0000 0.98855  0.14520  0.97903  Biso   1.000  O 
  O2       1.0000 0.99422  0.11838  0.50039  Biso   1.000  O 
  O3       1.0000 0.99905  0.36213  0.49783  Biso   1.000  O 
  O4       1.0000 0.99691  0.39237  0.99948  Biso   1.000  O 
  O5       1.0000 0.25687  0.13933  0.51061  Biso   1.000  O 
  O6       1.0000 0.25340  0.11990  0.98701  Biso   1.000  O 
  O7       1.0000 0.24633  0.36165  0.99872  Biso   1.000  O 
  O8       1.0000 0.24845  0.38835  0.49746  Biso   1.000  O 
  Hf4      1.0000 0.12303  0.50048  0.25017  Biso   1.000  Hf
  Hf5      1.0000 0.12413  0.75065  0.75150  Biso   1.000  Hf
  Hf6      1.0000 0.37113  0.74997  0.25374  Biso   1.000  Hf
  Hf7      1.0000 0.37309  0.49901  0.75024  Biso   1.000  Hf
  O9       1.0000 0.99819  0.64647  0.00499  Biso   1.000  O 
  O10      1.0000 0.99929  0.60677  0.50307  Biso   1.000  O 
  O11      1.0000 0.98189  0.84981  0.55017  Biso   1.000  O 
  O12      1.0000 0.00491  0.89795  0.03559  Biso   1.000  O 
  O13      1.0000 0.24805  0.63616  0.50295  Biso   1.000  O 
  O14      1.0000 0.24901  0.60955  0.00313  Biso   1.000  O 
  O15      1.0000 0.25834  0.85555  0.98334  Biso   1.000  O 
  O16      1.0000 0.25138  0.87734  0.50350  Biso   1.000  O 
  Hf8      1.0000 0.62516  0.00161  0.24947  Biso   1.000  Hf
  Hf9      1.0000 0.62338  0.24821  0.75087  Biso   1.000  Hf
  Hf10     1.0000 0.87607  0.24989  0.25091  Biso   1.000  Hf
  Hf11     1.0000 0.87922  0.99928  0.75100  Biso   1.000  Hf
  O17      1.0000 0.50146  0.14432  0.00252  Biso   1.000  O 
  O18      1.0000 0.50135  0.10685  0.50133  Biso   1.000  O 
  O19      1.0000 0.49810  0.35690  0.50497  Biso   1.000  O 
  O20      1.0000 0.49803  0.39387  0.00503  Biso   1.000  O 
  O21      1.0000 0.74942  0.14432  0.50180  Biso   1.000  O 
  O22      1.0000 0.74796  0.10744  0.00058  Biso   1.000  O 
  O23      1.0000 0.74864  0.35827  0.00065  Biso   1.000  O 
  O24      1.0000 0.74844  0.39438  0.50156  Biso   1.000  O 
  Hf12     1.0000 0.62388  0.50023  0.25232  Biso   1.000  Hf
  Hf13     1.0000 0.62307  0.75176  0.75419  Biso   1.000  Hf
  Hf14     1.0000 0.87455  0.75227  0.26316  Biso   1.000  Hf
  Hf15     1.0000 0.87222  0.50133  0.75390  Biso   1.000  Hf
  O25      1.0000 0.49681  0.64168  0.99612  Biso   1.000  O 
  O26      1.0000 0.49774  0.60654  0.49775  Biso   1.000  O 
  O27      1.0000 0.49897  0.85646  0.49655  Biso   1.000  O 
  O28      1.0000 0.50293  0.89237  0.99451  Biso   1.000  O 
  O29      1.0000 0.74888  0.64424  0.50736  Biso   1.000  O 
  O30      1.0000 0.74828  0.60721  0.00683  Biso   1.000  O 
  O31      1.0000 0.75507  0.85387  0.99528  Biso   1.000  O 
  O32      1.0000 0.74391  0.89566  0.49816  Biso   1.000  O 
