data_image0
_cell_length_a       9.98236
_cell_length_b       5.16288
_cell_length_c       10.0291
_cell_angle_alpha    90
_cell_angle_beta     90
_cell_angle_gamma    90

_symmetry_space_group_name_H-M    "P 1"
_symmetry_int_tables_number       1

loop_
  _symmetry_equiv_pos_as_xyz
  'x, y, z'

loop_
  _atom_site_label
  _atom_site_occupancy
  _atom_site_fract_x
  _atom_site_fract_y
  _atom_site_fract_z
  _atom_site_thermal_displace_type
  _atom_site_B_iso_or_equiv
  _atom_site_type_symbol
  H1       1.0000 0.07073  0.88700  0.18071  Biso   1.000  H 
  Hf1      1.0000 0.14058  0.46452  0.37572  Biso   1.000  Hf
  Hf2      1.0000 0.36212  0.53813  0.12949  Biso   1.000  Hf
  Hf3      1.0000 0.36339  0.97010  0.37542  Biso   1.000  Hf
  O1       1.0000 0.03218  0.39358  0.20502  Biso   1.000  O 
  O2       1.0000 0.03756  0.13715  0.45225  Biso   1.000  O 
  O3       1.0000 0.47380  0.86698  0.19991  Biso   1.000  O 
  O4       1.0000 0.47016  0.63816  0.44779  Biso   1.000  O 
  O5       1.0000 0.28757  0.25991  0.25903  Biso   1.000  O 
  O6       1.0000 0.27379  0.26360  0.50580  Biso   1.000  O 
  O7       1.0000 0.23183  0.76799  0.50653  Biso   1.000  O 
  O8       1.0000 0.23808  0.73468  0.25875  Biso   1.000  O 
  Hf4      1.0000 0.13924  0.04119  0.63612  Biso   1.000  Hf
  Hf5      1.0000 0.15027  0.47720  0.88191  Biso   1.000  Hf
  Hf6      1.0000 0.37265  0.54165  0.62735  Biso   1.000  Hf
  Hf7      1.0000 0.37056  0.97394  0.88336  Biso   1.000  Hf
  O9       1.0000 0.04409  0.38900  0.69186  Biso   1.000  O 
  O10      1.0000 0.05714  0.12197  0.87791  Biso   1.000  O 
  O11      1.0000 0.47023  0.87566  0.69650  Biso   1.000  O 
  O12      1.0000 0.47851  0.63960  0.94528  Biso   1.000  O 
  O13      1.0000 0.28435  0.25105  0.75150  Biso   1.000  O 
  O14      1.0000 0.28751  0.27480  0.99854  Biso   1.000  O 
  O15      1.0000 0.23707  0.75534  0.00260  Biso   1.000  O 
  O16      1.0000 0.23717  0.74529  0.75393  Biso   1.000  O 
  Hf8      1.0000 0.63688  0.02975  0.12336  Biso   1.000  Hf
  Hf9      1.0000 0.63519  0.47291  0.37034  Biso   1.000  Hf
  Hf10     1.0000 0.86844  0.52729  0.12197  Biso   1.000  Hf
  Hf11     1.0000 0.87245  0.97657  0.37639  Biso   1.000  Hf
  O17      1.0000 0.54329  0.37425  0.18841  Biso   1.000  O 
  O18      1.0000 0.53714  0.13923  0.44299  Biso   1.000  O 
  O19      1.0000 0.97208  0.87930  0.19171  Biso   1.000  O 
  O20      1.0000 0.96850  0.63818  0.44205  Biso   1.000  O 
  O21      1.0000 0.77234  0.23084  0.24545  Biso   1.000  O 
  O22      1.0000 0.77172  0.27195  0.49332  Biso   1.000  O 
  O23      1.0000 0.73364  0.77155  0.49591  Biso   1.000  O 
  O24      1.0000 0.74151  0.73604  0.24683  Biso   1.000  O 
  Hf12     1.0000 0.63481  0.03760  0.62241  Biso   1.000  Hf
  Hf13     1.0000 0.64405  0.46648  0.87467  Biso   1.000  Hf
  Hf14     1.0000 0.86775  0.53424  0.61912  Biso   1.000  Hf
  Hf15     1.0000 0.87428  0.96225  0.86712  Biso   1.000  Hf
  O25      1.0000 0.54498  0.37689  0.69345  Biso   1.000  O 
  O26      1.0000 0.54792  0.13293  0.94350  Biso   1.000  O 
  O27      1.0000 0.96356  0.87023  0.67940  Biso   1.000  O 
  O28      1.0000 0.97445  0.63410  0.94165  Biso   1.000  O 
  O29      1.0000 0.77747  0.23602  0.74365  Biso   1.000  O 
  O30      1.0000 0.78859  0.25829  0.99406  Biso   1.000  O 
  O31      1.0000 0.73945  0.76112  0.99687  Biso   1.000  O 
  O32      1.0000 0.73624  0.73796  0.74697  Biso   1.000  O 
