data_image0
_cell_length_a       10.143
_cell_length_b       5.13865
_cell_length_c       10.4679
_cell_angle_alpha    90
_cell_angle_beta     80
_cell_angle_gamma    90

_symmetry_space_group_name_H-M    "P 1"
_symmetry_int_tables_number       1

loop_
  _symmetry_equiv_pos_as_xyz
  'x, y, z'

loop_
  _atom_site_label
  _atom_site_occupancy
  _atom_site_fract_x
  _atom_site_fract_y
  _atom_site_fract_z
  _atom_site_thermal_displace_type
  _atom_site_B_iso_or_equiv
  _atom_site_type_symbol
  Hf1      1.0000 0.13669  0.04422  0.14543  Biso   1.000  Hf
  Hf2      1.0000 0.13641  0.45685  0.39730  Biso   1.000  Hf
  Hf3      1.0000 0.35722  0.54664  0.10118  Biso   1.000  Hf
  Hf4      1.0000 0.35203  0.96782  0.35033  Biso   1.000  Hf
  O1       1.0000 0.03246  0.33980  0.08091  Biso   1.000  O 
  O2       1.0000 0.03622  0.15917  0.33053  Biso   1.000  O 
  O3       1.0000 0.45962  0.84072  0.17018  Biso   1.000  O 
  O4       1.0000 0.46167  0.63408  0.40665  Biso   1.000  O 
  O5       1.0000 0.27707  0.26176  0.24051  Biso   1.000  O 
  O6       1.0000 0.28119  0.25016  0.49030  Biso   1.000  O 
  O7       1.0000 0.21863  0.75981  0.00845  Biso   1.000  O 
  O8       1.0000 0.21808  0.74240  0.25857  Biso   1.000  O 
  Hf5      1.0000 0.14083  0.04243  0.64534  Biso   1.000  Hf
  Hf6      1.0000 0.13857  0.45476  0.89656  Biso   1.000  Hf
  Hf7      1.0000 0.35977  0.53649  0.60944  Biso   1.000  Hf
  Hf8      1.0000 0.36072  0.95499  0.85341  Biso   1.000  Hf
  O9       1.0000 0.03857  0.34273  0.58208  Biso   1.000  O 
  O10      1.0000 0.03806  0.15750  0.83015  Biso   1.000  O 
  O11      1.0000 0.46367  0.84020  0.66438  Biso   1.000  O 
  O12      1.0000 0.46510  0.65844  0.91728  Biso   1.000  O 
  O13      1.0000 0.27875  0.25487  0.74134  Biso   1.000  O 
  O14      1.0000 0.27792  0.23936  0.98950  Biso   1.000  O 
  O15      1.0000 0.23014  0.76071  0.50899  Biso   1.000  O 
  O16      1.0000 0.22324  0.73942  0.75958  Biso   1.000  O 
  Hf9      1.0000 0.63657  0.04331  0.14690  Biso   1.000  Hf
  Hf10     1.0000 0.65344  0.44623  0.39783  Biso   1.000  Hf
  Hf11     1.0000 0.85729  0.54388  0.10402  Biso   1.000  Hf
  Hf12     1.0000 0.86090  0.95117  0.35340  Biso   1.000  Hf
  O17      1.0000 0.53204  0.33957  0.08141  Biso   1.000  O 
  O18      1.0000 0.53220  0.16546  0.33285  Biso   1.000  O 
  O19      1.0000 0.96148  0.83813  0.16933  Biso   1.000  O 
  O20      1.0000 0.96261  0.65752  0.42054  Biso   1.000  O 
  O21      1.0000 0.77724  0.25304  0.24147  Biso   1.000  O 
  O22      1.0000 0.78352  0.23542  0.49323  Biso   1.000  O 
  O23      1.0000 0.71835  0.75903  0.01046  Biso   1.000  O 
  O24      1.0000 0.71978  0.73866  0.26032  Biso   1.000  O 
  Hf13     1.0000 0.64090  0.04189  0.64673  Biso   1.000  Hf
  Hf14     1.0000 0.64022  0.45440  0.89654  Biso   1.000  Hf
  Hf15     1.0000 0.86204  0.54268  0.60652  Biso   1.000  Hf
  Hf16     1.0000 0.86082  0.95575  0.85462  Biso   1.000  Hf
  O25      1.0000 0.53907  0.34080  0.57901  Biso   1.000  O 
  O26      1.0000 0.53692  0.15860  0.82947  Biso   1.000  O 
  O27      1.0000 0.96478  0.84052  0.66935  Biso   1.000  O 
  O28      1.0000 0.96377  0.65766  0.91917  Biso   1.000  O 
  O29      1.0000 0.77848  0.25734  0.74230  Biso   1.000  O 
  O30      1.0000 0.77775  0.23904  0.99143  Biso   1.000  O 
  O31      1.0000 0.72201  0.75411  0.51017  Biso   1.000  O 
  O32      1.0000 0.72356  0.74116  0.75989  Biso   1.000  O 
  H1       1.0000 0.43354  0.47814  0.36111  Biso   1.000  H 
