data_image0
_cell_length_a       10.0897
_cell_length_b       5.08872
_cell_length_c       10.4648
_cell_angle_alpha    90
_cell_angle_beta     90
_cell_angle_gamma    90

_symmetry_space_group_name_H-M    "P 1"
_symmetry_int_tables_number       1

loop_
  _symmetry_equiv_pos_as_xyz
  'x, y, z'

loop_
  _atom_site_label
  _atom_site_occupancy
  _atom_site_fract_x
  _atom_site_fract_y
  _atom_site_fract_z
  _atom_site_thermal_displace_type
  _atom_site_B_iso_or_equiv
  _atom_site_type_symbol
  H1       1.0000 0.02350  0.12975  0.11700  Biso   1.000  H 
  Hf1      1.0000 0.14586  0.46197  0.42111  Biso   1.000  Hf
  Hf2      1.0000 0.35456  0.53656  0.17319  Biso   1.000  Hf
  Hf3      1.0000 0.35769  0.96122  0.42018  Biso   1.000  Hf
  Hf4      1.0000 0.64064  0.04324  0.07875  Biso   1.000  Hf
  Hf5      1.0000 0.64035  0.46100  0.32782  Biso   1.000  Hf
  Hf6      1.0000 0.86180  0.55160  0.07935  Biso   1.000  Hf
  Hf7      1.0000 0.86504  0.96242  0.32617  Biso   1.000  Hf
  O1       1.0000 0.02859  0.31959  0.08495  Biso   1.000  O 
  O2       1.0000 0.02599  0.18321  0.35539  Biso   1.000  O 
  O3       1.0000 0.47293  0.81987  0.08417  Biso   1.000  O 
  O4       1.0000 0.47386  0.68340  0.33215  Biso   1.000  O 
  O5       1.0000 0.28533  0.25875  0.30727  Biso   1.000  O 
  O6       1.0000 0.28834  0.25701  0.04003  Biso   1.000  O 
  O7       1.0000 0.23347  0.73794  0.30258  Biso   1.000  O 
  O8       1.0000 0.23510  0.72868  0.04035  Biso   1.000  O 
  O9       1.0000 0.53315  0.32538  0.16867  Biso   1.000  O 
  O10      1.0000 0.53405  0.17490  0.41752  Biso   1.000  O 
  O11      1.0000 0.95844  0.85334  0.16166  Biso   1.000  O 
  O12      1.0000 0.96995  0.67289  0.41561  Biso   1.000  O 
  O13      1.0000 0.77557  0.25304  0.45507  Biso   1.000  O 
  O14      1.0000 0.77789  0.25946  0.20486  Biso   1.000  O 
  O15      1.0000 0.72685  0.75224  0.45392  Biso   1.000  O 
  O16      1.0000 0.72074  0.75495  0.20410  Biso   1.000  O 
  Hf8      1.0000 0.14308  0.04270  0.67402  Biso   1.000  Hf
  Hf9      1.0000 0.14511  0.45610  0.92760  Biso   1.000  Hf
  Hf10     1.0000 0.36236  0.54531  0.67421  Biso   1.000  Hf
  Hf11     1.0000 0.35919  0.96073  0.92766  Biso   1.000  Hf
  Hf12     1.0000 0.64063  0.04285  0.57731  Biso   1.000  Hf
  Hf13     1.0000 0.64083  0.46230  0.82825  Biso   1.000  Hf
  Hf14     1.0000 0.86149  0.54322  0.57709  Biso   1.000  Hf
  Hf15     1.0000 0.86217  0.96287  0.82850  Biso   1.000  Hf
  O17      1.0000 0.03370  0.33291  0.58707  Biso   1.000  O 
  O18      1.0000 0.03374  0.17481  0.83289  Biso   1.000  O 
  O19      1.0000 0.46952  0.82734  0.58251  Biso   1.000  O 
  O20      1.0000 0.47136  0.67821  0.83273  Biso   1.000  O 
  O21      1.0000 0.27723  0.24923  0.79686  Biso   1.000  O 
  O22      1.0000 0.27787  0.25417  0.55022  Biso   1.000  O 
  O23      1.0000 0.22549  0.74895  0.79616  Biso   1.000  O 
  O24      1.0000 0.22498  0.75529  0.54899  Biso   1.000  O 
  O25      1.0000 0.53404  0.32925  0.66773  Biso   1.000  O 
  O26      1.0000 0.53565  0.17584  0.91739  Biso   1.000  O 
  O27      1.0000 0.96936  0.82957  0.66676  Biso   1.000  O 
  O28      1.0000 0.97185  0.67708  0.91859  Biso   1.000  O 
  O29      1.0000 0.77865  0.25576  0.95398  Biso   1.000  O 
  O30      1.0000 0.77771  0.25393  0.70430  Biso   1.000  O 
  O31      1.0000 0.72631  0.75518  0.95353  Biso   1.000  O 
  O32      1.0000 0.72654  0.75398  0.70356  Biso   1.000  O 
