data_image0
_cell_length_a       4.98915
_cell_length_b       10.3736
_cell_length_c       10.0211
_cell_angle_alpha    90
_cell_angle_beta     90
_cell_angle_gamma    90

_symmetry_space_group_name_H-M    "P 1"
_symmetry_int_tables_number       1

loop_
  _symmetry_equiv_pos_as_xyz
  'x, y, z'

loop_
  _atom_site_label
  _atom_site_occupancy
  _atom_site_fract_x
  _atom_site_fract_y
  _atom_site_fract_z
  _atom_site_thermal_displace_type
  _atom_site_B_iso_or_equiv
  _atom_site_type_symbol
  Hf1      1.0000 0.27529  0.01364  0.11861  Biso   1.000  Hf
  Hf2      1.0000 0.26463  0.23671  0.38523  Biso   1.000  Hf
  Hf3      1.0000 0.69124  0.27046  0.12211  Biso   1.000  Hf
  Hf4      1.0000 0.72579  0.48602  0.37530  Biso   1.000  Hf
  O1       1.0000 0.04830  0.18949  0.19860  Biso   1.000  O 
  O2       1.0000 0.06983  0.06919  0.44462  Biso   1.000  O 
  O3       1.0000 0.90964  0.43572  0.19304  Biso   1.000  O 
  O4       1.0000 0.92170  0.31975  0.44666  Biso   1.000  O 
  O5       1.0000 0.52241  0.12025  0.25050  Biso   1.000  O 
  O6       1.0000 0.54260  0.13493  0.50029  Biso   1.000  O 
  O7       1.0000 0.45424  0.38490  0.50145  Biso   1.000  O 
  O8       1.0000 0.43350  0.37092  0.25213  Biso   1.000  O 
  Hf5      1.0000 0.26972  0.01932  0.62603  Biso   1.000  Hf
  Hf6      1.0000 0.26437  0.23598  0.87757  Biso   1.000  Hf
  Hf7      1.0000 0.72947  0.26968  0.62868  Biso   1.000  Hf
  Hf8      1.0000 0.72696  0.48769  0.87603  Biso   1.000  Hf
  O9       1.0000 0.06981  0.18652  0.69392  Biso   1.000  O 
  O10      1.0000 0.08162  0.06630  0.94057  Biso   1.000  O 
  O11      1.0000 0.92443  0.43696  0.69680  Biso   1.000  O 
  O12      1.0000 0.92273  0.32044  0.94845  Biso   1.000  O 
  O13      1.0000 0.53997  0.12084  0.74803  Biso   1.000  O 
  O14      1.0000 0.56437  0.13035  0.99331  Biso   1.000  O 
  O15      1.0000 0.44865  0.39141  0.99798  Biso   1.000  O 
  O16      1.0000 0.45523  0.37157  0.75052  Biso   1.000  O 
  Hf9      1.0000 0.25357  0.51960  0.12676  Biso   1.000  Hf
  Hf10     1.0000 0.25964  0.73630  0.37626  Biso   1.000  Hf
  Hf11     1.0000 0.72471  0.76717  0.12574  Biso   1.000  Hf
  Hf12     1.0000 0.71943  0.98658  0.37385  Biso   1.000  Hf
  O17      1.0000 0.06357  0.68591  0.19572  Biso   1.000  O 
  O18      1.0000 0.06341  0.56860  0.44496  Biso   1.000  O 
  O19      1.0000 0.91970  0.93905  0.19338  Biso   1.000  O 
  O20      1.0000 0.91659  0.81877  0.44240  Biso   1.000  O 
  O21      1.0000 0.53067  0.61951  0.25006  Biso   1.000  O 
  O22      1.0000 0.53220  0.63490  0.49951  Biso   1.000  O 
  O23      1.0000 0.44804  0.88558  0.49844  Biso   1.000  O 
  O24      1.0000 0.45294  0.86843  0.24837  Biso   1.000  O 
  Hf13     1.0000 0.26235  0.51942  0.62692  Biso   1.000  Hf
  Hf14     1.0000 0.25927  0.73743  0.87507  Biso   1.000  Hf
  Hf15     1.0000 0.72410  0.76923  0.62443  Biso   1.000  Hf
  Hf16     1.0000 0.72387  0.98613  0.87316  Biso   1.000  Hf
  O25      1.0000 0.06383  0.68697  0.69374  Biso   1.000  O 
  O26      1.0000 0.06238  0.57201  0.94524  Biso   1.000  O 
  O27      1.0000 0.91877  0.93595  0.69234  Biso   1.000  O 
  O28      1.0000 0.92081  0.81990  0.94591  Biso   1.000  O 
  O29      1.0000 0.53365  0.62130  0.74983  Biso   1.000  O 
  O30      1.0000 0.53578  0.63282  0.00035  Biso   1.000  O 
  O31      1.0000 0.45011  0.88415  0.99854  Biso   1.000  O 
  O32      1.0000 0.45035  0.87066  0.74832  Biso   1.000  O 
  H1       1.0000 0.18138  0.23266  0.13064  Biso   1.000  H 
