data_image0
_cell_length_a       10.053
_cell_length_b       10.212
_cell_length_c       10.4559
_cell_angle_alpha    90
_cell_angle_beta     90
_cell_angle_gamma    90

_symmetry_space_group_name_H-M    "P 1"
_symmetry_int_tables_number       1

loop_
  _symmetry_equiv_pos_as_xyz
  'x, y, z'

loop_
  _atom_site_label
  _atom_site_occupancy
  _atom_site_fract_x
  _atom_site_fract_y
  _atom_site_fract_z
  _atom_site_thermal_displace_type
  _atom_site_B_iso_or_equiv
  _atom_site_type_symbol
  H1       1.0000 0.01425  0.01063  0.12312  Biso   1.000  H 
  Hf1      1.0000 0.14383  0.23011  0.42089  Biso   1.000  Hf
  Hf2      1.0000 0.35587  0.26421  0.17296  Biso   1.000  Hf
  Hf3      1.0000 0.36143  0.47998  0.42223  Biso   1.000  Hf
  Hf4      1.0000 0.64212  0.02150  0.07881  Biso   1.000  Hf
  Hf5      1.0000 0.63902  0.23065  0.32798  Biso   1.000  Hf
  Hf6      1.0000 0.86434  0.27020  0.07815  Biso   1.000  Hf
  Hf7      1.0000 0.86122  0.48087  0.32816  Biso   1.000  Hf
  O1       1.0000 0.02893  0.15832  0.07916  Biso   1.000  O 
  O2       1.0000 0.02637  0.09238  0.35057  Biso   1.000  O 
  O3       1.0000 0.46760  0.41182  0.08502  Biso   1.000  O 
  O4       1.0000 0.46941  0.33841  0.33422  Biso   1.000  O 
  O5       1.0000 0.28598  0.13283  0.30834  Biso   1.000  O 
  O6       1.0000 0.29345  0.13692  0.03517  Biso   1.000  O 
  O7       1.0000 0.22356  0.37606  0.29673  Biso   1.000  O 
  O8       1.0000 0.22080  0.37617  0.04815  Biso   1.000  O 
  O9       1.0000 0.53407  0.16475  0.16748  Biso   1.000  O 
  O10      1.0000 0.53328  0.08734  0.41690  Biso   1.000  O 
  O11      1.0000 0.96880  0.41437  0.16765  Biso   1.000  O 
  O12      1.0000 0.96918  0.33992  0.41812  Biso   1.000  O 
  O13      1.0000 0.77586  0.12657  0.45482  Biso   1.000  O 
  O14      1.0000 0.77618  0.12792  0.20569  Biso   1.000  O 
  O15      1.0000 0.72442  0.37626  0.45479  Biso   1.000  O 
  O16      1.0000 0.72471  0.37767  0.20522  Biso   1.000  O 
  Hf8      1.0000 0.14127  0.02180  0.67207  Biso   1.000  Hf
  Hf9      1.0000 0.14171  0.22573  0.92885  Biso   1.000  Hf
  Hf10     1.0000 0.36083  0.27230  0.67430  Biso   1.000  Hf
  Hf11     1.0000 0.36028  0.47955  0.92477  Biso   1.000  Hf
  Hf12     1.0000 0.63811  0.02189  0.57732  Biso   1.000  Hf
  Hf13     1.0000 0.64031  0.23143  0.82867  Biso   1.000  Hf
  Hf14     1.0000 0.86094  0.27330  0.57771  Biso   1.000  Hf
  Hf15     1.0000 0.86240  0.48170  0.82929  Biso   1.000  Hf
  O17      1.0000 0.03252  0.16709  0.58508  Biso   1.000  O 
  O18      1.0000 0.03123  0.08896  0.83104  Biso   1.000  O 
  O19      1.0000 0.46883  0.41575  0.58440  Biso   1.000  O 
  O20      1.0000 0.46973  0.33775  0.83426  Biso   1.000  O 
  O21      1.0000 0.27547  0.12412  0.79505  Biso   1.000  O 
  O22      1.0000 0.27642  0.12727  0.54926  Biso   1.000  O 
  O23      1.0000 0.22571  0.37560  0.79773  Biso   1.000  O 
  O24      1.0000 0.22537  0.37809  0.54748  Biso   1.000  O 
  O25      1.0000 0.53288  0.16604  0.66751  Biso   1.000  O 
  O26      1.0000 0.53714  0.08701  0.91713  Biso   1.000  O 
  O27      1.0000 0.96930  0.41579  0.66752  Biso   1.000  O 
  O28      1.0000 0.97068  0.34004  0.91802  Biso   1.000  O 
  O29      1.0000 0.77908  0.12668  0.95393  Biso   1.000  O 
  O30      1.0000 0.77625  0.12796  0.70398  Biso   1.000  O 
  O31      1.0000 0.72533  0.37682  0.95451  Biso   1.000  O 
  O32      1.0000 0.72570  0.37827  0.70428  Biso   1.000  O 
  Hf16     1.0000 0.14133  0.52114  0.17286  Biso   1.000  Hf
  Hf17     1.0000 0.14215  0.73159  0.42037  Biso   1.000  Hf
  Hf18     1.0000 0.35705  0.77644  0.17299  Biso   1.000  Hf
  Hf19     1.0000 0.35621  0.98006  0.41881  Biso   1.000  Hf
  Hf20     1.0000 0.63781  0.52054  0.07939  Biso   1.000  Hf
  Hf21     1.0000 0.64027  0.73159  0.32674  Biso   1.000  Hf
  Hf22     1.0000 0.86282  0.77172  0.07683  Biso   1.000  Hf
  Hf23     1.0000 0.86385  0.98320  0.32872  Biso   1.000  Hf
  O33      1.0000 0.03360  0.66759  0.08605  Biso   1.000  O 
  O34      1.0000 0.03262  0.58703  0.33399  Biso   1.000  O 
  O35      1.0000 0.47418  0.91368  0.08408  Biso   1.000  O 
  O36      1.0000 0.47527  0.84393  0.32991  Biso   1.000  O 
  O37      1.0000 0.27794  0.62158  0.29584  Biso   1.000  O 
  O38      1.0000 0.27619  0.62101  0.04810  Biso   1.000  O 
  O39      1.0000 0.23235  0.86594  0.30348  Biso   1.000  O 
  O40      1.0000 0.23838  0.86492  0.03700  Biso   1.000  O 
  O41      1.0000 0.53167  0.66423  0.16803  Biso   1.000  O 
  O42      1.0000 0.53227  0.58870  0.41760  Biso   1.000  O 
  O43      1.0000 0.96018  0.93170  0.15596  Biso   1.000  O 
  O44      1.0000 0.96706  0.83362  0.41218  Biso   1.000  O 
  O45      1.0000 0.77622  0.62546  0.45462  Biso   1.000  O 
  O46      1.0000 0.77711  0.62694  0.20386  Biso   1.000  O 
  O47      1.0000 0.72567  0.87652  0.45449  Biso   1.000  O 
  O48      1.0000 0.72781  0.87507  0.20414  Biso   1.000  O 
  Hf24     1.0000 0.14097  0.52306  0.67400  Biso   1.000  Hf
  Hf25     1.0000 0.14410  0.73389  0.92411  Biso   1.000  Hf
  Hf26     1.0000 0.36135  0.77375  0.67241  Biso   1.000  Hf
  Hf27     1.0000 0.35979  0.98159  0.92648  Biso   1.000  Hf
  Hf28     1.0000 0.63928  0.52282  0.57874  Biso   1.000  Hf
  Hf29     1.0000 0.63870  0.73155  0.82856  Biso   1.000  Hf
  Hf30     1.0000 0.86173  0.77205  0.57728  Biso   1.000  Hf
  Hf31     1.0000 0.86026  0.98125  0.82685  Biso   1.000  Hf
  O49      1.0000 0.03314  0.66668  0.58569  Biso   1.000  O 
  O50      1.0000 0.03365  0.58679  0.83517  Biso   1.000  O 
  O51      1.0000 0.46756  0.91476  0.58150  Biso   1.000  O 
  O52      1.0000 0.46961  0.83932  0.83201  Biso   1.000  O 
  O53      1.0000 0.27773  0.62615  0.79734  Biso   1.000  O 
  O54      1.0000 0.27731  0.62805  0.54663  Biso   1.000  O 
  O55      1.0000 0.22401  0.87594  0.79350  Biso   1.000  O 
  O56      1.0000 0.22259  0.87797  0.54740  Biso   1.000  O 
  O57      1.0000 0.53288  0.66586  0.66745  Biso   1.000  O 
  O58      1.0000 0.53248  0.58745  0.91782  Biso   1.000  O 
  O59      1.0000 0.96685  0.91740  0.66435  Biso   1.000  O 
  O60      1.0000 0.96949  0.83790  0.91467  Biso   1.000  O 
  O61      1.0000 0.77687  0.62760  0.95535  Biso   1.000  O 
  O62      1.0000 0.77671  0.62804  0.70477  Biso   1.000  O 
  O63      1.0000 0.72552  0.87667  0.95353  Biso   1.000  O 
  O64      1.0000 0.72425  0.87726  0.70388  Biso   1.000  O 
