data_image0
_cell_length_a       5.00768
_cell_length_b       10.2071
_cell_length_c       10.0187
_cell_angle_alpha    90
_cell_angle_beta     90
_cell_angle_gamma    90

_symmetry_space_group_name_H-M    "P 1"
_symmetry_int_tables_number       1

loop_
  _symmetry_equiv_pos_as_xyz
  'x, y, z'

loop_
  _atom_site_label
  _atom_site_occupancy
  _atom_site_fract_x
  _atom_site_fract_y
  _atom_site_fract_z
  _atom_site_thermal_displace_type
  _atom_site_B_iso_or_equiv
  _atom_site_type_symbol
  Hf1      1.0000 0.24982  0.99802  0.12491  Biso   1.000  Hf
  Hf2      1.0000 0.24981  0.25005  0.37050  Biso   1.000  Hf
  Hf3      1.0000 0.74981  0.25005  0.12491  Biso   1.000  Hf
  Hf4      1.0000 0.75219  0.99873  0.37659  Biso   1.000  Hf
  O1       1.0000 0.98068  0.14531  0.99137  Biso   1.000  O 
  O2       1.0000 0.00615  0.10214  0.24770  Biso   1.000  O 
  O3       1.0000 0.98070  0.35479  0.25845  Biso   1.000  O 
  O4       1.0000 0.00615  0.39797  0.00212  Biso   1.000  O 
  O5       1.0000 0.51893  0.14531  0.25845  Biso   1.000  O 
  O6       1.0000 0.49347  0.10213  0.00212  Biso   1.000  O 
  O7       1.0000 0.51894  0.35479  0.99137  Biso   1.000  O 
  O8       1.0000 0.49348  0.39797  0.24770  Biso   1.000  O 
  Hf5      1.0000 0.24982  0.00307  0.62491  Biso   1.000  Hf
  Hf6      1.0000 0.24981  0.25005  0.87933  Biso   1.000  Hf
  Hf7      1.0000 0.74981  0.25005  0.62491  Biso   1.000  Hf
  Hf8      1.0000 0.74745  0.99873  0.87323  Biso   1.000  Hf
  O9       1.0000 0.00192  0.14836  0.49629  Biso   1.000  O 
  O10      1.0000 0.99300  0.10192  0.74503  Biso   1.000  O 
  O11      1.0000 0.00193  0.35175  0.75353  Biso   1.000  O 
  O12      1.0000 0.99301  0.39819  0.50479  Biso   1.000  O 
  O13      1.0000 0.49770  0.14836  0.75353  Biso   1.000  O 
  O14      1.0000 0.50663  0.10192  0.50479  Biso   1.000  O 
  O15      1.0000 0.49771  0.35175  0.49629  Biso   1.000  O 
  O16      1.0000 0.50663  0.39819  0.74503  Biso   1.000  O 
  Hf9      1.0000 0.24982  0.50209  0.12491  Biso   1.000  Hf
  Hf10     1.0000 0.24983  0.75005  0.37594  Biso   1.000  Hf
  Hf11     1.0000 0.74983  0.75005  0.12491  Biso   1.000  Hf
  Hf12     1.0000 0.74746  0.50138  0.37659  Biso   1.000  Hf
  O17      1.0000 0.99681  0.64796  0.99723  Biso   1.000  O 
  O18      1.0000 0.00009  0.60261  0.24777  Biso   1.000  O 
  O19      1.0000 0.99681  0.85215  0.25259  Biso   1.000  O 
  O20      1.0000 0.00010  0.89750  0.00205  Biso   1.000  O 
  O21      1.0000 0.50284  0.64796  0.25259  Biso   1.000  O 
  O22      1.0000 0.49956  0.60261  0.00204  Biso   1.000  O 
  O23      1.0000 0.50283  0.85215  0.99723  Biso   1.000  O 
  O24      1.0000 0.49955  0.89750  0.24777  Biso   1.000  O 
  Hf13     1.0000 0.24982  0.49704  0.62491  Biso   1.000  Hf
  Hf14     1.0000 0.24982  0.75005  0.87387  Biso   1.000  Hf
  Hf15     1.0000 0.74982  0.75006  0.62491  Biso   1.000  Hf
  Hf16     1.0000 0.75218  0.50138  0.87322  Biso   1.000  Hf
  O25      1.0000 0.99015  0.64763  0.49569  Biso   1.000  O 
  O26      1.0000 0.00740  0.60323  0.74748  Biso   1.000  O 
  O27      1.0000 0.99014  0.85248  0.75413  Biso   1.000  O 
  O28      1.0000 0.00741  0.89687  0.50234  Biso   1.000  O 
  O29      1.0000 0.50949  0.64763  0.75413  Biso   1.000  O 
  O30      1.0000 0.49224  0.60323  0.50234  Biso   1.000  O 
  O31      1.0000 0.50950  0.85248  0.49569  Biso   1.000  O 
  O32      1.0000 0.49223  0.89687  0.74748  Biso   1.000  O 
  H1       1.0000 0.24982  0.25005  0.12490  Biso   1.000  H 
