data_image0
_cell_length_a       10.1059
_cell_length_b       5.18976
_cell_length_c       10.1222
_cell_angle_alpha    90
_cell_angle_beta     90
_cell_angle_gamma    90

_symmetry_space_group_name_H-M    "P 1"
_symmetry_int_tables_number       1

loop_
  _symmetry_equiv_pos_as_xyz
  'x, y, z'

loop_
  _atom_site_label
  _atom_site_occupancy
  _atom_site_fract_x
  _atom_site_fract_y
  _atom_site_fract_z
  _atom_site_thermal_displace_type
  _atom_site_B_iso_or_equiv
  _atom_site_type_symbol
  Hf1      1.0000 0.11750  0.98794  0.11578  Biso   1.000  Hf
  Hf2      1.0000 0.12137  0.47314  0.38000  Biso   1.000  Hf
  Hf3      1.0000 0.38459  0.53023  0.10592  Biso   1.000  Hf
  Hf4      1.0000 0.35933  0.98090  0.36084  Biso   1.000  Hf
  O1       1.0000 0.98659  0.25117  0.22601  Biso   1.000  O 
  O2       1.0000 0.02292  0.15153  0.46018  Biso   1.000  O 
  O3       1.0000 0.46753  0.86455  0.19112  Biso   1.000  O 
  O4       1.0000 0.47076  0.65900  0.44612  Biso   1.000  O 
  O5       1.0000 0.24389  0.22375  0.23293  Biso   1.000  O 
  O6       1.0000 0.26991  0.27710  0.48123  Biso   1.000  O 
  O7       1.0000 0.23244  0.77935  0.48535  Biso   1.000  O 
  O8       1.0000 0.24332  0.71182  0.23759  Biso   1.000  O 
  Hf5      1.0000 0.10798  0.97480  0.61910  Biso   1.000  Hf
  Hf6      1.0000 0.11354  0.45130  0.83881  Biso   1.000  Hf
  Hf7      1.0000 0.36548  0.52615  0.60590  Biso   1.000  Hf
  Hf8      1.0000 0.34400  0.95600  0.86639  Biso   1.000  Hf
  O9       1.0000 0.99803  0.28559  0.69918  Biso   1.000  O 
  O10      1.0000 0.99157  0.18723  0.96421  Biso   1.000  O 
  O11      1.0000 0.46044  0.85975  0.69656  Biso   1.000  O 
  O12      1.0000 0.44986  0.63319  0.93622  Biso   1.000  O 
  O13      1.0000 0.24046  0.19794  0.73324  Biso   1.000  O 
  O14      1.0000 0.23743  0.24741  0.98273  Biso   1.000  O 
  O15      1.0000 0.20947  0.73882  0.98386  Biso   1.000  O 
  O16      1.0000 0.23124  0.69917  0.73124  Biso   1.000  O 
  Hf9      1.0000 0.62585  0.02827  0.12193  Biso   1.000  Hf
  Hf10     1.0000 0.62933  0.46652  0.37588  Biso   1.000  Hf
  Hf11     1.0000 0.84889  0.50884  0.12881  Biso   1.000  Hf
  Hf12     1.0000 0.87527  0.97251  0.36738  Biso   1.000  Hf
  O17      1.0000 0.52769  0.35601  0.20513  Biso   1.000  O 
  O18      1.0000 0.52388  0.14505  0.44649  Biso   1.000  O 
  O19      1.0000 0.99454  0.74150  0.24283  Biso   1.000  O 
  O20      1.0000 0.98370  0.67599  0.49749  Biso   1.000  O 
  O21      1.0000 0.74980  0.21352  0.25253  Biso   1.000  O 
  O22      1.0000 0.76324  0.26856  0.49743  Biso   1.000  O 
  O23      1.0000 0.73640  0.76820  0.49624  Biso   1.000  O 
  O24      1.0000 0.73149  0.73074  0.24847  Biso   1.000  O 
  Hf13     1.0000 0.61877  0.01578  0.61686  Biso   1.000  Hf
  Hf14     1.0000 0.61251  0.44757  0.86800  Biso   1.000  Hf
  Hf15     1.0000 0.85105  0.51505  0.62889  Biso   1.000  Hf
  Hf16     1.0000 0.84691  0.94741  0.88509  Biso   1.000  Hf
  O25      1.0000 0.52077  0.35375  0.69194  Biso   1.000  O 
  O26      1.0000 0.49901  0.13912  0.95111  Biso   1.000  O 
  O27      1.0000 0.97936  0.78167  0.74638  Biso   1.000  O 
  O28      1.0000 0.95617  0.68899  0.99639  Biso   1.000  O 
  O29      1.0000 0.74809  0.20466  0.74958  Biso   1.000  O 
  O30      1.0000 0.73584  0.23523  0.99711  Biso   1.000  O 
  O31      1.0000 0.70371  0.73618  0.99593  Biso   1.000  O 
  O32      1.0000 0.72280  0.71450  0.74890  Biso   1.000  O 
  Hf17     1.0000 0.11724  0.48618  0.10884  Biso   1.000  Hf
