data_image0
_cell_length_a       10.1118
_cell_length_b       5.16337
_cell_length_c       10.5446
_cell_angle_alpha    90
_cell_angle_beta     90
_cell_angle_gamma    90

_symmetry_space_group_name_H-M    "P 1"
_symmetry_int_tables_number       1

loop_
  _symmetry_equiv_pos_as_xyz
  'x, y, z'

loop_
  _atom_site_label
  _atom_site_occupancy
  _atom_site_fract_x
  _atom_site_fract_y
  _atom_site_fract_z
  _atom_site_thermal_displace_type
  _atom_site_B_iso_or_equiv
  _atom_site_type_symbol
  Hf1      1.0000 0.13770  0.03892  0.17529  Biso   1.000  Hf
  Hf2      1.0000 0.12962  0.45443  0.42489  Biso   1.000  Hf
  Hf3      1.0000 0.35095  0.52777  0.18161  Biso   1.000  Hf
  Hf4      1.0000 0.35700  0.95105  0.42687  Biso   1.000  Hf
  Hf5      1.0000 0.63834  0.02153  0.07909  Biso   1.000  Hf
  Hf6      1.0000 0.62859  0.44916  0.33351  Biso   1.000  Hf
  Hf7      1.0000 0.88308  0.55431  0.07291  Biso   1.000  Hf
  Hf8      1.0000 0.85834  0.96050  0.32620  Biso   1.000  Hf
  O1       1.0000 0.03848  0.31736  0.07771  Biso   1.000  O 
  O2       1.0000 0.02063  0.18426  0.32902  Biso   1.000  O 
  O3       1.0000 0.47010  0.80659  0.08608  Biso   1.000  O 
  O4       1.0000 0.46272  0.67302  0.33175  Biso   1.000  O 
  O5       1.0000 0.26440  0.24527  0.30205  Biso   1.000  O 
  O6       1.0000 0.27567  0.24022  0.04904  Biso   1.000  O 
  O7       1.0000 0.21727  0.74576  0.30169  Biso   1.000  O 
  O8       1.0000 0.22758  0.74698  0.04769  Biso   1.000  O 
  O9       1.0000 0.50775  0.26716  0.19039  Biso   1.000  O 
  O10      1.0000 0.51853  0.17385  0.42854  Biso   1.000  O 
  O11      1.0000 0.97214  0.83593  0.17198  Biso   1.000  O 
  O12      1.0000 0.96243  0.68151  0.41995  Biso   1.000  O 
  O13      1.0000 0.76817  0.24315  0.45200  Biso   1.000  O 
  O14      1.0000 0.75863  0.27011  0.19559  Biso   1.000  O 
  O15      1.0000 0.71907  0.74748  0.45489  Biso   1.000  O 
  O16      1.0000 0.72731  0.74739  0.20551  Biso   1.000  O 
  Hf9      1.0000 0.12543  0.03903  0.67324  Biso   1.000  Hf
  Hf10     1.0000 0.12887  0.45201  0.92143  Biso   1.000  Hf
  Hf11     1.0000 0.35135  0.53878  0.67463  Biso   1.000  Hf
  Hf12     1.0000 0.34859  0.95475  0.92492  Biso   1.000  Hf
  Hf13     1.0000 0.62817  0.03558  0.57556  Biso   1.000  Hf
  Hf14     1.0000 0.63124  0.45863  0.81084  Biso   1.000  Hf
  Hf15     1.0000 0.85484  0.54403  0.57551  Biso   1.000  Hf
  Hf16     1.0000 0.85281  0.96266  0.82716  Biso   1.000  Hf
  O17      1.0000 0.02188  0.32325  0.58075  Biso   1.000  O 
  O18      1.0000 0.01820  0.17464  0.83030  Biso   1.000  O 
  O19      1.0000 0.46446  0.80728  0.58060  Biso   1.000  O 
  O20      1.0000 0.46207  0.68539  0.83018  Biso   1.000  O 
  O21      1.0000 0.26273  0.24393  0.79780  Biso   1.000  O 
  O22      1.0000 0.26428  0.24679  0.54910  Biso   1.000  O 
  O23      1.0000 0.21618  0.74447  0.79758  Biso   1.000  O 
  O24      1.0000 0.21793  0.74800  0.54930  Biso   1.000  O 
  O25      1.0000 0.51478  0.30343  0.67267  Biso   1.000  O 
  O26      1.0000 0.50603  0.19931  0.93435  Biso   1.000  O 
  O27      1.0000 0.96096  0.82382  0.66931  Biso   1.000  O 
  O28      1.0000 0.96277  0.67611  0.91509  Biso   1.000  O 
  O29      1.0000 0.75013  0.26299  0.95229  Biso   1.000  O 
  O30      1.0000 0.76787  0.24490  0.69703  Biso   1.000  O 
  O31      1.0000 0.71916  0.75791  0.95017  Biso   1.000  O 
  O32      1.0000 0.71973  0.74999  0.70166  Biso   1.000  O 
  Hf17     1.0000 0.61550  0.50994  0.06483  Biso   1.000  Hf
