data_image0
_cell_length_a       10.0906
_cell_length_b       10.2918
_cell_length_c       5.11165
_cell_angle_alpha    90
_cell_angle_beta     90
_cell_angle_gamma    90

_symmetry_space_group_name_H-M    "P 1"
_symmetry_int_tables_number       1

loop_
  _symmetry_equiv_pos_as_xyz
  'x, y, z'

loop_
  _atom_site_label
  _atom_site_occupancy
  _atom_site_fract_x
  _atom_site_fract_y
  _atom_site_fract_z
  _atom_site_thermal_displace_type
  _atom_site_B_iso_or_equiv
  _atom_site_type_symbol
  Hf1      1.0000 0.11800  0.97779  0.24921  Biso   1.000  Hf
  Hf2      1.0000 0.11809  0.23873  0.69125  Biso   1.000  Hf
  Hf3      1.0000 0.39202  0.26442  0.20031  Biso   1.000  Hf
  Hf4      1.0000 0.36190  0.48345  0.72536  Biso   1.000  Hf
  O1       1.0000 0.99368  0.13440  0.42962  Biso   1.000  O 
  O2       1.0000 0.01434  0.08179  0.93013  Biso   1.000  O 
  O3       1.0000 0.47397  0.43346  0.38029  Biso   1.000  O 
  O4       1.0000 0.46891  0.32767  0.87300  Biso   1.000  O 
  O5       1.0000 0.24478  0.11103  0.44086  Biso   1.000  O 
  O6       1.0000 0.25958  0.14442  0.93610  Biso   1.000  O 
  O7       1.0000 0.22283  0.38463  0.95582  Biso   1.000  O 
  O8       1.0000 0.24493  0.36227  0.45276  Biso   1.000  O 
  Hf5      1.0000 0.14481  0.52203  0.22949  Biso   1.000  Hf
  Hf6      1.0000 0.12207  0.73835  0.73777  Biso   1.000  Hf
  Hf7      1.0000 0.37683  0.76783  0.23299  Biso   1.000  Hf
  Hf8      1.0000 0.36102  0.99095  0.73278  Biso   1.000  Hf
  O9       1.0000 0.02677  0.65759  0.41280  Biso   1.000  O 
  O10      1.0000 0.02162  0.57610  0.89954  Biso   1.000  O 
  O11      1.0000 0.47218  0.93181  0.40149  Biso   1.000  O 
  O12      1.0000 0.47207  0.82711  0.89966  Biso   1.000  O 
  O13      1.0000 0.27568  0.61763  0.47553  Biso   1.000  O 
  O14      1.0000 0.26082  0.63555  0.97526  Biso   1.000  O 
  O15      1.0000 0.23519  0.88693  0.98133  Biso   1.000  O 
  O16      1.0000 0.24186  0.85533  0.48849  Biso   1.000  O 
  Hf9      1.0000 0.62420  0.00930  0.25185  Biso   1.000  Hf
  Hf10     1.0000 0.62702  0.22888  0.75005  Biso   1.000  Hf
  Hf11     1.0000 0.85071  0.25798  0.25997  Biso   1.000  Hf
  Hf12     1.0000 0.86422  0.47614  0.75738  Biso   1.000  Hf
  O17      1.0000 0.52836  0.17427  0.41717  Biso   1.000  O 
  O18      1.0000 0.50894  0.07767  0.92265  Biso   1.000  O 
  O19      1.0000 0.99456  0.38945  0.43234  Biso   1.000  O 
  O20      1.0000 0.95862  0.32080  0.92775  Biso   1.000  O 
  O21      1.0000 0.75374  0.10541  0.51033  Biso   1.000  O 
  O22      1.0000 0.76267  0.13121  0.00604  Biso   1.000  O 
  O23      1.0000 0.73726  0.38593  0.00144  Biso   1.000  O 
  O24      1.0000 0.73122  0.36464  0.50594  Biso   1.000  O 
  Hf13     1.0000 0.63509  0.51799  0.24096  Biso   1.000  Hf
  Hf14     1.0000 0.62973  0.73332  0.75005  Biso   1.000  Hf
  Hf15     1.0000 0.86756  0.75745  0.27021  Biso   1.000  Hf
  Hf16     1.0000 0.87105  0.98397  0.77341  Biso   1.000  Hf
  O25      1.0000 0.54072  0.68504  0.39061  Biso   1.000  O 
  O26      1.0000 0.52518  0.57269  0.89085  Biso   1.000  O 
  O27      1.0000 0.98807  0.88776  0.50700  Biso   1.000  O 
  O28      1.0000 0.98593  0.83207  0.99632  Biso   1.000  O 
  O29      1.0000 0.77096  0.60827  0.49559  Biso   1.000  O 
  O30      1.0000 0.76444  0.62873  0.99322  Biso   1.000  O 
  O31      1.0000 0.74969  0.88363  0.00399  Biso   1.000  O 
  O32      1.0000 0.73719  0.86199  0.50330  Biso   1.000  O 
  Hf17     1.0000 0.12263  0.24652  0.18992  Biso   1.000  Hf
