data_image0
_cell_length_a       10.0852
_cell_length_b       10.2305
_cell_length_c       10.5318
_cell_angle_alpha    90
_cell_angle_beta     90
_cell_angle_gamma    90

_symmetry_space_group_name_H-M    "P 1"
_symmetry_int_tables_number       1

loop_
  _symmetry_equiv_pos_as_xyz
  'x, y, z'

loop_
  _atom_site_label
  _atom_site_occupancy
  _atom_site_fract_x
  _atom_site_fract_y
  _atom_site_fract_z
  _atom_site_thermal_displace_type
  _atom_site_B_iso_or_equiv
  _atom_site_type_symbol
  Hf1      1.0000 0.13600  0.01922  0.17322  Biso   1.000  Hf
  Hf2      1.0000 0.13357  0.22829  0.42403  Biso   1.000  Hf
  Hf3      1.0000 0.35394  0.26482  0.17901  Biso   1.000  Hf
  Hf4      1.0000 0.35873  0.47725  0.42470  Biso   1.000  Hf
  Hf5      1.0000 0.63820  0.99892  0.08119  Biso   1.000  Hf
  Hf6      1.0000 0.62998  0.22563  0.33217  Biso   1.000  Hf
  Hf7      1.0000 0.87905  0.27800  0.07263  Biso   1.000  Hf
  Hf8      1.0000 0.85947  0.47894  0.32574  Biso   1.000  Hf
  O1       1.0000 0.03500  0.15801  0.07690  Biso   1.000  O 
  O2       1.0000 0.02303  0.09189  0.32769  Biso   1.000  O 
  O3       1.0000 0.47232  0.41482  0.09067  Biso   1.000  O 
  O4       1.0000 0.46317  0.33570  0.33274  Biso   1.000  O 
  O5       1.0000 0.26552  0.12320  0.30059  Biso   1.000  O 
  O6       1.0000 0.27362  0.12122  0.04795  Biso   1.000  O 
  O7       1.0000 0.21944  0.37483  0.30015  Biso   1.000  O 
  O8       1.0000 0.22754  0.37458  0.04670  Biso   1.000  O 
  O9       1.0000 0.50686  0.12832  0.18948  Biso   1.000  O 
  O10      1.0000 0.52296  0.08906  0.42940  Biso   1.000  O 
  O11      1.0000 0.97407  0.41517  0.17298  Biso   1.000  O 
  O12      1.0000 0.96591  0.33934  0.41951  Biso   1.000  O 
  O13      1.0000 0.77152  0.12195  0.45197  Biso   1.000  O 
  O14      1.0000 0.75554  0.13574  0.19389  Biso   1.000  O 
  O15      1.0000 0.72135  0.37448  0.45255  Biso   1.000  O 
  O16      1.0000 0.72314  0.38155  0.19851  Biso   1.000  O 
  Hf9      1.0000 0.13039  0.02035  0.67322  Biso   1.000  Hf
  Hf10     1.0000 0.13532  0.22691  0.92135  Biso   1.000  Hf
  Hf11     1.0000 0.35569  0.27011  0.67374  Biso   1.000  Hf
  Hf12     1.0000 0.35479  0.47830  0.92383  Biso   1.000  Hf
  Hf13     1.0000 0.63276  0.01785  0.57716  Biso   1.000  Hf
  Hf14     1.0000 0.63677  0.22944  0.81178  Biso   1.000  Hf
  Hf15     1.0000 0.85819  0.27186  0.57412  Biso   1.000  Hf
  Hf16     1.0000 0.85773  0.47995  0.82587  Biso   1.000  Hf
  O17      1.0000 0.02564  0.16071  0.57972  Biso   1.000  O 
  O18      1.0000 0.02304  0.08850  0.83054  Biso   1.000  O 
  O19      1.0000 0.46673  0.40857  0.58152  Biso   1.000  O 
  O20      1.0000 0.46580  0.33965  0.83282  Biso   1.000  O 
  O21      1.0000 0.26768  0.12355  0.79624  Biso   1.000  O 
  O22      1.0000 0.26949  0.12521  0.54828  Biso   1.000  O 
  O23      1.0000 0.22114  0.37381  0.79672  Biso   1.000  O 
  O24      1.0000 0.22106  0.37520  0.54810  Biso   1.000  O 
  O25      1.0000 0.51991  0.15289  0.67242  Biso   1.000  O 
  O26      1.0000 0.51434  0.09949  0.93445  Biso   1.000  O 
  O27      1.0000 0.96533  0.41227  0.66788  Biso   1.000  O 
  O28      1.0000 0.96943  0.34010  0.91565  Biso   1.000  O 
  O29      1.0000 0.75550  0.12882  0.95358  Biso   1.000  O 
  O30      1.0000 0.77315  0.12286  0.69757  Biso   1.000  O 
  O31      1.0000 0.72315  0.38112  0.94921  Biso   1.000  O 
  O32      1.0000 0.72268  0.37639  0.69911  Biso   1.000  O 
  Hf17     1.0000 0.14266  0.52133  0.17485  Biso   1.000  Hf
  Hf18     1.0000 0.13594  0.72874  0.42355  Biso   1.000  Hf
  Hf19     1.0000 0.36082  0.76838  0.17537  Biso   1.000  Hf
  Hf20     1.0000 0.36147  0.97771  0.42482  Biso   1.000  Hf
  Hf21     1.0000 0.64523  0.53321  0.07645  Biso   1.000  Hf
  Hf22     1.0000 0.63830  0.72824  0.33006  Biso   1.000  Hf
  Hf23     1.0000 0.86954  0.77075  0.07788  Biso   1.000  Hf
  Hf24     1.0000 0.86208  0.98055  0.32750  Biso   1.000  Hf
  O33      1.0000 0.03730  0.66273  0.08121  Biso   1.000  O 
  O34      1.0000 0.03011  0.58960  0.33164  Biso   1.000  O 
  O35      1.0000 0.47036  0.89512  0.07248  Biso   1.000  O 
  O36      1.0000 0.47044  0.84107  0.32896  Biso   1.000  O 
  O37      1.0000 0.27519  0.62359  0.29887  Biso   1.000  O 
  O38      1.0000 0.27990  0.62407  0.04756  Biso   1.000  O 
  O39      1.0000 0.22433  0.87255  0.29805  Biso   1.000  O 
  O40      1.0000 0.22681  0.87512  0.04767  Biso   1.000  O 
  O41      1.0000 0.53240  0.66229  0.17430  Biso   1.000  O 
  O42      1.0000 0.52800  0.58813  0.42095  Biso   1.000  O 
  O43      1.0000 0.96976  0.91495  0.16883  Biso   1.000  O 
  O44      1.0000 0.96684  0.84107  0.42022  Biso   1.000  O 
  O45      1.0000 0.77400  0.62356  0.45386  Biso   1.000  O 
  O46      1.0000 0.77997  0.62943  0.20428  Biso   1.000  O 
  O47      1.0000 0.72329  0.87343  0.45573  Biso   1.000  O 
  O48      1.0000 0.73129  0.87099  0.20867  Biso   1.000  O 
  Hf25     1.0000 0.13464  0.52105  0.67279  Biso   1.000  Hf
  Hf26     1.0000 0.13337  0.72883  0.92260  Biso   1.000  Hf
  Hf27     1.0000 0.35848  0.77083  0.67334  Biso   1.000  Hf
  Hf28     1.0000 0.35683  0.97790  0.92397  Biso   1.000  Hf
  Hf29     1.0000 0.63546  0.52107  0.57600  Biso   1.000  Hf
  Hf30     1.0000 0.63423  0.72832  0.82559  Biso   1.000  Hf
  Hf31     1.0000 0.85963  0.77187  0.57904  Biso   1.000  Hf
  Hf32     1.0000 0.85749  0.98136  0.82973  Biso   1.000  Hf
  O49      1.0000 0.02890  0.66334  0.58150  Biso   1.000  O 
  O50      1.0000 0.02736  0.58844  0.83018  Biso   1.000  O 
  O51      1.0000 0.46858  0.90558  0.57845  Biso   1.000  O 
  O52      1.0000 0.46799  0.84341  0.82605  Biso   1.000  O 
  O53      1.0000 0.27207  0.62303  0.79787  Biso   1.000  O 
  O54      1.0000 0.27203  0.62504  0.54729  Biso   1.000  O 
  O55      1.0000 0.22104  0.87288  0.79722  Biso   1.000  O 
  O56      1.0000 0.22257  0.87597  0.54764  Biso   1.000  O 
  O57      1.0000 0.52669  0.65891  0.67087  Biso   1.000  O 
  O58      1.0000 0.52359  0.59030  0.92055  Biso   1.000  O 
  O59      1.0000 0.96562  0.91199  0.67132  Biso   1.000  O 
  O60      1.0000 0.96450  0.83862  0.91942  Biso   1.000  O 
  O61      1.0000 0.77238  0.62798  0.95091  Biso   1.000  O 
  O62      1.0000 0.77173  0.62585  0.70239  Biso   1.000  O 
  O63      1.0000 0.72080  0.87173  0.95414  Biso   1.000  O 
  O64      1.0000 0.72266  0.87486  0.70623  Biso   1.000  O 
  Hf33     1.0000 0.61217  0.25642  0.06443  Biso   1.000  Hf
