data_image0
_cell_length_a       10.0358
_cell_length_b       10.3777
_cell_length_c       10.0742
_cell_angle_alpha    90
_cell_angle_beta     90
_cell_angle_gamma    90

_symmetry_space_group_name_H-M    "P 1"
_symmetry_int_tables_number       1

loop_
  _symmetry_equiv_pos_as_xyz
  'x, y, z'

loop_
  _atom_site_label
  _atom_site_occupancy
  _atom_site_fract_x
  _atom_site_fract_y
  _atom_site_fract_z
  _atom_site_thermal_displace_type
  _atom_site_B_iso_or_equiv
  _atom_site_type_symbol
  Hf1      1.0000 0.13114  0.99879  0.12265  Biso   1.000  Hf
  Hf2      1.0000 0.12800  0.23070  0.38610  Biso   1.000  Hf
  Hf3      1.0000 0.38364  0.27207  0.11566  Biso   1.000  Hf
  Hf4      1.0000 0.36791  0.48540  0.37262  Biso   1.000  Hf
  O1       1.0000 0.99031  0.15327  0.24031  Biso   1.000  O 
  O2       1.0000 0.03355  0.06424  0.46115  Biso   1.000  O 
  O3       1.0000 0.47199  0.43669  0.19566  Biso   1.000  O 
  O4       1.0000 0.46713  0.32023  0.44520  Biso   1.000  O 
  O5       1.0000 0.24737  0.12175  0.24232  Biso   1.000  O 
  O6       1.0000 0.27250  0.13227  0.49730  Biso   1.000  O 
  O7       1.0000 0.23248  0.38555  0.49610  Biso   1.000  O 
  O8       1.0000 0.23776  0.36993  0.24433  Biso   1.000  O 
  Hf5      1.0000 0.13349  0.01123  0.62701  Biso   1.000  Hf
  Hf6      1.0000 0.13570  0.23937  0.85117  Biso   1.000  Hf
  Hf7      1.0000 0.37176  0.26798  0.61899  Biso   1.000  Hf
  Hf8      1.0000 0.36909  0.48834  0.87030  Biso   1.000  Hf
  O9       1.0000 0.02834  0.17576  0.69334  Biso   1.000  O 
  O10      1.0000 0.02452  0.07872  0.95813  Biso   1.000  O 
  O11      1.0000 0.47012  0.43508  0.69316  Biso   1.000  O 
  O12      1.0000 0.46989  0.32318  0.93968  Biso   1.000  O 
  O13      1.0000 0.26932  0.11721  0.74402  Biso   1.000  O 
  O14      1.0000 0.26016  0.14198  0.99468  Biso   1.000  O 
  O15      1.0000 0.23341  0.38967  0.99136  Biso   1.000  O 
  O16      1.0000 0.23889  0.37077  0.74061  Biso   1.000  O 
  Hf9      1.0000 0.14048  0.52547  0.12272  Biso   1.000  Hf
  Hf10     1.0000 0.13568  0.73424  0.37626  Biso   1.000  Hf
  Hf11     1.0000 0.37221  0.76594  0.12379  Biso   1.000  Hf
  Hf12     1.0000 0.36661  0.98809  0.37123  Biso   1.000  Hf
  O17      1.0000 0.03297  0.67773  0.20311  Biso   1.000  O 
  O18      1.0000 0.03552  0.56864  0.44803  Biso   1.000  O 
  O19      1.0000 0.46310  0.93561  0.19387  Biso   1.000  O 
  O20      1.0000 0.46964  0.82225  0.44474  Biso   1.000  O 
  O21      1.0000 0.27683  0.62096  0.24760  Biso   1.000  O 
  O22      1.0000 0.27170  0.63469  0.49755  Biso   1.000  O 
  O23      1.0000 0.23585  0.88450  0.49735  Biso   1.000  O 
  O24      1.0000 0.23548  0.86333  0.24937  Biso   1.000  O 
  Hf13     1.0000 0.13499  0.51711  0.62299  Biso   1.000  Hf
  Hf14     1.0000 0.13398  0.73564  0.87165  Biso   1.000  Hf
  Hf15     1.0000 0.37108  0.76806  0.62232  Biso   1.000  Hf
  Hf16     1.0000 0.36813  0.98680  0.87520  Biso   1.000  Hf
  O25      1.0000 0.03627  0.68216  0.69517  Biso   1.000  O 
  O26      1.0000 0.03358  0.57276  0.94758  Biso   1.000  O 
  O27      1.0000 0.47005  0.93456  0.69781  Biso   1.000  O 
  O28      1.0000 0.47088  0.82223  0.94698  Biso   1.000  O 
  O29      1.0000 0.27112  0.61832  0.74545  Biso   1.000  O 
  O30      1.0000 0.27141  0.63848  0.99469  Biso   1.000  O 
  O31      1.0000 0.23451  0.88384  0.99566  Biso   1.000  O 
  O32      1.0000 0.23695  0.86586  0.74813  Biso   1.000  O 
  Hf17     1.0000 0.62805  0.01024  0.12308  Biso   1.000  Hf
  Hf18     1.0000 0.63148  0.23151  0.37710  Biso   1.000  Hf
  Hf19     1.0000 0.84733  0.25935  0.12856  Biso   1.000  Hf
  Hf20     1.0000 0.87027  0.48096  0.37478  Biso   1.000  Hf
  O33      1.0000 0.53031  0.17759  0.20284  Biso   1.000  O 
  O34      1.0000 0.53027  0.06817  0.44876  Biso   1.000  O 
  O35      1.0000 0.97678  0.41456  0.20192  Biso   1.000  O 
  O36      1.0000 0.96693  0.32285  0.45880  Biso   1.000  O 
  O37      1.0000 0.75139  0.10907  0.24977  Biso   1.000  O 
  O38      1.0000 0.76918  0.13642  0.49800  Biso   1.000  O 
  O39      1.0000 0.73204  0.38528  0.50016  Biso   1.000  O 
  O40      1.0000 0.72825  0.36812  0.25299  Biso   1.000  O 
  Hf21     1.0000 0.63301  0.01466  0.62288  Biso   1.000  Hf
  Hf22     1.0000 0.63386  0.23365  0.87120  Biso   1.000  Hf
  Hf23     1.0000 0.86315  0.26694  0.62641  Biso   1.000  Hf
  Hf24     1.0000 0.86832  0.48256  0.87820  Biso   1.000  Hf
  O41      1.0000 0.53677  0.18441  0.69384  Biso   1.000  O 
  O42      1.0000 0.52650  0.07383  0.94795  Biso   1.000  O 
  O43      1.0000 0.97420  0.42754  0.70696  Biso   1.000  O 
  O44      1.0000 0.96750  0.31917  0.95554  Biso   1.000  O 
  O45      1.0000 0.76853  0.11537  0.74845  Biso   1.000  O 
  O46      1.0000 0.76170  0.13005  0.99768  Biso   1.000  O 
  O47      1.0000 0.72618  0.38313  0.99924  Biso   1.000  O 
  O48      1.0000 0.73316  0.36833  0.75031  Biso   1.000  O 
  Hf25     1.0000 0.63709  0.51886  0.12426  Biso   1.000  Hf
  Hf26     1.0000 0.63715  0.73617  0.37561  Biso   1.000  Hf
  Hf27     1.0000 0.86682  0.76153  0.12650  Biso   1.000  Hf
  Hf28     1.0000 0.87756  0.99112  0.36886  Biso   1.000  Hf
  O49      1.0000 0.54064  0.68603  0.19476  Biso   1.000  O 
  O50      1.0000 0.53573  0.57027  0.44532  Biso   1.000  O 
  O51      1.0000 0.96650  0.91943  0.19973  Biso   1.000  O 
  O52      1.0000 0.97112  0.82079  0.44926  Biso   1.000  O 
  O53      1.0000 0.77367  0.61375  0.24790  Biso   1.000  O 
  O54      1.0000 0.77236  0.63520  0.49745  Biso   1.000  O 
  O55      1.0000 0.73744  0.88735  0.49588  Biso   1.000  O 
  O56      1.0000 0.73137  0.86355  0.24624  Biso   1.000  O 
  Hf29     1.0000 0.63697  0.51884  0.62347  Biso   1.000  Hf
  Hf30     1.0000 0.63615  0.73540  0.87299  Biso   1.000  Hf
  Hf31     1.0000 0.86938  0.76800  0.62315  Biso   1.000  Hf
  Hf32     1.0000 0.87059  0.98436  0.87739  Biso   1.000  Hf
  O57      1.0000 0.53808  0.68535  0.69484  Biso   1.000  O 
  O58      1.0000 0.53492  0.57160  0.94550  Biso   1.000  O 
  O59      1.0000 0.97400  0.92820  0.70634  Biso   1.000  O 
  O60      1.0000 0.97260  0.82211  0.95410  Biso   1.000  O 
  O61      1.0000 0.77339  0.61646  0.74792  Biso   1.000  O 
  O62      1.0000 0.77040  0.63275  0.99661  Biso   1.000  O 
  O63      1.0000 0.73326  0.88248  0.99685  Biso   1.000  O 
  O64      1.0000 0.73474  0.86710  0.74711  Biso   1.000  O 
  Hf33     1.0000 0.11560  0.25948  0.11267  Biso   1.000  Hf
