data_image0
_cell_length_a       10.2153
_cell_length_b       10.2958
_cell_length_c       5.32848
_cell_angle_alpha    90
_cell_angle_beta     80
_cell_angle_gamma    90

_symmetry_space_group_name_H-M    "P 1"
_symmetry_int_tables_number       1

loop_
  _symmetry_equiv_pos_as_xyz
  'x, y, z'

loop_
  _atom_site_label
  _atom_site_occupancy
  _atom_site_fract_x
  _atom_site_fract_y
  _atom_site_fract_z
  _atom_site_thermal_displace_type
  _atom_site_B_iso_or_equiv
  _atom_site_type_symbol
  Hf1      1.0000 0.13180  0.01566  0.30170  Biso   1.000  Hf
  Hf2      1.0000 0.13877  0.22572  0.77316  Biso   1.000  Hf
  Hf3      1.0000 0.34980  0.27851  0.15188  Biso   1.000  Hf
  Hf4      1.0000 0.36611  0.49262  0.69639  Biso   1.000  Hf
  O1       1.0000 0.04322  0.16265  0.14526  Biso   1.000  O 
  O2       1.0000 0.03517  0.08050  0.65384  Biso   1.000  O 
  O3       1.0000 0.47703  0.40890  0.35277  Biso   1.000  O 
  O4       1.0000 0.48746  0.35439  0.84387  Biso   1.000  O 
  O5       1.0000 0.27930  0.11821  0.43778  Biso   1.000  O 
  O6       1.0000 0.30326  0.13560  0.89904  Biso   1.000  O 
  O7       1.0000 0.22483  0.38934  0.99060  Biso   1.000  O 
  O8       1.0000 0.24561  0.36059  0.50188  Biso   1.000  O 
  Hf5      1.0000 0.13982  0.52432  0.28835  Biso   1.000  Hf
  Hf6      1.0000 0.14345  0.72723  0.79529  Biso   1.000  Hf
  Hf7      1.0000 0.36619  0.77085  0.20799  Biso   1.000  Hf
  Hf8      1.0000 0.37295  0.96095  0.70073  Biso   1.000  Hf
  O9       1.0000 0.03128  0.66150  0.15438  Biso   1.000  O 
  O10      1.0000 0.04219  0.58554  0.65123  Biso   1.000  O 
  O11      1.0000 0.47592  0.90872  0.35232  Biso   1.000  O 
  O12      1.0000 0.47835  0.82659  0.85408  Biso   1.000  O 
  O13      1.0000 0.28132  0.62509  0.47368  Biso   1.000  O 
  O14      1.0000 0.28501  0.62804  0.97822  Biso   1.000  O 
  O15      1.0000 0.22593  0.88489  0.02400  Biso   1.000  O 
  O16      1.0000 0.22825  0.86296  0.51948  Biso   1.000  O 
  Hf9      1.0000 0.63963  0.02614  0.31268  Biso   1.000  Hf
  Hf10     1.0000 0.65621  0.22700  0.80906  Biso   1.000  Hf
  Hf11     1.0000 0.86366  0.26952  0.22630  Biso   1.000  Hf
  Hf12     1.0000 0.87186  0.47606  0.71793  Biso   1.000  Hf
  O17      1.0000 0.52089  0.16760  0.16915  Biso   1.000  O 
  O18      1.0000 0.54697  0.06533  0.68887  Biso   1.000  O 
  O19      1.0000 0.97861  0.40729  0.36166  Biso   1.000  O 
  O20      1.0000 0.97441  0.33441  0.85924  Biso   1.000  O 
  O21      1.0000 0.79108  0.12453  0.49940  Biso   1.000  O 
  O22      1.0000 0.77813  0.12093  0.00823  Biso   1.000  O 
  O23      1.0000 0.72781  0.37714  0.04006  Biso   1.000  O 
  O24      1.0000 0.73981  0.37424  0.53647  Biso   1.000  O 
  Hf13     1.0000 0.64481  0.52099  0.30033  Biso   1.000  Hf
  Hf14     1.0000 0.65069  0.72427  0.79867  Biso   1.000  Hf
  Hf15     1.0000 0.86051  0.77218  0.21899  Biso   1.000  Hf
  Hf16     1.0000 0.86425  0.97463  0.72279  Biso   1.000  Hf
  O25      1.0000 0.53444  0.65844  0.15406  Biso   1.000  O 
  O26      1.0000 0.54054  0.59101  0.64595  Biso   1.000  O 
  O27      1.0000 0.97069  0.90604  0.36719  Biso   1.000  O 
  O28      1.0000 0.97726  0.83643  0.86261  Biso   1.000  O 
  O29      1.0000 0.78388  0.62679  0.48704  Biso   1.000  O 
  O30      1.0000 0.78801  0.61842  0.98513  Biso   1.000  O 
  O31      1.0000 0.72350  0.87811  0.03426  Biso   1.000  O 
  O32      1.0000 0.72979  0.86949  0.52950  Biso   1.000  O 
  Hf17     1.0000 0.43544  0.22721  0.56688  Biso   1.000  Hf
