data_image0
_cell_length_a       10.2624
_cell_length_b       5.17289
_cell_length_c       10.5614
_cell_angle_alpha    90
_cell_angle_beta     80
_cell_angle_gamma    90

_symmetry_space_group_name_H-M    "P 1"
_symmetry_int_tables_number       1

loop_
  _symmetry_equiv_pos_as_xyz
  'x, y, z'

loop_
  _atom_site_label
  _atom_site_occupancy
  _atom_site_fract_x
  _atom_site_fract_y
  _atom_site_fract_z
  _atom_site_thermal_displace_type
  _atom_site_B_iso_or_equiv
  _atom_site_type_symbol
  Hf1      1.0000 0.13844  0.03779  0.14417  Biso   1.000  Hf
  Hf2      1.0000 0.12663  0.44852  0.39664  Biso   1.000  Hf
  Hf3      1.0000 0.35772  0.54001  0.08882  Biso   1.000  Hf
  Hf4      1.0000 0.37154  0.97921  0.35269  Biso   1.000  Hf
  O1       1.0000 0.03340  0.31883  0.07051  Biso   1.000  O 
  O2       1.0000 0.03024  0.17260  0.31846  Biso   1.000  O 
  O3       1.0000 0.48229  0.79670  0.18808  Biso   1.000  O 
  O4       1.0000 0.50046  0.73802  0.44119  Biso   1.000  O 
  O5       1.0000 0.27465  0.24447  0.23403  Biso   1.000  O 
  O6       1.0000 0.27783  0.25209  0.48837  Biso   1.000  O 
  O7       1.0000 0.22246  0.76072  0.00241  Biso   1.000  O 
  O8       1.0000 0.23909  0.72820  0.25599  Biso   1.000  O 
  Hf5      1.0000 0.15013  0.04828  0.64187  Biso   1.000  Hf
  Hf6      1.0000 0.15165  0.46674  0.88881  Biso   1.000  Hf
  Hf7      1.0000 0.38031  0.56049  0.60743  Biso   1.000  Hf
  Hf8      1.0000 0.37864  0.97458  0.84974  Biso   1.000  Hf
  O9       1.0000 0.03691  0.33035  0.57685  Biso   1.000  O 
  O10      1.0000 0.04587  0.18326  0.81935  Biso   1.000  O 
  O11      1.0000 0.48654  0.83857  0.68133  Biso   1.000  O 
  O12      1.0000 0.48992  0.70452  0.92489  Biso   1.000  O 
  O13      1.0000 0.28659  0.26598  0.73678  Biso   1.000  O 
  O14      1.0000 0.28882  0.26059  0.98309  Biso   1.000  O 
  O15      1.0000 0.24981  0.74321  0.49769  Biso   1.000  O 
  O16      1.0000 0.23935  0.75881  0.75483  Biso   1.000  O 
  Hf9      1.0000 0.64068  0.04150  0.14736  Biso   1.000  Hf
  Hf10     1.0000 0.65710  0.47709  0.40150  Biso   1.000  Hf
  Hf11     1.0000 0.86636  0.54343  0.10462  Biso   1.000  Hf
  Hf12     1.0000 0.86719  0.96498  0.35405  Biso   1.000  Hf
  O17      1.0000 0.52872  0.31242  0.07604  Biso   1.000  O 
  O18      1.0000 0.54021  0.19324  0.32910  Biso   1.000  O 
  O19      1.0000 0.97535  0.81779  0.17483  Biso   1.000  O 
  O20      1.0000 0.97206  0.68907  0.42731  Biso   1.000  O 
  O21      1.0000 0.77934  0.26164  0.23835  Biso   1.000  O 
  O22      1.0000 0.78867  0.25199  0.49262  Biso   1.000  O 
  O23      1.0000 0.72836  0.75567  0.01378  Biso   1.000  O 
  O24      1.0000 0.73573  0.75331  0.26146  Biso   1.000  O 
  Hf13     1.0000 0.64884  0.05851  0.64770  Biso   1.000  Hf
  Hf14     1.0000 0.65387  0.46915  0.89711  Biso   1.000  Hf
  Hf15     1.0000 0.87175  0.55741  0.60844  Biso   1.000  Hf
  Hf16     1.0000 0.87981  0.96993  0.85254  Biso   1.000  Hf
  O25      1.0000 0.54497  0.33551  0.57420  Biso   1.000  O 
  O26      1.0000 0.54271  0.19995  0.82383  Biso   1.000  O 
  O27      1.0000 0.98434  0.83514  0.67286  Biso   1.000  O 
  O28      1.0000 0.98300  0.68326  0.92056  Biso   1.000  O 
  O29      1.0000 0.78566  0.26981  0.74156  Biso   1.000  O 
  O30      1.0000 0.78996  0.25570  0.98863  Biso   1.000  O 
  O31      1.0000 0.73742  0.76773  0.51513  Biso   1.000  O 
  O32      1.0000 0.74207  0.75775  0.76297  Biso   1.000  O 
  Hf17     1.0000 0.39418  0.49016  0.33542  Biso   1.000  Hf
