data_image0
_cell_length_a       10.1715
_cell_length_b       10.2931
_cell_length_c       10.535
_cell_angle_alpha    90
_cell_angle_beta     80
_cell_angle_gamma    90

_symmetry_space_group_name_H-M    "P 1"
_symmetry_int_tables_number       1

loop_
  _symmetry_equiv_pos_as_xyz
  'x, y, z'

loop_
  _atom_site_label
  _atom_site_occupancy
  _atom_site_fract_x
  _atom_site_fract_y
  _atom_site_fract_z
  _atom_site_thermal_displace_type
  _atom_site_B_iso_or_equiv
  _atom_site_type_symbol
  Hf1      1.0000 0.13553  0.02031  0.14466  Biso   1.000  Hf
  Hf2      1.0000 0.14175  0.22599  0.39224  Biso   1.000  Hf
  Hf3      1.0000 0.34591  0.27232  0.07453  Biso   1.000  Hf
  Hf4      1.0000 0.36413  0.48921  0.35461  Biso   1.000  Hf
  O1       1.0000 0.03318  0.16684  0.07575  Biso   1.000  O 
  O2       1.0000 0.03807  0.08021  0.32781  Biso   1.000  O 
  O3       1.0000 0.47425  0.40789  0.17710  Biso   1.000  O 
  O4       1.0000 0.48343  0.35013  0.42959  Biso   1.000  O 
  O5       1.0000 0.27885  0.11723  0.23036  Biso   1.000  O 
  O6       1.0000 0.30419  0.13483  0.46552  Biso   1.000  O 
  O7       1.0000 0.22103  0.38587  0.99551  Biso   1.000  O 
  O8       1.0000 0.24197  0.36132  0.25226  Biso   1.000  O 
  Hf5      1.0000 0.14022  0.01694  0.64769  Biso   1.000  Hf
  Hf6      1.0000 0.14012  0.22719  0.88786  Biso   1.000  Hf
  Hf7      1.0000 0.36899  0.27372  0.60358  Biso   1.000  Hf
  Hf8      1.0000 0.36728  0.48279  0.84741  Biso   1.000  Hf
  O9       1.0000 0.04911  0.16602  0.57673  Biso   1.000  O 
  O10      1.0000 0.03717  0.08020  0.82699  Biso   1.000  O 
  O11      1.0000 0.47321  0.41846  0.67098  Biso   1.000  O 
  O12      1.0000 0.47589  0.33834  0.91329  Biso   1.000  O 
  O13      1.0000 0.28000  0.12641  0.73081  Biso   1.000  O 
  O14      1.0000 0.27708  0.11882  0.97732  Biso   1.000  O 
  O15      1.0000 0.23173  0.38224  0.50699  Biso   1.000  O 
  O16      1.0000 0.23166  0.36971  0.75395  Biso   1.000  O 
  Hf9      1.0000 0.14020  0.52277  0.14450  Biso   1.000  Hf
  Hf10     1.0000 0.14101  0.72784  0.39668  Biso   1.000  Hf
  Hf11     1.0000 0.36253  0.77072  0.10280  Biso   1.000  Hf
  Hf12     1.0000 0.36647  0.96398  0.35104  Biso   1.000  Hf
  O17      1.0000 0.03525  0.66605  0.07880  Biso   1.000  O 
  O18      1.0000 0.04157  0.58231  0.32775  Biso   1.000  O 
  O19      1.0000 0.47113  0.91125  0.17385  Biso   1.000  O 
  O20      1.0000 0.46979  0.82399  0.42421  Biso   1.000  O 
  O21      1.0000 0.28116  0.62541  0.23898  Biso   1.000  O 
  O22      1.0000 0.27857  0.62618  0.49232  Biso   1.000  O 
  O23      1.0000 0.22511  0.87920  0.00907  Biso   1.000  O 
  O24      1.0000 0.22378  0.86318  0.25730  Biso   1.000  O 
  Hf13     1.0000 0.14442  0.52131  0.64465  Biso   1.000  Hf
  Hf14     1.0000 0.14624  0.72719  0.89600  Biso   1.000  Hf
  Hf15     1.0000 0.36985  0.77066  0.60419  Biso   1.000  Hf
  Hf16     1.0000 0.37140  0.97496  0.85090  Biso   1.000  Hf
  O25      1.0000 0.03765  0.66490  0.57886  Biso   1.000  O 
  O26      1.0000 0.04263  0.58141  0.82839  Biso   1.000  O 
  O27      1.0000 0.47445  0.91623  0.67114  Biso   1.000  O 
  O28      1.0000 0.47677  0.83317  0.92155  Biso   1.000  O 
  O29      1.0000 0.28254  0.62785  0.73868  Biso   1.000  O 
  O30      1.0000 0.28748  0.62258  0.98804  Biso   1.000  O 
  O31      1.0000 0.22926  0.88231  0.51015  Biso   1.000  O 
  O32      1.0000 0.23206  0.86928  0.75931  Biso   1.000  O 
  Hf17     1.0000 0.63796  0.02540  0.15461  Biso   1.000  Hf
  Hf18     1.0000 0.65703  0.22750  0.40216  Biso   1.000  Hf
  Hf19     1.0000 0.85919  0.27128  0.10876  Biso   1.000  Hf
  Hf20     1.0000 0.86857  0.47808  0.35672  Biso   1.000  Hf
  O33      1.0000 0.51696  0.16535  0.08332  Biso   1.000  O 
  O34      1.0000 0.54577  0.06428  0.34555  Biso   1.000  O 
  O35      1.0000 0.97250  0.41362  0.17411  Biso   1.000  O 
  O36      1.0000 0.97293  0.33349  0.42468  Biso   1.000  O 
  O37      1.0000 0.78930  0.12557  0.24531  Biso   1.000  O 
  O38      1.0000 0.79096  0.11676  0.49831  Biso   1.000  O 
  O39      1.0000 0.72062  0.37838  0.01374  Biso   1.000  O 
  O40      1.0000 0.73556  0.37576  0.26495  Biso   1.000  O 
  Hf21     1.0000 0.64477  0.02243  0.64751  Biso   1.000  Hf
  Hf22     1.0000 0.64614  0.22805  0.89849  Biso   1.000  Hf
  Hf23     1.0000 0.87040  0.26973  0.60762  Biso   1.000  Hf
  Hf24     1.0000 0.86873  0.47722  0.85546  Biso   1.000  Hf
  O41      1.0000 0.54382  0.16980  0.58113  Biso   1.000  O 
  O42      1.0000 0.53974  0.08391  0.82912  Biso   1.000  O 
  O43      1.0000 0.97365  0.41472  0.67373  Biso   1.000  O 
  O44      1.0000 0.96880  0.32994  0.92120  Biso   1.000  O 
  O45      1.0000 0.78253  0.12813  0.74516  Biso   1.000  O 
  O46      1.0000 0.77980  0.12133  0.99511  Biso   1.000  O 
  O47      1.0000 0.73614  0.37784  0.51525  Biso   1.000  O 
  O48      1.0000 0.73175  0.36937  0.76271  Biso   1.000  O 
  Hf25     1.0000 0.64163  0.52116  0.14921  Biso   1.000  Hf
  Hf26     1.0000 0.64611  0.72740  0.39758  Biso   1.000  Hf
  Hf27     1.0000 0.86102  0.77215  0.10649  Biso   1.000  Hf
  Hf28     1.0000 0.86480  0.97681  0.35636  Biso   1.000  Hf
  O49      1.0000 0.53411  0.66249  0.07760  Biso   1.000  O 
  O50      1.0000 0.53904  0.58727  0.32676  Biso   1.000  O 
  O51      1.0000 0.96842  0.91305  0.17429  Biso   1.000  O 
  O52      1.0000 0.97040  0.83243  0.42520  Biso   1.000  O 
  O53      1.0000 0.78167  0.62852  0.24206  Biso   1.000  O 
  O54      1.0000 0.78221  0.62042  0.49190  Biso   1.000  O 
  O55      1.0000 0.72367  0.88004  0.01376  Biso   1.000  O 
  O56      1.0000 0.72759  0.86993  0.26165  Biso   1.000  O 
  Hf29     1.0000 0.64683  0.52098  0.64731  Biso   1.000  Hf
  Hf30     1.0000 0.64808  0.72616  0.89752  Biso   1.000  Hf
  Hf31     1.0000 0.86606  0.77086  0.60589  Biso   1.000  Hf
  Hf32     1.0000 0.86579  0.97608  0.85793  Biso   1.000  Hf
  O57      1.0000 0.54131  0.66481  0.57977  Biso   1.000  O 
  O58      1.0000 0.54172  0.58515  0.82649  Biso   1.000  O 
  O59      1.0000 0.97163  0.91391  0.67556  Biso   1.000  O 
  O60      1.0000 0.97506  0.83264  0.92279  Biso   1.000  O 
  O61      1.0000 0.78382  0.62743  0.74169  Biso   1.000  O 
  O62      1.0000 0.78683  0.61949  0.99082  Biso   1.000  O 
  O63      1.0000 0.72858  0.87689  0.51245  Biso   1.000  O 
  O64      1.0000 0.73097  0.87069  0.76207  Biso   1.000  O 
  Hf33     1.0000 0.43523  0.22797  0.28686  Biso   1.000  Hf
