data_image0
_cell_length_a       10.4235
_cell_length_b       5.42494
_cell_length_c       10.4236
_cell_angle_alpha    90
_cell_angle_beta     80
_cell_angle_gamma    90

_symmetry_space_group_name_H-M    "P 1"
_symmetry_int_tables_number       1

loop_
  _symmetry_equiv_pos_as_xyz
  'x, y, z'

loop_
  _atom_site_label
  _atom_site_occupancy
  _atom_site_fract_x
  _atom_site_fract_y
  _atom_site_fract_z
  _atom_site_thermal_displace_type
  _atom_site_B_iso_or_equiv
  _atom_site_type_symbol
  Hf1      1.0000 0.04996  0.85847  0.16221  Biso   1.000  Hf
  Hf2      1.0000 0.04192  0.36573  0.35891  Biso   1.000  Hf
  Hf3      1.0000 0.30107  0.46118  0.11055  Biso   1.000  Hf
  Hf4      1.0000 0.28001  0.80179  0.39937  Biso   1.000  Hf
  O1       1.0000 0.82621  0.06927  0.88639  Biso   1.000  O 
  O2       1.0000 0.99360  0.04965  0.25958  Biso   1.000  O 
  O3       1.0000 0.92190  0.55840  0.25239  Biso   1.000  O 
  O4       1.0000 0.93363  0.76006  0.02615  Biso   1.000  O 
  O5       1.0000 0.21060  0.21808  0.25144  Biso   1.000  O 
  O6       1.0000 0.24519  0.14231  0.01848  Biso   1.000  O 
  O7       1.0000 0.17761  0.65258  0.00731  Biso   1.000  O 
  O8       1.0000 0.16718  0.67612  0.26355  Biso   1.000  O 
  Hf5      1.0000 0.01947  0.71181  0.64335  Biso   1.000  Hf
  Hf6      1.0000 0.00783  0.21364  0.83632  Biso   1.000  Hf
  Hf7      1.0000 0.27688  0.27655  0.60060  Biso   1.000  Hf
  Hf8      1.0000 0.26385  0.60130  0.88934  Biso   1.000  Hf
  O9       1.0000 0.94514  0.13224  0.49370  Biso   1.000  O 
  O10      1.0000 0.96945  0.90294  0.72381  Biso   1.000  O 
  O11      1.0000 0.89051  0.42319  0.73269  Biso   1.000  O 
  O12      1.0000 0.90177  0.60117  0.49840  Biso   1.000  O 
  O13      1.0000 0.18493  0.04871  0.74022  Biso   1.000  O 
  O14      1.0000 0.22783  0.97061  0.49979  Biso   1.000  O 
  O15      1.0000 0.15660  0.47674  0.49889  Biso   1.000  O 
  O16      1.0000 0.13601  0.51185  0.75248  Biso   1.000  O 
  Hf9      1.0000 0.53428  0.90142  0.14993  Biso   1.000  Hf
  Hf10     1.0000 0.53937  0.37323  0.34902  Biso   1.000  Hf
  Hf11     1.0000 0.78256  0.49899  0.09381  Biso   1.000  Hf
  Hf12     1.0000 0.77911  0.79111  0.39549  Biso   1.000  Hf
  O17      1.0000 0.43532  0.94444  0.98234  Biso   1.000  O 
  O18      1.0000 0.48083  0.06379  0.25731  Biso   1.000  O 
  O19      1.0000 0.41966  0.57362  0.24676  Biso   1.000  O 
  O20      1.0000 0.41091  0.78871  0.01043  Biso   1.000  O 
  O21      1.0000 0.70500  0.24025  0.24179  Biso   1.000  O 
  O22      1.0000 0.71299  0.17679  0.01121  Biso   1.000  O 
  O23      1.0000 0.63222  0.32801  0.98024  Biso   1.000  O 
  O24      1.0000 0.66123  0.70529  0.24909  Biso   1.000  O 
  Hf13     1.0000 0.50827  0.72269  0.63176  Biso   1.000  Hf
  Hf14     1.0000 0.51410  0.19116  0.84383  Biso   1.000  Hf
  Hf15     1.0000 0.77863  0.28861  0.59028  Biso   1.000  Hf
  Hf16     1.0000 0.84123  0.70669  0.85623  Biso   1.000  Hf
  O25      1.0000 0.44946  0.13915  0.49510  Biso   1.000  O 
  O26      1.0000 0.46025  0.87419  0.74769  Biso   1.000  O 
  O27      1.0000 0.39209  0.38394  0.74079  Biso   1.000  O 
  O28      1.0000 0.39790  0.60030  0.49896  Biso   1.000  O 
  O29      1.0000 0.67602  0.06101  0.72581  Biso   1.000  O 
  O30      1.0000 0.72610  0.97212  0.49289  Biso   1.000  O 
  O31      1.0000 0.65861  0.48212  0.48535  Biso   1.000  O 
  O32      1.0000 0.62648  0.52268  0.73190  Biso   1.000  O 
  Hg1      1.0000 0.01883  0.23269  0.04955  Biso   1.000  Hg
