data_image0
_cell_length_a       4.96859
_cell_length_b       10.3859
_cell_length_c       10.0552
_cell_angle_alpha    90
_cell_angle_beta     90
_cell_angle_gamma    90

_symmetry_space_group_name_H-M    "P 1"
_symmetry_int_tables_number       1

loop_
  _symmetry_equiv_pos_as_xyz
  'x, y, z'

loop_
  _atom_site_label
  _atom_site_occupancy
  _atom_site_fract_x
  _atom_site_fract_y
  _atom_site_fract_z
  _atom_site_thermal_displace_type
  _atom_site_B_iso_or_equiv
  _atom_site_type_symbol
  Hg1      1.0000 0.25047  0.02182  0.11054  Biso   1.000  Hg
  Hf1      1.0000 0.29745  0.22852  0.38130  Biso   1.000  Hf
  Hf2      1.0000 0.72784  0.26783  0.13063  Biso   1.000  Hf
  Hf3      1.0000 0.75291  0.48258  0.37760  Biso   1.000  Hf
  O1       1.0000 0.10113  0.18787  0.18791  Biso   1.000  O 
  O2       1.0000 0.09836  0.06344  0.44407  Biso   1.000  O 
  O3       1.0000 0.93793  0.42887  0.19465  Biso   1.000  O 
  O4       1.0000 0.94845  0.31525  0.44007  Biso   1.000  O 
  O5       1.0000 0.59212  0.13132  0.26288  Biso   1.000  O 
  O6       1.0000 0.56481  0.12888  0.50706  Biso   1.000  O 
  O7       1.0000 0.48457  0.38066  0.50173  Biso   1.000  O 
  O8       1.0000 0.46295  0.37101  0.25304  Biso   1.000  O 
  Hf4      1.0000 0.28959  0.01795  0.63372  Biso   1.000  Hf
  Hf5      1.0000 0.30076  0.23556  0.86929  Biso   1.000  Hf
  Hf6      1.0000 0.76299  0.26715  0.62387  Biso   1.000  Hf
  Hf7      1.0000 0.76728  0.48171  0.87627  Biso   1.000  Hf
  O9       1.0000 0.12192  0.19632  0.67707  Biso   1.000  O 
  O10      1.0000 0.11623  0.06266  0.88903  Biso   1.000  O 
  O11      1.0000 0.95695  0.43527  0.69596  Biso   1.000  O 
  O12      1.0000 0.95761  0.30941  0.94227  Biso   1.000  O 
  O13      1.0000 0.58587  0.12212  0.75179  Biso   1.000  O 
  O14      1.0000 0.53336  0.12701  0.00317  Biso   1.000  O 
  O15      1.0000 0.45587  0.37969  0.00234  Biso   1.000  O 
  O16      1.0000 0.49095  0.37049  0.75031  Biso   1.000  O 
  Hf8      1.0000 0.27788  0.51561  0.12985  Biso   1.000  Hf
  Hf9      1.0000 0.29319  0.73476  0.37865  Biso   1.000  Hf
  Hf10     1.0000 0.74491  0.76069  0.12758  Biso   1.000  Hf
  Hf11     1.0000 0.75237  0.98456  0.38120  Biso   1.000  Hf
  O17      1.0000 0.09012  0.68444  0.19733  Biso   1.000  O 
  O18      1.0000 0.09538  0.56433  0.44622  Biso   1.000  O 
  O19      1.0000 0.93912  0.93483  0.19255  Biso   1.000  O 
  O20      1.0000 0.95306  0.81403  0.44639  Biso   1.000  O 
  O21      1.0000 0.55936  0.61247  0.24952  Biso   1.000  O 
  O22      1.0000 0.56476  0.63134  0.50052  Biso   1.000  O 
  O23      1.0000 0.47849  0.88209  0.50691  Biso   1.000  O 
  O24      1.0000 0.51776  0.85728  0.26192  Biso   1.000  O 
  Hf12     1.0000 0.29592  0.51676  0.62654  Biso   1.000  Hf
  Hf13     1.0000 0.30030  0.72903  0.87814  Biso   1.000  Hf
  Hf14     1.0000 0.75878  0.76495  0.62503  Biso   1.000  Hf
  Hf15     1.0000 0.76642  0.97970  0.87016  Biso   1.000  Hf
  O25      1.0000 0.10049  0.68359  0.69816  Biso   1.000  O 
  O26      1.0000 0.10802  0.56249  0.94887  Biso   1.000  O 
  O27      1.0000 0.94325  0.93367  0.68384  Biso   1.000  O 
  O28      1.0000 0.95874  0.81491  0.94282  Biso   1.000  O 
  O29      1.0000 0.57026  0.61658  0.75161  Biso   1.000  O 
  O30      1.0000 0.53850  0.63132  0.00075  Biso   1.000  O 
  O31      1.0000 0.44909  0.87740  0.00898  Biso   1.000  O 
  O32      1.0000 0.48754  0.86654  0.75539  Biso   1.000  O 
