data_image0
_cell_length_a       9.95211
_cell_length_b       10.387
_cell_length_c       5.03241
_cell_angle_alpha    90
_cell_angle_beta     90
_cell_angle_gamma    90

_symmetry_space_group_name_H-M    "P 1"
_symmetry_int_tables_number       1

loop_
  _symmetry_equiv_pos_as_xyz
  'x, y, z'

loop_
  _atom_site_label
  _atom_site_occupancy
  _atom_site_fract_x
  _atom_site_fract_y
  _atom_site_fract_z
  _atom_site_thermal_displace_type
  _atom_site_B_iso_or_equiv
  _atom_site_type_symbol
  Hg1      1.0000 0.12240  0.02242  0.22717  Biso   1.000  Hg
  Hf1      1.0000 0.14263  0.23338  0.74872  Biso   1.000  Hf
  Hf2      1.0000 0.37019  0.26841  0.26450  Biso   1.000  Hf
  Hf3      1.0000 0.37224  0.48284  0.75799  Biso   1.000  Hf
  O1       1.0000 0.04823  0.19448  0.35725  Biso   1.000  O 
  O2       1.0000 0.04037  0.06910  0.80105  Biso   1.000  O 
  O3       1.0000 0.46849  0.43322  0.39713  Biso   1.000  O 
  O4       1.0000 0.47034  0.31309  0.89074  Biso   1.000  O 
  O5       1.0000 0.29727  0.13480  0.53651  Biso   1.000  O 
  O6       1.0000 0.26479  0.12676  0.02291  Biso   1.000  O 
  O7       1.0000 0.23125  0.38067  0.00492  Biso   1.000  O 
  O8       1.0000 0.23141  0.37223  0.50308  Biso   1.000  O 
  Hf4      1.0000 0.13769  0.51581  0.25493  Biso   1.000  Hf
  Hf5      1.0000 0.14041  0.73032  0.75700  Biso   1.000  Hf
  Hf6      1.0000 0.36990  0.76471  0.26452  Biso   1.000  Hf
  Hf7      1.0000 0.37131  0.98150  0.75353  Biso   1.000  Hf
  O9       1.0000 0.03993  0.68350  0.39264  Biso   1.000  O 
  O10      1.0000 0.04207  0.56285  0.89469  Biso   1.000  O 
  O11      1.0000 0.47253  0.93292  0.39741  Biso   1.000  O 
  O12      1.0000 0.47130  0.81528  0.90187  Biso   1.000  O 
  O13      1.0000 0.27485  0.61297  0.50323  Biso   1.000  O 
  O14      1.0000 0.27078  0.63290  0.00509  Biso   1.000  O 
  O15      1.0000 0.22628  0.88001  0.02618  Biso   1.000  O 
  O16      1.0000 0.24839  0.85635  0.53355  Biso   1.000  O 
  Hf8      1.0000 0.63609  0.01579  0.24748  Biso   1.000  Hf
  Hf9      1.0000 0.63905  0.23084  0.74854  Biso   1.000  Hf
  Hf10     1.0000 0.86313  0.26708  0.24249  Biso   1.000  Hf
  Hf11     1.0000 0.87258  0.48132  0.74996  Biso   1.000  Hf
  O17      1.0000 0.54653  0.18692  0.37913  Biso   1.000  O 
  O18      1.0000 0.54332  0.06390  0.88808  Biso   1.000  O 
  O19      1.0000 0.96772  0.42915  0.38741  Biso   1.000  O 
  O20      1.0000 0.96947  0.31564  0.88166  Biso   1.000  O 
  O21      1.0000 0.77621  0.11728  0.49170  Biso   1.000  O 
  O22      1.0000 0.78011  0.12969  0.99156  Biso   1.000  O 
  O23      1.0000 0.72852  0.38123  0.00027  Biso   1.000  O 
  O24      1.0000 0.73296  0.36793  0.50029  Biso   1.000  O 
  Hf12     1.0000 0.63668  0.51628  0.25570  Biso   1.000  Hf
  Hf13     1.0000 0.63978  0.73266  0.75520  Biso   1.000  Hf
  Hf14     1.0000 0.86980  0.76184  0.24191  Biso   1.000  Hf
  Hf15     1.0000 0.87117  0.98198  0.74366  Biso   1.000  Hf
  O25      1.0000 0.54033  0.68242  0.39984  Biso   1.000  O 
  O26      1.0000 0.54298  0.56489  0.89730  Biso   1.000  O 
  O27      1.0000 0.95992  0.93479  0.36811  Biso   1.000  O 
  O28      1.0000 0.97103  0.81526  0.88329  Biso   1.000  O 
  O29      1.0000 0.77569  0.61538  0.49762  Biso   1.000  O 
  O30      1.0000 0.77779  0.62942  0.99701  Biso   1.000  O 
  O31      1.0000 0.73590  0.87785  0.99812  Biso   1.000  O 
  O32      1.0000 0.73936  0.86517  0.49525  Biso   1.000  O 
