data_image0
_cell_length_a       5.07463
_cell_length_b       10.4872
_cell_length_c       10.2754
_cell_angle_alpha    90
_cell_angle_beta     90
_cell_angle_gamma    90

_symmetry_space_group_name_H-M    "P 1"
_symmetry_int_tables_number       1

loop_
  _symmetry_equiv_pos_as_xyz
  'x, y, z'

loop_
  _atom_site_label
  _atom_site_occupancy
  _atom_site_fract_x
  _atom_site_fract_y
  _atom_site_fract_z
  _atom_site_thermal_displace_type
  _atom_site_B_iso_or_equiv
  _atom_site_type_symbol
  Hf1      1.0000 0.07586  0.96979  0.15810  Biso   1.000  Hf
  Hf2      1.0000 0.16046  0.22860  0.35630  Biso   1.000  Hf
  Hf3      1.0000 0.57495  0.28138  0.11857  Biso   1.000  Hf
  Hf4      1.0000 0.71298  0.01693  0.40552  Biso   1.000  Hf
  O1       1.0000 0.81689  0.23158  0.91697  Biso   1.000  O 
  O2       1.0000 0.05154  0.04238  0.30382  Biso   1.000  O 
  O3       1.0000 0.80925  0.33013  0.28624  Biso   1.000  O 
  O4       1.0000 0.79643  0.43516  0.04728  Biso   1.000  O 
  O5       1.0000 0.50750  0.13225  0.25708  Biso   1.000  O 
  O6       1.0000 0.45005  0.11147  0.00735  Biso   1.000  O 
  O7       1.0000 0.31235  0.38588  0.97728  Biso   1.000  O 
  O8       1.0000 0.33676  0.39362  0.23416  Biso   1.000  O 
  Hf5      1.0000 0.04964  0.98079  0.64775  Biso   1.000  Hf
  Hf6      1.0000 0.19381  0.25158  0.82963  Biso   1.000  Hf
  Hf7      1.0000 0.63146  0.27517  0.59581  Biso   1.000  Hf
  Hf8      1.0000 0.71321  0.03395  0.89015  Biso   1.000  Hf
  O9       1.0000 0.88748  0.17810  0.48751  Biso   1.000  O 
  O10      1.0000 0.03896  0.07139  0.77947  Biso   1.000  O 
  O11      1.0000 0.98194  0.32411  0.69349  Biso   1.000  O 
  O12      1.0000 0.80984  0.43953  0.51811  Biso   1.000  O 
  O13      1.0000 0.49484  0.14622  0.74022  Biso   1.000  O 
  O14      1.0000 0.40635  0.11570  0.50364  Biso   1.000  O 
  O15      1.0000 0.34131  0.36213  0.48204  Biso   1.000  O 
  O16      1.0000 0.44214  0.40010  0.73680  Biso   1.000  O 
  Hf9      1.0000 0.12347  0.52159  0.11414  Biso   1.000  Hf
  Hf10     1.0000 0.14064  0.72613  0.36702  Biso   1.000  Hf
  Hf11     1.0000 0.59199  0.76803  0.10936  Biso   1.000  Hf
  Hf12     1.0000 0.61096  0.48920  0.35803  Biso   1.000  Hf
  O17      1.0000 0.88086  0.66980  0.00637  Biso   1.000  O 
  O18      1.0000 0.93633  0.57252  0.28023  Biso   1.000  O 
  O19      1.0000 0.89773  0.80711  0.23261  Biso   1.000  O 
  O20      1.0000 0.75097  0.94018  0.03121  Biso   1.000  O 
  O21      1.0000 0.41052  0.63720  0.23816  Biso   1.000  O 
  O22      1.0000 0.36661  0.62939  0.99428  Biso   1.000  O 
  O23      1.0000 0.28425  0.85853  0.00572  Biso   1.000  O 
  O24      1.0000 0.37381  0.87830  0.26121  Biso   1.000  O 
  Hf13     1.0000 0.12598  0.50188  0.61596  Biso   1.000  Hf
  Hf14     1.0000 0.12621  0.74095  0.86003  Biso   1.000  Hf
  Hf15     1.0000 0.59382  0.75950  0.60692  Biso   1.000  Hf
  Hf16     1.0000 0.60279  0.51598  0.87886  Biso   1.000  Hf
  O25      1.0000 0.90786  0.67269  0.52421  Biso   1.000  O 
  O26      1.0000 0.94170  0.56194  0.78573  Biso   1.000  O 
  O27      1.0000 0.86071  0.81739  0.74426  Biso   1.000  O 
  O28      1.0000 0.74549  0.92488  0.53177  Biso   1.000  O 
  O29      1.0000 0.40559  0.64697  0.74661  Biso   1.000  O 
  O30      1.0000 0.39135  0.60968  0.49012  Biso   1.000  O 
  O31      1.0000 0.27982  0.85885  0.50694  Biso   1.000  O 
  O32      1.0000 0.34108  0.89384  0.75942  Biso   1.000  O 
  Hg1      1.0000 0.05294  0.19555  0.09543  Biso   1.000  Hg
