data_image0
_cell_length_a       10.2549
_cell_length_b       10.3688
_cell_length_c       5.29219
_cell_angle_alpha    90
_cell_angle_beta     80
_cell_angle_gamma    90

_symmetry_space_group_name_H-M    "P 1"
_symmetry_int_tables_number       1

loop_
  _symmetry_equiv_pos_as_xyz
  'x, y, z'

loop_
  _atom_site_label
  _atom_site_occupancy
  _atom_site_fract_x
  _atom_site_fract_y
  _atom_site_fract_z
  _atom_site_thermal_displace_type
  _atom_site_B_iso_or_equiv
  _atom_site_type_symbol
  Hf1      1.0000 0.13229  0.01986  0.27688  Biso   1.000  Hf
  Hf2      1.0000 0.13980  0.22572  0.77098  Biso   1.000  Hf
  Hf3      1.0000 0.36351  0.28828  0.20698  Biso   1.000  Hf
  Hf4      1.0000 0.37008  0.47854  0.71180  Biso   1.000  Hf
  O1       1.0000 0.03154  0.16403  0.14050  Biso   1.000  O 
  O2       1.0000 0.02878  0.08364  0.64537  Biso   1.000  O 
  O3       1.0000 0.46723  0.43267  0.35091  Biso   1.000  O 
  O4       1.0000 0.50030  0.37670  0.90274  Biso   1.000  O 
  O5       1.0000 0.25309  0.13673  0.43445  Biso   1.000  O 
  O6       1.0000 0.26786  0.10326  0.94828  Biso   1.000  O 
  O7       1.0000 0.22595  0.37656  0.01440  Biso   1.000  O 
  O8       1.0000 0.22089  0.38211  0.51440  Biso   1.000  O 
  Hf5      1.0000 0.14228  0.52260  0.29249  Biso   1.000  Hf
  Hf6      1.0000 0.14446  0.72546  0.79415  Biso   1.000  Hf
  Hf7      1.0000 0.36428  0.76735  0.21522  Biso   1.000  Hf
  Hf8      1.0000 0.37023  0.95763  0.71404  Biso   1.000  Hf
  O9       1.0000 0.03373  0.66396  0.15140  Biso   1.000  O 
  O10      1.0000 0.03799  0.58737  0.64878  Biso   1.000  O 
  O11      1.0000 0.46984  0.91714  0.34267  Biso   1.000  O 
  O12      1.0000 0.47059  0.82052  0.84734  Biso   1.000  O 
  O13      1.0000 0.27985  0.62952  0.48579  Biso   1.000  O 
  O14      1.0000 0.28310  0.61774  0.98484  Biso   1.000  O 
  O15      1.0000 0.22650  0.86912  0.02771  Biso   1.000  O 
  O16      1.0000 0.23062  0.86946  0.52450  Biso   1.000  O 
  Hf9      1.0000 0.63990  0.01735  0.29631  Biso   1.000  Hf
  Hf10     1.0000 0.66308  0.23461  0.81952  Biso   1.000  Hf
  Hf11     1.0000 0.86752  0.27268  0.21950  Biso   1.000  Hf
  Hf12     1.0000 0.87070  0.47946  0.70806  Biso   1.000  Hf
  O17      1.0000 0.53224  0.16542  0.14772  Biso   1.000  O 
  O18      1.0000 0.55929  0.04654  0.68917  Biso   1.000  O 
  O19      1.0000 0.97203  0.41599  0.34593  Biso   1.000  O 
  O20      1.0000 0.97131  0.33341  0.84252  Biso   1.000  O 
  O21      1.0000 0.77681  0.13160  0.48745  Biso   1.000  O 
  O22      1.0000 0.78577  0.11885  0.99124  Biso   1.000  O 
  O23      1.0000 0.73267  0.37853  0.03767  Biso   1.000  O 
  O24      1.0000 0.73219  0.37375  0.53274  Biso   1.000  O 
  Hf13     1.0000 0.64221  0.52628  0.29571  Biso   1.000  Hf
  Hf14     1.0000 0.64859  0.72560  0.79046  Biso   1.000  Hf
  Hf15     1.0000 0.86459  0.77058  0.20703  Biso   1.000  Hf
  Hf16     1.0000 0.86810  0.97564  0.70636  Biso   1.000  Hf
  O25      1.0000 0.54033  0.67016  0.15740  Biso   1.000  O 
  O26      1.0000 0.54050  0.59187  0.64795  Biso   1.000  O 
  O27      1.0000 0.96721  0.91281  0.34651  Biso   1.000  O 
  O28      1.0000 0.97471  0.83409  0.84481  Biso   1.000  O 
  O29      1.0000 0.78287  0.62759  0.47885  Biso   1.000  O 
  O30      1.0000 0.78399  0.61934  0.97706  Biso   1.000  O 
  O31      1.0000 0.72688  0.87932  0.02299  Biso   1.000  O 
  O32      1.0000 0.73162  0.86686  0.51632  Biso   1.000  O 
  Hg1      1.0000 0.43850  0.21363  0.63220  Biso   1.000  Hg
