data_image0
_cell_length_a       10.1344
_cell_length_b       10.5211
_cell_length_c       5.13425
_cell_angle_alpha    90
_cell_angle_beta     90
_cell_angle_gamma    90

_symmetry_space_group_name_H-M    "P 1"
_symmetry_int_tables_number       1

loop_
  _symmetry_equiv_pos_as_xyz
  'x, y, z'

loop_
  _atom_site_label
  _atom_site_occupancy
  _atom_site_fract_x
  _atom_site_fract_y
  _atom_site_fract_z
  _atom_site_thermal_displace_type
  _atom_site_B_iso_or_equiv
  _atom_site_type_symbol
  Hf1      1.0000 0.05416  0.96535  0.12127  Biso   1.000  Hf
  Hf2      1.0000 0.08098  0.24279  0.82374  Biso   1.000  Hf
  Hf3      1.0000 0.32610  0.25918  0.25260  Biso   1.000  Hf
  Hf4      1.0000 0.31199  0.47615  0.75042  Biso   1.000  Hf
  O1       1.0000 0.90175  0.20919  0.62083  Biso   1.000  O 
  O2       1.0000 0.03104  0.04993  0.84407  Biso   1.000  O 
  O3       1.0000 0.41633  0.42511  0.41702  Biso   1.000  O 
  O4       1.0000 0.43524  0.32260  0.94164  Biso   1.000  O 
  O5       1.0000 0.24014  0.08660  0.41141  Biso   1.000  O 
  O6       1.0000 0.25452  0.13075  0.93487  Biso   1.000  O 
  O7       1.0000 0.19577  0.39179  0.03965  Biso   1.000  O 
  O8       1.0000 0.20092  0.33033  0.55818  Biso   1.000  O 
  Hf5      1.0000 0.05526  0.51491  0.21250  Biso   1.000  Hf
  Hf6      1.0000 0.08340  0.72233  0.71458  Biso   1.000  Hf
  Hf7      1.0000 0.31329  0.75348  0.22997  Biso   1.000  Hf
  Hf8      1.0000 0.37032  0.01076  0.65399  Biso   1.000  Hf
  O9       1.0000 0.96270  0.67533  0.39674  Biso   1.000  O 
  O10      1.0000 0.97042  0.57805  0.88285  Biso   1.000  O 
  O11      1.0000 0.39703  0.91694  0.41452  Biso   1.000  O 
  O12      1.0000 0.44882  0.81332  0.97433  Biso   1.000  O 
  O13      1.0000 0.19901  0.58943  0.48344  Biso   1.000  O 
  O14      1.0000 0.21025  0.62803  0.97579  Biso   1.000  O 
  O15      1.0000 0.19566  0.87071  0.91695  Biso   1.000  O 
  O16      1.0000 0.16021  0.84306  0.42341  Biso   1.000  O 
  Hf9      1.0000 0.54229  0.97833  0.16747  Biso   1.000  Hf
  Hf10     1.0000 0.58837  0.23111  0.76921  Biso   1.000  Hf
  Hf11     1.0000 0.80165  0.27965  0.26986  Biso   1.000  Hf
  Hf12     1.0000 0.80661  0.48748  0.75500  Biso   1.000  Hf
  O17      1.0000 0.46088  0.17758  0.48652  Biso   1.000  O 
  O18      1.0000 0.51062  0.06599  0.92501  Biso   1.000  O 
  O19      1.0000 0.91502  0.43251  0.43805  Biso   1.000  O 
  O20      1.0000 0.93237  0.35919  0.98285  Biso   1.000  O 
  O21      1.0000 0.70711  0.10917  0.45966  Biso   1.000  O 
  O22      1.0000 0.74394  0.13798  0.98162  Biso   1.000  O 
  O23      1.0000 0.68721  0.39008  0.01395  Biso   1.000  O 
  O24      1.0000 0.67082  0.36690  0.51443  Biso   1.000  O 
  Hf13     1.0000 0.56739  0.51331  0.24849  Biso   1.000  Hf
  Hf14     1.0000 0.57795  0.72732  0.73553  Biso   1.000  Hf
  Hf15     1.0000 0.81024  0.76758  0.23387  Biso   1.000  Hf
  Hf16     1.0000 0.85703  0.01434  0.66837  Biso   1.000  Hf
  O25      1.0000 0.46179  0.66749  0.42455  Biso   1.000  O 
  O26      1.0000 0.47302  0.56760  0.90916  Biso   1.000  O 
  O27      1.0000 0.88598  0.93856  0.37715  Biso   1.000  O 
  O28      1.0000 0.94834  0.80940  0.95482  Biso   1.000  O 
  O29      1.0000 0.70537  0.60964  0.48680  Biso   1.000  O 
  O30      1.0000 0.71072  0.63523  0.98423  Biso   1.000  O 
  O31      1.0000 0.68677  0.88385  0.94725  Biso   1.000  O 
  O32      1.0000 0.65742  0.85564  0.45343  Biso   1.000  O 
  Hg1      1.0000 0.04175  0.18166  0.30895  Biso   1.000  Hg
