data_image0
_cell_length_a       10.2754
_cell_length_b       10.4872
_cell_length_c       5.07464
_cell_angle_alpha    90
_cell_angle_beta     90
_cell_angle_gamma    90

_symmetry_space_group_name_H-M    "P 1"
_symmetry_int_tables_number       1

loop_
  _symmetry_equiv_pos_as_xyz
  'x, y, z'

loop_
  _atom_site_label
  _atom_site_occupancy
  _atom_site_fract_x
  _atom_site_fract_y
  _atom_site_fract_z
  _atom_site_thermal_displace_type
  _atom_site_B_iso_or_equiv
  _atom_site_type_symbol
  Hf1      1.0000 0.16798  0.95809  0.29783  Biso   1.000  Hf
  Hf2      1.0000 0.11913  0.24781  0.63715  Biso   1.000  Hf
  Hf3      1.0000 0.35801  0.21476  0.21666  Biso   1.000  Hf
  Hf4      1.0000 0.40271  0.97452  0.71855  Biso   1.000  Hf
  O1       1.0000 0.91592  0.17676  0.87807  Biso   1.000  O 
  O2       1.0000 0.00666  0.08680  0.47278  Biso   1.000  O 
  O3       1.0000 0.97996  0.35621  0.41253  Biso   1.000  O 
  O4       1.0000 0.04853  0.38969  0.89110  Biso   1.000  O 
  O5       1.0000 0.25634  0.10167  0.53828  Biso   1.000  O 
  O6       1.0000 0.30405  0.03605  0.06540  Biso   1.000  O 
  O7       1.0000 0.28633  0.28200  0.88355  Biso   1.000  O 
  O8       1.0000 0.23688  0.37076  0.42757  Biso   1.000  O 
  Hf5      1.0000 0.11913  0.51058  0.24284  Biso   1.000  Hf
  Hf6      1.0000 0.11496  0.73071  0.76432  Biso   1.000  Hf
  Hf7      1.0000 0.37406  0.71020  0.31001  Biso   1.000  Hf
  Hf8      1.0000 0.36060  0.44985  0.72360  Biso   1.000  Hf
  O9       1.0000 0.01393  0.67196  0.03369  Biso   1.000  O 
  O10      1.0000 0.99929  0.59516  0.52195  Biso   1.000  O 
  O11      1.0000 0.01357  0.83811  0.47745  Biso   1.000  O 
  O12      1.0000 0.03796  0.89422  0.96023  Biso   1.000  O 
  O13      1.0000 0.24314  0.60889  0.55617  Biso   1.000  O 
  O14      1.0000 0.28652  0.56931  0.07082  Biso   1.000  O 
  O15      1.0000 0.24153  0.80505  0.08495  Biso   1.000  O 
  O16      1.0000 0.26888  0.85022  0.57473  Biso   1.000  O 
  Hf9      1.0000 0.65783  0.96504  0.28150  Biso   1.000  Hf
  Hf10     1.0000 0.59602  0.23341  0.69893  Biso   1.000  Hf
  Hf11     1.0000 0.83141  0.23066  0.26204  Biso   1.000  Hf
  Hf12     1.0000 0.88746  0.98611  0.72982  Biso   1.000  Hf
  O17      1.0000 0.48564  0.12454  0.92977  Biso   1.000  O 
  O18      1.0000 0.50313  0.08788  0.43765  Biso   1.000  O 
  O19      1.0000 0.48439  0.33651  0.42859  Biso   1.000  O 
  O20      1.0000 0.51932  0.38815  0.91238  Biso   1.000  O 
  O21      1.0000 0.73965  0.11091  0.53603  Biso   1.000  O 
  O22      1.0000 0.78002  0.06032  0.06651  Biso   1.000  O 
  O23      1.0000 0.69692  0.31547  0.06591  Biso   1.000  O 
  O24      1.0000 0.73911  0.36609  0.54118  Biso   1.000  O 
  Hf13     1.0000 0.62068  0.48536  0.24826  Biso   1.000  Hf
  Hf14     1.0000 0.61238  0.71666  0.77157  Biso   1.000  Hf
  Hf15     1.0000 0.86724  0.72028  0.30634  Biso   1.000  Hf
  Hf16     1.0000 0.88170  0.47118  0.72927  Biso   1.000  Hf
  O25      1.0000 0.53165  0.66772  0.06884  Biso   1.000  O 
  O26      1.0000 0.49487  0.57980  0.53460  Biso   1.000  O 
  O27      1.0000 0.51479  0.83318  0.48052  Biso   1.000  O 
  O28      1.0000 0.53836  0.87382  0.95870  Biso   1.000  O 
  O29      1.0000 0.75168  0.61328  0.56103  Biso   1.000  O 
  O30      1.0000 0.79183  0.55297  0.08123  Biso   1.000  O 
  O31      1.0000 0.75341  0.81162  0.05809  Biso   1.000  O 
  O32      1.0000 0.76734  0.86194  0.55309  Biso   1.000  O 
  Hg1      1.0000 0.09727  0.19047  0.09847  Biso   1.000  Hg
