data_image0
_cell_length_a       10.0272
_cell_length_b       10.2865
_cell_length_c       5.21759
_cell_angle_alpha    90
_cell_angle_beta     90
_cell_angle_gamma    90

_symmetry_space_group_name_H-M    "P 1"
_symmetry_int_tables_number       1

loop_
  _symmetry_equiv_pos_as_xyz
  'x, y, z'

loop_
  _atom_site_label
  _atom_site_occupancy
  _atom_site_fract_x
  _atom_site_fract_y
  _atom_site_fract_z
  _atom_site_thermal_displace_type
  _atom_site_B_iso_or_equiv
  _atom_site_type_symbol
  Hg1      1.0000 0.12259  0.02012  0.36086  Biso   1.000  Hg
  Hf1      1.0000 0.13171  0.23289  0.84291  Biso   1.000  Hf
  Hf2      1.0000 0.35717  0.27256  0.32965  Biso   1.000  Hf
  Hf3      1.0000 0.35199  0.48272  0.83717  Biso   1.000  Hf
  Hf4      1.0000 0.63738  0.02227  0.16387  Biso   1.000  Hf
  Hf5      1.0000 0.63038  0.23312  0.66117  Biso   1.000  Hf
  Hf6      1.0000 0.85843  0.27161  0.16912  Biso   1.000  Hf
  Hf7      1.0000 0.85604  0.48119  0.66310  Biso   1.000  Hf
  O1       1.0000 0.04692  0.18484  0.21139  Biso   1.000  O 
  O2       1.0000 0.01746  0.08264  0.75159  Biso   1.000  O 
  O3       1.0000 0.46588  0.41773  0.16535  Biso   1.000  O 
  O4       1.0000 0.45820  0.33469  0.66653  Biso   1.000  O 
  O5       1.0000 0.26690  0.12296  0.56694  Biso   1.000  O 
  O6       1.0000 0.29472  0.13959  0.04881  Biso   1.000  O 
  O7       1.0000 0.21820  0.37492  0.58557  Biso   1.000  O 
  O8       1.0000 0.22094  0.37977  0.08651  Biso   1.000  O 
  O9       1.0000 0.53254  0.17028  0.32666  Biso   1.000  O 
  O10      1.0000 0.52989  0.08290  0.82262  Biso   1.000  O 
  O11      1.0000 0.95994  0.42238  0.33094  Biso   1.000  O 
  O12      1.0000 0.95633  0.33515  0.84401  Biso   1.000  O 
  O13      1.0000 0.76520  0.13062  0.92608  Biso   1.000  O 
  O14      1.0000 0.77351  0.13000  0.42505  Biso   1.000  O 
  O15      1.0000 0.71451  0.37894  0.91525  Biso   1.000  O 
  O16      1.0000 0.72001  0.37759  0.41406  Biso   1.000  O 
  Hf8      1.0000 0.13585  0.52118  0.34099  Biso   1.000  Hf
  Hf9      1.0000 0.12938  0.73187  0.83708  Biso   1.000  Hf
  Hf10     1.0000 0.35946  0.77092  0.32380  Biso   1.000  Hf
  Hf11     1.0000 0.35586  0.98307  0.83541  Biso   1.000  Hf
  Hf12     1.0000 0.63793  0.52100  0.15630  Biso   1.000  Hf
  Hf13     1.0000 0.63205  0.73275  0.65351  Biso   1.000  Hf
  Hf14     1.0000 0.85980  0.76806  0.15628  Biso   1.000  Hf
  Hf15     1.0000 0.85331  0.98673  0.68039  Biso   1.000  Hf
  O17      1.0000 0.03642  0.67461  0.17852  Biso   1.000  O 
  O18      1.0000 0.03042  0.57859  0.67703  Biso   1.000  O 
  O19      1.0000 0.46923  0.91824  0.16617  Biso   1.000  O 
  O20      1.0000 0.45866  0.83550  0.65824  Biso   1.000  O 
  O21      1.0000 0.27066  0.62893  0.58370  Biso   1.000  O 
  O22      1.0000 0.27522  0.62059  0.08559  Biso   1.000  O 
  O23      1.0000 0.21454  0.87367  0.56005  Biso   1.000  O 
  O24      1.0000 0.23835  0.86518  0.05201  Biso   1.000  O 
  O25      1.0000 0.53294  0.66877  0.32199  Biso   1.000  O 
  O26      1.0000 0.52579  0.58641  0.82381  Biso   1.000  O 
  O27      1.0000 0.94695  0.93251  0.31784  Biso   1.000  O 
  O28      1.0000 0.95386  0.82847  0.81945  Biso   1.000  O 
  O29      1.0000 0.76779  0.62785  0.91224  Biso   1.000  O 
  O30      1.0000 0.77334  0.62745  0.41242  Biso   1.000  O 
  O31      1.0000 0.71371  0.87852  0.91387  Biso   1.000  O 
  O32      1.0000 0.72422  0.87690  0.41210  Biso   1.000  O 
