data_image0
_cell_length_a       9.92627
_cell_length_b       5.19523
_cell_length_c       10.0525
_cell_angle_alpha    90
_cell_angle_beta     90
_cell_angle_gamma    90

_symmetry_space_group_name_H-M    "P 1"
_symmetry_int_tables_number       1

loop_
  _symmetry_equiv_pos_as_xyz
  'x, y, z'

loop_
  _atom_site_label
  _atom_site_occupancy
  _atom_site_fract_x
  _atom_site_fract_y
  _atom_site_fract_z
  _atom_site_thermal_displace_type
  _atom_site_B_iso_or_equiv
  _atom_site_type_symbol
  Hg1      1.0000 0.12329  0.04419  0.11171  Biso   1.000  Hg
  Hf1      1.0000 0.15144  0.46161  0.38503  Biso   1.000  Hf
  Hf2      1.0000 0.36977  0.53292  0.13818  Biso   1.000  Hf
  Hf3      1.0000 0.37044  0.96546  0.38026  Biso   1.000  Hf
  O1       1.0000 0.04363  0.36928  0.19228  Biso   1.000  O 
  O2       1.0000 0.04899  0.12423  0.44627  Biso   1.000  O 
  O3       1.0000 0.47427  0.86352  0.19942  Biso   1.000  O 
  O4       1.0000 0.47592  0.63088  0.45098  Biso   1.000  O 
  O5       1.0000 0.29277  0.25265  0.26378  Biso   1.000  O 
  O6       1.0000 0.28251  0.25628  0.51130  Biso   1.000  O 
  O7       1.0000 0.23851  0.76102  0.51097  Biso   1.000  O 
  O8       1.0000 0.24459  0.72493  0.26469  Biso   1.000  O 
  Hf4      1.0000 0.14441  0.03729  0.63720  Biso   1.000  Hf
  Hf5      1.0000 0.14889  0.46599  0.87188  Biso   1.000  Hf
  Hf6      1.0000 0.37943  0.53276  0.63068  Biso   1.000  Hf
  Hf7      1.0000 0.38510  0.96153  0.88000  Biso   1.000  Hf
  O9       1.0000 0.05909  0.39507  0.67832  Biso   1.000  O 
  O10      1.0000 0.05688  0.11952  0.88536  Biso   1.000  O 
  O11      1.0000 0.47901  0.86566  0.69976  Biso   1.000  O 
  O12      1.0000 0.47317  0.61480  0.94350  Biso   1.000  O 
  O13      1.0000 0.29234  0.24117  0.75756  Biso   1.000  O 
  O14      1.0000 0.26243  0.26124  0.00786  Biso   1.000  O 
  O15      1.0000 0.22763  0.76138  0.01074  Biso   1.000  O 
  O16      1.0000 0.24441  0.74105  0.75754  Biso   1.000  O 
  Hf8      1.0000 0.63910  0.03004  0.12904  Biso   1.000  Hf
  Hf9      1.0000 0.64187  0.46481  0.37611  Biso   1.000  Hf
  Hf10     1.0000 0.86432  0.52606  0.12196  Biso   1.000  Hf
  Hf11     1.0000 0.88006  0.96737  0.37904  Biso   1.000  Hf
  O17      1.0000 0.54924  0.37290  0.19224  Biso   1.000  O 
  O18      1.0000 0.54610  0.12977  0.44435  Biso   1.000  O 
  O19      1.0000 0.96653  0.86117  0.18969  Biso   1.000  O 
  O20      1.0000 0.97161  0.62293  0.43402  Biso   1.000  O 
  O21      1.0000 0.78035  0.23075  0.24885  Biso   1.000  O 
  O22      1.0000 0.78005  0.26125  0.49737  Biso   1.000  O 
  O23      1.0000 0.74089  0.76171  0.49838  Biso   1.000  O 
  O24      1.0000 0.74197  0.73562  0.24969  Biso   1.000  O 
  Hf12     1.0000 0.64455  0.02950  0.62352  Biso   1.000  Hf
  Hf13     1.0000 0.64980  0.45646  0.87588  Biso   1.000  Hf
  Hf14     1.0000 0.87895  0.52766  0.61852  Biso   1.000  Hf
  Hf15     1.0000 0.87943  0.95415  0.86586  Biso   1.000  Hf
  O25      1.0000 0.55096  0.36456  0.69603  Biso   1.000  O 
  O26      1.0000 0.55482  0.12083  0.94816  Biso   1.000  O 
  O27      1.0000 0.96749  0.87076  0.67789  Biso   1.000  O 
  O28      1.0000 0.98036  0.62561  0.94169  Biso   1.000  O 
  O29      1.0000 0.78386  0.23154  0.74676  Biso   1.000  O 
  O30      1.0000 0.79497  0.24761  0.99637  Biso   1.000  O 
  O31      1.0000 0.72427  0.75151  0.00035  Biso   1.000  O 
  O32      1.0000 0.74230  0.72711  0.74877  Biso   1.000  O 
