data_image0
_cell_length_a       10.0724
_cell_length_b       10.2301
_cell_length_c       5.22894
_cell_angle_alpha    90
_cell_angle_beta     90
_cell_angle_gamma    90

_symmetry_space_group_name_H-M    "P 1"
_symmetry_int_tables_number       1

loop_
  _symmetry_equiv_pos_as_xyz
  'x, y, z'

loop_
  _atom_site_label
  _atom_site_occupancy
  _atom_site_fract_x
  _atom_site_fract_y
  _atom_site_fract_z
  _atom_site_thermal_displace_type
  _atom_site_B_iso_or_equiv
  _atom_site_type_symbol
  In1      1.0000 0.13752  0.01656  0.34308  Biso   1.000  In
  Hf1      1.0000 0.14076  0.22876  0.84384  Biso   1.000  Hf
  Hf2      1.0000 0.35888  0.26882  0.34340  Biso   1.000  Hf
  Hf3      1.0000 0.36075  0.47888  0.84399  Biso   1.000  Hf
  Hf4      1.0000 0.63881  0.02113  0.15753  Biso   1.000  Hf
  Hf5      1.0000 0.63838  0.23005  0.65634  Biso   1.000  Hf
  Hf6      1.0000 0.86133  0.27060  0.15547  Biso   1.000  Hf
  Hf7      1.0000 0.86058  0.48015  0.65572  Biso   1.000  Hf
  O1       1.0000 0.03314  0.17137  0.16849  Biso   1.000  O 
  O2       1.0000 0.02775  0.08683  0.68460  Biso   1.000  O 
  O3       1.0000 0.46765  0.41347  0.16644  Biso   1.000  O 
  O4       1.0000 0.46782  0.33628  0.66631  Biso   1.000  O 
  O5       1.0000 0.27924  0.12603  0.59642  Biso   1.000  O 
  O6       1.0000 0.28139  0.12981  0.08369  Biso   1.000  O 
  O7       1.0000 0.22373  0.37468  0.59079  Biso   1.000  O 
  O8       1.0000 0.22356  0.37747  0.09154  Biso   1.000  O 
  O9       1.0000 0.53307  0.16564  0.33257  Biso   1.000  O 
  O10      1.0000 0.53422  0.08501  0.83162  Biso   1.000  O 
  O11      1.0000 0.96679  0.41747  0.32992  Biso   1.000  O 
  O12      1.0000 0.96744  0.33712  0.83063  Biso   1.000  O 
  O13      1.0000 0.77498  0.12577  0.91132  Biso   1.000  O 
  O14      1.0000 0.77545  0.12687  0.41098  Biso   1.000  O 
  O15      1.0000 0.72381  0.37517  0.90765  Biso   1.000  O 
  O16      1.0000 0.72444  0.37656  0.40846  Biso   1.000  O 
  Hf8      1.0000 0.14012  0.52128  0.34378  Biso   1.000  Hf
  Hf9      1.0000 0.14127  0.73081  0.84295  Biso   1.000  Hf
  Hf10     1.0000 0.36159  0.77181  0.34226  Biso   1.000  Hf
  Hf11     1.0000 0.36063  0.98086  0.84178  Biso   1.000  Hf
  Hf12     1.0000 0.63829  0.52011  0.15564  Biso   1.000  Hf
  Hf13     1.0000 0.63852  0.72972  0.65561  Biso   1.000  Hf
  Hf14     1.0000 0.86015  0.77058  0.15636  Biso   1.000  Hf
  Hf15     1.0000 0.85928  0.98016  0.65820  Biso   1.000  Hf
  O17      1.0000 0.03294  0.66577  0.16885  Biso   1.000  O 
  O18      1.0000 0.03250  0.58561  0.66819  Biso   1.000  O 
  O19      1.0000 0.46917  0.91476  0.16695  Biso   1.000  O 
  O20      1.0000 0.46877  0.83602  0.66613  Biso   1.000  O 
  O21      1.0000 0.27653  0.62332  0.59108  Biso   1.000  O 
  O22      1.0000 0.27623  0.62484  0.09165  Biso   1.000  O 
  O23      1.0000 0.22697  0.87089  0.59052  Biso   1.000  O 
  O24      1.0000 0.22931  0.87193  0.08331  Biso   1.000  O 
  O25      1.0000 0.53244  0.66343  0.33415  Biso   1.000  O 
  O26      1.0000 0.53159  0.58611  0.83434  Biso   1.000  O 
  O27      1.0000 0.95848  0.91487  0.33166  Biso   1.000  O 
  O28      1.0000 0.96776  0.83483  0.83091  Biso   1.000  O 
  O29      1.0000 0.77508  0.62401  0.90733  Biso   1.000  O 
  O30      1.0000 0.77569  0.62637  0.40778  Biso   1.000  O 
  O31      1.0000 0.72426  0.87450  0.90968  Biso   1.000  O 
  O32      1.0000 0.72067  0.87590  0.41011  Biso   1.000  O 
