data_image0
_cell_length_a       10.1693
_cell_length_b       10.2645
_cell_length_c       5.23157
_cell_angle_alpha    90
_cell_angle_beta     80
_cell_angle_gamma    90

_symmetry_space_group_name_H-M    "P 1"
_symmetry_int_tables_number       1

loop_
  _symmetry_equiv_pos_as_xyz
  'x, y, z'

loop_
  _atom_site_label
  _atom_site_occupancy
  _atom_site_fract_x
  _atom_site_fract_y
  _atom_site_fract_z
  _atom_site_thermal_displace_type
  _atom_site_B_iso_or_equiv
  _atom_site_type_symbol
  In1      1.0000 0.13613  0.01625  0.29346  Biso   1.000  In
  Hf1      1.0000 0.13815  0.22765  0.79154  Biso   1.000  Hf
  Hf2      1.0000 0.35805  0.26856  0.20836  Biso   1.000  Hf
  Hf3      1.0000 0.35861  0.47805  0.70803  Biso   1.000  Hf
  O1       1.0000 0.03517  0.17408  0.15771  Biso   1.000  O 
  O2       1.0000 0.02822  0.08335  0.67557  Biso   1.000  O 
  O3       1.0000 0.46448  0.41575  0.34244  Biso   1.000  O 
  O4       1.0000 0.46429  0.33391  0.84319  Biso   1.000  O 
  O5       1.0000 0.27766  0.12942  0.48378  Biso   1.000  O 
  O6       1.0000 0.27950  0.12579  0.97049  Biso   1.000  O 
  O7       1.0000 0.22424  0.38015  0.01805  Biso   1.000  O 
  O8       1.0000 0.22194  0.37143  0.51825  Biso   1.000  O 
  Hf4      1.0000 0.13924  0.52132  0.29120  Biso   1.000  Hf
  Hf5      1.0000 0.13882  0.72975  0.79217  Biso   1.000  Hf
  Hf6      1.0000 0.36072  0.77206  0.20783  Biso   1.000  Hf
  Hf7      1.0000 0.35822  0.98017  0.70791  Biso   1.000  Hf
  O9       1.0000 0.03433  0.66799  0.16009  Biso   1.000  O 
  O10      1.0000 0.03286  0.58285  0.65924  Biso   1.000  O 
  O11      1.0000 0.46605  0.91718  0.34094  Biso   1.000  O 
  O12      1.0000 0.46463  0.83313  0.84245  Biso   1.000  O 
  O13      1.0000 0.27531  0.62707  0.47999  Biso   1.000  O 
  O14      1.0000 0.27377  0.62088  0.98105  Biso   1.000  O 
  O15      1.0000 0.22776  0.87657  0.01229  Biso   1.000  O 
  O16      1.0000 0.22653  0.86664  0.52051  Biso   1.000  O 
  Hf8      1.0000 0.63862  0.02127  0.29313  Biso   1.000  Hf
  Hf9      1.0000 0.63671  0.22925  0.79351  Biso   1.000  Hf
  Hf10     1.0000 0.86112  0.27061  0.20778  Biso   1.000  Hf
  Hf11     1.0000 0.85878  0.47914  0.70855  Biso   1.000  Hf
  O17      1.0000 0.53440  0.16769  0.15896  Biso   1.000  O 
  O18      1.0000 0.53425  0.08255  0.65891  Biso   1.000  O 
  O19      1.0000 0.96367  0.41966  0.33995  Biso   1.000  O 
  O20      1.0000 0.96295  0.33391  0.84054  Biso   1.000  O 
  O21      1.0000 0.77470  0.12943  0.48314  Biso   1.000  O 
  O22      1.0000 0.77227  0.12163  0.98418  Biso   1.000  O 
  O23      1.0000 0.72389  0.37891  0.01873  Biso   1.000  O 
  O24      1.0000 0.72275  0.37141  0.51972  Biso   1.000  O 
  Hf12     1.0000 0.63761  0.52002  0.29145  Biso   1.000  Hf
  Hf13     1.0000 0.63614  0.72849  0.79192  Biso   1.000  Hf
  Hf14     1.0000 0.85912  0.77043  0.20865  Biso   1.000  Hf
  Hf15     1.0000 0.85701  0.97868  0.71143  Biso   1.000  Hf
  O25      1.0000 0.53405  0.66622  0.15765  Biso   1.000  O 
  O26      1.0000 0.53215  0.58254  0.65742  Biso   1.000  O 
  O27      1.0000 0.95508  0.91662  0.34558  Biso   1.000  O 
  O28      1.0000 0.96307  0.83172  0.84193  Biso   1.000  O 
  O29      1.0000 0.77386  0.62835  0.48060  Biso   1.000  O 
  O30      1.0000 0.77265  0.62037  0.98059  Biso   1.000  O 
  O31      1.0000 0.72349  0.87835  0.01923  Biso   1.000  O 
  O32      1.0000 0.71909  0.87044  0.52118  Biso   1.000  O 
