data_image0
_cell_length_a       10.1715
_cell_length_b       10.3164
_cell_length_c       10.5184
_cell_angle_alpha    90
_cell_angle_beta     80
_cell_angle_gamma    90

_symmetry_space_group_name_H-M    "P 1"
_symmetry_int_tables_number       1

loop_
  _symmetry_equiv_pos_as_xyz
  'x, y, z'

loop_
  _atom_site_label
  _atom_site_occupancy
  _atom_site_fract_x
  _atom_site_fract_y
  _atom_site_fract_z
  _atom_site_thermal_displace_type
  _atom_site_B_iso_or_equiv
  _atom_site_type_symbol
  Hf1      1.0000 0.13250  0.02041  0.14237  Biso   1.000  Hf
  Hf2      1.0000 0.14424  0.22794  0.39012  Biso   1.000  Hf
  Hf3      1.0000 0.34811  0.27457  0.09435  Biso   1.000  Hf
  Hf4      1.0000 0.36050  0.48128  0.34822  Biso   1.000  Hf
  O1       1.0000 0.03211  0.16862  0.07682  Biso   1.000  O 
  O2       1.0000 0.03365  0.08139  0.32866  Biso   1.000  O 
  O3       1.0000 0.45701  0.43666  0.15396  Biso   1.000  O 
  O4       1.0000 0.49093  0.36309  0.44989  Biso   1.000  O 
  O5       1.0000 0.26675  0.11723  0.23157  Biso   1.000  O 
  O6       1.0000 0.28817  0.11824  0.48419  Biso   1.000  O 
  O7       1.0000 0.21598  0.38325  0.00301  Biso   1.000  O 
  O8       1.0000 0.20826  0.37525  0.25128  Biso   1.000  O 
  Hf5      1.0000 0.14481  0.02052  0.64367  Biso   1.000  Hf
  Hf6      1.0000 0.14143  0.22795  0.89097  Biso   1.000  Hf
  Hf7      1.0000 0.36931  0.27592  0.60775  Biso   1.000  Hf
  Hf8      1.0000 0.36695  0.47905  0.85498  Biso   1.000  Hf
  O9       1.0000 0.04682  0.16864  0.57691  Biso   1.000  O 
  O10      1.0000 0.03963  0.08168  0.82556  Biso   1.000  O 
  O11      1.0000 0.47462  0.41269  0.68380  Biso   1.000  O 
  O12      1.0000 0.46980  0.33037  0.92034  Biso   1.000  O 
  O13      1.0000 0.28119  0.12792  0.73657  Biso   1.000  O 
  O14      1.0000 0.27852  0.12252  0.98332  Biso   1.000  O 
  O15      1.0000 0.23202  0.37611  0.50680  Biso   1.000  O 
  O16      1.0000 0.23020  0.37119  0.75679  Biso   1.000  O 
  Hf9      1.0000 0.13766  0.52370  0.14358  Biso   1.000  Hf
  Hf10     1.0000 0.13952  0.72602  0.39631  Biso   1.000  Hf
  Hf11     1.0000 0.36020  0.77210  0.10284  Biso   1.000  Hf
  Hf12     1.0000 0.35942  0.96328  0.35548  Biso   1.000  Hf
  O17      1.0000 0.03278  0.67011  0.07754  Biso   1.000  O 
  O18      1.0000 0.03563  0.58476  0.32662  Biso   1.000  O 
  O19      1.0000 0.46486  0.91651  0.17189  Biso   1.000  O 
  O20      1.0000 0.46366  0.82139  0.42143  Biso   1.000  O 
  O21      1.0000 0.27600  0.62909  0.24047  Biso   1.000  O 
  O22      1.0000 0.27712  0.61899  0.48959  Biso   1.000  O 
  O23      1.0000 0.22302  0.88043  0.00865  Biso   1.000  O 
  O24      1.0000 0.22202  0.86618  0.25884  Biso   1.000  O 
  Hf13     1.0000 0.14458  0.52069  0.64452  Biso   1.000  Hf
  Hf14     1.0000 0.14364  0.72812  0.89478  Biso   1.000  Hf
  Hf15     1.0000 0.36610  0.76827  0.60521  Biso   1.000  Hf
  Hf16     1.0000 0.36674  0.97800  0.85172  Biso   1.000  Hf
  O25      1.0000 0.03659  0.66455  0.57863  Biso   1.000  O 
  O26      1.0000 0.04085  0.58207  0.82754  Biso   1.000  O 
  O27      1.0000 0.47039  0.91560  0.66960  Biso   1.000  O 
  O28      1.0000 0.47152  0.83337  0.91936  Biso   1.000  O 
  O29      1.0000 0.28181  0.62657  0.73954  Biso   1.000  O 
  O30      1.0000 0.28269  0.62321  0.98944  Biso   1.000  O 
  O31      1.0000 0.22554  0.87488  0.51077  Biso   1.000  O 
  O32      1.0000 0.22936  0.86997  0.75867  Biso   1.000  O 
  Hf17     1.0000 0.64083  0.01694  0.14793  Biso   1.000  Hf
  Hf18     1.0000 0.66745  0.23386  0.41125  Biso   1.000  Hf
  Hf19     1.0000 0.85886  0.27302  0.10739  Biso   1.000  Hf
  Hf20     1.0000 0.86666  0.48010  0.35407  Biso   1.000  Hf
  O33      1.0000 0.52864  0.16266  0.07929  Biso   1.000  O 
  O34      1.0000 0.54267  0.05792  0.34140  Biso   1.000  O 
  O35      1.0000 0.96310  0.42161  0.16818  Biso   1.000  O 
  O36      1.0000 0.96860  0.33047  0.42054  Biso   1.000  O 
  O37      1.0000 0.77838  0.12896  0.24529  Biso   1.000  O 
  O38      1.0000 0.79112  0.11474  0.49893  Biso   1.000  O 
  O39      1.0000 0.72032  0.37800  0.01423  Biso   1.000  O 
  O40      1.0000 0.72806  0.37343  0.26486  Biso   1.000  O 
  Hf21     1.0000 0.64378  0.01983  0.64747  Biso   1.000  Hf
  Hf22     1.0000 0.64424  0.22692  0.89792  Biso   1.000  Hf
  Hf23     1.0000 0.87287  0.26994  0.60885  Biso   1.000  Hf
  Hf24     1.0000 0.86698  0.47773  0.85539  Biso   1.000  Hf
  O41      1.0000 0.54371  0.16720  0.57878  Biso   1.000  O 
  O42      1.0000 0.53959  0.08213  0.82768  Biso   1.000  O 
  O43      1.0000 0.97332  0.41613  0.67302  Biso   1.000  O 
  O44      1.0000 0.96813  0.33061  0.92030  Biso   1.000  O 
  O45      1.0000 0.78154  0.12858  0.74377  Biso   1.000  O 
  O46      1.0000 0.78108  0.11965  0.99286  Biso   1.000  O 
  O47      1.0000 0.73774  0.38026  0.51762  Biso   1.000  O 
  O48      1.0000 0.73139  0.37032  0.76372  Biso   1.000  O 
  Hf25     1.0000 0.63599  0.52430  0.14485  Biso   1.000  Hf
  Hf26     1.0000 0.64156  0.72476  0.39604  Biso   1.000  Hf
  Hf27     1.0000 0.85915  0.77024  0.10441  Biso   1.000  Hf
  Hf28     1.0000 0.86306  0.97540  0.35513  Biso   1.000  Hf
  O49      1.0000 0.53740  0.67553  0.07942  Biso   1.000  O 
  O50      1.0000 0.53451  0.58405  0.32495  Biso   1.000  O 
  O51      1.0000 0.96198  0.91525  0.17251  Biso   1.000  O 
  O52      1.0000 0.96744  0.83101  0.42227  Biso   1.000  O 
  O53      1.0000 0.77708  0.62896  0.24103  Biso   1.000  O 
  O54      1.0000 0.77878  0.62041  0.49036  Biso   1.000  O 
  O55      1.0000 0.72320  0.87947  0.01049  Biso   1.000  O 
  O56      1.0000 0.72343  0.86884  0.26020  Biso   1.000  O 
  Hf29     1.0000 0.64407  0.52143  0.64925  Biso   1.000  Hf
  Hf30     1.0000 0.64445  0.72914  0.89558  Biso   1.000  Hf
  Hf31     1.0000 0.86534  0.77134  0.60401  Biso   1.000  Hf
  Hf32     1.0000 0.86717  0.97796  0.85362  Biso   1.000  Hf
  O57      1.0000 0.53780  0.66297  0.57969  Biso   1.000  O 
  O58      1.0000 0.54015  0.58386  0.83101  Biso   1.000  O 
  O59      1.0000 0.97047  0.91705  0.67040  Biso   1.000  O 
  O60      1.0000 0.97136  0.83265  0.92005  Biso   1.000  O 
  O61      1.0000 0.78125  0.62833  0.74012  Biso   1.000  O 
  O62      1.0000 0.78229  0.61995  0.98918  Biso   1.000  O 
  O63      1.0000 0.72512  0.87608  0.51032  Biso   1.000  O 
  O64      1.0000 0.72992  0.87126  0.75995  Biso   1.000  O 
  In1      1.0000 0.45299  0.23203  0.29882  Biso   1.000  In
