data_image0
_cell_length_a       10.0542
_cell_length_b       10.284
_cell_length_c       10.5122
_cell_angle_alpha    90
_cell_angle_beta     90
_cell_angle_gamma    90

_symmetry_space_group_name_H-M    "P 1"
_symmetry_int_tables_number       1

loop_
  _symmetry_equiv_pos_as_xyz
  'x, y, z'

loop_
  _atom_site_label
  _atom_site_occupancy
  _atom_site_fract_x
  _atom_site_fract_y
  _atom_site_fract_z
  _atom_site_thermal_displace_type
  _atom_site_B_iso_or_equiv
  _atom_site_type_symbol
  Hf1      1.0000 0.13215  0.01967  0.17256  Biso   1.000  Hf
  Hf2      1.0000 0.12742  0.22839  0.42758  Biso   1.000  Hf
  Hf3      1.0000 0.33622  0.26741  0.18936  Biso   1.000  Hf
  Hf4      1.0000 0.35365  0.48093  0.42400  Biso   1.000  Hf
  Hf5      1.0000 0.64175  0.01728  0.07181  Biso   1.000  Hf
  Hf6      1.0000 0.62940  0.22620  0.33309  Biso   1.000  Hf
  Hf7      1.0000 0.85697  0.27046  0.07436  Biso   1.000  Hf
  Hf8      1.0000 0.85425  0.47885  0.32747  Biso   1.000  Hf
  O1       1.0000 0.03180  0.16815  0.08614  Biso   1.000  O 
  O2       1.0000 0.02344  0.08607  0.33465  Biso   1.000  O 
  O3       1.0000 0.46176  0.43948  0.09949  Biso   1.000  O 
  O4       1.0000 0.45649  0.33493  0.33624  Biso   1.000  O 
  O5       1.0000 0.26124  0.12352  0.30278  Biso   1.000  O 
  O6       1.0000 0.27101  0.11972  0.04948  Biso   1.000  O 
  O7       1.0000 0.20880  0.37752  0.30382  Biso   1.000  O 
  O8       1.0000 0.21925  0.37772  0.05159  Biso   1.000  O 
  O9       1.0000 0.50876  0.14151  0.19569  Biso   1.000  O 
  O10      1.0000 0.52198  0.08815  0.42786  Biso   1.000  O 
  O11      1.0000 0.95909  0.41640  0.16673  Biso   1.000  O 
  O12      1.0000 0.95843  0.33619  0.41782  Biso   1.000  O 
  O13      1.0000 0.76707  0.12493  0.45353  Biso   1.000  O 
  O14      1.0000 0.76795  0.12819  0.20409  Biso   1.000  O 
  O15      1.0000 0.71530  0.37557  0.45392  Biso   1.000  O 
  O16      1.0000 0.71296  0.37825  0.20401  Biso   1.000  O 
  Hf9      1.0000 0.12986  0.02245  0.67368  Biso   1.000  Hf
  Hf10     1.0000 0.12423  0.23078  0.92425  Biso   1.000  Hf
  Hf11     1.0000 0.35242  0.27342  0.67465  Biso   1.000  Hf
  Hf12     1.0000 0.34369  0.48535  0.92495  Biso   1.000  Hf
  Hf13     1.0000 0.63009  0.02022  0.57945  Biso   1.000  Hf
  Hf14     1.0000 0.63891  0.22666  0.81498  Biso   1.000  Hf
  Hf15     1.0000 0.85300  0.27367  0.57671  Biso   1.000  Hf
  Hf16     1.0000 0.85310  0.48419  0.82645  Biso   1.000  Hf
  O17      1.0000 0.02279  0.16594  0.58541  Biso   1.000  O 
  O18      1.0000 0.02498  0.08408  0.83391  Biso   1.000  O 
  O19      1.0000 0.45922  0.41658  0.58285  Biso   1.000  O 
  O20      1.0000 0.46212  0.34273  0.83040  Biso   1.000  O 
  O21      1.0000 0.26673  0.12735  0.79741  Biso   1.000  O 
  O22      1.0000 0.26706  0.12647  0.54907  Biso   1.000  O 
  O23      1.0000 0.21436  0.37586  0.79922  Biso   1.000  O 
  O24      1.0000 0.21601  0.37637  0.54970  Biso   1.000  O 
  O25      1.0000 0.52486  0.16775  0.66495  Biso   1.000  O 
  O26      1.0000 0.52470  0.06587  0.89666  Biso   1.000  O 
  O27      1.0000 0.95910  0.41666  0.66617  Biso   1.000  O 
  O28      1.0000 0.95407  0.33513  0.91432  Biso   1.000  O 
  O29      1.0000 0.77571  0.12095  0.94533  Biso   1.000  O 
  O30      1.0000 0.77188  0.12386  0.69810  Biso   1.000  O 
  O31      1.0000 0.72096  0.39352  0.94968  Biso   1.000  O 
  O32      1.0000 0.71724  0.37625  0.70109  Biso   1.000  O 
  Hf17     1.0000 0.13271  0.52225  0.17259  Biso   1.000  Hf
  Hf18     1.0000 0.13032  0.72959  0.42136  Biso   1.000  Hf
  Hf19     1.0000 0.35814  0.77403  0.17340  Biso   1.000  Hf
  Hf20     1.0000 0.35351  0.97870  0.42631  Biso   1.000  Hf
  Hf21     1.0000 0.64343  0.53509  0.07939  Biso   1.000  Hf
  Hf22     1.0000 0.63324  0.73275  0.32955  Biso   1.000  Hf
  Hf23     1.0000 0.86251  0.77263  0.07887  Biso   1.000  Hf
  Hf24     1.0000 0.85396  0.98110  0.32859  Biso   1.000  Hf
  O33      1.0000 0.03274  0.66635  0.08375  Biso   1.000  O 
  O34      1.0000 0.02523  0.58565  0.33382  Biso   1.000  O 
  O35      1.0000 0.46777  0.91448  0.08135  Biso   1.000  O 
  O36      1.0000 0.46183  0.83844  0.33521  Biso   1.000  O 
  O37      1.0000 0.26994  0.62555  0.29508  Biso   1.000  O 
  O38      1.0000 0.27570  0.62661  0.04569  Biso   1.000  O 
  O39      1.0000 0.21830  0.87484  0.29704  Biso   1.000  O 
  O40      1.0000 0.22287  0.87433  0.04795  Biso   1.000  O 
  O41      1.0000 0.53368  0.67516  0.16635  Biso   1.000  O 
  O42      1.0000 0.52485  0.58748  0.41573  Biso   1.000  O 
  O43      1.0000 0.96176  0.91823  0.16658  Biso   1.000  O 
  O44      1.0000 0.95865  0.83491  0.41564  Biso   1.000  O 
  O45      1.0000 0.76838  0.62519  0.45393  Biso   1.000  O 
  O46      1.0000 0.77550  0.63026  0.20562  Biso   1.000  O 
  O47      1.0000 0.71645  0.87630  0.45587  Biso   1.000  O 
  O48      1.0000 0.72115  0.87717  0.20501  Biso   1.000  O 
  Hf25     1.0000 0.12952  0.52181  0.67221  Biso   1.000  Hf
  Hf26     1.0000 0.12513  0.73241  0.92264  Biso   1.000  Hf
  Hf27     1.0000 0.35061  0.77059  0.67266  Biso   1.000  Hf
  Hf28     1.0000 0.34707  0.97893  0.92089  Biso   1.000  Hf
  Hf29     1.0000 0.62984  0.52298  0.57647  Biso   1.000  Hf
  Hf30     1.0000 0.62530  0.73094  0.82651  Biso   1.000  Hf
  Hf31     1.0000 0.85377  0.77175  0.57811  Biso   1.000  Hf
  Hf32     1.0000 0.85265  0.97802  0.82727  Biso   1.000  Hf
  O49      1.0000 0.02463  0.66595  0.58334  Biso   1.000  O 
  O50      1.0000 0.02359  0.58716  0.83410  Biso   1.000  O 
  O51      1.0000 0.45851  0.91394  0.58630  Biso   1.000  O 
  O52      1.0000 0.45057  0.82898  0.83503  Biso   1.000  O 
  O53      1.0000 0.26443  0.62531  0.79594  Biso   1.000  O 
  O54      1.0000 0.26655  0.62615  0.54553  Biso   1.000  O 
  O55      1.0000 0.21149  0.87513  0.79603  Biso   1.000  O 
  O56      1.0000 0.21521  0.87640  0.54632  Biso   1.000  O 
  O57      1.0000 0.52227  0.66530  0.66570  Biso   1.000  O 
  O58      1.0000 0.51815  0.58804  0.91744  Biso   1.000  O 
  O59      1.0000 0.95955  0.91512  0.66528  Biso   1.000  O 
  O60      1.0000 0.95425  0.83675  0.91825  Biso   1.000  O 
  O61      1.0000 0.76234  0.63366  0.95286  Biso   1.000  O 
  O62      1.0000 0.76550  0.62681  0.70299  Biso   1.000  O 
  O63      1.0000 0.71042  0.87657  0.95519  Biso   1.000  O 
  O64      1.0000 0.71501  0.87510  0.70534  Biso   1.000  O 
  In1      1.0000 0.54573  0.26510  0.03345  Biso   1.000  In
