data_image0
_cell_length_a       10.0345
_cell_length_b       10.2333
_cell_length_c       5.00143
_cell_angle_alpha    90
_cell_angle_beta     90
_cell_angle_gamma    90

_symmetry_space_group_name_H-M    "P 1"
_symmetry_int_tables_number       1

loop_
  _symmetry_equiv_pos_as_xyz
  'x, y, z'

loop_
  _atom_site_label
  _atom_site_occupancy
  _atom_site_fract_x
  _atom_site_fract_y
  _atom_site_fract_z
  _atom_site_thermal_displace_type
  _atom_site_B_iso_or_equiv
  _atom_site_type_symbol
  In1      1.0000 0.12491  0.00006  0.24982  Biso   1.000  In
  Hf1      1.0000 0.12491  0.25194  0.74982  Biso   1.000  Hf
  Hf2      1.0000 0.37515  0.25043  0.24977  Biso   1.000  Hf
  Hf3      1.0000 0.37318  0.00005  0.74982  Biso   1.000  Hf
  O1       1.0000 0.99227  0.15035  0.98266  Biso   1.000  O 
  O2       1.0000 0.99823  0.10743  0.49633  Biso   1.000  O 
  O3       1.0000 0.00020  0.35390  0.49661  Biso   1.000  O 
  O4       1.0000 0.00037  0.39828  0.99773  Biso   1.000  O 
  O5       1.0000 0.25754  0.15035  0.51698  Biso   1.000  O 
  O6       1.0000 0.25158  0.10743  0.00330  Biso   1.000  O 
  O7       1.0000 0.24962  0.35390  0.00303  Biso   1.000  O 
  O8       1.0000 0.24945  0.39828  0.50191  Biso   1.000  O 
  Hf4      1.0000 0.12491  0.50005  0.24982  Biso   1.000  Hf
  Hf5      1.0000 0.12491  0.74816  0.74982  Biso   1.000  Hf
  Hf6      1.0000 0.37515  0.74967  0.24987  Biso   1.000  Hf
  Hf7      1.0000 0.37562  0.50005  0.74982  Biso   1.000  Hf
  O9       1.0000 0.00019  0.64621  0.00303  Biso   1.000  O 
  O10      1.0000 0.00037  0.60183  0.50190  Biso   1.000  O 
  O11      1.0000 0.99227  0.84976  0.51698  Biso   1.000  O 
  O12      1.0000 0.99824  0.89268  0.00331  Biso   1.000  O 
  O13      1.0000 0.24962  0.64621  0.49661  Biso   1.000  O 
  O14      1.0000 0.24945  0.60183  0.99773  Biso   1.000  O 
  O15      1.0000 0.25754  0.84976  0.98265  Biso   1.000  O 
  O16      1.0000 0.25158  0.89268  0.49633  Biso   1.000  O 
  Hf8      1.0000 0.62491  0.00005  0.24982  Biso   1.000  Hf
  Hf9      1.0000 0.62491  0.24834  0.74982  Biso   1.000  Hf
  Hf10     1.0000 0.87467  0.25044  0.24987  Biso   1.000  Hf
  Hf11     1.0000 0.87663  0.00005  0.74982  Biso   1.000  Hf
  O17      1.0000 0.49999  0.14854  0.00192  Biso   1.000  O 
  O18      1.0000 0.50218  0.10137  0.50253  Biso   1.000  O 
  O19      1.0000 0.50039  0.35258  0.50263  Biso   1.000  O 
  O20      1.0000 0.49904  0.39788  0.00271  Biso   1.000  O 
  O21      1.0000 0.74983  0.14854  0.49771  Biso   1.000  O 
  O22      1.0000 0.74764  0.10137  0.99711  Biso   1.000  O 
  O23      1.0000 0.74942  0.35259  0.99701  Biso   1.000  O 
  O24      1.0000 0.75078  0.39789  0.49693  Biso   1.000  O 
  Hf12     1.0000 0.62491  0.50005  0.24982  Biso   1.000  Hf
  Hf13     1.0000 0.62491  0.75176  0.74982  Biso   1.000  Hf
  Hf14     1.0000 0.87467  0.74967  0.24977  Biso   1.000  Hf
  Hf15     1.0000 0.87420  0.50005  0.74982  Biso   1.000  Hf
  O25      1.0000 0.50039  0.64752  0.99701  Biso   1.000  O 
  O26      1.0000 0.49904  0.60222  0.49693  Biso   1.000  O 
  O27      1.0000 0.49999  0.85157  0.49771  Biso   1.000  O 
  O28      1.0000 0.50218  0.89874  0.99711  Biso   1.000  O 
  O29      1.0000 0.74943  0.64752  0.50263  Biso   1.000  O 
  O30      1.0000 0.75078  0.60222  0.00271  Biso   1.000  O 
  O31      1.0000 0.74983  0.85157  0.00192  Biso   1.000  O 
  O32      1.0000 0.74764  0.89874  0.50253  Biso   1.000  O 
