data_image0
_cell_length_a       9.97555
_cell_length_b       10.3605
_cell_length_c       10.0146
_cell_angle_alpha    90
_cell_angle_beta     90
_cell_angle_gamma    90

_symmetry_space_group_name_H-M    "P 1"
_symmetry_int_tables_number       1

loop_
  _symmetry_equiv_pos_as_xyz
  'x, y, z'

loop_
  _atom_site_label
  _atom_site_occupancy
  _atom_site_fract_x
  _atom_site_fract_y
  _atom_site_fract_z
  _atom_site_thermal_displace_type
  _atom_site_B_iso_or_equiv
  _atom_site_type_symbol
  In1      1.0000 0.13018  0.01543  0.12151  Biso   1.000  In
  Hf1      1.0000 0.13456  0.23187  0.37567  Biso   1.000  Hf
  Hf2      1.0000 0.36460  0.26520  0.12665  Biso   1.000  Hf
  Hf3      1.0000 0.36546  0.48315  0.37597  Biso   1.000  Hf
  O1       1.0000 0.03215  0.18711  0.19946  Biso   1.000  O 
  O2       1.0000 0.03536  0.06547  0.44648  Biso   1.000  O 
  O3       1.0000 0.46443  0.43327  0.19528  Biso   1.000  O 
  O4       1.0000 0.46391  0.31533  0.44459  Biso   1.000  O 
  O5       1.0000 0.27477  0.12148  0.25206  Biso   1.000  O 
  O6       1.0000 0.27034  0.13139  0.50072  Biso   1.000  O 
  O7       1.0000 0.22985  0.38222  0.49989  Biso   1.000  O 
  O8       1.0000 0.22860  0.36818  0.24991  Biso   1.000  O 
  Hf4      1.0000 0.13398  0.01640  0.62731  Biso   1.000  Hf
  Hf5      1.0000 0.13478  0.23320  0.87532  Biso   1.000  Hf
  Hf6      1.0000 0.36587  0.26576  0.62574  Biso   1.000  Hf
  Hf7      1.0000 0.36597  0.48268  0.87620  Biso   1.000  Hf
  O9       1.0000 0.03767  0.18633  0.69118  Biso   1.000  O 
  O10      1.0000 0.03494  0.06692  0.93078  Biso   1.000  O 
  O11      1.0000 0.46427  0.43356  0.69463  Biso   1.000  O 
  O12      1.0000 0.46488  0.31553  0.94401  Biso   1.000  O 
  O13      1.0000 0.27187  0.11752  0.74885  Biso   1.000  O 
  O14      1.0000 0.27402  0.13347  0.99610  Biso   1.000  O 
  O15      1.0000 0.22997  0.38156  0.99979  Biso   1.000  O 
  O16      1.0000 0.23001  0.36774  0.74939  Biso   1.000  O 
  Hf8      1.0000 0.13434  0.51572  0.12619  Biso   1.000  Hf
  Hf9      1.0000 0.13501  0.73402  0.37594  Biso   1.000  Hf
  Hf10     1.0000 0.36592  0.76566  0.12629  Biso   1.000  Hf
  Hf11     1.0000 0.36386  0.98365  0.37463  Biso   1.000  Hf
  O17      1.0000 0.03627  0.68345  0.19478  Biso   1.000  O 
  O18      1.0000 0.03596  0.56522  0.44533  Biso   1.000  O 
  O19      1.0000 0.46515  0.93390  0.19421  Biso   1.000  O 
  O20      1.0000 0.46489  0.81612  0.44638  Biso   1.000  O 
  O21      1.0000 0.27031  0.61529  0.24968  Biso   1.000  O 
  O22      1.0000 0.27072  0.63248  0.49990  Biso   1.000  O 
  O23      1.0000 0.22904  0.88258  0.50120  Biso   1.000  O 
  O24      1.0000 0.23600  0.86153  0.25392  Biso   1.000  O 
  Hf12     1.0000 0.13438  0.51630  0.62614  Biso   1.000  Hf
  Hf13     1.0000 0.13500  0.73354  0.87739  Biso   1.000  Hf
  Hf14     1.0000 0.36601  0.76672  0.62640  Biso   1.000  Hf
  Hf15     1.0000 0.36536  0.98315  0.87726  Biso   1.000  Hf
  O25      1.0000 0.03624  0.68391  0.69493  Biso   1.000  O 
  O26      1.0000 0.03600  0.56555  0.94477  Biso   1.000  O 
  O27      1.0000 0.46416  0.93379  0.69490  Biso   1.000  O 
  O28      1.0000 0.46502  0.81528  0.94444  Biso   1.000  O 
  O29      1.0000 0.27073  0.61746  0.75009  Biso   1.000  O 
  O30      1.0000 0.27105  0.63110  0.00005  Biso   1.000  O 
  O31      1.0000 0.23172  0.87803  0.99938  Biso   1.000  O 
  O32      1.0000 0.22947  0.86749  0.75021  Biso   1.000  O 
  Hf16     1.0000 0.63418  0.01580  0.12567  Biso   1.000  Hf
  Hf17     1.0000 0.63371  0.23301  0.37522  Biso   1.000  Hf
  Hf18     1.0000 0.86552  0.26586  0.12631  Biso   1.000  Hf
  Hf19     1.0000 0.86606  0.48359  0.37605  Biso   1.000  Hf
  O33      1.0000 0.53721  0.18466  0.19275  Biso   1.000  O 
  O34      1.0000 0.53550  0.06548  0.44399  Biso   1.000  O 
  O35      1.0000 0.96311  0.43526  0.19443  Biso   1.000  O 
  O36      1.0000 0.96403  0.31649  0.44473  Biso   1.000  O 
  O37      1.0000 0.76887  0.11685  0.25002  Biso   1.000  O 
  O38      1.0000 0.76976  0.13288  0.49925  Biso   1.000  O 
  O39      1.0000 0.72927  0.38242  0.49944  Biso   1.000  O 
  O40      1.0000 0.72959  0.36741  0.24984  Biso   1.000  O 
  Hf20     1.0000 0.63354  0.01584  0.62501  Biso   1.000  Hf
  Hf21     1.0000 0.63449  0.23259  0.87580  Biso   1.000  Hf
  Hf22     1.0000 0.86596  0.26604  0.62497  Biso   1.000  Hf
  Hf23     1.0000 0.86589  0.48291  0.87642  Biso   1.000  Hf
  O41      1.0000 0.53648  0.18400  0.69398  Biso   1.000  O 
  O42      1.0000 0.53758  0.06458  0.94323  Biso   1.000  O 
  O43      1.0000 0.96423  0.43409  0.69510  Biso   1.000  O 
  O44      1.0000 0.96483  0.31623  0.94573  Biso   1.000  O 
  O45      1.0000 0.77062  0.11694  0.74864  Biso   1.000  O 
  O46      1.0000 0.77162  0.13124  0.99940  Biso   1.000  O 
  O47      1.0000 0.72908  0.38155  0.99931  Biso   1.000  O 
  O48      1.0000 0.72994  0.36695  0.74956  Biso   1.000  O 
  Hf24     1.0000 0.63414  0.51593  0.12628  Biso   1.000  Hf
  Hf25     1.0000 0.63379  0.73362  0.37631  Biso   1.000  Hf
  Hf26     1.0000 0.86587  0.76660  0.12630  Biso   1.000  Hf
  Hf27     1.0000 0.86671  0.98317  0.37544  Biso   1.000  Hf
  O49      1.0000 0.53603  0.68290  0.19573  Biso   1.000  O 
  O50      1.0000 0.53564  0.56543  0.44512  Biso   1.000  O 
  O51      1.0000 0.95923  0.93081  0.19762  Biso   1.000  O 
  O52      1.0000 0.96431  0.81476  0.44551  Biso   1.000  O 
  O53      1.0000 0.77052  0.61728  0.24979  Biso   1.000  O 
  O54      1.0000 0.77012  0.63211  0.49968  Biso   1.000  O 
  O55      1.0000 0.73004  0.88221  0.49947  Biso   1.000  O 
  O56      1.0000 0.72752  0.86671  0.24988  Biso   1.000  O 
  Hf28     1.0000 0.63409  0.51574  0.62603  Biso   1.000  Hf
  Hf29     1.0000 0.63443  0.73281  0.87602  Biso   1.000  Hf
  Hf30     1.0000 0.86608  0.76557  0.62574  Biso   1.000  Hf
  Hf31     1.0000 0.86508  0.98234  0.87468  Biso   1.000  Hf
  O57      1.0000 0.53588  0.68318  0.69491  Biso   1.000  O 
  O58      1.0000 0.53574  0.56539  0.94524  Biso   1.000  O 
  O59      1.0000 0.96287  0.93350  0.69273  Biso   1.000  O 
  O60      1.0000 0.96372  0.81509  0.94451  Biso   1.000  O 
  O61      1.0000 0.77062  0.61666  0.74958  Biso   1.000  O 
  O62      1.0000 0.77023  0.63079  0.99948  Biso   1.000  O 
  O63      1.0000 0.72912  0.88058  0.99974  Biso   1.000  O 
  O64      1.0000 0.72886  0.86649  0.74897  Biso   1.000  O 
