data_image0
_cell_length_a       10.3263
_cell_length_b       5.36127
_cell_length_c       10.2364
_cell_angle_alpha    90
_cell_angle_beta     90
_cell_angle_gamma    90

_symmetry_space_group_name_H-M    "P 1"
_symmetry_int_tables_number       1

loop_
  _symmetry_equiv_pos_as_xyz
  'x, y, z'

loop_
  _atom_site_label
  _atom_site_occupancy
  _atom_site_fract_x
  _atom_site_fract_y
  _atom_site_fract_z
  _atom_site_thermal_displace_type
  _atom_site_B_iso_or_equiv
  _atom_site_type_symbol
  Hf1      1.0000 0.11465  0.76120  0.13926  Biso   1.000  Hf
  Hf2      1.0000 0.11719  0.35847  0.36751  Biso   1.000  Hf
  Hf3      1.0000 0.34768  0.40993  0.14263  Biso   1.000  Hf
  Hf4      1.0000 0.41921  0.92943  0.35932  Biso   1.000  Hf
  O1       1.0000 0.99373  0.07087  0.94556  Biso   1.000  O 
  O2       1.0000 0.04362  0.03322  0.25688  Biso   1.000  O 
  O3       1.0000 0.96349  0.56141  0.24708  Biso   1.000  O 
  O4       1.0000 0.04300  0.56533  0.97813  Biso   1.000  O 
  O5       1.0000 0.28215  0.19687  0.30262  Biso   1.000  O 
  O6       1.0000 0.27710  0.08560  0.04642  Biso   1.000  O 
  O7       1.0000 0.24353  0.62934  0.00551  Biso   1.000  O 
  O8       1.0000 0.23612  0.67245  0.28839  Biso   1.000  O 
  Hf5      1.0000 0.14377  0.72755  0.63723  Biso   1.000  Hf
  Hf6      1.0000 0.14054  0.24193  0.83585  Biso   1.000  Hf
  Hf7      1.0000 0.37434  0.25295  0.62681  Biso   1.000  Hf
  Hf8      1.0000 0.45341  0.74507  0.86214  Biso   1.000  Hf
  O9       1.0000 0.00782  0.14477  0.48834  Biso   1.000  O 
  O10      1.0000 0.05180  0.93065  0.73485  Biso   1.000  O 
  O11      1.0000 0.00482  0.44302  0.73391  Biso   1.000  O 
  O12      1.0000 0.00242  0.63205  0.49528  Biso   1.000  O 
  O13      1.0000 0.28641  0.02131  0.76542  Biso   1.000  O 
  O14      1.0000 0.30903  0.93489  0.52542  Biso   1.000  O 
  O15      1.0000 0.22758  0.42244  0.53219  Biso   1.000  O 
  O16      1.0000 0.26176  0.52771  0.76375  Biso   1.000  O 
  Hf9      1.0000 0.64979  0.96742  0.13143  Biso   1.000  Hf
  Hf10     1.0000 0.59718  0.45644  0.35127  Biso   1.000  Hf
  Hf11     1.0000 0.80949  0.49171  0.11249  Biso   1.000  Hf
  Hf12     1.0000 0.87779  0.84132  0.38696  Biso   1.000  Hf
  O17      1.0000 0.53109  0.05616  0.96081  Biso   1.000  O 
  O18      1.0000 0.50473  0.17080  0.22166  Biso   1.000  O 
  O19      1.0000 0.48046  0.66750  0.22332  Biso   1.000  O 
  O20      1.0000 0.54704  0.56602  0.95605  Biso   1.000  O 
  O21      1.0000 0.73539  0.25949  0.24447  Biso   1.000  O 
  O22      1.0000 0.73863  0.18980  0.00412  Biso   1.000  O 
  O23      1.0000 0.77264  0.38727  0.97531  Biso   1.000  O 
  O24      1.0000 0.72827  0.75348  0.24627  Biso   1.000  O 
  Hf13     1.0000 0.68176  0.81100  0.62022  Biso   1.000  Hf
  Hf14     1.0000 0.62836  0.28304  0.83857  Biso   1.000  Hf
  Hf15     1.0000 0.86709  0.31944  0.59459  Biso   1.000  Hf
  Hf16     1.0000 0.94203  0.72248  0.86021  Biso   1.000  Hf
  O25      1.0000 0.49891  0.23196  0.47206  Biso   1.000  O 
  O26      1.0000 0.53247  0.99242  0.71784  Biso   1.000  O 
  O27      1.0000 0.50868  0.49396  0.71615  Biso   1.000  O 
  O28      1.0000 0.51308  0.73655  0.46559  Biso   1.000  O 
  O29      1.0000 0.77150  0.10391  0.73056  Biso   1.000  O 
  O30      1.0000 0.78230  0.02260  0.49273  Biso   1.000  O 
  O31      1.0000 0.74797  0.53837  0.48224  Biso   1.000  O 
  O32      1.0000 0.75845  0.58873  0.73155  Biso   1.000  O 
  In1      1.0000 0.08760  0.25538  0.08462  Biso   1.000  In
