data_image0
_cell_length_a       10.0484
_cell_length_b       5.08557
_cell_length_c       10.0484
_cell_angle_alpha    90
_cell_angle_beta     90
_cell_angle_gamma    90

_symmetry_space_group_name_H-M    "P 1"
_symmetry_int_tables_number       1

loop_
  _symmetry_equiv_pos_as_xyz
  'x, y, z'

loop_
  _atom_site_label
  _atom_site_occupancy
  _atom_site_fract_x
  _atom_site_fract_y
  _atom_site_fract_z
  _atom_site_thermal_displace_type
  _atom_site_B_iso_or_equiv
  _atom_site_type_symbol
  In1      1.0000 0.12491  0.00011  0.12491  Biso   1.000  In
  Hf1      1.0000 0.12491  0.50010  0.37673  Biso   1.000  Hf
  Hf2      1.0000 0.37673  0.50011  0.12491  Biso   1.000  Hf
  Hf3      1.0000 0.37539  0.00102  0.37539  Biso   1.000  Hf
  O1       1.0000 0.99350  0.30174  0.99350  Biso   1.000  O 
  O2       1.0000 0.99842  0.21059  0.25139  Biso   1.000  O 
  O3       1.0000 0.99350  0.69847  0.25632  Biso   1.000  O 
  O4       1.0000 0.99842  0.78962  0.99842  Biso   1.000  O 
  O5       1.0000 0.25632  0.30174  0.25632  Biso   1.000  O 
  O6       1.0000 0.25139  0.21060  0.99842  Biso   1.000  O 
  O7       1.0000 0.25632  0.69848  0.99350  Biso   1.000  O 
  O8       1.0000 0.25139  0.78962  0.25140  Biso   1.000  O 
  Hf4      1.0000 0.12491  0.00011  0.62491  Biso   1.000  Hf
  Hf5      1.0000 0.12491  0.50011  0.87309  Biso   1.000  Hf
  Hf6      1.0000 0.37535  0.50011  0.62491  Biso   1.000  Hf
  Hf7      1.0000 0.37539  0.99920  0.87443  Biso   1.000  Hf
  O9       1.0000 0.99901  0.29561  0.50029  Biso   1.000  O 
  O10      1.0000 0.00027  0.20383  0.74862  Biso   1.000  O 
  O11      1.0000 0.99901  0.70461  0.74953  Biso   1.000  O 
  O12      1.0000 0.00027  0.79639  0.50119  Biso   1.000  O 
  O13      1.0000 0.25081  0.29561  0.74952  Biso   1.000  O 
  O14      1.0000 0.24955  0.20382  0.50119  Biso   1.000  O 
  O15      1.0000 0.25081  0.70461  0.50029  Biso   1.000  O 
  O16      1.0000 0.24955  0.79639  0.74863  Biso   1.000  O 
  Hf8      1.0000 0.62491  0.00011  0.12491  Biso   1.000  Hf
  Hf9      1.0000 0.62491  0.50010  0.37536  Biso   1.000  Hf
  Hf10     1.0000 0.87309  0.50011  0.12491  Biso   1.000  Hf
  Hf11     1.0000 0.87442  0.99919  0.37539  Biso   1.000  Hf
  O17      1.0000 0.50029  0.29562  0.99901  Biso   1.000  O 
  O18      1.0000 0.50119  0.20383  0.24954  Biso   1.000  O 
  O19      1.0000 0.50029  0.70460  0.25081  Biso   1.000  O 
  O20      1.0000 0.50119  0.79638  0.00027  Biso   1.000  O 
  O21      1.0000 0.74952  0.29561  0.25081  Biso   1.000  O 
  O22      1.0000 0.74862  0.20383  0.00027  Biso   1.000  O 
  O23      1.0000 0.74952  0.70460  0.99901  Biso   1.000  O 
  O24      1.0000 0.74862  0.79638  0.24955  Biso   1.000  O 
  Hf12     1.0000 0.62491  0.00011  0.62491  Biso   1.000  Hf
  Hf13     1.0000 0.62491  0.50011  0.87446  Biso   1.000  Hf
  Hf14     1.0000 0.87446  0.50011  0.62491  Biso   1.000  Hf
  Hf15     1.0000 0.87442  0.00102  0.87443  Biso   1.000  Hf
  O25      1.0000 0.49912  0.29529  0.49912  Biso   1.000  O 
  O26      1.0000 0.50066  0.20520  0.74915  Biso   1.000  O 
  O27      1.0000 0.49912  0.70492  0.75070  Biso   1.000  O 
  O28      1.0000 0.50066  0.79502  0.50066  Biso   1.000  O 
  O29      1.0000 0.75070  0.29529  0.75070  Biso   1.000  O 
  O30      1.0000 0.74916  0.20519  0.50067  Biso   1.000  O 
  O31      1.0000 0.75070  0.70492  0.49912  Biso   1.000  O 
  O32      1.0000 0.74916  0.79502  0.74915  Biso   1.000  O 
