data_image0
_cell_length_a       4.9945
_cell_length_b       10.3547
_cell_length_c       10.039
_cell_angle_alpha    90
_cell_angle_beta     90
_cell_angle_gamma    90

_symmetry_space_group_name_H-M    "P 1"
_symmetry_int_tables_number       1

loop_
  _symmetry_equiv_pos_as_xyz
  'x, y, z'

loop_
  _atom_site_label
  _atom_site_occupancy
  _atom_site_fract_x
  _atom_site_fract_y
  _atom_site_fract_z
  _atom_site_thermal_displace_type
  _atom_site_B_iso_or_equiv
  _atom_site_type_symbol
  In1      1.0000 0.26107  0.01532  0.12073  Biso   1.000  In
  Hf1      1.0000 0.26835  0.23122  0.37529  Biso   1.000  Hf
  Hf2      1.0000 0.72681  0.26481  0.12680  Biso   1.000  Hf
  Hf3      1.0000 0.73033  0.48297  0.37635  Biso   1.000  Hf
  O1       1.0000 0.06551  0.18824  0.19809  Biso   1.000  O 
  O2       1.0000 0.06856  0.06515  0.44612  Biso   1.000  O 
  O3       1.0000 0.92772  0.43411  0.19560  Biso   1.000  O 
  O4       1.0000 0.92805  0.31599  0.44507  Biso   1.000  O 
  O5       1.0000 0.54475  0.12024  0.25193  Biso   1.000  O 
  O6       1.0000 0.53879  0.13179  0.50015  Biso   1.000  O 
  O7       1.0000 0.45879  0.38213  0.49968  Biso   1.000  O 
  O8       1.0000 0.45713  0.36775  0.25001  Biso   1.000  O 
  Hf4      1.0000 0.26666  0.01573  0.62629  Biso   1.000  Hf
  Hf5      1.0000 0.26955  0.23222  0.87484  Biso   1.000  Hf
  Hf6      1.0000 0.73092  0.26538  0.62487  Biso   1.000  Hf
  Hf7      1.0000 0.73117  0.48194  0.87648  Biso   1.000  Hf
  O9       1.0000 0.07461  0.18571  0.69103  Biso   1.000  O 
  O10      1.0000 0.07191  0.06573  0.92983  Biso   1.000  O 
  O11      1.0000 0.92902  0.43316  0.69555  Biso   1.000  O 
  O12      1.0000 0.93090  0.31582  0.94548  Biso   1.000  O 
  O13      1.0000 0.54306  0.11677  0.74764  Biso   1.000  O 
  O14      1.0000 0.54915  0.13245  0.99549  Biso   1.000  O 
  O15      1.0000 0.45856  0.38076  0.99936  Biso   1.000  O 
  O16      1.0000 0.46021  0.36699  0.74916  Biso   1.000  O 
  Hf8      1.0000 0.26894  0.51537  0.12627  Biso   1.000  Hf
  Hf9      1.0000 0.26868  0.73370  0.37644  Biso   1.000  Hf
  Hf10     1.0000 0.73102  0.76593  0.12634  Biso   1.000  Hf
  Hf11     1.0000 0.72809  0.98301  0.37422  Biso   1.000  Hf
  O17      1.0000 0.07107  0.68195  0.19635  Biso   1.000  O 
  O18      1.0000 0.06985  0.56477  0.44616  Biso   1.000  O 
  O19      1.0000 0.92250  0.93029  0.19825  Biso   1.000  O 
  O20      1.0000 0.93012  0.81507  0.44763  Biso   1.000  O 
  O21      1.0000 0.54033  0.61456  0.24954  Biso   1.000  O 
  O22      1.0000 0.53976  0.63208  0.49978  Biso   1.000  O 
  O23      1.0000 0.45833  0.88225  0.50090  Biso   1.000  O 
  O24      1.0000 0.46844  0.86010  0.25391  Biso   1.000  O 
  Hf12     1.0000 0.26801  0.51565  0.62624  Biso   1.000  Hf
  Hf13     1.0000 0.26953  0.73271  0.87725  Biso   1.000  Hf
  Hf14     1.0000 0.73116  0.76573  0.62628  Biso   1.000  Hf
  Hf15     1.0000 0.72794  0.98184  0.87559  Biso   1.000  Hf
  O25      1.0000 0.07075  0.68274  0.69550  Biso   1.000  O 
  O26      1.0000 0.06995  0.56513  0.94580  Biso   1.000  O 
  O27      1.0000 0.92576  0.93282  0.69344  Biso   1.000  O 
  O28      1.0000 0.92919  0.81472  0.94471  Biso   1.000  O 
  O29      1.0000 0.54070  0.61638  0.74990  Biso   1.000  O 
  O30      1.0000 0.54050  0.62877  0.99974  Biso   1.000  O 
  O31      1.0000 0.46223  0.87652  0.99927  Biso   1.000  O 
  O32      1.0000 0.45677  0.86627  0.74942  Biso   1.000  O 
