data_image0
_cell_length_a       5.02578
_cell_length_b       10.5397
_cell_length_c       10.07
_cell_angle_alpha    90
_cell_angle_beta     90
_cell_angle_gamma    90

_symmetry_space_group_name_H-M    "P 1"
_symmetry_int_tables_number       1

loop_
  _symmetry_equiv_pos_as_xyz
  'x, y, z'

loop_
  _atom_site_label
  _atom_site_occupancy
  _atom_site_fract_x
  _atom_site_fract_y
  _atom_site_fract_z
  _atom_site_thermal_displace_type
  _atom_site_B_iso_or_equiv
  _atom_site_type_symbol
  Hf1      1.0000 0.26458  0.01459  0.11726  Biso   1.000  Hf
  Hf2      1.0000 0.27252  0.24033  0.38206  Biso   1.000  Hf
  Hf3      1.0000 0.69151  0.24850  0.11467  Biso   1.000  Hf
  Hf4      1.0000 0.75368  0.49189  0.38121  Biso   1.000  Hf
  O1       1.0000 0.00816  0.17848  0.22319  Biso   1.000  O 
  O2       1.0000 0.07714  0.07241  0.44878  Biso   1.000  O 
  O3       1.0000 0.95837  0.45765  0.21245  Biso   1.000  O 
  O4       1.0000 0.94919  0.32928  0.45578  Biso   1.000  O 
  O5       1.0000 0.50906  0.11291  0.24793  Biso   1.000  O 
  O6       1.0000 0.55342  0.14458  0.49580  Biso   1.000  O 
  O7       1.0000 0.47220  0.39313  0.50592  Biso   1.000  O 
  O8       1.0000 0.49788  0.36676  0.26136  Biso   1.000  O 
  Hf5      1.0000 0.27741  0.02298  0.62029  Biso   1.000  Hf
  Hf6      1.0000 0.27967  0.23096  0.86218  Biso   1.000  Hf
  Hf7      1.0000 0.74027  0.27894  0.62746  Biso   1.000  Hf
  Hf8      1.0000 0.75751  0.50287  0.87404  Biso   1.000  Hf
  O9       1.0000 0.07564  0.18864  0.68946  Biso   1.000  O 
  O10      1.0000 0.09225  0.07108  0.93431  Biso   1.000  O 
  O11      1.0000 0.94184  0.44551  0.69579  Biso   1.000  O 
  O12      1.0000 0.93500  0.32764  0.92936  Biso   1.000  O 
  O13      1.0000 0.54962  0.12272  0.74120  Biso   1.000  O 
  O14      1.0000 0.58356  0.13332  0.98496  Biso   1.000  O 
  O15      1.0000 0.48752  0.40219  0.01115  Biso   1.000  O 
  O16      1.0000 0.47424  0.37639  0.75672  Biso   1.000  O 
  Hf9      1.0000 0.28123  0.54087  0.12949  Biso   1.000  Hf
  Hf10     1.0000 0.28609  0.74438  0.37811  Biso   1.000  Hf
  Hf11     1.0000 0.74148  0.77160  0.12700  Biso   1.000  Hf
  Hf12     1.0000 0.75169  0.99384  0.37134  Biso   1.000  Hf
  O17      1.0000 0.08736  0.70081  0.19863  Biso   1.000  O 
  O18      1.0000 0.08348  0.58138  0.45260  Biso   1.000  O 
  O19      1.0000 0.93666  0.94035  0.19084  Biso   1.000  O 
  O20      1.0000 0.94747  0.82763  0.44354  Biso   1.000  O 
  O21      1.0000 0.55825  0.62723  0.25455  Biso   1.000  O 
  O22      1.0000 0.55289  0.64364  0.50225  Biso   1.000  O 
  O23      1.0000 0.48363  0.89388  0.49639  Biso   1.000  O 
  O24      1.0000 0.47481  0.87245  0.24821  Biso   1.000  O 
  Hf13     1.0000 0.28183  0.52639  0.62772  Biso   1.000  Hf
  Hf14     1.0000 0.28780  0.75027  0.87334  Biso   1.000  Hf
  Hf15     1.0000 0.75604  0.77408  0.62154  Biso   1.000  Hf
  Hf16     1.0000 0.75933  0.98913  0.86837  Biso   1.000  Hf
  O25      1.0000 0.08352  0.69265  0.69933  Biso   1.000  O 
  O26      1.0000 0.08892  0.58660  0.94940  Biso   1.000  O 
  O27      1.0000 0.95877  0.93842  0.69211  Biso   1.000  O 
  O28      1.0000 0.95449  0.83185  0.94688  Biso   1.000  O 
  O29      1.0000 0.55194  0.62628  0.75024  Biso   1.000  O 
  O30      1.0000 0.56255  0.66186  0.99829  Biso   1.000  O 
  O31      1.0000 0.48049  0.89963  0.99758  Biso   1.000  O 
  O32      1.0000 0.48933  0.87403  0.74569  Biso   1.000  O 
  Ir1      1.0000 0.19042  0.30125  0.10441  Biso   1.000  Ir
