data_image0
_cell_length_a       4.97128
_cell_length_b       10.3811
_cell_length_c       10.0021
_cell_angle_alpha    90
_cell_angle_beta     90
_cell_angle_gamma    90

_symmetry_space_group_name_H-M    "P 1"
_symmetry_int_tables_number       1

loop_
  _symmetry_equiv_pos_as_xyz
  'x, y, z'

loop_
  _atom_site_label
  _atom_site_occupancy
  _atom_site_fract_x
  _atom_site_fract_y
  _atom_site_fract_z
  _atom_site_thermal_displace_type
  _atom_site_B_iso_or_equiv
  _atom_site_type_symbol
  Ir1      1.0000 0.25242  0.03670  0.10645  Biso   1.000  Ir
  Hf1      1.0000 0.27101  0.22777  0.37690  Biso   1.000  Hf
  Hf2      1.0000 0.72421  0.26637  0.12538  Biso   1.000  Hf
  Hf3      1.0000 0.73514  0.48089  0.37679  Biso   1.000  Hf
  O1       1.0000 0.05917  0.18299  0.19702  Biso   1.000  O 
  O2       1.0000 0.08080  0.06312  0.44846  Biso   1.000  O 
  O3       1.0000 0.92559  0.43057  0.19503  Biso   1.000  O 
  O4       1.0000 0.93310  0.31272  0.44367  Biso   1.000  O 
  O5       1.0000 0.52213  0.10608  0.24401  Biso   1.000  O 
  O6       1.0000 0.55466  0.12965  0.49542  Biso   1.000  O 
  O7       1.0000 0.46426  0.37899  0.50041  Biso   1.000  O 
  O8       1.0000 0.45732  0.36155  0.25011  Biso   1.000  O 
  Hf4      1.0000 0.27882  0.01255  0.62489  Biso   1.000  Hf
  Hf5      1.0000 0.27893  0.23348  0.87157  Biso   1.000  Hf
  Hf6      1.0000 0.74148  0.26282  0.62409  Biso   1.000  Hf
  Hf7      1.0000 0.74193  0.48152  0.87545  Biso   1.000  Hf
  O9       1.0000 0.08480  0.18244  0.69332  Biso   1.000  O 
  O10      1.0000 0.08805  0.05908  0.93525  Biso   1.000  O 
  O11      1.0000 0.93747  0.43013  0.69574  Biso   1.000  O 
  O12      1.0000 0.93813  0.31051  0.94441  Biso   1.000  O 
  O13      1.0000 0.55418  0.11438  0.74775  Biso   1.000  O 
  O14      1.0000 0.55372  0.12877  0.99613  Biso   1.000  O 
  O15      1.0000 0.47189  0.37872  0.99919  Biso   1.000  O 
  O16      1.0000 0.46964  0.36500  0.74910  Biso   1.000  O 
  Hf8      1.0000 0.26356  0.51502  0.12806  Biso   1.000  Hf
  Hf9      1.0000 0.27555  0.73217  0.37661  Biso   1.000  Hf
  Hf10     1.0000 0.73624  0.76359  0.12501  Biso   1.000  Hf
  Hf11     1.0000 0.73091  0.98048  0.37226  Biso   1.000  Hf
  O17      1.0000 0.07273  0.68310  0.19754  Biso   1.000  O 
  O18      1.0000 0.07592  0.56251  0.44596  Biso   1.000  O 
  O19      1.0000 0.95243  0.93741  0.19116  Biso   1.000  O 
  O20      1.0000 0.93840  0.81560  0.44823  Biso   1.000  O 
  O21      1.0000 0.54003  0.60786  0.24944  Biso   1.000  O 
  O22      1.0000 0.54687  0.63025  0.50049  Biso   1.000  O 
  O23      1.0000 0.46419  0.88091  0.50320  Biso   1.000  O 
  O24      1.0000 0.50434  0.85001  0.26019  Biso   1.000  O 
  Hf12     1.0000 0.27450  0.51462  0.62564  Biso   1.000  Hf
  Hf13     1.0000 0.27244  0.73056  0.87937  Biso   1.000  Hf
  Hf14     1.0000 0.73917  0.76423  0.62620  Biso   1.000  Hf
  Hf15     1.0000 0.72226  0.97693  0.87548  Biso   1.000  Hf
  O25      1.0000 0.07675  0.68034  0.69757  Biso   1.000  O 
  O26      1.0000 0.07918  0.56252  0.94844  Biso   1.000  O 
  O27      1.0000 0.92763  0.93117  0.69595  Biso   1.000  O 
  O28      1.0000 0.92441  0.81192  0.94038  Biso   1.000  O 
  O29      1.0000 0.54627  0.61448  0.75132  Biso   1.000  O 
  O30      1.0000 0.52825  0.63495  0.00079  Biso   1.000  O 
  O31      1.0000 0.43503  0.88863  0.00914  Biso   1.000  O 
  O32      1.0000 0.45996  0.86335  0.75285  Biso   1.000  O 
