data_image0
_cell_length_a       10.1524
_cell_length_b       10.4566
_cell_length_c       5.04001
_cell_angle_alpha    90
_cell_angle_beta     90
_cell_angle_gamma    90

_symmetry_space_group_name_H-M    "P 1"
_symmetry_int_tables_number       1

loop_
  _symmetry_equiv_pos_as_xyz
  'x, y, z'

loop_
  _atom_site_label
  _atom_site_occupancy
  _atom_site_fract_x
  _atom_site_fract_y
  _atom_site_fract_z
  _atom_site_thermal_displace_type
  _atom_site_B_iso_or_equiv
  _atom_site_type_symbol
  Hf1      1.0000 0.09893  0.94473  0.23546  Biso   1.000  Hf
  Hf2      1.0000 0.14329  0.28801  0.79491  Biso   1.000  Hf
  Hf3      1.0000 0.37486  0.24681  0.30782  Biso   1.000  Hf
  Hf4      1.0000 0.35452  0.99429  0.77027  Biso   1.000  Hf
  O1       1.0000 0.98985  0.16249  0.90183  Biso   1.000  O 
  O2       1.0000 0.95364  0.05078  0.39247  Biso   1.000  O 
  O3       1.0000 0.01903  0.31969  0.46859  Biso   1.000  O 
  O4       1.0000 0.01889  0.41496  0.99185  Biso   1.000  O 
  O5       1.0000 0.26705  0.15389  0.62838  Biso   1.000  O 
  O6       1.0000 0.26744  0.07254  0.11899  Biso   1.000  O 
  O7       1.0000 0.29245  0.36925  0.01017  Biso   1.000  O 
  O8       1.0000 0.26316  0.40344  0.52470  Biso   1.000  O 
  Hf5      1.0000 0.14125  0.49205  0.26115  Biso   1.000  Hf
  Hf6      1.0000 0.12059  0.73035  0.72858  Biso   1.000  Hf
  Hf7      1.0000 0.37725  0.76595  0.25988  Biso   1.000  Hf
  Hf8      1.0000 0.38877  0.51697  0.75754  Biso   1.000  Hf
  O9       1.0000 0.97943  0.65703  0.98617  Biso   1.000  O 
  O10      1.0000 0.02124  0.56660  0.53233  Biso   1.000  O 
  O11      1.0000 0.99827  0.80572  0.43675  Biso   1.000  O 
  O12      1.0000 0.98862  0.89662  0.93036  Biso   1.000  O 
  O13      1.0000 0.25485  0.64545  0.45940  Biso   1.000  O 
  O14      1.0000 0.22873  0.59322  0.94808  Biso   1.000  O 
  O15      1.0000 0.22914  0.83245  0.00308  Biso   1.000  O 
  O16      1.0000 0.23351  0.88976  0.52241  Biso   1.000  O 
  Hf9      1.0000 0.61624  0.02074  0.27291  Biso   1.000  Hf
  Hf10     1.0000 0.63088  0.26871  0.77084  Biso   1.000  Hf
  Hf11     1.0000 0.86984  0.23886  0.23675  Biso   1.000  Hf
  Hf12     1.0000 0.86584  0.01152  0.74353  Biso   1.000  Hf
  O17      1.0000 0.51009  0.17882  0.05082  Biso   1.000  O 
  O18      1.0000 0.49946  0.11064  0.54602  Biso   1.000  O 
  O19      1.0000 0.51308  0.36458  0.48768  Biso   1.000  O 
  O20      1.0000 0.54485  0.43796  0.95380  Biso   1.000  O 
  O21      1.0000 0.74309  0.15608  0.51016  Biso   1.000  O 
  O22      1.0000 0.74082  0.11224  0.00760  Biso   1.000  O 
  O23      1.0000 0.76009  0.36158  0.00642  Biso   1.000  O 
  O24      1.0000 0.76960  0.39862  0.50493  Biso   1.000  O 
  Hf13     1.0000 0.63839  0.49426  0.27315  Biso   1.000  Hf
  Hf14     1.0000 0.62663  0.75141  0.71704  Biso   1.000  Hf
  Hf15     1.0000 0.84296  0.76180  0.20262  Biso   1.000  Hf
  Hf16     1.0000 0.87522  0.51255  0.77675  Biso   1.000  Hf
  O25      1.0000 0.47422  0.68138  0.94596  Biso   1.000  O 
  O26      1.0000 0.51093  0.61901  0.45882  Biso   1.000  O 
  O27      1.0000 0.48488  0.86570  0.54051  Biso   1.000  O 
  O28      1.0000 0.46800  0.92505  0.05531  Biso   1.000  O 
  O29      1.0000 0.76229  0.64599  0.49694  Biso   1.000  O 
  O30      1.0000 0.73544  0.62135  0.99528  Biso   1.000  O 
  O31      1.0000 0.73323  0.86986  0.96515  Biso   1.000  O 
  O32      1.0000 0.73246  0.89588  0.47198  Biso   1.000  O 
  Ir1      1.0000 0.12996  0.18515  0.29059  Biso   1.000  Ir
