data_image0
_cell_length_a       10.0031
_cell_length_b       10.4164
_cell_length_c       10.0407
_cell_angle_alpha    90
_cell_angle_beta     90
_cell_angle_gamma    90

_symmetry_space_group_name_H-M    "P 1"
_symmetry_int_tables_number       1

loop_
  _symmetry_equiv_pos_as_xyz
  'x, y, z'

loop_
  _atom_site_label
  _atom_site_occupancy
  _atom_site_fract_x
  _atom_site_fract_y
  _atom_site_fract_z
  _atom_site_thermal_displace_type
  _atom_site_B_iso_or_equiv
  _atom_site_type_symbol
  Hf1      1.0000 0.13666  0.02062  0.11947  Biso   1.000  Hf
  Hf2      1.0000 0.13526  0.23300  0.38422  Biso   1.000  Hf
  Hf3      1.0000 0.36803  0.26416  0.12238  Biso   1.000  Hf
  Hf4      1.0000 0.36746  0.48736  0.37652  Biso   1.000  Hf
  O1       1.0000 0.00364  0.17015  0.22759  Biso   1.000  O 
  O2       1.0000 0.03710  0.06597  0.45224  Biso   1.000  O 
  O3       1.0000 0.46296  0.43455  0.19442  Biso   1.000  O 
  O4       1.0000 0.46412  0.32014  0.44666  Biso   1.000  O 
  O5       1.0000 0.26729  0.11714  0.25191  Biso   1.000  O 
  O6       1.0000 0.27299  0.13472  0.50087  Biso   1.000  O 
  O7       1.0000 0.23155  0.38651  0.50271  Biso   1.000  O 
  O8       1.0000 0.23493  0.37064  0.25727  Biso   1.000  O 
  Hf5      1.0000 0.13533  0.01643  0.62657  Biso   1.000  Hf
  Hf6      1.0000 0.14041  0.22727  0.86653  Biso   1.000  Hf
  Hf7      1.0000 0.36800  0.27071  0.62608  Biso   1.000  Hf
  Hf8      1.0000 0.36792  0.49022  0.87400  Biso   1.000  Hf
  O9       1.0000 0.03718  0.18490  0.69062  Biso   1.000  O 
  O10      1.0000 0.04117  0.06283  0.93601  Biso   1.000  O 
  O11      1.0000 0.46545  0.43815  0.69555  Biso   1.000  O 
  O12      1.0000 0.46476  0.32089  0.94166  Biso   1.000  O 
  O13      1.0000 0.27366  0.11769  0.74552  Biso   1.000  O 
  O14      1.0000 0.29117  0.12760  0.99052  Biso   1.000  O 
  O15      1.0000 0.23237  0.39084  0.00130  Biso   1.000  O 
  O16      1.0000 0.23197  0.37002  0.75050  Biso   1.000  O 
  Hf9      1.0000 0.13078  0.53493  0.12603  Biso   1.000  Hf
  Hf10     1.0000 0.13390  0.73879  0.37845  Biso   1.000  Hf
  Hf11     1.0000 0.36382  0.76891  0.12726  Biso   1.000  Hf
  Hf12     1.0000 0.36359  0.98590  0.37613  Biso   1.000  Hf
  O17      1.0000 0.03353  0.69187  0.19870  Biso   1.000  O 
  O18      1.0000 0.03555  0.57110  0.44526  Biso   1.000  O 
  O19      1.0000 0.46112  0.93503  0.19567  Biso   1.000  O 
  O20      1.0000 0.46322  0.81815  0.44376  Biso   1.000  O 
  O21      1.0000 0.27094  0.62359  0.25142  Biso   1.000  O 
  O22      1.0000 0.27028  0.63555  0.50014  Biso   1.000  O 
  O23      1.0000 0.22965  0.88499  0.50024  Biso   1.000  O 
  O24      1.0000 0.22777  0.87076  0.24998  Biso   1.000  O 
  Hf13     1.0000 0.13352  0.51938  0.62587  Biso   1.000  Hf
  Hf14     1.0000 0.13200  0.74109  0.87335  Biso   1.000  Hf
  Hf15     1.0000 0.36789  0.76824  0.62460  Biso   1.000  Hf
  Hf16     1.0000 0.36953  0.98378  0.87353  Biso   1.000  Hf
  O25      1.0000 0.03620  0.68838  0.69268  Biso   1.000  O 
  O26      1.0000 0.03429  0.57427  0.94577  Biso   1.000  O 
  O27      1.0000 0.46659  0.93541  0.69157  Biso   1.000  O 
  O28      1.0000 0.46647  0.82115  0.94768  Biso   1.000  O 
  O29      1.0000 0.26897  0.62006  0.74963  Biso   1.000  O 
  O30      1.0000 0.26889  0.64391  0.99868  Biso   1.000  O 
  O31      1.0000 0.22833  0.88776  0.99963  Biso   1.000  O 
  O32      1.0000 0.23281  0.86897  0.74879  Biso   1.000  O 
  Hf17     1.0000 0.63100  0.01335  0.12355  Biso   1.000  Hf
  Hf18     1.0000 0.63074  0.23414  0.37868  Biso   1.000  Hf
  Hf19     1.0000 0.84253  0.26497  0.12747  Biso   1.000  Hf
  Hf20     1.0000 0.86603  0.48741  0.37787  Biso   1.000  Hf
  O33      1.0000 0.53322  0.18235  0.19487  Biso   1.000  O 
  O34      1.0000 0.53518  0.06829  0.44639  Biso   1.000  O 
  O35      1.0000 0.95180  0.44727  0.19496  Biso   1.000  O 
  O36      1.0000 0.96770  0.32306  0.44947  Biso   1.000  O 
  O37      1.0000 0.75793  0.11571  0.25023  Biso   1.000  O 
  O38      1.0000 0.77242  0.13758  0.49808  Biso   1.000  O 
  O39      1.0000 0.73002  0.38533  0.50145  Biso   1.000  O 
  O40      1.0000 0.72219  0.37049  0.25408  Biso   1.000  O 
  Hf21     1.0000 0.63746  0.01951  0.62426  Biso   1.000  Hf
  Hf22     1.0000 0.63316  0.23714  0.87253  Biso   1.000  Hf
  Hf23     1.0000 0.86709  0.27136  0.62668  Biso   1.000  Hf
  Hf24     1.0000 0.86546  0.48836  0.87651  Biso   1.000  Hf
  O41      1.0000 0.53846  0.18783  0.69232  Biso   1.000  O 
  O42      1.0000 0.54331  0.06792  0.93880  Biso   1.000  O 
  O43      1.0000 0.96403  0.43920  0.69580  Biso   1.000  O 
  O44      1.0000 0.95973  0.31742  0.93325  Biso   1.000  O 
  O45      1.0000 0.77264  0.12110  0.74858  Biso   1.000  O 
  O46      1.0000 0.77068  0.13653  0.99904  Biso   1.000  O 
  O47      1.0000 0.72435  0.38186  0.00091  Biso   1.000  O 
  O48      1.0000 0.72998  0.37234  0.75040  Biso   1.000  O 
  Hf25     1.0000 0.63115  0.51952  0.12831  Biso   1.000  Hf
  Hf26     1.0000 0.63385  0.73717  0.37590  Biso   1.000  Hf
  Hf27     1.0000 0.86266  0.76801  0.12564  Biso   1.000  Hf
  Hf28     1.0000 0.86797  0.98903  0.37106  Biso   1.000  Hf
  O49      1.0000 0.53382  0.68556  0.19600  Biso   1.000  O 
  O50      1.0000 0.53647  0.56929  0.44591  Biso   1.000  O 
  O51      1.0000 0.96225  0.93526  0.18955  Biso   1.000  O 
  O52      1.0000 0.96339  0.82095  0.44383  Biso   1.000  O 
  O53      1.0000 0.76711  0.62109  0.25190  Biso   1.000  O 
  O54      1.0000 0.76931  0.63696  0.50064  Biso   1.000  O 
  O55      1.0000 0.73121  0.88818  0.49733  Biso   1.000  O 
  O56      1.0000 0.72816  0.86894  0.24829  Biso   1.000  O 
  Hf29     1.0000 0.63539  0.51985  0.62606  Biso   1.000  Hf
  Hf30     1.0000 0.63450  0.73769  0.87578  Biso   1.000  Hf
  Hf31     1.0000 0.86632  0.77041  0.62443  Biso   1.000  Hf
  Hf32     1.0000 0.86456  0.98631  0.87430  Biso   1.000  Hf
  O57      1.0000 0.53550  0.68623  0.69653  Biso   1.000  O 
  O58      1.0000 0.53459  0.57237  0.94617  Biso   1.000  O 
  O59      1.0000 0.96457  0.93480  0.69676  Biso   1.000  O 
  O60      1.0000 0.96136  0.81886  0.94370  Biso   1.000  O 
  O61      1.0000 0.77053  0.62143  0.75013  Biso   1.000  O 
  O62      1.0000 0.76825  0.63138  0.00066  Biso   1.000  O 
  O63      1.0000 0.72887  0.88693  0.99889  Biso   1.000  O 
  O64      1.0000 0.72988  0.87062  0.74835  Biso   1.000  O 
  Ir1      1.0000 0.09522  0.29091  0.10817  Biso   1.000  Ir
