data_image0
_cell_length_a       10.0315
_cell_length_b       10.1819
_cell_length_c       5.2284
_cell_angle_alpha    90
_cell_angle_beta     90
_cell_angle_gamma    90

_symmetry_space_group_name_H-M    "P 1"
_symmetry_int_tables_number       1

loop_
  _symmetry_equiv_pos_as_xyz
  'x, y, z'

loop_
  _atom_site_label
  _atom_site_occupancy
  _atom_site_fract_x
  _atom_site_fract_y
  _atom_site_fract_z
  _atom_site_thermal_displace_type
  _atom_site_B_iso_or_equiv
  _atom_site_type_symbol
  Ir1      1.0000 0.12248  0.00928  0.37802  Biso   1.000  Ir
  Hf1      1.0000 0.14564  0.22905  0.83741  Biso   1.000  Hf
  Hf2      1.0000 0.36230  0.27062  0.33409  Biso   1.000  Hf
  Hf3      1.0000 0.36400  0.47926  0.84325  Biso   1.000  Hf
  Hf4      1.0000 0.63797  0.02171  0.15613  Biso   1.000  Hf
  Hf5      1.0000 0.63935  0.22933  0.65739  Biso   1.000  Hf
  Hf6      1.0000 0.87028  0.26603  0.16457  Biso   1.000  Hf
  Hf7      1.0000 0.86669  0.47572  0.66312  Biso   1.000  Hf
  O1       1.0000 0.04638  0.15128  0.16551  Biso   1.000  O 
  O2       1.0000 0.02829  0.08786  0.66364  Biso   1.000  O 
  O3       1.0000 0.47095  0.41764  0.16828  Biso   1.000  O 
  O4       1.0000 0.46931  0.33417  0.66699  Biso   1.000  O 
  O5       1.0000 0.27302  0.11595  0.55494  Biso   1.000  O 
  O6       1.0000 0.30432  0.15022  0.03831  Biso   1.000  O 
  O7       1.0000 0.22814  0.37307  0.59041  Biso   1.000  O 
  O8       1.0000 0.22455  0.38355  0.08961  Biso   1.000  O 
  O9       1.0000 0.53778  0.16921  0.32666  Biso   1.000  O 
  O10      1.0000 0.53664  0.07919  0.82072  Biso   1.000  O 
  O11      1.0000 0.97539  0.40913  0.34572  Biso   1.000  O 
  O12      1.0000 0.97143  0.33221  0.84860  Biso   1.000  O 
  O13      1.0000 0.77718  0.12147  0.91362  Biso   1.000  O 
  O14      1.0000 0.77844  0.12440  0.41135  Biso   1.000  O 
  O15      1.0000 0.72809  0.37082  0.91556  Biso   1.000  O 
  O16      1.0000 0.73045  0.37420  0.41272  Biso   1.000  O 
  Hf8      1.0000 0.14449  0.52284  0.34739  Biso   1.000  Hf
  Hf9      1.0000 0.14219  0.72991  0.84979  Biso   1.000  Hf
  Hf10     1.0000 0.36725  0.77672  0.34132  Biso   1.000  Hf
  Hf11     1.0000 0.36951  0.98366  0.84361  Biso   1.000  Hf
  Hf12     1.0000 0.64440  0.51907  0.15856  Biso   1.000  Hf
  Hf13     1.0000 0.64178  0.72694  0.65600  Biso   1.000  Hf
  Hf14     1.0000 0.86584  0.76770  0.15711  Biso   1.000  Hf
  Hf15     1.0000 0.86446  0.97604  0.66129  Biso   1.000  Hf
  O17      1.0000 0.03845  0.66422  0.16961  Biso   1.000  O 
  O18      1.0000 0.03720  0.58462  0.67297  Biso   1.000  O 
  O19      1.0000 0.47706  0.91787  0.16591  Biso   1.000  O 
  O20      1.0000 0.47008  0.83365  0.66715  Biso   1.000  O 
  O21      1.0000 0.28056  0.62604  0.59199  Biso   1.000  O 
  O22      1.0000 0.28412  0.63228  0.09237  Biso   1.000  O 
  O23      1.0000 0.22348  0.87346  0.59389  Biso   1.000  O 
  O24      1.0000 0.22878  0.88946  0.09445  Biso   1.000  O 
  O25      1.0000 0.53835  0.66718  0.32894  Biso   1.000  O 
  O26      1.0000 0.53721  0.58258  0.83105  Biso   1.000  O 
  O27      1.0000 0.96919  0.91294  0.32929  Biso   1.000  O 
  O28      1.0000 0.97100  0.83444  0.83492  Biso   1.000  O 
  O29      1.0000 0.77967  0.62113  0.91124  Biso   1.000  O 
  O30      1.0000 0.78133  0.62357  0.41255  Biso   1.000  O 
  O31      1.0000 0.72735  0.87087  0.90955  Biso   1.000  O 
  O32      1.0000 0.73016  0.87506  0.41182  Biso   1.000  O 
