data_image0
_cell_length_a       10.0238
_cell_length_b       5.09707
_cell_length_c       10.4511
_cell_angle_alpha    90
_cell_angle_beta     90
_cell_angle_gamma    90

_symmetry_space_group_name_H-M    "P 1"
_symmetry_int_tables_number       1

loop_
  _symmetry_equiv_pos_as_xyz
  'x, y, z'

loop_
  _atom_site_label
  _atom_site_occupancy
  _atom_site_fract_x
  _atom_site_fract_y
  _atom_site_fract_z
  _atom_site_thermal_displace_type
  _atom_site_B_iso_or_equiv
  _atom_site_type_symbol
  Ir1      1.0000 0.12304  0.02328  0.19006  Biso   1.000  Ir
  Hf1      1.0000 0.13608  0.45933  0.42069  Biso   1.000  Hf
  Hf2      1.0000 0.35884  0.54956  0.16592  Biso   1.000  Hf
  Hf3      1.0000 0.36165  0.95978  0.41989  Biso   1.000  Hf
  Hf4      1.0000 0.63847  0.04024  0.07714  Biso   1.000  Hf
  Hf5      1.0000 0.63436  0.45534  0.32725  Biso   1.000  Hf
  Hf6      1.0000 0.86710  0.52805  0.08067  Biso   1.000  Hf
  Hf7      1.0000 0.85610  0.95341  0.33186  Biso   1.000  Hf
  O1       1.0000 0.04538  0.31530  0.08995  Biso   1.000  O 
  O2       1.0000 0.02481  0.17440  0.33511  Biso   1.000  O 
  O3       1.0000 0.47122  0.83582  0.08356  Biso   1.000  O 
  O4       1.0000 0.46148  0.66101  0.33539  Biso   1.000  O 
  O5       1.0000 0.27074  0.23928  0.28418  Biso   1.000  O 
  O6       1.0000 0.30201  0.30412  0.02391  Biso   1.000  O 
  O7       1.0000 0.21728  0.74457  0.29444  Biso   1.000  O 
  O8       1.0000 0.22153  0.78954  0.04883  Biso   1.000  O 
  O9       1.0000 0.53497  0.33748  0.16333  Biso   1.000  O 
  O10      1.0000 0.52976  0.16219  0.41327  Biso   1.000  O 
  O11      1.0000 0.96844  0.82224  0.16751  Biso   1.000  O 
  O12      1.0000 0.96513  0.67344  0.41953  Biso   1.000  O 
  O13      1.0000 0.77174  0.24512  0.45606  Biso   1.000  O 
  O14      1.0000 0.77571  0.24500  0.20568  Biso   1.000  O 
  O15      1.0000 0.72031  0.74447  0.45619  Biso   1.000  O 
  O16      1.0000 0.72744  0.74579  0.20627  Biso   1.000  O 
  Hf8      1.0000 0.13226  0.04118  0.67043  Biso   1.000  Hf
  Hf9      1.0000 0.13754  0.45854  0.92151  Biso   1.000  Hf
  Hf10     1.0000 0.35823  0.54466  0.67148  Biso   1.000  Hf
  Hf11     1.0000 0.35714  0.96625  0.92260  Biso   1.000  Hf
  Hf12     1.0000 0.63232  0.04169  0.58034  Biso   1.000  Hf
  Hf13     1.0000 0.63422  0.45911  0.82943  Biso   1.000  Hf
  Hf14     1.0000 0.85733  0.54030  0.58065  Biso   1.000  Hf
  Hf15     1.0000 0.86213  0.95417  0.83162  Biso   1.000  Hf
  O17      1.0000 0.02792  0.32564  0.58086  Biso   1.000  O 
  O18      1.0000 0.02828  0.17058  0.83438  Biso   1.000  O 
  O19      1.0000 0.46410  0.83735  0.58403  Biso   1.000  O 
  O20      1.0000 0.46390  0.67156  0.83258  Biso   1.000  O 
  O21      1.0000 0.27003  0.24466  0.78687  Biso   1.000  O 
  O22      1.0000 0.27246  0.25515  0.53978  Biso   1.000  O 
  O23      1.0000 0.22132  0.74683  0.79660  Biso   1.000  O 
  O24      1.0000 0.22175  0.75328  0.54409  Biso   1.000  O 
  O25      1.0000 0.53031  0.33758  0.66351  Biso   1.000  O 
  O26      1.0000 0.53119  0.16151  0.91169  Biso   1.000  O 
  O27      1.0000 0.96672  0.82275  0.67046  Biso   1.000  O 
  O28      1.0000 0.96361  0.66372  0.92296  Biso   1.000  O 
  O29      1.0000 0.77270  0.24309  0.95675  Biso   1.000  O 
  O30      1.0000 0.77248  0.25107  0.70631  Biso   1.000  O 
  O31      1.0000 0.72118  0.74203  0.95694  Biso   1.000  O 
  O32      1.0000 0.72220  0.75351  0.70646  Biso   1.000  O 
