data_image0
_cell_length_a       10.0485
_cell_length_b       10.2553
_cell_length_c       10.5011
_cell_angle_alpha    90
_cell_angle_beta     90
_cell_angle_gamma    90

_symmetry_space_group_name_H-M    "P 1"
_symmetry_int_tables_number       1

loop_
  _symmetry_equiv_pos_as_xyz
  'x, y, z'

loop_
  _atom_site_label
  _atom_site_occupancy
  _atom_site_fract_x
  _atom_site_fract_y
  _atom_site_fract_z
  _atom_site_thermal_displace_type
  _atom_site_B_iso_or_equiv
  _atom_site_type_symbol
  Hf1      1.0000 0.13660  0.02097  0.17267  Biso   1.000  Hf
  Hf2      1.0000 0.13521  0.22902  0.42457  Biso   1.000  Hf
  Hf3      1.0000 0.34900  0.27046  0.17783  Biso   1.000  Hf
  Hf4      1.0000 0.36008  0.47938  0.42094  Biso   1.000  Hf
  Hf5      1.0000 0.64507  0.01803  0.07473  Biso   1.000  Hf
  Hf6      1.0000 0.63724  0.22748  0.32940  Biso   1.000  Hf
  Hf7      1.0000 0.85932  0.26767  0.07864  Biso   1.000  Hf
  Hf8      1.0000 0.86179  0.48037  0.33013  Biso   1.000  Hf
  O1       1.0000 0.03145  0.16403  0.08373  Biso   1.000  O 
  O2       1.0000 0.03040  0.08568  0.33439  Biso   1.000  O 
  O3       1.0000 0.44977  0.44138  0.09976  Biso   1.000  O 
  O4       1.0000 0.46482  0.33397  0.33255  Biso   1.000  O 
  O5       1.0000 0.26987  0.12570  0.29873  Biso   1.000  O 
  O6       1.0000 0.27246  0.12439  0.04586  Biso   1.000  O 
  O7       1.0000 0.21838  0.37602  0.29834  Biso   1.000  O 
  O8       1.0000 0.22005  0.37560  0.04468  Biso   1.000  O 
  O9       1.0000 0.51175  0.14045  0.18350  Biso   1.000  O 
  O10      1.0000 0.53041  0.08792  0.42232  Biso   1.000  O 
  O11      1.0000 0.96618  0.41389  0.16807  Biso   1.000  O 
  O12      1.0000 0.96555  0.33671  0.41920  Biso   1.000  O 
  O13      1.0000 0.77427  0.12449  0.45503  Biso   1.000  O 
  O14      1.0000 0.77666  0.12389  0.20917  Biso   1.000  O 
  O15      1.0000 0.72139  0.37356  0.45594  Biso   1.000  O 
  O16      1.0000 0.72601  0.38300  0.20961  Biso   1.000  O 
  Hf9      1.0000 0.13825  0.02207  0.67224  Biso   1.000  Hf
  Hf10     1.0000 0.13341  0.22977  0.92192  Biso   1.000  Hf
  Hf11     1.0000 0.35841  0.27322  0.67266  Biso   1.000  Hf
  Hf12     1.0000 0.35569  0.48247  0.92220  Biso   1.000  Hf
  Hf13     1.0000 0.63765  0.02097  0.57851  Biso   1.000  Hf
  Hf14     1.0000 0.63829  0.22776  0.82074  Biso   1.000  Hf
  Hf15     1.0000 0.85931  0.27207  0.57841  Biso   1.000  Hf
  Hf16     1.0000 0.85900  0.48152  0.82822  Biso   1.000  Hf
  O17      1.0000 0.03048  0.16545  0.58446  Biso   1.000  O 
  O18      1.0000 0.03245  0.08490  0.83196  Biso   1.000  O 
  O19      1.0000 0.46609  0.41370  0.57973  Biso   1.000  O 
  O20      1.0000 0.46642  0.34343  0.82678  Biso   1.000  O 
  O21      1.0000 0.27462  0.12588  0.79617  Biso   1.000  O 
  O22      1.0000 0.27394  0.12656  0.54649  Biso   1.000  O 
  O23      1.0000 0.21957  0.37450  0.79618  Biso   1.000  O 
  O24      1.0000 0.22199  0.37699  0.54650  Biso   1.000  O 
  O25      1.0000 0.52847  0.16284  0.66795  Biso   1.000  O 
  O26      1.0000 0.52968  0.08490  0.91562  Biso   1.000  O 
  O27      1.0000 0.96464  0.41628  0.66785  Biso   1.000  O 
  O28      1.0000 0.95977  0.33596  0.91720  Biso   1.000  O 
  O29      1.0000 0.78574  0.11898  0.94732  Biso   1.000  O 
  O30      1.0000 0.77518  0.12485  0.70115  Biso   1.000  O 
  O31      1.0000 0.71332  0.37836  0.95508  Biso   1.000  O 
  O32      1.0000 0.72298  0.37665  0.70417  Biso   1.000  O 
  Hf17     1.0000 0.13680  0.52159  0.17127  Biso   1.000  Hf
  Hf18     1.0000 0.13724  0.72941  0.42179  Biso   1.000  Hf
  Hf19     1.0000 0.35897  0.77395  0.17218  Biso   1.000  Hf
  Hf20     1.0000 0.35788  0.98002  0.42339  Biso   1.000  Hf
  Hf21     1.0000 0.63677  0.53216  0.08288  Biso   1.000  Hf
  Hf22     1.0000 0.63676  0.73247  0.33031  Biso   1.000  Hf
  Hf23     1.0000 0.86130  0.77129  0.07940  Biso   1.000  Hf
  Hf24     1.0000 0.85850  0.97881  0.33023  Biso   1.000  Hf
  O33      1.0000 0.03114  0.66409  0.08262  Biso   1.000  O 
  O34      1.0000 0.03189  0.58678  0.33225  Biso   1.000  O 
  O35      1.0000 0.46690  0.91195  0.07886  Biso   1.000  O 
  O36      1.0000 0.46502  0.83881  0.33343  Biso   1.000  O 
  O37      1.0000 0.27485  0.62520  0.29466  Biso   1.000  O 
  O38      1.0000 0.27367  0.62844  0.04416  Biso   1.000  O 
  O39      1.0000 0.22165  0.87538  0.29606  Biso   1.000  O 
  O40      1.0000 0.22096  0.87636  0.04616  Biso   1.000  O 
  O41      1.0000 0.53372  0.67446  0.16829  Biso   1.000  O 
  O42      1.0000 0.53074  0.58661  0.41629  Biso   1.000  O 
  O43      1.0000 0.96524  0.91448  0.16826  Biso   1.000  O 
  O44      1.0000 0.96490  0.83395  0.41725  Biso   1.000  O 
  O45      1.0000 0.77382  0.62448  0.45569  Biso   1.000  O 
  O46      1.0000 0.77565  0.62955  0.20678  Biso   1.000  O 
  O47      1.0000 0.72154  0.87494  0.45639  Biso   1.000  O 
  O48      1.0000 0.72396  0.87625  0.20641  Biso   1.000  O 
  Hf25     1.0000 0.13628  0.52150  0.67142  Biso   1.000  Hf
  Hf26     1.0000 0.13397  0.73056  0.92188  Biso   1.000  Hf
  Hf27     1.0000 0.35835  0.77172  0.67188  Biso   1.000  Hf
  Hf28     1.0000 0.35463  0.97933  0.92276  Biso   1.000  Hf
  Hf29     1.0000 0.63596  0.52144  0.57745  Biso   1.000  Hf
  Hf30     1.0000 0.63440  0.72986  0.82757  Biso   1.000  Hf
  Hf31     1.0000 0.85971  0.77101  0.57859  Biso   1.000  Hf
  Hf32     1.0000 0.85902  0.97755  0.82693  Biso   1.000  Hf
  O49      1.0000 0.03072  0.66451  0.58272  Biso   1.000  O 
  O50      1.0000 0.02896  0.58670  0.83243  Biso   1.000  O 
  O51      1.0000 0.46450  0.91338  0.58234  Biso   1.000  O 
  O52      1.0000 0.46368  0.83753  0.83123  Biso   1.000  O 
  O53      1.0000 0.27242  0.62437  0.79556  Biso   1.000  O 
  O54      1.0000 0.27409  0.62612  0.54497  Biso   1.000  O 
  O55      1.0000 0.21999  0.87430  0.79563  Biso   1.000  O 
  O56      1.0000 0.22127  0.87643  0.54573  Biso   1.000  O 
  O57      1.0000 0.52872  0.66360  0.66775  Biso   1.000  O 
  O58      1.0000 0.52792  0.58847  0.91936  Biso   1.000  O 
  O59      1.0000 0.96586  0.91443  0.66536  Biso   1.000  O 
  O60      1.0000 0.96329  0.83631  0.91804  Biso   1.000  O 
  O61      1.0000 0.77234  0.62620  0.95517  Biso   1.000  O 
  O62      1.0000 0.77273  0.62650  0.70497  Biso   1.000  O 
  O63      1.0000 0.71942  0.87337  0.95504  Biso   1.000  O 
  O64      1.0000 0.72095  0.87542  0.70470  Biso   1.000  O 
  Ir1      1.0000 0.58020  0.27150  0.06107  Biso   1.000  Ir
