data_image0
_cell_length_a       10.0267
_cell_length_b       5.20555
_cell_length_c       9.94611
_cell_angle_alpha    90
_cell_angle_beta     90
_cell_angle_gamma    90

_symmetry_space_group_name_H-M    "P 1"
_symmetry_int_tables_number       1

loop_
  _symmetry_equiv_pos_as_xyz
  'x, y, z'

loop_
  _atom_site_label
  _atom_site_occupancy
  _atom_site_fract_x
  _atom_site_fract_y
  _atom_site_fract_z
  _atom_site_thermal_displace_type
  _atom_site_B_iso_or_equiv
  _atom_site_type_symbol
  Ir1      1.0000 0.13666  0.92463  0.11910  Biso   1.000  Ir
  Hf1      1.0000 0.14094  0.45785  0.38523  Biso   1.000  Hf
  Hf2      1.0000 0.40644  0.55731  0.13727  Biso   1.000  Hf
  Hf3      1.0000 0.39805  0.05907  0.36388  Biso   1.000  Hf
  O1       1.0000 0.97356  0.36745  0.95894  Biso   1.000  O 
  O2       1.0000 0.03572  0.21721  0.22742  Biso   1.000  O 
  O3       1.0000 0.04162  0.72398  0.26254  Biso   1.000  O 
  O4       1.0000 0.95374  0.87204  0.03844  Biso   1.000  O 
  O5       1.0000 0.29483  0.37499  0.27260  Biso   1.000  O 
  O6       1.0000 0.21661  0.12338  0.97309  Biso   1.000  O 
  O7       1.0000 0.22027  0.62116  0.03437  Biso   1.000  O 
  O8       1.0000 0.29851  0.88133  0.22344  Biso   1.000  O 
  Hf4      1.0000 0.16295  0.95941  0.63896  Biso   1.000  Hf
  Hf5      1.0000 0.15502  0.46094  0.86652  Biso   1.000  Hf
  Hf6      1.0000 0.40930  0.53330  0.63682  Biso   1.000  Hf
  Hf7      1.0000 0.40135  0.03167  0.87041  Biso   1.000  Hf
  O9       1.0000 0.95914  0.35200  0.46373  Biso   1.000  O 
  O10      1.0000 0.02388  0.23303  0.72530  Biso   1.000  O 
  O11      1.0000 0.03146  0.73442  0.77213  Biso   1.000  O 
  O12      1.0000 0.98795  0.84305  0.52874  Biso   1.000  O 
  O13      1.0000 0.27556  0.26110  0.73312  Biso   1.000  O 
  O14      1.0000 0.21501  0.12163  0.46837  Biso   1.000  O 
  O15      1.0000 0.23155  0.62779  0.53862  Biso   1.000  O 
  O16      1.0000 0.28336  0.76231  0.77556  Biso   1.000  O 
  Hf8      1.0000 0.66415  0.96270  0.13628  Biso   1.000  Hf
  Hf9      1.0000 0.65777  0.46366  0.36588  Biso   1.000  Hf
  Hf10     1.0000 0.90574  0.51570  0.13249  Biso   1.000  Hf
  Hf11     1.0000 0.90264  0.02038  0.36239  Biso   1.000  Hf
  O17      1.0000 0.46784  0.37311  0.96491  Biso   1.000  O 
  O18      1.0000 0.53009  0.24442  0.22663  Biso   1.000  O 
  O19      1.0000 0.53413  0.74533  0.27595  Biso   1.000  O 
  O20      1.0000 0.49038  0.86606  0.02978  Biso   1.000  O 
  O21      1.0000 0.78104  0.25512  0.22838  Biso   1.000  O 
  O22      1.0000 0.71932  0.13518  0.96424  Biso   1.000  O 
  O23      1.0000 0.72350  0.62091  0.03897  Biso   1.000  O 
  O24      1.0000 0.78810  0.75182  0.27258  Biso   1.000  O 
  Hf12     1.0000 0.65479  0.97181  0.62861  Biso   1.000  Hf
  Hf13     1.0000 0.65087  0.47167  0.87161  Biso   1.000  Hf
  Hf14     1.0000 0.90068  0.53450  0.63756  Biso   1.000  Hf
  Hf15     1.0000 0.89499  0.03690  0.86204  Biso   1.000  Hf
  O25      1.0000 0.48632  0.36301  0.47360  Biso   1.000  O 
  O26      1.0000 0.52473  0.23346  0.73594  Biso   1.000  O 
  O27      1.0000 0.53235  0.73568  0.76834  Biso   1.000  O 
  O28      1.0000 0.47371  0.87002  0.53669  Biso   1.000  O 
  O29      1.0000 0.77255  0.27251  0.73059  Biso   1.000  O 
  O30      1.0000 0.72283  0.12285  0.46147  Biso   1.000  O 
  O31      1.0000 0.72531  0.63256  0.53571  Biso   1.000  O 
  O32      1.0000 0.78060  0.77300  0.76793  Biso   1.000  O 
