data_image0
_cell_length_a       10.126
_cell_length_b       10.207
_cell_length_c       5.2389
_cell_angle_alpha    90
_cell_angle_beta     80
_cell_angle_gamma    90

_symmetry_space_group_name_H-M    "P 1"
_symmetry_int_tables_number       1

loop_
  _symmetry_equiv_pos_as_xyz
  'x, y, z'

loop_
  _atom_site_label
  _atom_site_occupancy
  _atom_site_fract_x
  _atom_site_fract_y
  _atom_site_fract_z
  _atom_site_thermal_displace_type
  _atom_site_B_iso_or_equiv
  _atom_site_type_symbol
  Ir1      1.0000 0.12152  0.00828  0.33486  Biso   1.000  Ir
  Hf1      1.0000 0.14294  0.22643  0.78584  Biso   1.000  Hf
  Hf2      1.0000 0.36230  0.26948  0.20023  Biso   1.000  Hf
  Hf3      1.0000 0.36427  0.47910  0.70870  Biso   1.000  Hf
  O1       1.0000 0.04514  0.15032  0.14984  Biso   1.000  O 
  O2       1.0000 0.02617  0.08599  0.65326  Biso   1.000  O 
  O3       1.0000 0.46894  0.41588  0.34490  Biso   1.000  O 
  O4       1.0000 0.47158  0.33983  0.84913  Biso   1.000  O 
  O5       1.0000 0.26968  0.12055  0.45058  Biso   1.000  O 
  O6       1.0000 0.29446  0.14077  0.92981  Biso   1.000  O 
  O7       1.0000 0.22855  0.38351  0.01633  Biso   1.000  O 
  O8       1.0000 0.22954  0.36888  0.51869  Biso   1.000  O 
  Hf4      1.0000 0.14580  0.52218  0.29515  Biso   1.000  Hf
  Hf5      1.0000 0.14187  0.72867  0.79944  Biso   1.000  Hf
  Hf6      1.0000 0.36851  0.77674  0.20788  Biso   1.000  Hf
  Hf7      1.0000 0.37130  0.98384  0.70714  Biso   1.000  Hf
  O9       1.0000 0.04100  0.66515  0.15844  Biso   1.000  O 
  O10      1.0000 0.03949  0.58205  0.66187  Biso   1.000  O 
  O11      1.0000 0.47494  0.91814  0.34458  Biso   1.000  O 
  O12      1.0000 0.46661  0.83157  0.84378  Biso   1.000  O 
  O13      1.0000 0.28101  0.63196  0.48323  Biso   1.000  O 
  O14      1.0000 0.27872  0.62421  0.98520  Biso   1.000  O 
  O15      1.0000 0.23252  0.89420  0.02599  Biso   1.000  O 
  O16      1.0000 0.22466  0.87202  0.52581  Biso   1.000  O 
  Hf8      1.0000 0.63684  0.02154  0.29230  Biso   1.000  Hf
  Hf9      1.0000 0.63894  0.22896  0.79496  Biso   1.000  Hf
  Hf10     1.0000 0.87042  0.26613  0.21349  Biso   1.000  Hf
  Hf11     1.0000 0.86610  0.47496  0.71349  Biso   1.000  Hf
  O17      1.0000 0.53793  0.16818  0.15572  Biso   1.000  O 
  O18      1.0000 0.53613  0.08186  0.65722  Biso   1.000  O 
  O19      1.0000 0.97511  0.40967  0.35450  Biso   1.000  O 
  O20      1.0000 0.96899  0.33053  0.85980  Biso   1.000  O 
  O21      1.0000 0.77659  0.12617  0.48148  Biso   1.000  O 
  O22      1.0000 0.77396  0.11814  0.98444  Biso   1.000  O 
  O23      1.0000 0.73374  0.37610  0.02416  Biso   1.000  O 
  O24      1.0000 0.73015  0.36904  0.52231  Biso   1.000  O 
  Hf12     1.0000 0.64250  0.51864  0.29201  Biso   1.000  Hf
  Hf13     1.0000 0.64060  0.72604  0.79289  Biso   1.000  Hf
  Hf14     1.0000 0.86591  0.76703  0.20867  Biso   1.000  Hf
  Hf15     1.0000 0.86384  0.97437  0.71391  Biso   1.000  Hf
  O25      1.0000 0.54128  0.66757  0.15592  Biso   1.000  O 
  O26      1.0000 0.53805  0.58287  0.65416  Biso   1.000  O 
  O27      1.0000 0.96775  0.91222  0.34345  Biso   1.000  O 
  O28      1.0000 0.96867  0.83144  0.84754  Biso   1.000  O 
  O29      1.0000 0.78150  0.62500  0.48211  Biso   1.000  O 
  O30      1.0000 0.77723  0.61781  0.98188  Biso   1.000  O 
  O31      1.0000 0.73123  0.87771  0.01866  Biso   1.000  O 
  O32      1.0000 0.72981  0.86813  0.52154  Biso   1.000  O 
