data_image0
_cell_length_a       10.1932
_cell_length_b       10.3138
_cell_length_c       5.26469
_cell_angle_alpha    90
_cell_angle_beta     80
_cell_angle_gamma    90

_symmetry_space_group_name_H-M    "P 1"
_symmetry_int_tables_number       1

loop_
  _symmetry_equiv_pos_as_xyz
  'x, y, z'

loop_
  _atom_site_label
  _atom_site_occupancy
  _atom_site_fract_x
  _atom_site_fract_y
  _atom_site_fract_z
  _atom_site_thermal_displace_type
  _atom_site_B_iso_or_equiv
  _atom_site_type_symbol
  Hf1      1.0000 0.13358  0.01840  0.29945  Biso   1.000  Hf
  Hf2      1.0000 0.14024  0.22924  0.78771  Biso   1.000  Hf
  Hf3      1.0000 0.35564  0.27179  0.17243  Biso   1.000  Hf
  Hf4      1.0000 0.35062  0.48215  0.69853  Biso   1.000  Hf
  O1       1.0000 0.03471  0.16996  0.16179  Biso   1.000  O 
  O2       1.0000 0.03490  0.08102  0.65829  Biso   1.000  O 
  O3       1.0000 0.46244  0.41014  0.35336  Biso   1.000  O 
  O4       1.0000 0.48811  0.36162  0.87071  Biso   1.000  O 
  O5       1.0000 0.28228  0.12687  0.47870  Biso   1.000  O 
  O6       1.0000 0.26279  0.10739  0.99410  Biso   1.000  O 
  O7       1.0000 0.21718  0.38434  0.00766  Biso   1.000  O 
  O8       1.0000 0.20953  0.37369  0.49765  Biso   1.000  O 
  Hf5      1.0000 0.13359  0.52320  0.28981  Biso   1.000  Hf
  Hf6      1.0000 0.13214  0.72807  0.79851  Biso   1.000  Hf
  Hf7      1.0000 0.35695  0.76938  0.21243  Biso   1.000  Hf
  Hf8      1.0000 0.35577  0.96934  0.71981  Biso   1.000  Hf
  O9       1.0000 0.02598  0.66921  0.15869  Biso   1.000  O 
  O10      1.0000 0.03093  0.58412  0.65726  Biso   1.000  O 
  O11      1.0000 0.46033  0.91413  0.34998  Biso   1.000  O 
  O12      1.0000 0.45943  0.82581  0.85089  Biso   1.000  O 
  O13      1.0000 0.27076  0.62865  0.48329  Biso   1.000  O 
  O14      1.0000 0.26911  0.62019  0.98457  Biso   1.000  O 
  O15      1.0000 0.21791  0.87429  0.02902  Biso   1.000  O 
  O16      1.0000 0.21834  0.86949  0.52638  Biso   1.000  O 
  Hf9      1.0000 0.63736  0.01946  0.29361  Biso   1.000  Hf
  Hf10     1.0000 0.65246  0.22950  0.80436  Biso   1.000  Hf
  Hf11     1.0000 0.86377  0.27148  0.21572  Biso   1.000  Hf
  Hf12     1.0000 0.86185  0.47744  0.71221  Biso   1.000  Hf
  O17      1.0000 0.53042  0.16156  0.14385  Biso   1.000  O 
  O18      1.0000 0.54524  0.06086  0.67892  Biso   1.000  O 
  O19      1.0000 0.96132  0.42148  0.34144  Biso   1.000  O 
  O20      1.0000 0.96443  0.33011  0.84180  Biso   1.000  O 
  O21      1.0000 0.77615  0.12851  0.48513  Biso   1.000  O 
  O22      1.0000 0.78061  0.11610  0.98972  Biso   1.000  O 
  O23      1.0000 0.72694  0.37772  0.03127  Biso   1.000  O 
  O24      1.0000 0.72686  0.37228  0.52744  Biso   1.000  O 
  Hf13     1.0000 0.63597  0.52067  0.29608  Biso   1.000  Hf
  Hf14     1.0000 0.63342  0.72380  0.79220  Biso   1.000  Hf
  Hf15     1.0000 0.85355  0.77092  0.20995  Biso   1.000  Hf
  Hf16     1.0000 0.85577  0.97618  0.71081  Biso   1.000  Hf
  O25      1.0000 0.52812  0.66047  0.15185  Biso   1.000  O 
  O26      1.0000 0.52626  0.58787  0.64356  Biso   1.000  O 
  O27      1.0000 0.95787  0.91723  0.34312  Biso   1.000  O 
  O28      1.0000 0.95925  0.83199  0.84545  Biso   1.000  O 
  O29      1.0000 0.77092  0.62737  0.48221  Biso   1.000  O 
  O30      1.0000 0.77103  0.61832  0.98160  Biso   1.000  O 
  O31      1.0000 0.71624  0.87852  0.02302  Biso   1.000  O 
  O32      1.0000 0.71959  0.86864  0.52155  Biso   1.000  O 
  Ir1      1.0000 0.42963  0.23317  0.62916  Biso   1.000  Ir
