data_image0
_cell_length_a       5.09492
_cell_length_b       10.3497
_cell_length_c       10.1465
_cell_angle_alpha    90
_cell_angle_beta     90
_cell_angle_gamma    90

_symmetry_space_group_name_H-M    "P 1"
_symmetry_int_tables_number       1

loop_
  _symmetry_equiv_pos_as_xyz
  'x, y, z'

loop_
  _atom_site_label
  _atom_site_occupancy
  _atom_site_fract_x
  _atom_site_fract_y
  _atom_site_fract_z
  _atom_site_thermal_displace_type
  _atom_site_B_iso_or_equiv
  _atom_site_type_symbol
  Hf1      1.0000 0.29834  0.94116  0.12112  Biso   1.000  Hf
  Hf2      1.0000 0.37300  0.25733  0.39189  Biso   1.000  Hf
  Hf3      1.0000 0.78496  0.27855  0.13217  Biso   1.000  Hf
  Hf4      1.0000 0.86475  0.98377  0.36183  Biso   1.000  Hf
  O1       1.0000 0.93159  0.12427  0.96980  Biso   1.000  O 
  O2       1.0000 0.15363  0.05929  0.28286  Biso   1.000  O 
  O3       1.0000 0.07696  0.34837  0.26297  Biso   1.000  O 
  O4       1.0000 0.09222  0.36705  0.99554  Biso   1.000  O 
  O5       1.0000 0.68398  0.15322  0.27930  Biso   1.000  O 
  O6       1.0000 0.44663  0.03063  0.96502  Biso   1.000  O 
  O7       1.0000 0.43939  0.32183  0.02589  Biso   1.000  O 
  O8       1.0000 0.56888  0.40886  0.26045  Biso   1.000  O 
  Hf5      1.0000 0.33086  0.00554  0.61006  Biso   1.000  Hf
  Hf6      1.0000 0.27159  0.20033  0.88759  Biso   1.000  Hf
  Hf7      1.0000 0.83569  0.22411  0.64526  Biso   1.000  Hf
  Hf8      1.0000 0.84834  0.96721  0.87019  Biso   1.000  Hf
  O9       1.0000 0.13374  0.16442  0.52124  Biso   1.000  O 
  O10      1.0000 0.05296  0.07440  0.74597  Biso   1.000  O 
  O11      1.0000 0.13824  0.33510  0.74438  Biso   1.000  O 
  O12      1.0000 0.17388  0.41429  0.48869  Biso   1.000  O 
  O13      1.0000 0.55425  0.12721  0.75016  Biso   1.000  O 
  O14      1.0000 0.61925  0.09828  0.50869  Biso   1.000  O 
  O15      1.0000 0.65900  0.34937  0.50812  Biso   1.000  O 
  O16      1.0000 0.65146  0.37482  0.75681  Biso   1.000  O 
  Hf9      1.0000 0.29387  0.49798  0.12440  Biso   1.000  Hf
  Hf10     1.0000 0.34496  0.75198  0.38346  Biso   1.000  Hf
  Hf11     1.0000 0.78664  0.72728  0.11714  Biso   1.000  Hf
  Hf12     1.0000 0.86484  0.49071  0.38617  Biso   1.000  Hf
  O17      1.0000 0.17124  0.61137  0.98063  Biso   1.000  O 
  O18      1.0000 0.97458  0.57938  0.21884  Biso   1.000  O 
  O19      1.0000 0.06991  0.82520  0.24900  Biso   1.000  O 
  O20      1.0000 0.99008  0.88955  0.00194  Biso   1.000  O 
  O21      1.0000 0.47305  0.65203  0.22868  Biso   1.000  O 
  O22      1.0000 0.58253  0.57142  0.00761  Biso   1.000  O 
  O23      1.0000 0.61745  0.79185  0.98741  Biso   1.000  O 
  O24      1.0000 0.60594  0.88411  0.23895  Biso   1.000  O 
  Hf13     1.0000 0.40912  0.47535  0.63554  Biso   1.000  Hf
  Hf14     1.0000 0.34494  0.73342  0.84925  Biso   1.000  Hf
  Hf15     1.0000 0.83754  0.74122  0.61499  Biso   1.000  Hf
  Hf16     1.0000 0.91769  0.48417  0.85718  Biso   1.000  Hf
  O25      1.0000 0.04840  0.65511  0.46894  Biso   1.000  O 
  O26      1.0000 0.13634  0.59192  0.72427  Biso   1.000  O 
  O27      1.0000 0.05687  0.82911  0.75422  Biso   1.000  O 
  O28      1.0000 0.12028  0.89849  0.50141  Biso   1.000  O 
  O29      1.0000 0.63518  0.62394  0.75051  Biso   1.000  O 
  O30      1.0000 0.57324  0.60354  0.49761  Biso   1.000  O 
  O31      1.0000 0.61756  0.85572  0.48929  Biso   1.000  O 
  O32      1.0000 0.57099  0.87378  0.73751  Biso   1.000  O 
  Ir1      1.0000 0.28388  0.18499  0.14788  Biso   1.000  Ir
