data_image0
_cell_length_a       10.086
_cell_length_b       10.2719
_cell_length_c       5.26817
_cell_angle_alpha    90
_cell_angle_beta     90
_cell_angle_gamma    90

_symmetry_space_group_name_H-M    "P 1"
_symmetry_int_tables_number       1

loop_
  _symmetry_equiv_pos_as_xyz
  'x, y, z'

loop_
  _atom_site_label
  _atom_site_occupancy
  _atom_site_fract_x
  _atom_site_fract_y
  _atom_site_fract_z
  _atom_site_thermal_displace_type
  _atom_site_B_iso_or_equiv
  _atom_site_type_symbol
  Hf1      1.0000 0.13571  0.02089  0.34832  Biso   1.000  Hf
  Hf2      1.0000 0.13009  0.22956  0.85347  Biso   1.000  Hf
  Hf3      1.0000 0.34628  0.26904  0.36216  Biso   1.000  Hf
  Hf4      1.0000 0.35753  0.48306  0.84510  Biso   1.000  Hf
  Hf5      1.0000 0.64654  0.01500  0.14822  Biso   1.000  Hf
  Hf6      1.0000 0.63866  0.22874  0.62136  Biso   1.000  Hf
  Hf7      1.0000 0.85682  0.26937  0.15662  Biso   1.000  Hf
  Hf8      1.0000 0.86435  0.48348  0.66244  Biso   1.000  Hf
  O1       1.0000 0.02927  0.16320  0.16895  Biso   1.000  O 
  O2       1.0000 0.02959  0.08641  0.66574  Biso   1.000  O 
  O3       1.0000 0.45653  0.43819  0.19424  Biso   1.000  O 
  O4       1.0000 0.46697  0.34100  0.65215  Biso   1.000  O 
  O5       1.0000 0.26778  0.12704  0.60339  Biso   1.000  O 
  O6       1.0000 0.27018  0.12212  0.09824  Biso   1.000  O 
  O7       1.0000 0.21729  0.37689  0.60321  Biso   1.000  O 
  O8       1.0000 0.22320  0.37498  0.09603  Biso   1.000  O 
  O9       1.0000 0.50883  0.13477  0.36829  Biso   1.000  O 
  O10      1.0000 0.52770  0.09260  0.84658  Biso   1.000  O 
  O11      1.0000 0.96884  0.41416  0.33807  Biso   1.000  O 
  O12      1.0000 0.96013  0.33809  0.84236  Biso   1.000  O 
  O13      1.0000 0.77970  0.12175  0.89058  Biso   1.000  O 
  O14      1.0000 0.77843  0.12044  0.40174  Biso   1.000  O 
  O15      1.0000 0.71170  0.37620  0.91427  Biso   1.000  O 
  O16      1.0000 0.73479  0.38476  0.42458  Biso   1.000  O 
  Hf9      1.0000 0.13811  0.52097  0.34317  Biso   1.000  Hf
  Hf10     1.0000 0.13652  0.73116  0.84468  Biso   1.000  Hf
  Hf11     1.0000 0.36197  0.77332  0.34599  Biso   1.000  Hf
  Hf12     1.0000 0.35584  0.97973  0.85046  Biso   1.000  Hf
  Hf13     1.0000 0.64051  0.52792  0.16570  Biso   1.000  Hf
  Hf14     1.0000 0.63653  0.73154  0.65861  Biso   1.000  Hf
  Hf15     1.0000 0.86496  0.76976  0.15987  Biso   1.000  Hf
  Hf16     1.0000 0.86024  0.97800  0.65831  Biso   1.000  Hf
  O17      1.0000 0.03420  0.66264  0.16254  Biso   1.000  O 
  O18      1.0000 0.03269  0.58976  0.66099  Biso   1.000  O 
  O19      1.0000 0.47139  0.90744  0.15219  Biso   1.000  O 
  O20      1.0000 0.46739  0.84287  0.66029  Biso   1.000  O 
  O21      1.0000 0.27601  0.62538  0.59131  Biso   1.000  O 
  O22      1.0000 0.27662  0.62669  0.08914  Biso   1.000  O 
  O23      1.0000 0.22333  0.87543  0.59481  Biso   1.000  O 
  O24      1.0000 0.22523  0.87552  0.09504  Biso   1.000  O 
  O25      1.0000 0.53435  0.67027  0.33988  Biso   1.000  O 
  O26      1.0000 0.52955  0.58876  0.83881  Biso   1.000  O 
  O27      1.0000 0.96889  0.91185  0.33704  Biso   1.000  O 
  O28      1.0000 0.96551  0.83643  0.83920  Biso   1.000  O 
  O29      1.0000 0.77321  0.62578  0.91266  Biso   1.000  O 
  O30      1.0000 0.77664  0.62951  0.41354  Biso   1.000  O 
  O31      1.0000 0.72229  0.87382  0.91243  Biso   1.000  O 
  O32      1.0000 0.72632  0.87447  0.41308  Biso   1.000  O 
  Ir1      1.0000 0.56479  0.26433  0.10282  Biso   1.000  Ir
