data_image0
_cell_length_a       9.95378
_cell_length_b       5.16086
_cell_length_c       9.98754
_cell_angle_alpha    90
_cell_angle_beta     90
_cell_angle_gamma    90

_symmetry_space_group_name_H-M    "P 1"
_symmetry_int_tables_number       1

loop_
  _symmetry_equiv_pos_as_xyz
  'x, y, z'

loop_
  _atom_site_label
  _atom_site_occupancy
  _atom_site_fract_x
  _atom_site_fract_y
  _atom_site_fract_z
  _atom_site_thermal_displace_type
  _atom_site_B_iso_or_equiv
  _atom_site_type_symbol
  Ir1      1.0000 0.12973  0.03112  0.11221  Biso   1.000  Ir
  Hf1      1.0000 0.13917  0.47264  0.37391  Biso   1.000  Hf
  Hf2      1.0000 0.36771  0.54474  0.12984  Biso   1.000  Hf
  Hf3      1.0000 0.36798  0.98066  0.37635  Biso   1.000  Hf
  O1       1.0000 0.04262  0.34927  0.19322  Biso   1.000  O 
  O2       1.0000 0.03833  0.14330  0.44822  Biso   1.000  O 
  O3       1.0000 0.46781  0.87500  0.19598  Biso   1.000  O 
  O4       1.0000 0.46809  0.64238  0.44463  Biso   1.000  O 
  O5       1.0000 0.28938  0.28138  0.26099  Biso   1.000  O 
  O6       1.0000 0.27123  0.27090  0.50514  Biso   1.000  O 
  O7       1.0000 0.23343  0.77076  0.49978  Biso   1.000  O 
  O8       1.0000 0.22521  0.77203  0.24779  Biso   1.000  O 
  Hf4      1.0000 0.13607  0.04099  0.62809  Biso   1.000  Hf
  Hf5      1.0000 0.14025  0.47563  0.87852  Biso   1.000  Hf
  Hf6      1.0000 0.37009  0.54231  0.62602  Biso   1.000  Hf
  Hf7      1.0000 0.37270  0.97540  0.87723  Biso   1.000  Hf
  O9       1.0000 0.03780  0.37205  0.70098  Biso   1.000  O 
  O10      1.0000 0.03863  0.13764  0.94923  Biso   1.000  O 
  O11      1.0000 0.46735  0.87989  0.69342  Biso   1.000  O 
  O12      1.0000 0.46253  0.63177  0.94103  Biso   1.000  O 
  O13      1.0000 0.27392  0.24530  0.75410  Biso   1.000  O 
  O14      1.0000 0.26968  0.24754  0.00824  Biso   1.000  O 
  O15      1.0000 0.22621  0.75739  0.00244  Biso   1.000  O 
  O16      1.0000 0.23366  0.74358  0.75172  Biso   1.000  O 
  Hf8      1.0000 0.63640  0.03544  0.12686  Biso   1.000  Hf
  Hf9      1.0000 0.63744  0.47683  0.37349  Biso   1.000  Hf
  Hf10     1.0000 0.87136  0.52874  0.12429  Biso   1.000  Hf
  Hf11     1.0000 0.87508  0.97395  0.37426  Biso   1.000  Hf
  O17      1.0000 0.54492  0.38021  0.18767  Biso   1.000  O 
  O18      1.0000 0.53811  0.14257  0.44204  Biso   1.000  O 
  O19      1.0000 0.97172  0.85796  0.19077  Biso   1.000  O 
  O20      1.0000 0.96879  0.63845  0.44483  Biso   1.000  O 
  O21      1.0000 0.77451  0.23869  0.24879  Biso   1.000  O 
  O22      1.0000 0.77299  0.27341  0.49803  Biso   1.000  O 
  O23      1.0000 0.73487  0.77408  0.49755  Biso   1.000  O 
  O24      1.0000 0.73841  0.74079  0.24813  Biso   1.000  O 
  Hf12     1.0000 0.63543  0.04069  0.62304  Biso   1.000  Hf
  Hf13     1.0000 0.63737  0.47287  0.87582  Biso   1.000  Hf
  Hf14     1.0000 0.87011  0.53811  0.62462  Biso   1.000  Hf
  Hf15     1.0000 0.86782  0.97045  0.87424  Biso   1.000  Hf
  O25      1.0000 0.53982  0.37767  0.69374  Biso   1.000  O 
  O26      1.0000 0.54170  0.13448  0.94276  Biso   1.000  O 
  O27      1.0000 0.96781  0.87445  0.69416  Biso   1.000  O 
  O28      1.0000 0.96744  0.63665  0.94111  Biso   1.000  O 
  O29      1.0000 0.77214  0.24112  0.74829  Biso   1.000  O 
  O30      1.0000 0.77656  0.27010  0.99808  Biso   1.000  O 
  O31      1.0000 0.73309  0.76896  0.99888  Biso   1.000  O 
  O32      1.0000 0.73307  0.74149  0.74861  Biso   1.000  O 
