data_image0
_cell_length_a       5.03861
_cell_length_b       10.2263
_cell_length_c       10.058
_cell_angle_alpha    90
_cell_angle_beta     90
_cell_angle_gamma    90

_symmetry_space_group_name_H-M    "P 1"
_symmetry_int_tables_number       1

loop_
  _symmetry_equiv_pos_as_xyz
  'x, y, z'

loop_
  _atom_site_label
  _atom_site_occupancy
  _atom_site_fract_x
  _atom_site_fract_y
  _atom_site_fract_z
  _atom_site_thermal_displace_type
  _atom_site_B_iso_or_equiv
  _atom_site_type_symbol
  Ir1      1.0000 0.23022  0.04347  0.13726  Biso   1.000  Ir
  Hf1      1.0000 0.16615  0.25234  0.38230  Biso   1.000  Hf
  Hf2      1.0000 0.71748  0.24389  0.12877  Biso   1.000  Hf
  Hf3      1.0000 0.61121  0.99986  0.38384  Biso   1.000  Hf
  O1       1.0000 0.02599  0.15662  0.00163  Biso   1.000  O 
  O2       1.0000 0.93155  0.09158  0.25125  Biso   1.000  O 
  O3       1.0000 0.03374  0.33886  0.21271  Biso   1.000  O 
  O4       1.0000 0.94939  0.42432  0.96086  Biso   1.000  O 
  O5       1.0000 0.45186  0.16054  0.26134  Biso   1.000  O 
  O6       1.0000 0.55171  0.07118  0.03332  Biso   1.000  O 
  O7       1.0000 0.45102  0.33254  0.96408  Biso   1.000  O 
  O8       1.0000 0.53088  0.41045  0.21687  Biso   1.000  O 
  Hf4      1.0000 0.11979  0.99718  0.64659  Biso   1.000  Hf
  Hf5      1.0000 0.12572  0.26871  0.85442  Biso   1.000  Hf
  Hf6      1.0000 0.62651  0.24094  0.62542  Biso   1.000  Hf
  Hf7      1.0000 0.62211  0.99963  0.89139  Biso   1.000  Hf
  O9       1.0000 0.87252  0.16568  0.48561  Biso   1.000  O 
  O10      1.0000 0.90503  0.11501  0.74762  Biso   1.000  O 
  O11      1.0000 0.88327  0.36489  0.71982  Biso   1.000  O 
  O12      1.0000 0.97129  0.41747  0.46280  Biso   1.000  O 
  O13      1.0000 0.40448  0.14186  0.76579  Biso   1.000  O 
  O14      1.0000 0.38152  0.10769  0.50931  Biso   1.000  O 
  O15      1.0000 0.46300  0.35562  0.47642  Biso   1.000  O 
  O16      1.0000 0.37899  0.39513  0.72759  Biso   1.000  O 
  Hf8      1.0000 0.21432  0.50425  0.12532  Biso   1.000  Hf
  Hf9      1.0000 0.16126  0.75261  0.36473  Biso   1.000  Hf
  Hf10     1.0000 0.72596  0.74392  0.12410  Biso   1.000  Hf
  Hf11     1.0000 0.66221  0.51432  0.37599  Biso   1.000  Hf
  O17      1.0000 0.01077  0.65783  0.01251  Biso   1.000  O 
  O18      1.0000 0.94730  0.59808  0.24998  Biso   1.000  O 
  O19      1.0000 0.82063  0.83878  0.29467  Biso   1.000  O 
  O20      1.0000 0.96416  0.91240  0.03913  Biso   1.000  O 
  O21      1.0000 0.43144  0.65527  0.24446  Biso   1.000  O 
  O22      1.0000 0.40636  0.59429  0.99668  Biso   1.000  O 
  O23      1.0000 0.41025  0.84248  0.98565  Biso   1.000  O 
  O24      1.0000 0.32418  0.91605  0.26129  Biso   1.000  O 
  Hf12     1.0000 0.12939  0.51782  0.61789  Biso   1.000  Hf
  Hf13     1.0000 0.15508  0.74493  0.87376  Biso   1.000  Hf
  Hf14     1.0000 0.63876  0.76153  0.62808  Biso   1.000  Hf
  Hf15     1.0000 0.62482  0.49548  0.86052  Biso   1.000  Hf
  O25      1.0000 0.89825  0.66234  0.50231  Biso   1.000  O 
  O26      1.0000 0.88229  0.61308  0.74734  Biso   1.000  O 
  O27      1.0000 0.88361  0.85998  0.77726  Biso   1.000  O 
  O28      1.0000 0.82800  0.91907  0.53610  Biso   1.000  O 
  O29      1.0000 0.38507  0.64250  0.74561  Biso   1.000  O 
  O30      1.0000 0.40204  0.61175  0.49581  Biso   1.000  O 
  O31      1.0000 0.35375  0.85670  0.50764  Biso   1.000  O 
  O32      1.0000 0.38970  0.89434  0.75089  Biso   1.000  O 
